data_PCOD8004505
_publ_section_title
;
Structure prediction by ZEFSAII (Michael W. Deem and Ramdas Pophale) SiO2 
 PCOD8004505
Probable space group: P -1
;
_chemical_formula_sum "Si O2"
_cell_formula_units_Z 16
_cell_length_a 12.320889
_cell_length_b 14.559411
_cell_length_c 9.617992
_cell_angle_alpha 37.666682
_cell_angle_beta 123.414550
_cell_angle_gamma 102.342368
_cell_volume 792.159412
_symmetry_space_group_name_H-M "P -1"
_symmetry_group_IT_number 2
_symmetry_cell_setting 'triclinic'
loop_
_space_group_symop_operation_xyz
x,y,z
-x,-y,-z
loop_
_atom_site_type_symbol
_atom_site_label
_atom_site_fract_x
_atom_site_fract_y
_atom_site_fract_z
Si Si1 0.622103 0.520770 0.750486
Si Si2 0.648870 0.837695 0.272149
Si Si3 0.181645 0.782154 0.919498
Si Si4 0.692273 0.267153 0.639398
Si Si5 0.314085 0.176207 0.247903
Si Si6 0.868504 0.861044 0.604019
Si Si7 0.375045 0.021823 0.190113
Si Si8 0.658870 0.491353 0.117461
O O1 0.643823 0.673377 0.520485
O O2 0.453011 0.581732 0.585301
O O3 0.678302 0.370304 0.861213
O O4 0.711616 0.458967 0.032875
O O5 0.784289 0.851447 0.419986
O O6 0.500000 0.000000 0.000000
O O7 0.673939 0.827529 0.136032
O O8 0.039719 0.750883 0.834212
O O9 0.163839 0.946358 0.626580
O O10 0.197539 0.803445 0.070609
O O11 0.660939 0.123076 0.721401
O O12 0.755805 0.343667 0.469958
O O13 0.176946 0.211643 0.205465
O O14 0.453346 0.048328 0.583569
O O15 0.292494 0.093785 0.189517
O O16 0.335545 0.339822 0.029564
O O17 0.500000 0.500000 0.000000
#
# Coordination Sequence:
#
# PCOD8004505 Si02
#       8
#     2   2   2   2   2   2   2   2
#     4  11  22  38  64  95 121 163 205 263 315 356
#     4  12  19  40  65  91 121 157 206 263 306 363
#     4  11  26  40  62  92 123 173 207 255 310 361
#     4  11  21  40  59  94 129 157 208 258 305 373
#     4  11  22  39  62  92 124 163 203 254 317 364
#     4  11  23  45  63  84 131 164 213 256 302 375
#     4  11  22  35  65  94 120 162 203 255 313 367
#     4  10  20  38  59  91 129 153 197 261 310 363
#
# _framework density 20.197955
#
# number of rings (size 3 to 8) (size 9 to 14) (size 15 to 20)
#    0.000    1.000    7.500    0.375    3.500    1.500 
#    0.000    2.500    0.000    0.000    0.000    0.000 
#    0.000    0.000    0.000    0.000    0.000    0.000 
#
# Total GULP energy -198384.545613 kJ/mol
# GULP energy per Si atom -12399.034101 kJ/mol
# Density = 2.015198 g / cm^3
# Si number density = 20.197955 Si / 1000 Ang^3
#
#
#
# Elastic Constant Matrix: (Units=GPa)
#
#
# Indices 1 2 3 4 5 6 
#
# 1 71.0765 28.1615 44.9241 4.6044 -24.6701 7.1419
# 2 28.1615 93.2163 36.4126 14.9058 -8.8905 -7.3588
# 3 44.9241 36.4126 86.3198 13.0857 -29.5595 -1.8950
# 4 4.6044 14.9058 13.0857 36.4012 2.5815 -4.7831
# 5 -24.6701 -8.8905 -29.5595 2.5815 37.2342 5.6595
# 6 7.1419 -7.3588 -1.8950 -4.7831 5.6595 23.7570
#
#
#
# Elastic Compliance Matrix: (Units=1/GPa)
#
#
# Indices 1 2 3 4 5 6 
#
# 1 0.026497 -0.004666 -0.007636 -0.001324 0.012487 -0.013262
# 2 -0.004666 0.014392 -0.004445 -0.002653 -0.003897 0.005901
# 3 -0.007636 -0.004445 0.022687 -0.006468 0.012577 -0.001570
# 4 -0.001324 -0.002653 -0.006468 0.032834 -0.010151 0.008089
# 5 0.012487 -0.003897 0.012577 -0.010151 0.047522 -0.017323
# 6 -0.013262 0.005901 -0.001570 0.008089 -0.017323 0.053537
#
#
# Mechanical properties :
#
#
# Convention : Reuss Voigt Hill
#
# Bulk Modulus (GPa) = 33.24357 52.17877 42.71117
# Shear Modulus (GPa) = 20.74762 28.88611 24.81687
#
# Velocity S-wave (km/s) = 3.20849 3.78584 3.50906
# Velocity P-wave (km/s) = 5.49732 6.70819 6.13271
#
# Compressibility (1/GPa) = 0.03008101
#
# Stress axis : x y z
#
# Youngs Moduli (GPa) = 37.73997 69.48106 44.07816
#
# Poissons Ratio (x) = 0.32423 0.33657
# Poissons Ratio (y) = 0.17611 0.19595
# Poissons Ratio (z) = 0.28818 0.30887
#
# Static dielectric constant tensor:
#      x y z
#    x 3.716550 -0.105410 -0.457020 
#    y -0.105410 3.773440 0.175190 
#    z -0.457020 0.175190 4.081760 
# 
# 
# High freq. dielectric constant tensor:
#      x y z
#    x 1.768640 0.004170 -0.035930 
#    y 0.004170 1.790050 0.011800 
#    z -0.035930 0.011800 1.786440 
# 
# From -- ./inp_files/244725.got.cif
#   From: 2010.06.25/outbox.cif.g09.slc.cpg/sg2_123_cif.got.tgz:244725.got - 2010.06.27 13:26:56.
