data_PCOD8004458
_publ_section_title
;
Structure prediction by ZEFSAII (Michael W. Deem and Ramdas Pophale) SiO2 
 PCOD8004458
Probable space group: P -1
;
_chemical_formula_sum "Si O2"
_cell_formula_units_Z 14
_cell_length_a 8.674797
_cell_length_b 21.095220
_cell_length_c 18.086170
_cell_angle_alpha 20.158274
_cell_angle_beta 130.581550
_cell_angle_gamma 139.510771
_cell_volume 710.220361
_symmetry_space_group_name_H-M "P -1"
_symmetry_group_IT_number 2
_symmetry_cell_setting 'triclinic'
loop_
_space_group_symop_operation_xyz
x,y,z
-x,-y,-z
loop_
_atom_site_type_symbol
_atom_site_label
_atom_site_fract_x
_atom_site_fract_y
_atom_site_fract_z
Si Si1 0.348409 0.045700 0.847146
Si Si2 0.748290 0.290241 0.319869
Si Si3 0.753589 0.448394 0.443197
Si Si4 0.290156 0.141588 0.248630
Si Si5 0.886701 0.207158 0.093897
Si Si6 0.397288 0.873315 0.385033
Si Si7 0.164133 0.127115 0.063930
O O1 0.521415 0.290893 0.596561
O O2 0.238227 0.855832 0.957143
O O3 0.129473 0.034230 0.834977
O O4 0.500000 0.000000 0.000000
O O5 0.561847 0.295298 0.200263
O O6 0.615623 0.211950 0.443363
O O7 0.813214 0.120921 0.495874
O O8 0.002305 0.534707 0.137070
O O9 0.720730 0.336282 0.476661
O O10 0.000000 0.500000 0.500000
O O11 0.771440 0.675258 0.188056
O O12 0.311490 0.227252 0.077618
O O13 0.100809 0.164869 0.211520
O O14 0.685289 0.058626 0.255929
O O15 0.241551 0.979624 0.209546
#
# Coordination Sequence:
#
# PCOD8004458 Si02
#       7
#     2   2   2   2   2   2   2
#     4  10  20  38  59  83 112 151 193 235 283 342
#     4  10  20  39  61  85 118 152 190 233 292 330
#     4  11  22  38  60  81 114 152 188 236 292 328
#     4   9  20  38  61  86 117 152 189 238 280 346
#     4  10  21  36  58  83 118 151 189 238 284 337
#     4  10  23  37  57  88 114 149 196 235 274 351
#     4  10  21  40  59  81 119 150 188 239 283 336
#
# _framework density 19.712191000000001
#
# number of rings (size 3 to 8) (size 9 to 14) (size 15 to 20)
#    0.000    2.000    1.429    2.143    0.000    5.714 
#    0.000   10.000    0.000    0.000    0.000    0.000 
#    0.000    0.000    0.000    0.000    0.000    0.000 
#
# Total GULP energy -173650.799630 kJ/mol
# GULP energy per Si atom -12403.628545 kJ/mol
# Density = 1.966733 g / cm^3
# Si number density = 19.712191 Si / 1000 Ang^3
#
#
#
# Elastic Constant Matrix: (Units=GPa)
#
#
# Indices 1 2 3 4 5 6 
#
# 1 57.0243 -6.9517 14.4914 -1.8577 -3.4199 5.1097
# 2 -6.9517 83.3006 29.1008 5.1908 -6.0054 12.7174
# 3 14.4914 29.1008 81.4195 -1.2470 -8.9902 7.6487
# 4 -1.8577 5.1908 -1.2470 40.2600 3.3108 1.7020
# 5 -3.4199 -6.0054 -8.9902 3.3108 29.6826 -0.1865
# 6 5.1097 12.7174 7.6487 1.7020 -0.1865 19.9148
#
#
#
# Elastic Compliance Matrix: (Units=1/GPa)
#
#
# Indices 1 2 3 4 5 6 
#
# 1 0.019788 0.004172 -0.004237 0.000358 0.001762 -0.006128
# 2 0.004172 0.015866 -0.005354 -0.001822 0.002216 -0.008970
# 3 -0.004237 -0.005354 0.015431 0.000787 0.003005 -0.001459
# 4 0.000358 -0.001822 0.000787 0.025416 -0.002933 -0.001430
# 5 0.001762 0.002216 0.003005 -0.002933 0.035563 -0.002438
# 6 -0.006128 -0.008970 -0.001459 -0.001430 -0.002438 0.058174
#
#
# Mechanical properties :
#
#
# Convention : Reuss Voigt Hill
#
# Bulk Modulus (GPa) = 24.84695 32.78061 28.81378
# Shear Modulus (GPa) = 25.70793 30.31173 28.00983
#
# Velocity S-wave (km/s) = 3.61524 3.92563 3.77362
# Velocity P-wave (km/s) = 5.48259 6.10025 5.79965
#
# Compressibility (1/GPa) = 0.04024639
#
# Stress axis : x y z
#
# Youngs Moduli (GPa) = 50.53499 63.02816 64.80524
#
# Poissons Ratio (x) = -0.26295 0.27461
# Poissons Ratio (y) = -0.21083 0.34696
# Poissons Ratio (z) = 0.21414 0.33745
#
# Static dielectric constant tensor:
#      x y z
#    x 3.652000 0.035800 0.007530 
#    y 0.035800 3.768060 -0.060000 
#    z 0.007530 -0.060000 3.662730 
# 
# 
# High freq. dielectric constant tensor:
#      x y z
#    x 1.764950 0.004060 0.001250 
#    y 0.004060 1.774930 0.003280 
#    z 0.001250 0.003280 1.767900 
# 
# From -- ./inp_files/197679.got.cif
#   From: 2010.06.25/outbox.cif.g09.slc.cpg/sg2_99_cif.got.tgz:197679.got - 2010.06.27 13:26:56.
