data_PCOD8004017
_publ_section_title
;
Structure prediction by ZEFSAII (Michael W. Deem and Ramdas Pophale) SiO2 
 PCOD8004017
Probable space group: P -1
;
_chemical_formula_sum "Si O2"
_cell_formula_units_Z 14
_cell_length_a 17.897032
_cell_length_b 9.850306
_cell_length_c 20.949462
_cell_angle_alpha 36.972972
_cell_angle_beta 159.480001
_cell_angle_gamma 130.083429
_cell_volume 676.605857
_symmetry_space_group_name_H-M "P -1"
_symmetry_group_IT_number 2
_symmetry_cell_setting 'triclinic'
loop_
_space_group_symop_operation_xyz
x,y,z
-x,-y,-z
loop_
_atom_site_type_symbol
_atom_site_label
_atom_site_fract_x
_atom_site_fract_y
_atom_site_fract_z
Si Si1 0.427436 0.898324 0.794887
Si Si2 0.574611 0.406737 0.437158
Si Si3 0.301402 0.001865 0.207656
Si Si4 0.358567 0.806153 0.559616
Si Si5 0.419322 0.529065 0.021288
Si Si6 0.216727 0.915761 0.027435
Si Si7 0.958921 0.557496 0.693412
O O1 0.417885 0.707394 0.806875
O O2 0.672186 0.920381 0.978650
O O3 0.417812 0.788730 0.898748
O O4 0.183714 0.174245 0.482311
O O5 0.732148 0.170009 0.700902
O O6 0.502738 0.299642 0.357828
O O7 0.341850 0.626317 0.206758
O O8 0.749242 0.514468 0.508412
O O9 0.267880 0.905810 0.147723
O O10 0.568358 0.984364 0.433140
O O11 0.112328 0.307364 0.955359
O O12 0.455613 0.554798 0.777789
O O13 0.068434 0.947572 0.266534
O O14 0.141131 0.577065 0.780864
#
# Coordination Sequence:
#
# PCOD8004017 Si02
#       7
#     2   2   2   2   2   2   2
#     4  10  20  39  65  89 119 165 197 252 307 359
#     4  11  23  40  63  90 126 163 200 252 305 353
#     4  11  22  43  63  88 127 165 200 249 303 358
#     4  11  23  40  60  92 126 155 206 256 293 363
#     4  10  21  39  62  92 123 155 206 249 307 358
#     4  11  23  42  61  91 127 158 208 247 297 369
#     4  10  20  37  63  88 122 154 207 243 298 363
#
# _framework density 20.691514999999999
#
# number of rings (size 3 to 8) (size 9 to 14) (size 15 to 20)
#    0.000    1.429    4.286    1.714    0.000    3.429 
#    0.000    2.857    0.000    0.000    0.000    0.000 
#    0.000    0.000    0.000    0.000    0.000    0.000 
#
# Total GULP energy -173528.855379 kJ/mol
# GULP energy per Si atom -12394.918241 kJ/mol
# Density = 2.064442 g / cm^3
# Si number density = 20.691515 Si / 1000 Ang^3
#
#
#
# Elastic Constant Matrix: (Units=GPa)
#
#
# Indices 1 2 3 4 5 6 
#
# 1 105.4631 31.8155 50.7278 1.7457 -7.2706 3.1872
# 2 31.8155 64.5766 51.3128 -5.3466 3.4905 0.7856
# 3 50.7278 51.3128 114.5978 -5.6697 7.7961 -16.0822
# 4 1.7457 -5.3466 -5.6697 36.9132 -2.2086 0.3160
# 5 -7.2706 3.4905 7.7961 -2.2086 27.3978 -2.4363
# 6 3.1872 0.7856 -16.0822 0.3160 -2.4363 32.2380
#
#
#
# Elastic Compliance Matrix: (Units=1/GPa)
#
#
# Indices 1 2 3 4 5 6 
#
# 1 0.013514 -0.002327 -0.005900 -0.001545 0.005097 -0.003822
# 2 -0.002327 0.025862 -0.011228 0.002118 -0.001090 -0.006104
# 3 -0.005900 -0.011228 0.018050 0.001084 -0.004337 0.009523
# 4 -0.001545 0.002118 0.001084 0.027710 0.001287 0.000468
# 5 0.005097 -0.001090 -0.004337 0.001287 0.039357 0.000321
# 6 -0.003822 -0.006104 0.009523 0.000468 0.000321 0.036316
#
#
# Mechanical properties :
#
#
# Convention : Reuss Voigt Hill
#
# Bulk Modulus (GPa) = 54.00323 61.37221 57.68772
# Shear Modulus (GPa) = 24.28455 29.36188 26.82322
#
# Velocity S-wave (km/s) = 3.42957 3.77109 3.60438
# Velocity P-wave (km/s) = 6.46827 6.97757 6.72774
#
# Compressibility (1/GPa) = 0.01851741
#
# Stress axis : x y z
#
# Youngs Moduli (GPa) = 73.99555 38.66650 55.40066
#
# Poissons Ratio (x) = 0.08998 0.32686
# Poissons Ratio (y) = 0.17219 0.62203
# Poissons Ratio (z) = 0.43656 0.43414
#
# Static dielectric constant tensor:
#      x y z
#    x 3.829820 0.130520 0.099350 
#    y 0.130520 3.909070 -0.121530 
#    z 0.099350 -0.121530 3.782460 
# 
# 
# High freq. dielectric constant tensor:
#      x y z
#    x 1.804260 0.011890 0.012030 
#    y 0.011890 1.808590 -0.006820 
#    z 0.012030 -0.006820 1.805510 
# 
# From -- ./inp_files/313950.got.cif
#   From: 2010.06.25/outbox.cif.g09.slc.cpg/sg2_157_cif.got.tgz:313950.got - 2010.06.27 13:26:56.
