data_PCOD8004246
_publ_section_title
;
Structure prediction by ZEFSAII (Michael W. Deem and Ramdas Pophale) SiO2 
 PCOD8004246
Probable space group: P -1
;
_chemical_formula_sum "Si O2"
_cell_formula_units_Z 16
_cell_length_a 8.156694
_cell_length_b 16.825540
_cell_length_c 8.772621
_cell_angle_alpha 139.749804
_cell_angle_beta 115.297490
_cell_angle_gamma 87.766197
_cell_volume 612.464691
_symmetry_space_group_name_H-M "P -1"
_symmetry_group_IT_number 2
_symmetry_cell_setting 'triclinic'
loop_
_space_group_symop_operation_xyz
x,y,z
-x,-y,-z
loop_
_atom_site_type_symbol
_atom_site_label
_atom_site_fract_x
_atom_site_fract_y
_atom_site_fract_z
Si Si1 0.989681 0.314038 0.230439
Si Si2 0.684593 0.417518 0.803798
Si Si3 0.348748 0.828059 0.362087
Si Si4 0.562458 0.483936 0.332482
Si Si5 0.169085 0.931297 0.685451
Si Si6 0.925869 0.344255 0.573958
Si Si7 0.829713 0.860014 0.809760
Si Si8 0.702818 0.810297 0.366307
O O1 0.867685 0.323539 0.342811
O O2 0.192684 0.466541 0.502662
O O3 0.064226 0.200708 0.125094
O O4 0.846310 0.269564 0.962023
O O5 0.626953 0.275697 0.662145
O O6 0.476860 0.413418 0.648776
O O7 0.819141 0.428830 0.724161
O O8 0.822711 0.559484 0.164301
O O9 0.298679 0.938749 0.594471
O O10 0.569381 0.896759 0.455058
O O11 0.500000 0.500000 0.500000
O O12 0.429095 0.324316 0.989067
O O13 0.151480 0.806662 0.601783
O O14 0.931493 0.901908 0.514513
O O15 0.294264 0.082486 0.045533
O O16 0.710846 0.760125 0.471235
O O17 0.000000 0.000000 0.000000
#
# Coordination Sequence:
#
# PCOD8004246 Si02
#       8
#     2   2   2   2   2   2   2   2
#     4  12  24  40  66 102 130 176 224 274 333 401
#     4  10  22  39  61  92 133 179 208 272 336 390
#     4  11  26  40  65 103 138 171 225 276 337 403
#     4  12  26  41  65  99 140 175 224 274 335 407
#     4  10  21  45  69  95 132 179 224 279 330 393
#     4  10  20  37  66  90 131 173 222 266 328 394
#     4  10  21  43  75  93 128 181 228 277 333 394
#     4  11  22  43  67  96 131 178 221 271 340 393
#
# _framework density 26.123954000000001
#
# number of rings (size 3 to 8) (size 9 to 14) (size 15 to 20)
#    0.000    1.250    3.750    2.250    5.250    3.500 
#    0.000    2.500    0.000    0.000    0.000    0.000 
#    0.000    0.000    0.000    0.000    0.000    0.000 
#
# Total GULP energy -198258.597968 kJ/mol
# GULP energy per Si atom -12391.162373 kJ/mol
# Density = 2.606450 g / cm^3
# Si number density = 26.123954 Si / 1000 Ang^3
#
#
#
# Elastic Constant Matrix: (Units=GPa)
#
#
# Indices 1 2 3 4 5 6 
#
# 1 145.3008 4.0460 40.1906 -16.3030 -21.1313 -7.0965
# 2 4.0460 18.0772 4.0502 -7.2640 -0.6358 -4.6464
# 3 40.1906 4.0502 110.8010 -17.5760 -35.8018 0.2888
# 4 -16.3030 -7.2640 -17.5760 31.4027 -4.5099 -4.3895
# 5 -21.1313 -0.6358 -35.8018 -4.5099 54.3531 -3.2573
# 6 -7.0965 -4.6464 0.2888 -4.3895 -3.2573 29.7908
#
#
#
# Elastic Compliance Matrix: (Units=1/GPa)
#
#
# Indices 1 2 3 4 5 6 
#
# 1 0.008343 0.001269 -0.001386 0.004719 0.002930 0.003214
# 2 0.001269 0.066329 0.001791 0.019678 0.004925 0.014068
# 3 -0.001386 0.001791 0.014033 0.009243 0.009626 0.002228
# 4 0.004719 0.019678 0.009243 0.047617 0.012855 0.012525
# 5 0.002930 0.004925 0.009626 0.012855 0.027377 0.006260
# 6 0.003214 0.014068 0.002228 0.012525 0.006260 0.039036
#
#
# Mechanical properties :
#
#
# Convention : Reuss Voigt Hill
#
# Bulk Modulus (GPa) = 10.86316 41.19473 26.02895
# Shear Modulus (GPa) = 21.73245 38.16881 29.95063
#
# Velocity S-wave (km/s) = 2.88739 3.82654 3.38965
# Velocity P-wave (km/s) = 3.90940 5.94360 5.03039
#
# Compressibility (1/GPa) = 0.09205421
#
# Stress axis : x y z
#
# Youngs Moduli (GPa) = 119.86367 15.07629 71.26013
#
# Poissons Ratio (x) = -0.01913 0.09874
# Poissons Ratio (y) = -0.15208 -0.12765
# Poissons Ratio (z) = 0.16609 -0.02701
#
# Static dielectric constant tensor:
#      x y z
#    x 5.623010 -0.207010 -0.220540 
#    y -0.207010 4.551070 -0.229760 
#    z -0.220540 -0.229760 5.184460 
# 
# 
# High freq. dielectric constant tensor:
#      x y z
#    x 2.063670 -0.010540 -0.013650 
#    y -0.010540 2.018920 -0.008430 
#    z -0.013650 -0.008430 2.054750 
# 
# From -- ./inp_files/218979.got.cif
#   From: 2010.06.25/outbox.cif.g09.slc.cpg/sg2_110_cif.got.tgz:218979.got - 2010.06.27 13:26:56.
