data_PCOD8004231
_publ_section_title
;
Structure prediction by ZEFSAII (Michael W. Deem and Ramdas Pophale) SiO2 
 PCOD8004231
Probable space group: P -1
;
_chemical_formula_sum "Si O2"
_cell_formula_units_Z 16
_cell_length_a 8.197501
_cell_length_b 9.360156
_cell_length_c 23.595313
_cell_angle_alpha 130.421241
_cell_angle_beta 151.854732
_cell_angle_gamma 49.754695
_cell_volume 636.078416
_symmetry_space_group_name_H-M "P -1"
_symmetry_group_IT_number 2
_symmetry_cell_setting 'triclinic'
loop_
_space_group_symop_operation_xyz
x,y,z
-x,-y,-z
loop_
_atom_site_type_symbol
_atom_site_label
_atom_site_fract_x
_atom_site_fract_y
_atom_site_fract_z
Si Si1 0.696487 0.223958 0.599639
Si Si2 0.761770 0.497072 0.026256
Si Si3 0.099779 0.919053 0.571233
Si Si4 0.978805 0.883140 0.213360
Si Si5 0.779943 0.893990 0.946004
Si Si6 0.138142 0.057002 0.194722
Si Si7 0.835053 0.493036 0.232193
Si Si8 0.809457 0.495309 0.547446
O O1 0.300172 0.323837 0.482610
O O2 0.727675 0.192210 0.668191
O O3 0.956235 0.360006 0.694592
O O4 0.801525 0.014544 0.549102
O O5 0.569189 0.450232 0.897366
O O6 0.500000 0.500000 0.000000
O O7 0.862759 0.701074 0.103201
O O8 0.115912 0.331244 0.095871
O O9 0.464776 0.979269 0.717470
O O10 0.131780 0.691403 0.521927
O O11 0.000000 0.000000 0.500000
O O12 0.637670 0.030896 0.171972
O O13 0.161266 0.992535 0.250627
O O14 0.000000 0.000000 0.000000
O O15 0.887920 0.939553 0.054715
O O16 0.987915 0.282298 0.201151
O O17 0.848170 0.497610 0.306642
O O18 0.500000 0.500000 0.500000
#
# Coordination Sequence:
#
# PCOD8004231 Si02
#       8
#     2   2   2   2   2   2   2   2
#     4  11  22  41  69  94 131 178 229 273 334 409
#     4  12  23  41  69  99 133 182 228 274 331 417
#     4  12  21  40  72 101 126 175 240 278 326 411
#     4  12  27  45  63 103 147 176 217 286 352 397
#     4  12  24  43  69  99 131 184 233 268 328 410
#     4  12  25  42  67 102 144 173 219 292 345 395
#     4  11  19  40  67  93 128 175 227 276 324 400
#     4  10  20  37  66 102 120 169 235 284 318 387
#
# _framework density 25.154131
#
# number of rings (size 3 to 8) (size 9 to 14) (size 15 to 20)
#    0.000    0.500    8.750    1.875    0.000    1.500 
#    2.250    2.500    0.000    1.500    0.000    0.000 
#    0.000    0.000    0.000    0.000    0.000    0.000 
#
# Total GULP energy -198427.652223 kJ/mol
# GULP energy per Si atom -12401.728264 kJ/mol
# Density = 2.509688 g / cm^3
# Si number density = 25.154131 Si / 1000 Ang^3
#
#
#
# Elastic Constant Matrix: (Units=GPa)
#
#
# Indices 1 2 3 4 5 6 
#
# 1 56.1728 31.7729 18.2801 -5.6180 -21.2675 0.3525
# 2 31.7729 155.5563 21.0906 -6.4810 -6.2348 -20.1449
# 3 18.2801 21.0906 91.4146 -18.0532 -24.6460 5.6625
# 4 -5.6180 -6.4810 -18.0532 42.5181 5.9081 -17.2929
# 5 -21.2675 -6.2348 -24.6460 5.9081 33.8242 -6.2383
# 6 0.3525 -20.1449 5.6625 -17.2929 -6.2383 28.3895
#
#
#
# Elastic Compliance Matrix: (Units=1/GPa)
#
#
# Indices 1 2 3 4 5 6 
#
# 1 0.026489 -0.004748 0.000201 0.000740 0.015833 0.000192
# 2 -0.004748 0.008784 -0.001202 0.003887 -0.001334 0.008607
# 3 0.000201 -0.001202 0.014871 0.005453 0.010106 0.001720
# 4 0.000740 0.003887 0.005453 0.035938 0.003358 0.024290
# 5 0.015833 -0.001334 0.010106 0.003358 0.047782 0.009387
# 6 0.000192 0.008607 0.001720 0.024290 0.009387 0.057844
#
#
# Mechanical properties :
#
#
# Convention : Reuss Voigt Hill
#
# Bulk Modulus (GPa) = 25.87472 49.49233 37.68352
# Shear Modulus (GPa) = 23.13862 36.41304 29.77583
#
# Velocity S-wave (km/s) = 3.03623 3.80886 3.44428
# Velocity P-wave (km/s) = 4.75399 6.24992 5.55256
#
# Compressibility (1/GPa) = 0.03864777
#
# Stress axis : x y z
#
# Youngs Moduli (GPa) = 37.75085 113.83889 67.24393
#
# Poissons Ratio (x) = 0.54046 -0.01353
# Poissons Ratio (y) = 0.17922 0.08085
# Poissons Ratio (z) = -0.00760 0.13687
#
# Static dielectric constant tensor:
#      x y z
#    x 4.488810 -0.249920 -0.829350 
#    y -0.249920 5.119580 -0.082060 
#    z -0.829350 -0.082060 5.746670 
# 
# 
# High freq. dielectric constant tensor:
#      x y z
#    x 1.968520 -0.001860 -0.018250 
#    y -0.001860 2.024420 -0.007800 
#    z -0.018250 -0.007800 2.007060 
# 
# From -- ./inp_files/606836.got.cif
#   From: 2010.06.25/outbox.cif.g09.slc.cpg/sg2_304_cif.got.tgz:606836.got - 2010.06.27 13:26:56.
