data_PCOD8004501
_publ_section_title
;
Structure prediction by ZEFSAII (Michael W. Deem and Ramdas Pophale) SiO2 
 PCOD8004501
Probable space group: P -1
;
_chemical_formula_sum "Si O2"
_cell_formula_units_Z 16
_cell_length_a 13.825401
_cell_length_b 20.703027
_cell_length_c 11.660308
_cell_angle_alpha 136.926389
_cell_angle_beta 29.731598
_cell_angle_gamma 150.612547
_cell_volume 807.524968
_symmetry_space_group_name_H-M "P -1"
_symmetry_group_IT_number 2
_symmetry_cell_setting 'triclinic'
loop_
_space_group_symop_operation_xyz
x,y,z
-x,-y,-z
loop_
_atom_site_type_symbol
_atom_site_label
_atom_site_fract_x
_atom_site_fract_y
_atom_site_fract_z
Si Si1 0.225222 0.865010 0.662690
Si Si2 0.897915 0.744548 0.270812
Si Si3 0.833682 0.741053 0.711187
Si Si4 0.282146 0.959405 0.977156
Si Si5 0.439652 0.466538 0.843328
Si Si6 0.925853 0.581920 0.649403
Si Si7 0.303128 0.173724 0.241176
Si Si8 0.816934 0.237998 0.795633
O O1 0.192094 0.889942 0.857301
O O2 0.985558 0.827390 0.781748
O O3 0.183256 0.734756 0.538852
O O4 0.500000 0.000000 0.500000
O O5 0.654446 0.626330 0.288545
O O6 0.781709 0.796598 0.522150
O O7 0.987450 0.696094 0.208816
O O8 0.164766 0.855715 0.064684
O O9 0.539291 0.601691 0.869307
O O10 0.796760 0.814322 0.757997
O O11 0.004049 0.712925 0.439664
O O12 0.612045 0.076653 0.801745
O O13 0.155967 0.022016 0.201616
O O14 0.689066 0.496167 0.686160
O O15 0.188507 0.399982 0.099987
O O16 0.000000 0.500000 0.500000
O O17 0.634810 0.271839 0.023673
#
# Coordination Sequence:
#
# PCOD8004501 Si02
#       8
#     2   2   2   2   2   2   2   2
#     4  11  20  39  67  91 121 162 200 251 317 360
#     4  11  20  40  60  86 120 164 200 247 301 361
#     4  10  21  40  59  86 127 155 201 257 301 355
#     4  10  20  38  59  89 123 153 201 253 305 359
#     4  10  23  39  63  86 121 163 201 247 303 362
#     4  10  23  44  61  90 126 160 204 253 298 368
#     4   9  22  37  58  91 120 157 204 249 300 355
#     4   9  21  37  58  86 123 157 197 255 299 348
#
# _framework density 19.813628999999999
#
# number of rings (size 3 to 8) (size 9 to 14) (size 15 to 20)
#    0.750    1.250    2.500    0.750    0.000    6.500 
#    2.250    1.250    0.000    0.000    0.000    0.000 
#    0.000    0.000    0.000    0.000    0.000    0.000 
#
# Total GULP energy -198265.645062 kJ/mol
# GULP energy per Si atom -12391.602816 kJ/mol
# Density = 1.976853 g / cm^3
# Si number density = 19.813629 Si / 1000 Ang^3
#
#
#
# Elastic Constant Matrix: (Units=GPa)
#
#
# Indices 1 2 3 4 5 6 
#
# 1 111.8337 30.0042 37.3450 16.6642 11.6109 16.1303
# 2 30.0042 99.9103 8.8991 -0.9228 -2.6341 5.2772
# 3 37.3450 8.8991 63.4457 3.6554 -2.0155 6.0416
# 4 16.6642 -0.9228 3.6554 30.7451 -1.0362 7.0048
# 5 11.6109 -2.6341 -2.0155 -1.0362 29.5606 5.2579
# 6 16.1303 5.2772 6.0416 7.0048 5.2579 29.0522
#
#
#
# Elastic Compliance Matrix: (Units=1/GPa)
#
#
# Indices 1 2 3 4 5 6 
#
# 1 0.014557 -0.003760 -0.007563 -0.006607 -0.006248 -0.003103
# 2 -0.003760 0.011243 0.000692 0.002676 0.002843 -0.001258
# 3 -0.007563 0.000692 0.020287 0.002221 0.004768 -0.001544
# 4 -0.006607 0.002676 0.002221 0.037802 0.005629 -0.007412
# 5 -0.006248 0.002843 0.004768 0.005629 0.038180 -0.006306
# 6 -0.003103 -0.001258 -0.001544 -0.007412 -0.006306 0.039621
#
#
# Mechanical properties :
#
#
# Convention : Reuss Voigt Hill
#
# Bulk Modulus (GPa) = 40.28319 47.52069 43.90194
# Shear Modulus (GPa) = 26.14693 31.13434 28.64064
#
# Velocity S-wave (km/s) = 3.63663 3.96834 3.80610
# Velocity P-wave (km/s) = 6.16511 6.71065 6.44366
#
# Compressibility (1/GPa) = 0.02482425
#
# Stress axis : x y z
#
# Youngs Moduli (GPa) = 68.69516 88.94744 49.29291
#
# Poissons Ratio (x) = 0.33443 0.37283
# Poissons Ratio (y) = 0.25828 -0.03412
# Poissons Ratio (z) = 0.51957 -0.06157
#
# Static dielectric constant tensor:
#      x y z
#    x 3.640010 0.004590 0.202290 
#    y 0.004590 3.576390 -0.139190 
#    z 0.202290 -0.139190 3.459390 
# 
# 
# High freq. dielectric constant tensor:
#      x y z
#    x 1.783920 0.001910 0.020570 
#    y 0.001910 1.765160 -0.013180 
#    z 0.020570 -0.013180 1.755720 
# 
# From -- ./inp_files/457332.got.cif
#   From: 2010.06.25/outbox.cif.g09.slc.cpg/sg2_229_cif.got.tgz:457332.got - 2010.06.27 13:26:56.
