data_PCOD8004381
_publ_section_title
;
Structure prediction by ZEFSAII (Michael W. Deem and Ramdas Pophale) SiO2 
 PCOD8004381
Probable space group: P -1
;
_chemical_formula_sum "Si O2"
_cell_formula_units_Z 10
_cell_length_a 9.865782
_cell_length_b 5.352005
_cell_length_c 11.686430
_cell_angle_alpha 95.316069
_cell_angle_beta 93.525443
_cell_angle_gamma 35.432605
_cell_volume 356.095978
_symmetry_space_group_name_H-M "P -1"
_symmetry_group_IT_number 2
_symmetry_cell_setting 'triclinic'
loop_
_space_group_symop_operation_xyz
x,y,z
-x,-y,-z
loop_
_atom_site_type_symbol
_atom_site_label
_atom_site_fract_x
_atom_site_fract_y
_atom_site_fract_z
Si Si1 0.169125 0.601647 0.594315
Si Si2 0.851838 0.970308 0.986590
Si Si3 0.322147 0.806658 0.777087
Si Si4 0.376800 0.337518 0.363776
Si Si5 0.129742 0.227131 0.257511
O O1 0.223725 0.721929 0.698296
O O2 0.176505 0.695460 0.466202
O O3 0.916272 0.866637 0.632011
O O4 0.372612 0.083023 0.580387
O O5 0.750065 0.098709 0.857683
O O6 0.000000 0.500000 0.000000
O O7 0.653181 0.290839 0.089839
O O8 0.000000 0.000000 0.000000
O O9 0.572876 0.509480 0.718293
O O10 0.135095 0.310363 0.775176
O O11 0.295334 0.215981 0.285290
#
# Coordination Sequence:
#
# PCOD8004381 Si02
#       5
#     2   2   2   2   2
#     4  10  20  38  57  81 121 153 190 251 299 351
#     4  10  20  39  64  87 121 160 199 250 306 355
#     4  10  21  37  59  81 118 155 194 247 300 350
#     4  10  22  36  56  88 115 152 199 246 295 358
#     4  10  21  37  59  84 115 154 201 241 299 359
#
# _framework density 28.082317
#
# number of rings (size 3 to 8) (size 9 to 14) (size 15 to 20)
#    0.000    2.000    2.000    1.200    0.000    3.200 
#    0.000    1.000    0.000    0.000    0.000    0.000 
#    0.000    0.000    0.000    0.000    0.000    0.000 
#
# Total GULP energy -123955.247165 kJ/mol
# GULP energy per Si atom -12395.524716 kJ/mol
# Density = 2.801840 g / cm^3
# Si number density = 28.082317 Si / 1000 Ang^3
#
#
#
# Elastic Constant Matrix: (Units=GPa)
#
#
# Indices 1 2 3 4 5 6 
#
# 1 156.4064 11.9291 37.4642 24.1961 -35.3069 -1.0960
# 2 11.9291 85.2404 33.2518 14.4339 -36.7847 -15.1644
# 3 37.4642 33.2518 187.6223 23.5490 -29.4863 -5.1970
# 4 24.1961 14.4339 23.5490 49.4977 -1.7031 -17.4289
# 5 -35.3069 -36.7847 -29.4863 -1.7031 64.7391 15.7427
# 6 -1.0960 -15.1644 -5.1970 -17.4289 15.7427 45.4029
#
#
#
# Elastic Compliance Matrix: (Units=1/GPa)
#
#
# Indices 1 2 3 4 5 6 
#
# 1 0.008631 0.002048 -0.000480 -0.005609 0.006361 -0.003521
# 2 0.002048 0.017184 -0.001227 -0.005005 0.010139 0.000212
# 3 -0.000480 -0.001227 0.006312 -0.002890 0.002224 -0.001579
# 4 -0.005609 -0.005005 -0.002890 0.029902 -0.009505 0.012636
# 5 0.006361 0.010139 0.002224 -0.009505 0.027743 -0.009474
# 6 -0.003521 0.000212 -0.001579 0.012636 -0.009474 0.029966
#
#
# Mechanical properties :
#
#
# Convention : Reuss Voigt Hill
#
# Bulk Modulus (GPa) = 30.48043 66.06214 48.27129
# Shear Modulus (GPa) = 38.46383 55.03619 46.75001
#
# Velocity S-wave (km/s) = 3.70494 4.43178 4.08456
# Velocity P-wave (km/s) = 5.40181 7.05430 6.28262
#
# Compressibility (1/GPa) = 0.03280793
#
# Stress axis : x y z
#
# Youngs Moduli (GPa) = 115.85638 58.19370 158.43742
#
# Poissons Ratio (x) = -0.11916 0.07610
# Poissons Ratio (y) = -0.23724 0.19439
# Poissons Ratio (z) = 0.05565 0.07140
#
# Static dielectric constant tensor:
#      x y z
#    x 4.885290 -0.110290 -0.822070 
#    y -0.110290 5.797800 0.133720 
#    z -0.822070 0.133720 6.182690 
# 
# 
# High freq. dielectric constant tensor:
#      x y z
#    x 2.123120 -0.007040 -0.038720 
#    y -0.007040 2.192030 -0.000070 
#    z -0.038720 -0.000070 2.171630 
# 
# From -- ./inp_files/1455.got.cif
#   From: 2010.06.25/outbox.cif.g09.slc.cpg/sg2_1_cif.got.tgz:1455.got - 2010.06.27 13:26:56.
