data_PCOD8004430
_publ_section_title
;
Structure prediction by ZEFSAII (Michael W. Deem and Ramdas Pophale) SiO2 
 PCOD8004430
Probable space group: P -1
;
_chemical_formula_sum "Si O2"
_cell_formula_units_Z 16
_cell_length_a 14.025026
_cell_length_b 17.729291
_cell_length_c 26.504530
_cell_angle_alpha 159.157593
_cell_angle_beta 159.336782
_cell_angle_gamma 21.721384
_cell_volume 745.259726
_symmetry_space_group_name_H-M "P -1"
_symmetry_group_IT_number 2
_symmetry_cell_setting 'triclinic'
loop_
_space_group_symop_operation_xyz
x,y,z
-x,-y,-z
loop_
_atom_site_type_symbol
_atom_site_label
_atom_site_fract_x
_atom_site_fract_y
_atom_site_fract_z
Si Si1 0.712710 0.670910 0.176171
Si Si2 0.617410 0.971891 0.618355
Si Si3 0.205687 0.848257 0.270470
Si Si4 0.724114 0.513506 0.192067
Si Si5 0.320282 0.190637 0.342661
Si Si6 0.576816 0.041911 0.120277
Si Si7 0.217820 0.583707 0.297564
Si Si8 0.806901 0.615631 0.025335
O O1 0.818605 0.513480 0.180498
O O2 0.008362 0.672835 0.298797
O O3 0.475070 0.933363 0.235042
O O4 0.551742 0.560636 0.989200
O O5 0.862181 0.002393 0.722225
O O6 0.364549 0.231620 0.668688
O O7 0.488278 0.831499 0.431425
O O8 0.752679 0.822506 0.642424
O O9 0.294873 0.580385 0.128307
O O10 0.929644 0.974137 0.250712
O O11 0.005644 0.327631 0.245316
O O12 0.536207 0.317016 0.520115
O O13 0.381861 0.302461 0.205362
O O14 0.533704 0.863714 0.027879
O O15 0.500000 0.000000 0.000000
O O16 0.006015 0.674188 0.200695
O O17 0.000000 0.500000 0.000000
#
# Coordination Sequence:
#
# PCOD8004430 Si02
#       8
#     2   2   2   2   2   2   2   2
#     4  10  24  43  65  90 126 163 212 266 318 376
#     4  10  22  40  62  90 129 168 206 262 308 373
#     4  10  20  41  60  90 132 169 209 252 311 369
#     4  10  22  44  64  89 125 166 212 263 319 373
#     4  11  23  41  67  94 125 165 213 263 316 370
#     4  11  22  37  60  90 124 165 204 253 301 370
#     4  12  23  40  65  97 127 166 210 258 316 370
#     4  10  20  38  58  87 126 164 201 251 306 363
#
# _framework density 21.469024000000001
#
# number of rings (size 3 to 8) (size 9 to 14) (size 15 to 20)
#    0.000    1.500    2.500    3.750    0.000    2.500 
#    4.500    1.875    0.000    0.000    0.000    0.000 
#    0.000    0.000    0.000    0.000    0.000    0.000 
#
# Total GULP energy -198365.711433 kJ/mol
# GULP energy per Si atom -12397.856965 kJ/mol
# Density = 2.142016 g / cm^3
# Si number density = 21.469024 Si / 1000 Ang^3
#
#
#
# Elastic Constant Matrix: (Units=GPa)
#
#
# Indices 1 2 3 4 5 6 
#
# 1 87.4477 32.5872 25.4786 -6.8784 2.1688 14.3834
# 2 32.5872 118.5687 26.1612 -2.4869 -2.8382 30.3334
# 3 25.4786 26.1612 97.1383 -0.1424 3.4779 20.2073
# 4 -6.8784 -2.4869 -0.1424 21.6531 4.0276 -5.6011
# 5 2.1688 -2.8382 3.4779 4.0276 30.0240 2.4511
# 6 14.3834 30.3334 20.2073 -5.6011 2.4511 29.7075
#
#
#
# Elastic Compliance Matrix: (Units=1/GPa)
#
#
# Indices 1 2 3 4 5 6 
#
# 1 0.013790 -0.002892 -0.002549 0.004007 -0.001420 -0.001118
# 2 -0.002892 0.012302 -0.000196 -0.003085 0.002775 -0.011839
# 3 -0.002549 -0.000196 0.012608 -0.002661 -0.000316 -0.007618
# 4 0.004007 -0.003085 -0.002661 0.052144 -0.008373 0.013543
# 5 -0.001420 0.002775 -0.000316 -0.008373 0.035356 -0.006426
# 6 -0.001118 -0.011839 -0.007618 0.013543 -0.006426 0.054556
#
#
# Mechanical properties :
#
#
# Convention : Reuss Voigt Hill
#
# Bulk Modulus (GPa) = 36.46006 52.40096 44.43051
# Shear Modulus (GPa) = 24.85435 30.87209 27.86322
#
# Velocity S-wave (km/s) = 3.40617 3.79619 3.60645
# Velocity P-wave (km/s) = 5.69989 6.60874 6.17107
#
# Compressibility (1/GPa) = 0.02742728
#
# Stress axis : x y z
#
# Youngs Moduli (GPa) = 72.51713 81.28543 79.31465
#
# Poissons Ratio (x) = 0.23505 0.20217
# Poissons Ratio (y) = 0.20969 0.01553
# Poissons Ratio (z) = 0.18484 0.01592
#
# Static dielectric constant tensor:
#      x y z
#    x 4.248310 0.298600 0.212090 
#    y 0.298600 3.961680 0.198650 
#    z 0.212090 0.198650 4.089170 
# 
# 
# High freq. dielectric constant tensor:
#      x y z
#    x 1.849150 0.016810 0.000090 
#    y 0.016810 1.833870 0.011370 
#    z 0.000090 0.011370 1.849410 
# 
# From -- ./inp_files/619773.got.cif
#   From: 2010.06.25/outbox.cif.g09.slc.cpg/sg2_310_cif.got.tgz:619773.got - 2010.06.27 13:26:56.
