data_PCOD8004419
_publ_section_title
;
Structure prediction by ZEFSAII (Michael W. Deem and Ramdas Pophale) SiO2 
 PCOD8004419
Probable space group: P -1
;
_chemical_formula_sum "Si O2"
_cell_formula_units_Z 16
_cell_length_a 24.524002
_cell_length_b 11.268921
_cell_length_c 8.319729
_cell_angle_alpha 137.167742
_cell_angle_beta 147.210306
_cell_angle_gamma 36.650422
_cell_volume 730.841490
_symmetry_space_group_name_H-M "P -1"
_symmetry_group_IT_number 2
_symmetry_cell_setting 'triclinic'
loop_
_space_group_symop_operation_xyz
x,y,z
-x,-y,-z
loop_
_atom_site_type_symbol
_atom_site_label
_atom_site_fract_x
_atom_site_fract_y
_atom_site_fract_z
Si Si1 0.035798 0.741834 0.801581
Si Si2 0.527044 0.431648 0.681841
Si Si3 0.432002 0.147776 0.124178
Si Si4 0.808037 0.580778 0.352283
Si Si5 0.853142 0.106192 0.548379
Si Si6 0.796522 0.262878 0.219968
Si Si7 0.647680 0.131306 0.227016
Si Si8 0.836358 0.931461 0.756951
O O1 0.094610 0.519693 0.649437
O O2 0.943286 0.799394 0.771472
O O3 0.142739 0.765283 0.159984
O O4 0.972865 0.891394 0.643005
O O5 0.500000 0.500000 0.500000
O O6 0.501804 0.249008 0.476772
O O7 0.449421 0.632864 0.795222
O O8 0.659559 0.349599 0.974867
O O9 0.315755 0.338729 0.958464
O O10 0.500000 0.000000 0.000000
O O11 0.407050 0.016914 0.064642
O O12 0.825885 0.425528 0.382199
O O13 0.816715 0.764976 0.634815
O O14 0.849851 0.213604 0.481025
O O15 0.739585 0.080752 0.259607
O O16 0.862607 0.057045 0.075771
O O17 0.717109 0.084932 0.521879
#
# Coordination Sequence:
#
# PCOD8004419 Si02
#       8
#     2   2   2   2   2   2   2   2
#     4  10  21  41  64  83 113 161 207 239 299 359
#     4  12  19  34  60  90 117 156 194 237 293 353
#     4  11  19  33  60  91 115 152 197 237 285 350
#     4  11  21  37  64  92 117 155 202 245 293 354
#     4  10  23  40  61  85 121 162 195 248 300 348
#     4  12  23  38  59  91 125 153 196 249 300 348
#     4  10  20  38  58  85 120 157 200 236 287 354
#     4  10  21  38  62  91 118 153 200 249 295 350
#
# _framework density 21.892572999999999
#
# number of rings (size 3 to 8) (size 9 to 14) (size 15 to 20)
#    0.000    1.250    3.750    4.125    0.000    2.500 
#    0.000    8.125    0.000    0.000    0.000    0.000 
#    0.000    0.000    0.000    0.000    0.000    0.000 
#
# Total GULP energy -198326.256276 kJ/mol
# GULP energy per Si atom -12395.391017 kJ/mol
# Density = 2.184274 g / cm^3
# Si number density = 21.892573 Si / 1000 Ang^3
#
#
#
# Elastic Constant Matrix: (Units=GPa)
#
#
# Indices 1 2 3 4 5 6 
#
# 1 95.4688 59.9997 30.6416 -3.2117 13.0634 9.2386
# 2 59.9997 127.8919 41.0613 11.5203 -0.1684 3.8539
# 3 30.6416 41.0613 52.4151 -2.6979 14.0097 9.7778
# 4 -3.2117 11.5203 -2.6979 34.3824 12.7770 15.0135
# 5 13.0634 -0.1684 14.0097 12.7770 28.8035 5.3199
# 6 9.2386 3.8539 9.7778 15.0135 5.3199 29.6793
#
#
#
# Elastic Compliance Matrix: (Units=1/GPa)
#
#
# Indices 1 2 3 4 5 6 
#
# 1 0.021971 -0.014332 0.007776 0.021595 -0.020684 -0.014756
# 2 -0.014332 0.023984 -0.022769 -0.029580 0.027343 0.018910
# 3 0.007776 -0.022769 0.050825 0.040309 -0.040854 -0.029276
# 4 0.021595 -0.029580 0.040309 0.088128 -0.059414 -0.050091
# 5 -0.020684 0.027343 -0.040854 -0.059414 0.084720 0.031217
# 6 -0.014756 0.018910 -0.029276 -0.050091 0.031217 0.065220
#
#
# Mechanical properties :
#
#
# Convention : Reuss Voigt Hill
#
# Bulk Modulus (GPa) = 26.22564 59.90900 43.06732
# Shear Modulus (GPa) = 12.30902 28.17792 20.24347
#
# Velocity S-wave (km/s) = 2.37375 3.59151 3.04414
# Velocity P-wave (km/s) = 4.41793 6.68004 5.66309
#
# Compressibility (1/GPa) = 0.03813063
#
# Stress axis : x y z
#
# Youngs Moduli (GPa) = 45.51508 41.69511 19.67535
#
# Poissons Ratio (x) = 0.59757 -0.15300
# Poissons Ratio (y) = 0.65231 0.44798
# Poissons Ratio (z) = -0.35393 0.94934
#
# Static dielectric constant tensor:
#      x y z
#    x 3.830210 0.036870 0.435500 
#    y 0.036870 4.219710 0.049930 
#    z 0.435500 0.049930 3.815670 
# 
# 
# High freq. dielectric constant tensor:
#      x y z
#    x 1.851340 -0.004600 0.039000 
#    y -0.004600 1.873540 -0.000010 
#    z 0.039000 -0.000010 1.834040 
# 
# From -- ./inp_files/357105.got.cif
#   From: 2010.06.25/outbox.cif.g09.slc.cpg/sg2_179_cif.got.tgz:357105.got - 2010.06.27 13:26:56.
