data_PCOD8004801
_publ_section_title
;
Structure prediction by ZEFSAII (Michael W. Deem and Ramdas Pophale) SiO2 
 PCOD8004801
Probable space group: P -1
;
_chemical_formula_sum "Si O2"
_cell_formula_units_Z 12
_cell_length_a 13.888629
_cell_length_b 15.695645
_cell_length_c 7.634880
_cell_angle_alpha 109.126516
_cell_angle_beta 142.931410
_cell_angle_gamma 42.891562
_cell_volume 532.312049
_symmetry_space_group_name_H-M "P -1"
_symmetry_group_IT_number 2
_symmetry_cell_setting 'triclinic'
loop_
_space_group_symop_operation_xyz
x,y,z
-x,-y,-z
loop_
_atom_site_type_symbol
_atom_site_label
_atom_site_fract_x
_atom_site_fract_y
_atom_site_fract_z
Si Si1 0.302242 0.628509 0.145637
Si Si2 0.702024 0.834191 0.459898
Si Si3 0.327426 0.343867 0.833016
Si Si4 0.478138 0.723997 0.550316
Si Si5 0.731241 0.506875 0.472823
Si Si6 0.347244 0.168730 0.204817
O O1 0.500000 0.500000 0.500000
O O2 0.221861 0.773025 0.165483
O O3 0.501864 0.533139 0.195665
O O4 0.019865 0.702566 0.757926
O O5 0.574958 0.803588 0.169291
O O6 0.724202 0.815239 0.687179
O O7 0.494333 0.012970 0.227015
O O8 0.398351 0.375991 0.796704
O O9 0.000000 0.500000 0.500000
O O10 0.483133 0.305402 0.205943
O O11 0.743679 0.563082 0.707761
O O12 0.436876 0.847746 0.520625
O O13 0.052012 0.323620 0.775962
#
# Coordination Sequence:
#
# PCOD8004801 Si02
#       6
#     2   2   2   2   2   2
#     4  10  20  38  62  89 125 155 206 248 304 355
#     4  11  23  37  65  96 118 162 203 252 307 355
#     4  12  21  38  68  92 115 165 214 241 293 375
#     4  10  22  38  66  88 123 164 202 250 300 365
#     4  10  21  40  65  90 119 163 205 247 300 362
#     4  11  20  39  62  92 125 159 201 253 301 363
#
# _framework density 22.543168999999999
#
# number of rings (size 3 to 8) (size 9 to 14) (size 15 to 20)
#    1.000    0.333    5.000    2.500    0.000    1.333 
#    0.000    5.000    0.000    5.000    4.333    0.000 
#    0.000    0.000    0.000    0.000    0.000    0.000 
#
# Total GULP energy -148660.115144 kJ/mol
# GULP energy per Si atom -12388.342929 kJ/mol
# Density = 2.249186 g / cm^3
# Si number density = 22.543169 Si / 1000 Ang^3
#
#
#
# Elastic Constant Matrix: (Units=GPa)
#
#
# Indices 1 2 3 4 5 6 
#
# 1 132.5332 30.7033 24.9517 2.4886 -4.2217 19.1016
# 2 30.7033 56.5371 15.5251 -25.5941 -8.8087 5.9331
# 3 24.9517 15.5251 47.7754 -5.6152 -1.7548 0.5516
# 4 2.4886 -25.5941 -5.6152 23.1962 4.9884 -6.0339
# 5 -4.2217 -8.8087 -1.7548 4.9884 21.5830 3.4225
# 6 19.1016 5.9331 0.5516 -6.0339 3.4225 35.4136
#
#
#
# Elastic Compliance Matrix: (Units=1/GPa)
#
#
# Indices 1 2 3 4 5 6 
#
# 1 0.013468 -0.014284 -0.004682 -0.021172 0.002692 -0.008666
# 2 -0.014284 0.053725 -0.002721 0.061795 0.003208 0.008965
# 3 -0.004682 -0.002721 0.024719 0.004776 -0.001687 0.003573
# 4 -0.021172 0.061795 0.004776 0.122975 -0.010598 0.022970
# 5 0.002692 0.003208 -0.001687 -0.010598 0.051873 -0.008782
# 6 -0.008666 0.008965 0.003573 0.022970 -0.008782 0.036117
#
#
# Mechanical properties :
#
#
# Convention : Reuss Voigt Hill
#
# Bulk Modulus (GPa) = 20.60236 42.13397 31.36817
# Shear Modulus (GPa) = 13.79572 27.08292 20.43932
#
# Velocity S-wave (km/s) = 2.47648 3.46985 3.01437
# Velocity P-wave (km/s) = 4.16368 5.89781 5.10491
#
# Compressibility (1/GPa) = 0.04853813
#
# Stress axis : x y z
#
# Youngs Moduli (GPa) = 74.24911 18.61319 40.45511
#
# Poissons Ratio (x) = 0.26588 0.18940
# Poissons Ratio (y) = 1.06060 0.11008
# Poissons Ratio (z) = 0.34761 0.05065
#
# Static dielectric constant tensor:
#      x y z
#    x 3.892050 0.400500 0.475760 
#    y 0.400500 4.311090 -0.053460 
#    z 0.475760 -0.053460 3.045250 
# 
# 
# High freq. dielectric constant tensor:
#      x y z
#    x 1.912980 0.013980 -0.006440 
#    y 0.013980 1.892840 0.010470 
#    z -0.006440 0.010470 1.832850 
# 
# From -- ./inp_files/291946.got.cif
#   From: 2010.06.25/outbox.cif.g09.slc.cpg/sg2_146_cif.got.tgz:291946.got - 2010.06.27 13:26:56.
