data_PCOD8004304
_publ_section_title
;
Structure prediction by ZEFSAII (Michael W. Deem and Ramdas Pophale) SiO2 
 PCOD8004304
Probable space group: P -1
;
_chemical_formula_sum "Si O2"
_cell_formula_units_Z 16
_cell_length_a 22.752280
_cell_length_b 7.783081
_cell_length_c 15.901712
_cell_angle_alpha 117.052028
_cell_angle_beta 161.183299
_cell_angle_gamma 72.707478
_cell_volume 716.600886
_symmetry_space_group_name_H-M "P -1"
_symmetry_group_IT_number 2
_symmetry_cell_setting 'triclinic'
loop_
_space_group_symop_operation_xyz
x,y,z
-x,-y,-z
loop_
_atom_site_type_symbol
_atom_site_label
_atom_site_fract_x
_atom_site_fract_y
_atom_site_fract_z
Si Si1 0.625754 0.996015 0.086348
Si Si2 0.599122 0.560724 0.904562
Si Si3 0.572332 0.198512 0.892383
Si Si4 0.898454 0.125487 0.842586
Si Si5 0.773846 0.399121 0.836762
Si Si6 0.256094 0.271252 0.247044
Si Si7 0.666689 0.938305 0.837602
Si Si8 0.903122 0.741721 0.216731
O O1 0.866277 0.068043 0.443713
O O2 0.632944 0.164432 0.061263
O O3 0.500000 0.000000 0.000000
O O4 0.525409 0.744020 0.863906
O O5 0.612530 0.445997 0.984921
O O6 0.427755 0.360955 0.572794
O O7 0.825304 0.675060 0.192481
O O8 0.335129 0.026320 0.529030
O O9 0.704496 0.156829 0.987673
O O10 0.930221 0.338170 0.984962
O O11 0.026594 0.212528 0.950717
O O12 0.000000 0.000000 0.000000
O O13 0.682944 0.535254 0.692836
O O14 0.573227 0.179052 0.537290
O O15 0.888410 0.526733 0.103862
O O16 0.235789 0.054001 0.121563
O O17 0.741701 0.812368 0.975580
#
# Coordination Sequence:
#
# PCOD8004304 Si02
#       8
#     2   2   2   2   2   2   2   2
#     4  12  30  48  67  93 134 180 229 278 322 386
#     4  12  23  45  73  95 134 175 224 277 320 395
#     4  11  26  45  68 100 136 174 222 270 333 393
#     4  11  23  37  60  99 141 166 210 271 335 405
#     4  10  20  37  67  96 129 171 221 262 337 398
#     4  11  20  37  67 100 133 171 208 270 339 391
#     4  10  20  41  67 104 132 162 219 273 330 403
#     4  11  22  44  69  96 128 178 228 271 325 386
#
# _framework density 22.327634
#
# number of rings (size 3 to 8) (size 9 to 14) (size 15 to 20)
#    0.000    1.000    5.000    2.250    5.250    2.500 
#    0.000    0.000    0.000    0.000    0.000    0.000 
#    0.000    0.000    0.000    0.000    0.000    0.000 
#
# Total GULP energy -198228.836286 kJ/mol
# GULP energy per Si atom -12389.302268 kJ/mol
# Density = 2.227682 g / cm^3
# Si number density = 22.327634 Si / 1000 Ang^3
#
#
#
# Elastic Constant Matrix: (Units=GPa)
#
#
# Indices 1 2 3 4 5 6 
#
# 1 137.9432 42.2652 31.9816 -3.0380 13.6990 -17.3183
# 2 42.2652 74.0088 12.8524 -7.8378 -1.5047 6.4438
# 3 31.9816 12.8524 63.8376 -1.7278 9.7267 -11.7197
# 4 -3.0380 -7.8378 -1.7278 21.7207 0.4048 3.2884
# 5 13.6990 -1.5047 9.7267 0.4048 37.1638 -8.6923
# 6 -17.3183 6.4438 -11.7197 3.2884 -8.6923 33.0281
#
#
#
# Elastic Compliance Matrix: (Units=1/GPa)
#
#
# Indices 1 2 3 4 5 6 
#
# 1 0.010701 -0.006335 -0.002801 -0.001798 -0.002171 0.005461
# 2 -0.006335 0.018986 -0.002200 0.006976 0.001721 -0.008048
# 3 -0.002801 -0.002200 0.018838 -0.000382 -0.002828 0.004939
# 4 -0.001798 0.006976 -0.000382 0.049465 -0.001296 -0.007706
# 5 -0.002171 0.001721 -0.002828 -0.001296 0.029818 0.005499
# 6 0.005461 -0.008048 0.004939 -0.007706 0.005499 0.038678
#
#
# Mechanical properties :
#
#
# Convention : Reuss Voigt Hill
#
# Bulk Modulus (GPa) = 38.67857 49.99869 44.33863
# Shear Modulus (GPa) = 25.28098 30.96186 28.12142
#
# Velocity S-wave (km/s) = 3.36858 3.72789 3.55278
# Velocity P-wave (km/s) = 5.70005 6.40089 6.06061
#
# Compressibility (1/GPa) = 0.02585411
#
# Stress axis : x y z
#
# Youngs Moduli (GPa) = 93.44543 52.66954 53.08386
#
# Poissons Ratio (x) = 0.33366 0.14869
# Poissons Ratio (y) = 0.59198 0.11677
# Poissons Ratio (z) = 0.26175 0.11586
#
# Static dielectric constant tensor:
#      x y z
#    x 3.626270 0.018500 -1.142260 
#    y 0.018500 4.336960 -0.225130 
#    z -1.142260 -0.225130 3.120370 
# 
# 
# High freq. dielectric constant tensor:
#      x y z
#    x 1.884680 -0.012600 0.008520 
#    y -0.012600 1.874670 -0.008460 
#    z 0.008520 -0.008460 1.860160 
# 
# From -- ./inp_files/222164.got.cif
#   From: 2010.06.25/outbox.cif.g09.slc.cpg/sg2_112_cif.got.tgz:222164.got - 2010.06.27 13:26:56.
