data_PCOD8004359
_publ_section_title
;
Structure prediction by ZEFSAII (Michael W. Deem and Ramdas Pophale) SiO2 
 PCOD8004359
Probable space group: P -1
;
_chemical_formula_sum "Si O2"
_cell_formula_units_Z 12
_cell_length_a 11.036578
_cell_length_b 18.080017
_cell_length_c 9.899416
_cell_angle_alpha 37.654198
_cell_angle_beta 82.629684
_cell_angle_gamma 52.702788
_cell_volume 662.974273
_symmetry_space_group_name_H-M "P -1"
_symmetry_group_IT_number 2
_symmetry_cell_setting 'triclinic'
loop_
_space_group_symop_operation_xyz
x,y,z
-x,-y,-z
loop_
_atom_site_type_symbol
_atom_site_label
_atom_site_fract_x
_atom_site_fract_y
_atom_site_fract_z
Si Si1 0.172243 0.076697 0.203584
Si Si2 0.543214 0.537139 0.304489
Si Si3 0.693414 0.824334 0.122574
Si Si4 0.305927 0.702530 0.638620
Si Si5 0.850176 0.458475 0.515745
Si Si6 0.897037 0.986450 0.434747
O O1 0.268264 0.876007 0.412916
O O2 0.157459 0.083086 0.360000
O O3 0.331418 0.057632 0.167133
O O4 0.926537 0.303419 0.849248
O O5 0.500000 0.500000 0.500000
O O6 0.630001 0.373684 0.415023
O O7 0.730894 0.483298 0.378844
O O8 0.322962 0.786600 0.931812
O O9 0.681569 0.697729 0.251517
O O10 0.930093 0.653952 0.409402
O O11 0.500000 0.000000 0.000000
O O12 0.084355 0.807555 0.553808
O O13 0.500000 0.500000 0.000000
O O14 0.000000 0.000000 0.500000
#
# Coordination Sequence:
#
# PCOD8004359 Si02
#       6
#     2   2   2   2   2   2
#     4   9  19  38  62  85 116 162 204 237 300 357
#     4  12  24  36  61  94 128 152 196 259 302 349
#     4   9  20  39  64  85 116 163 206 242 302 352
#     4  11  22  36  59  88 124 160 199 234 307 369
#     4   9  22  39  57  91 122 147 206 254 291 346
#     4  10  20  38  55  85 122 162 195 238 299 365
#
# _framework density 18.100249999999999
#
# number of rings (size 3 to 8) (size 9 to 14) (size 15 to 20)
#    1.000    1.000    3.333    2.000    2.333    4.000 
#    0.000    0.833    0.000    2.000    0.000    0.000 
#    0.000    0.000    0.000    0.000    0.000    0.000 
#
# Total GULP energy -148699.470156 kJ/mol
# GULP energy per Si atom -12391.622513 kJ/mol
# Density = 1.805905 g / cm^3
# Si number density = 18.100250 Si / 1000 Ang^3
#
#
#
# Elastic Constant Matrix: (Units=GPa)
#
#
# Indices 1 2 3 4 5 6 
#
# 1 62.3386 29.3038 39.6334 -0.7851 -4.1441 5.0433
# 2 29.3038 135.5888 56.7128 -4.0720 -9.5711 -10.6205
# 3 39.6334 56.7128 132.1338 1.4294 -11.5408 -2.0043
# 4 -0.7851 -4.0720 1.4294 33.2521 1.4273 -3.1166
# 5 -4.1441 -9.5711 -11.5408 1.4273 34.0855 -1.6324
# 6 5.0433 -10.6205 -2.0043 -3.1166 -1.6324 31.3876
#
#
#
# Elastic Compliance Matrix: (Units=1/GPa)
#
#
# Indices 1 2 3 4 5 6 
#
# 1 0.021005 -0.002739 -0.005212 -0.000043 -0.000201 -0.004649
# 2 -0.002739 0.009747 -0.003196 0.001557 0.001437 0.003763
# 3 -0.005212 -0.003196 0.010710 -0.001025 0.002160 0.000450
# 4 -0.000043 0.001557 -0.001025 0.030676 -0.001034 0.003460
# 5 -0.000201 0.001437 0.002160 -0.001034 0.030594 0.002145
# 6 -0.004649 0.003763 0.000450 0.003460 0.002145 0.034364
#
#
# Mechanical properties :
#
#
# Convention : Reuss Voigt Hill
#
# Bulk Modulus (GPa) = 52.17394 64.59570 58.38482
# Shear Modulus (GPa) = 30.16031 33.37245 31.76638
#
# Velocity S-wave (km/s) = 4.08645 4.29856 4.19385
# Velocity P-wave (km/s) = 7.15213 7.77187 7.46843
#
# Compressibility (1/GPa) = 0.01916666
#
# Stress axis : x y z
#
# Youngs Moduli (GPa) = 47.60714 102.59486 93.37128
#
# Poissons Ratio (x) = 0.28102 0.48670
# Poissons Ratio (y) = 0.13040 0.29843
# Poissons Ratio (z) = 0.24815 0.32791
#
# Static dielectric constant tensor:
#      x y z
#    x 3.249210 -0.297280 0.178690 
#    y -0.297280 3.549690 0.141740 
#    z 0.178690 0.141740 2.853050 
# 
# 
# High freq. dielectric constant tensor:
#      x y z
#    x 1.683080 -0.014960 -0.005520 
#    y -0.014960 1.694880 -0.009010 
#    z -0.005520 -0.009010 1.706850 
# 
# From -- ./inp_files/268036.got.cif
#   From: 2010.06.25/outbox.cif.g09.slc.cpg/sg2_135_cif.got.tgz:268036.got - 2010.06.27 13:26:56.
