data_PCOD8004426
_publ_section_title
;
Structure prediction by ZEFSAII (Michael W. Deem and Ramdas Pophale) SiO2 
 PCOD8004426
Probable space group: P -1
;
_chemical_formula_sum "Si O2"
_cell_formula_units_Z 16
_cell_length_a 12.915393
_cell_length_b 9.336910
_cell_length_c 11.808170
_cell_angle_alpha 80.280502
_cell_angle_beta 49.236506
_cell_angle_gamma 55.735986
_cell_volume 845.200112
_symmetry_space_group_name_H-M "P -1"
_symmetry_group_IT_number 2
_symmetry_cell_setting 'triclinic'
loop_
_space_group_symop_operation_xyz
x,y,z
-x,-y,-z
loop_
_atom_site_type_symbol
_atom_site_label
_atom_site_fract_x
_atom_site_fract_y
_atom_site_fract_z
Si Si1 0.140751 0.436407 0.064706
Si Si2 0.671239 0.960381 0.935607
Si Si3 0.075853 0.964762 0.327613
Si Si4 0.527146 0.647916 0.573835
Si Si5 0.477913 0.705819 0.858692
Si Si6 0.786542 0.565416 0.228558
Si Si7 0.258651 0.596053 0.124391
Si Si8 0.231187 0.726660 0.644610
O O1 0.147496 0.567378 0.126420
O O2 0.942773 0.567575 0.151907
O O3 0.192306 0.253758 0.111815
O O4 0.263932 0.373246 0.874582
O O5 0.771556 0.013332 0.778380
O O6 0.622238 0.081248 0.067659
O O7 0.500000 0.000000 0.000000
O O8 0.147107 0.762062 0.268628
O O9 0.000000 0.000000 0.500000
O O10 0.923545 0.095660 0.331364
O O11 0.542153 0.687635 0.687424
O O12 0.627352 0.695498 0.411614
O O13 0.328112 0.769834 0.659197
O O14 0.620272 0.428996 0.527243
O O15 0.630252 0.587212 0.855772
O O16 0.363466 0.634785 0.960793
O O17 0.849247 0.357297 0.218849
#
# Coordination Sequence:
#
# PCOD8004426 Si02
#       8
#     2   2   2   2   2   2   2   2
#     4  11  20  39  59  86 118 157 196 237 294 350
#     4  11  22  40  61  88 121 155 196 242 301 344
#     4  11  23  41  59  90 120 155 199 246 288 354
#     4   9  18  36  60  84 111 154 194 236 296 341
#     4  10  20  38  58  87 116 153 195 247 282 357
#     4   9  20  36  61  81 118 157 190 240 290 352
#     4  10  22  35  60  86 117 153 200 234 296 349
#     4   9  18  36  60  85 112 149 198 235 292 343
#
# _framework density 18.930427999999999
#
# number of rings (size 3 to 8) (size 9 to 14) (size 15 to 20)
#    0.750    1.250    2.500    1.500    0.000    1.000 
#    6.750    3.750    0.000    0.000    0.000    0.000 
#    0.000    0.000    0.000    0.000    0.000    0.000 
#
# Total GULP energy -198277.423133 kJ/mol
# GULP energy per Si atom -12392.338946 kJ/mol
# Density = 1.888734 g / cm^3
# Si number density = 18.930428 Si / 1000 Ang^3
#
#
#
# Elastic Constant Matrix: (Units=GPa)
#
#
# Indices 1 2 3 4 5 6 
#
# 1 111.3782 22.8869 46.7079 -6.5222 -6.2883 15.7380
# 2 22.8869 57.1282 14.9891 0.9843 -0.6078 11.8183
# 3 46.7079 14.9891 116.7247 -8.0090 12.0628 17.1340
# 4 -6.5222 0.9843 -8.0090 21.1554 -3.0560 -2.3893
# 5 -6.2883 -0.6078 12.0628 -3.0560 28.2838 7.7856
# 6 15.7380 11.8183 17.1340 -2.3893 7.7856 21.5172
#
#
#
# Elastic Compliance Matrix: (Units=1/GPa)
#
#
# Indices 1 2 3 4 5 6 
#
# 1 0.012802 -0.002593 -0.004331 0.002653 0.006752 -0.006639
# 2 -0.002593 0.020929 -0.000591 -0.002784 0.002690 -0.010411
# 3 -0.004331 -0.000591 0.011549 0.001964 -0.004641 -0.003807
# 4 0.002653 -0.002784 0.001964 0.049834 0.004551 0.001911
# 5 0.006752 0.002690 -0.004641 0.004551 0.044420 -0.018288
# 6 -0.006639 -0.010411 -0.003807 0.001911 -0.018288 0.066909
#
#
# Mechanical properties :
#
#
# Convention : Reuss Voigt Hill
#
# Bulk Modulus (GPa) = 33.05722 50.48878 41.77300
# Shear Modulus (GPa) = 21.59304 27.56776 24.58040
#
# Velocity S-wave (km/s) = 3.38102 3.82025 3.60732
# Velocity P-wave (km/s) = 5.72207 6.79615 6.28211
#
# Compressibility (1/GPa) = 0.03025058
#
# Stress axis : x y z
#
# Youngs Moduli (GPa) = 78.11122 47.78163 86.58492
#
# Poissons Ratio (x) = 0.12389 0.37500
# Poissons Ratio (y) = 0.20254 0.05116
# Poissons Ratio (z) = 0.33830 0.02823
#
# Static dielectric constant tensor:
#      x y z
#    x 3.420250 -0.025130 -0.071030 
#    y -0.025130 3.303210 -0.079280 
#    z -0.071030 -0.079280 3.439750 
# 
# 
# High freq. dielectric constant tensor:
#      x y z
#    x 1.740530 -0.001890 -0.003600 
#    y -0.001890 1.717100 -0.003560 
#    z -0.003600 -0.003560 1.728450 
# 
# From -- ./inp_files/417050.got.cif
#   From: 2010.06.25/outbox.cif.g09.slc.cpg/sg2_209_cif.got.tgz:417050.got - 2010.06.27 13:26:56.
