data_PCOD8004218
_publ_section_title
;
Structure prediction by ZEFSAII (Michael W. Deem and Ramdas Pophale) SiO2 
 PCOD8004218
Probable space group: P -1
;
_chemical_formula_sum "Si O2"
_cell_formula_units_Z 16
_cell_length_a 10.021443
_cell_length_b 21.073096
_cell_length_c 10.962388
_cell_angle_alpha 133.462015
_cell_angle_beta 26.896341
_cell_angle_gamma 132.104340
_cell_volume 748.602584
_symmetry_space_group_name_H-M "P -1"
_symmetry_group_IT_number 2
_symmetry_cell_setting 'triclinic'
loop_
_space_group_symop_operation_xyz
x,y,z
-x,-y,-z
loop_
_atom_site_type_symbol
_atom_site_label
_atom_site_fract_x
_atom_site_fract_y
_atom_site_fract_z
Si Si1 0.826438 0.252855 0.608456
Si Si2 0.309345 0.353422 0.175029
Si Si3 0.250915 0.541577 0.445778
Si Si4 0.835088 0.842753 0.602341
Si Si5 0.441380 0.923112 0.544629
Si Si6 0.177092 0.344378 0.987194
Si Si7 0.099551 0.960614 0.106413
Si Si8 0.179847 0.829599 0.064025
O O1 0.656025 0.167916 0.565648
O O2 0.018756 0.315970 0.439086
O O3 0.027055 0.226594 0.519410
O O4 0.584454 0.307581 0.933590
O O5 0.388702 0.459324 0.279429
O O6 0.229765 0.332265 0.071214
O O7 0.508978 0.612817 0.270084
O O8 0.000000 0.500000 0.500000
O O9 0.074070 0.594107 0.754869
O O10 0.494141 0.797282 0.791417
O O11 0.825929 0.933616 0.801909
O O12 0.040920 0.864992 0.345250
O O13 0.750181 0.922466 0.362556
O O14 0.500000 0.000000 0.500000
O O15 0.190527 0.937958 0.865730
O O16 0.064114 0.248983 0.894970
O O17 0.265206 0.911418 0.008359
#
# Coordination Sequence:
#
# PCOD8004218 Si02
#       8
#     2   2   2   2   2   2   2   2
#     4  12  24  39  63  90 130 165 206 252 313 379
#     4  11  22  39  65  99 123 156 202 254 322 386
#     4  10  20  37  65  97 130 156 189 258 329 379
#     4  12  26  43  62  86 129 175 217 256 305 357
#     4  12  24  40  65  93 128 161 202 261 328 369
#     4  11  21  39  66  96 129 155 202 259 321 368
#     4  12  25  43  66  91 124 166 218 265 313 362
#     4  12  25  43  65  91 123 170 223 260 295 367
#
# _framework density 21.373156000000002
#
# number of rings (size 3 to 8) (size 9 to 14) (size 15 to 20)
#    0.000    0.500    1.250   10.125    1.750    0.000 
#    0.000    0.000    0.000   15.000    0.000    0.000 
#    0.000    0.000    0.000    0.000    0.000    0.000 
#
# Total GULP energy -198464.332326 kJ/mol
# GULP energy per Si atom -12404.020770 kJ/mol
# Density = 2.132451 g / cm^3
# Si number density = 21.373156 Si / 1000 Ang^3
#
#
#
# Elastic Constant Matrix: (Units=GPa)
#
#
# Indices 1 2 3 4 5 6 
#
# 1 88.1457 14.9605 18.9259 21.6903 20.6186 -8.5581
# 2 14.9605 102.4163 22.9097 -22.8396 -48.0727 -14.9310
# 3 18.9259 22.9097 105.9449 0.9336 -8.1807 -3.3952
# 4 21.6903 -22.8396 0.9336 76.6687 57.2073 -9.7449
# 5 20.6186 -48.0727 -8.1807 57.2073 153.1615 -4.2360
# 6 -8.5581 -14.9310 -3.3952 -9.7449 -4.2360 23.1196
#
#
#
# Elastic Compliance Matrix: (Units=1/GPa)
#
#
# Indices 1 2 3 4 5 6 
#
# 1 0.013527 -0.002855 -0.001849 -0.003364 -0.001526 0.001194
# 2 -0.002855 0.014795 -0.002092 0.003724 0.003815 0.010459
# 3 -0.001849 -0.002092 0.010229 -0.000560 0.000328 -0.000709
# 4 -0.003364 0.003724 -0.000560 0.020584 -0.005857 0.008680
# 5 -0.001526 0.003815 0.000328 -0.005857 0.010174 0.001342
# 6 0.001194 0.010459 -0.000709 0.008680 0.001342 0.054251
#
#
# Mechanical properties :
#
#
# Convention : Reuss Voigt Hill
#
# Bulk Modulus (GPa) = 40.06624 45.56655 42.81640
# Shear Modulus (GPa) = 34.37080 66.57070 50.47075
#
# Velocity S-wave (km/s) = 4.01450 5.58699 4.86470
# Velocity P-wave (km/s) = 6.34626 7.93632 7.18541
#
# Compressibility (1/GPa) = 0.02495867
#
# Stress axis : x y z
#
# Youngs Moduli (GPa) = 73.92483 67.59089 97.75975
#
# Poissons Ratio (x) = 0.19297 0.18076
# Poissons Ratio (y) = 0.21105 0.20455
# Poissons Ratio (z) = 0.13669 0.14142
#
# Static dielectric constant tensor:
#      x y z
#    x 3.820070 -0.111320 -0.249140 
#    y -0.111320 3.919130 0.258890 
#    z -0.249140 0.258890 4.227410 
# 
# 
# High freq. dielectric constant tensor:
#      x y z
#    x 1.819810 -0.008470 -0.013270 
#    y -0.008470 1.846860 -0.001880 
#    z -0.013270 -0.001880 1.860350 
# 
# From -- ./inp_files/439270.got.cif
#   From: 2010.06.25/outbox.cif.g09.slc.cpg/sg2_220_cif.got.tgz:439270.got - 2010.06.27 13:26:56.
