data_PCOD8004010
_publ_section_title
;
Structure prediction by ZEFSAII (Michael W. Deem and Ramdas Pophale) SiO2 
 PCOD8004010
Probable space group: P -1
;
_chemical_formula_sum "Si O2"
_cell_formula_units_Z 16
_cell_length_a 11.879208
_cell_length_b 9.042899
_cell_length_c 14.072597
_cell_angle_alpha 128.719679
_cell_angle_beta 136.056117
_cell_angle_gamma 67.394301
_cell_volume 812.389421
_symmetry_space_group_name_H-M "P -1"
_symmetry_group_IT_number 2
_symmetry_cell_setting 'triclinic'
loop_
_space_group_symop_operation_xyz
x,y,z
-x,-y,-z
loop_
_atom_site_type_symbol
_atom_site_label
_atom_site_fract_x
_atom_site_fract_y
_atom_site_fract_z
Si Si1 0.725489 0.551925 0.576102
Si Si2 0.126780 0.038628 0.507800
Si Si3 0.488100 0.510282 0.859063
Si Si4 0.857871 0.626281 0.480589
Si Si5 0.472480 0.179983 0.851789
Si Si6 0.759681 0.569329 0.907739
Si Si7 0.573577 0.767072 0.728530
Si Si8 0.916208 0.358342 0.762440
O O1 0.807798 0.643931 0.567489
O O2 0.626917 0.707894 0.631260
O O3 0.599010 0.360177 0.401716
O O4 0.877028 0.505727 0.715727
O O5 0.073997 0.170793 0.443385
O O6 0.286348 0.136275 0.693914
O O7 0.163058 0.846552 0.402379
O O8 0.000000 0.000000 0.500000
O O9 0.296915 0.467888 0.709213
O O10 0.554881 0.356505 0.908803
O O11 0.587331 0.485860 0.813773
O O12 0.520530 0.731800 0.002293
O O13 0.000000 0.500000 0.500000
O O14 0.562302 0.992349 0.818516
O O15 0.718803 0.734851 0.877337
O O16 0.827010 0.399139 0.822569
O O17 0.890213 0.640752 0.098442
#
# Coordination Sequence:
#
# PCOD8004010 Si02
#       8
#     2   2   2   2   2   2   2   2
#     4  10  20  39  60  87 121 153 199 249 295 355
#     4  11  22  37  59  87 119 159 205 244 299 362
#     4  10  22  40  56  85 123 154 200 249 300 358
#     4  11  24  38  59  88 121 159 200 253 300 350
#     4  10  22  37  59  85 115 159 198 246 304 353
#     4  10  21  38  61  88 120 156 198 251 298 353
#     4  10  20  37  63  87 115 157 202 245 296 354
#     4  10  21  38  61  88 119 158 199 245 302 357
#
# _framework density 19.694987000000001
#
# number of rings (size 3 to 8) (size 9 to 14) (size 15 to 20)
#    0.000    1.750    2.500    1.500    0.000    4.500 
#    0.000    2.500    0.000    5.250    0.000    0.000 
#    0.000    0.000    0.000    0.000    0.000    0.000 
#
# Total GULP energy -198330.361588 kJ/mol
# GULP energy per Si atom -12395.647599 kJ/mol
# Density = 1.965016 g / cm^3
# Si number density = 19.694987 Si / 1000 Ang^3
#
#
#
# Elastic Constant Matrix: (Units=GPa)
#
#
# Indices 1 2 3 4 5 6 
#
# 1 126.5864 61.1589 29.7967 9.3497 -2.5581 7.9388
# 2 61.1589 122.8079 36.4932 6.6540 -5.2120 -6.2905
# 3 29.7967 36.4932 79.6564 -1.9476 -8.3327 -2.1278
# 4 9.3497 6.6540 -1.9476 38.3573 -5.6974 -3.1320
# 5 -2.5581 -5.2120 -8.3327 -5.6974 24.3571 -3.0493
# 6 7.9388 -6.2905 -2.1278 -3.1320 -3.0493 32.1903
#
#
#
# Elastic Compliance Matrix: (Units=1/GPa)
#
#
# Indices 1 2 3 4 5 6 
#
# 1 0.011346 -0.005138 -0.002264 -0.002621 -0.001844 -0.004382
# 2 -0.005138 0.011953 -0.003352 -0.000535 0.001177 0.003441
# 3 -0.002264 -0.003352 0.015602 0.002847 0.005263 0.001710
# 4 -0.002621 -0.000535 0.002847 0.028447 0.007768 0.004234
# 5 -0.001844 0.001177 0.005263 0.007768 0.045495 0.006098
# 6 -0.004382 0.003441 0.001710 0.004234 0.006098 0.033921
#
#
# Mechanical properties :
#
#
# Convention : Reuss Voigt Hill
#
# Bulk Modulus (GPa) = 57.49646 64.88316 61.18981
# Shear Modulus (GPa) = 28.72392 32.42106 30.57249
#
# Velocity S-wave (km/s) = 3.82309 4.06169 3.94420
# Velocity P-wave (km/s) = 6.98175 7.41700 7.20267
#
# Compressibility (1/GPa) = 0.01739238
#
# Stress axis : x y z
#
# Youngs Moduli (GPa) = 88.13357 83.66061 64.09276
#
# Poissons Ratio (x) = 0.42988 0.14512
# Poissons Ratio (y) = 0.45287 0.21484
# Poissons Ratio (z) = 0.19956 0.28043
#
# Static dielectric constant tensor:
#      x y z
#    x 3.664530 0.108500 -0.108350 
#    y 0.108500 3.820540 -0.108900 
#    z -0.108350 -0.108900 3.722280 
# 
# 
# High freq. dielectric constant tensor:
#      x y z
#    x 1.770370 -0.006070 -0.010060 
#    y -0.006070 1.765810 -0.015570 
#    z -0.010060 -0.015570 1.764590 
# 
# From -- ./inp_files/181339.got.cif
#   From: 2010.06.25/outbox.cif.g09.slc.cpg/sg2_91_cif.got.tgz:181339.got - 2010.06.27 13:26:56.
