data_PCOD8004609
_publ_section_title
;
Structure prediction by ZEFSAII (Michael W. Deem and Ramdas Pophale) SiO2 
 PCOD8004609
Probable space group: P -1
;
_chemical_formula_sum "Si O2"
_cell_formula_units_Z 16
_cell_length_a 19.868746
_cell_length_b 9.707665
_cell_length_c 15.683076
_cell_angle_alpha 152.466080
_cell_angle_beta 35.490490
_cell_angle_gamma 144.394304
_cell_volume 763.688864
_symmetry_space_group_name_H-M "P -1"
_symmetry_group_IT_number 2
_symmetry_cell_setting 'triclinic'
loop_
_space_group_symop_operation_xyz
x,y,z
-x,-y,-z
loop_
_atom_site_type_symbol
_atom_site_label
_atom_site_fract_x
_atom_site_fract_y
_atom_site_fract_z
Si Si1 0.990849 0.176486 0.519702
Si Si2 0.752818 0.937183 0.067354
Si Si3 0.117399 0.440211 0.807761
Si Si4 0.787294 0.471159 0.906350
Si Si5 0.289264 0.712882 0.927852
Si Si6 0.465581 0.883472 0.064138
Si Si7 0.493607 0.758373 0.298554
Si Si8 0.241799 0.329658 0.266194
O O1 0.917048 0.418365 0.740725
O O2 0.122883 0.388125 0.461284
O O3 0.917692 0.913474 0.382965
O O4 0.000000 0.000000 0.500000
O O5 0.796544 0.803735 0.034593
O O6 0.777082 0.748211 0.857099
O O7 0.608920 0.913277 0.201163
O O8 0.831781 0.308989 0.183816
O O9 0.221641 0.481579 0.794833
O O10 0.000000 0.500000 0.000000
O O11 0.680615 0.190388 0.809986
O O12 0.745449 0.473649 0.049278
O O13 0.438202 0.848460 0.828422
O O14 0.249041 0.024492 0.142769
O O15 0.489215 0.554835 0.856817
O O16 0.500000 0.000000 0.000000
O O17 0.360254 0.650812 0.330625
O O18 0.500000 0.000000 0.500000
#
# Coordination Sequence:
#
# PCOD8004609 Si02
#       8
#     2   2   2   2   2   2   2   2
#     4  12  23  39  66  88 118 164 214 242 294 374
#     4  10  22  39  62  89 125 155 197 251 313 344
#     4  11  21  40  62  89 119 159 209 244 295 366
#     4  10  20  38  60  91 122 161 199 247 309 353
#     4   9  17  37  62  85 117 165 205 241 295 366
#     4   8  17  34  60  83 123 158 194 241 303 350
#     4  10  21  36  62  93 117 152 206 255 294 354
#     4  10  20  39  61  85 123 164 200 242 304 364
#
# _framework density 20.950941
#
# number of rings (size 3 to 8) (size 9 to 14) (size 15 to 20)
#    0.000    2.000    3.750    0.375    1.750    1.500 
#    0.000    6.875    0.000    0.000    0.000    0.000 
#    0.000    0.000    0.000    0.000    0.000    0.000 
#
# Total GULP energy -198247.232220 kJ/mol
# GULP energy per Si atom -12390.452014 kJ/mol
# Density = 2.090326 g / cm^3
# Si number density = 20.950941 Si / 1000 Ang^3
#
#
#
# Elastic Constant Matrix: (Units=GPa)
#
#
# Indices 1 2 3 4 5 6 
#
# 1 93.5694 27.6328 9.9375 -1.2065 -5.8716 0.0950
# 2 27.6328 115.8999 18.2248 -14.0606 -15.7455 -0.1906
# 3 9.9375 18.2248 37.9355 -14.9848 0.2251 5.6424
# 4 -1.2065 -14.0606 -14.9848 30.7279 9.1386 -3.1484
# 5 -5.8716 -15.7455 0.2251 9.1386 27.2764 -2.9103
# 6 0.0950 -0.1906 5.6424 -3.1484 -2.9103 42.3817
#
#
#
# Elastic Compliance Matrix: (Units=1/GPa)
#
#
# Indices 1 2 3 4 5 6 
#
# 1 0.011816 -0.002369 -0.003099 -0.002739 0.002153 0.000320
# 2 -0.002369 0.010751 -0.004242 0.001255 0.005427 0.001084
# 3 -0.003099 -0.004242 0.037296 0.018704 -0.010148 -0.004285
# 4 -0.002739 0.001255 0.018704 0.046794 -0.015706 -0.000081
# 5 0.002153 0.005427 -0.010148 -0.015706 0.045962 0.003360
# 6 0.000320 0.001084 -0.004285 -0.000081 0.003360 0.024394
#
#
# Mechanical properties :
#
#
# Convention : Reuss Voigt Hill
#
# Bulk Modulus (GPa) = 24.72688 39.88832 32.30760
# Shear Modulus (GPa) = 23.81906 32.85116 28.33511
#
# Velocity S-wave (km/s) = 3.37545 3.96410 3.68156
# Velocity P-wave (km/s) = 5.19802 6.32711 5.79015
#
# Compressibility (1/GPa) = 0.04044182
#
# Stress axis : x y z
#
# Youngs Moduli (GPa) = 84.63455 93.01234 26.81232
#
# Poissons Ratio (x) = 0.22034 0.08310
# Poissons Ratio (y) = 0.20049 0.11374
# Poissons Ratio (z) = 0.26232 0.39458
#
# Static dielectric constant tensor:
#      x y z
#    x 10.329670 5.431130 1.144170 
#    y 5.431130 8.429350 0.885470 
#    z 1.144170 0.885470 3.706230 
# 
# 
# High freq. dielectric constant tensor:
#      x y z
#    x 1.825110 0.012630 -0.003240 
#    y 0.012630 1.839480 -0.010810 
#    z -0.003240 -0.010810 1.773590 
# 
# From -- ./inp_files/537704.got.cif
#   From: 2010.06.25/outbox.cif.g09.slc.cpg/sg2_269_cif.got.tgz:537704.got - 2010.06.27 13:26:56.
