data_PCOD8004217
_publ_section_title
;
Structure prediction by ZEFSAII (Michael W. Deem and Ramdas Pophale) SiO2 
 PCOD8004217
Probable space group: P -1
;
_chemical_formula_sum "Si O2"
_cell_formula_units_Z 16
_cell_length_a 12.163929
_cell_length_b 8.748043
_cell_length_c 8.828257
_cell_angle_alpha 90.363959
_cell_angle_beta 55.453801
_cell_angle_gamma 97.727794
_cell_volume 763.926890
_symmetry_space_group_name_H-M "P -1"
_symmetry_group_IT_number 2
_symmetry_cell_setting 'triclinic'
loop_
_space_group_symop_operation_xyz
x,y,z
-x,-y,-z
loop_
_atom_site_type_symbol
_atom_site_label
_atom_site_fract_x
_atom_site_fract_y
_atom_site_fract_z
Si Si1 0.755286 0.828949 0.558686
Si Si2 0.626165 0.932118 0.962259
Si Si3 0.598295 0.295769 0.764665
Si Si4 0.371581 0.451110 0.495001
Si Si5 0.832116 0.162335 0.419435
Si Si6 0.002259 0.324486 0.542544
Si Si7 0.851300 0.408494 0.156535
Si Si8 0.245827 0.745855 0.064994
O O1 0.709367 0.883487 0.756303
O O2 0.639360 0.730423 0.543495
O O3 0.852588 0.704260 0.517329
O O4 0.822272 0.976935 0.408057
O O5 0.714221 0.068305 0.992294
O O6 0.560062 0.785578 0.114910
O O7 0.500000 0.000000 0.000000
O O8 0.605044 0.459822 0.681864
O O9 0.689719 0.191808 0.600462
O O10 0.654035 0.318219 0.893435
O O11 0.500000 0.500000 0.500000
O O12 0.232131 0.482026 0.681936
O O13 0.866601 0.252745 0.236272
O O14 0.955620 0.216253 0.435952
O O15 0.000000 0.500000 0.500000
O O16 0.906543 0.281399 0.758990
O O17 0.756389 0.352074 0.087126
O O18 0.000000 0.500000 0.000000
#
# Coordination Sequence:
#
# PCOD8004217 Si02
#       8
#     2   2   2   2   2   2   2   2
#     4  12  22  40  68  95 130 167 219 274 313 394
#     4  10  20  37  65  97 123 158 222 271 315 371
#     4   9  20  43  64  91 125 169 215 257 325 383
#     4  11  27  43  61  95 135 171 214 266 332 389
#     4  10  21  39  67  94 127 170 209 265 331 379
#     4  11  21  40  66  96 126 170 218 265 328 382
#     4  11  24  45  65  91 133 176 213 265 330 395
#     4  10  20  38  69  90 120 166 217 266 316 385
#
# _framework density 20.944410999999999
#
# number of rings (size 3 to 8) (size 9 to 14) (size 15 to 20)
#    0.000    1.500    3.750    4.125    3.500    1.500 
#    4.500    5.000    0.000    0.000    0.000    0.000 
#    0.000    0.000    0.000    0.000    0.000    0.000 
#
# Total GULP energy -198339.981090 kJ/mol
# GULP energy per Si atom -12396.248818 kJ/mol
# Density = 2.089674 g / cm^3
# Si number density = 20.944411 Si / 1000 Ang^3
#
#
#
# Elastic Constant Matrix: (Units=GPa)
#
#
# Indices 1 2 3 4 5 6 
#
# 1 69.2661 47.3165 24.7776 -10.4294 10.9874 9.9385
# 2 47.3165 155.3676 42.4589 -20.8778 9.9562 21.1237
# 3 24.7776 42.4589 93.2175 -27.8587 5.0124 7.8884
# 4 -10.4294 -20.8778 -27.8587 32.4938 4.0392 -0.5335
# 5 10.9874 9.9562 5.0124 4.0392 37.0709 3.2820
# 6 9.9385 21.1237 7.8884 -0.5335 3.2820 41.1171
#
#
#
# Elastic Compliance Matrix: (Units=1/GPa)
#
#
# Indices 1 2 3 4 5 6 
#
# 1 0.019571 -0.004615 -0.002135 0.002001 -0.004351 -0.001577
# 2 -0.004615 0.009214 -0.001758 0.002993 -0.000915 -0.003169
# 3 -0.002135 -0.001758 0.015949 0.012118 -0.002257 -0.001303
# 4 0.002001 0.002993 0.012118 0.044625 -0.007618 -0.003159
# 5 -0.004351 -0.000915 -0.002257 -0.007618 0.029691 -0.000514
# 6 -0.001577 -0.003169 -0.001303 -0.003159 -0.000514 0.026580
#
#
# Mechanical properties :
#
#
# Convention : Reuss Voigt Hill
#
# Bulk Modulus (GPa) = 36.07668 60.77302 48.42485
# Shear Modulus (GPa) = 29.08920 35.68959 32.38939
#
# Velocity S-wave (km/s) = 3.73081 4.13245 3.93675
# Velocity P-wave (km/s) = 5.98506 7.20062 6.62079
#
# Compressibility (1/GPa) = 0.02771874
#
# Stress axis : x y z
#
# Youngs Moduli (GPa) = 51.09655 108.53147 62.69950
#
# Poissons Ratio (x) = 0.50084 0.13383
# Poissons Ratio (y) = 0.23580 0.11024
# Poissons Ratio (z) = 0.10907 0.19083
#
# Static dielectric constant tensor:
#      x y z
#    x 3.020240 -0.342680 1.069450 
#    y -0.342680 3.606190 0.432080 
#    z 1.069450 0.432080 1.961290 
# 
# 
# High freq. dielectric constant tensor:
#      x y z
#    x 1.805450 0.017120 -0.006210 
#    y 0.017120 1.827930 -0.016260 
#    z -0.006210 -0.016260 1.818800 
# 
# From -- ./inp_files/243879.got.cif
#   From: 2010.06.25/outbox.cif.g09.slc.cpg/sg2_122_cif.got.tgz:243879.got - 2010.06.27 13:26:56.
