data_PCOD8004385
_publ_section_title
;
Structure prediction by ZEFSAII (Michael W. Deem and Ramdas Pophale) SiO2 
 PCOD8004385
Probable space group: P -1
;
_chemical_formula_sum "Si O2"
_cell_formula_units_Z 12
_cell_length_a 12.987771
_cell_length_b 13.396843
_cell_length_c 14.047439
_cell_angle_alpha 152.658231
_cell_angle_beta 33.434168
_cell_angle_gamma 145.509298
_cell_volume 584.378335
_symmetry_space_group_name_H-M "P -1"
_symmetry_group_IT_number 2
_symmetry_cell_setting 'triclinic'
loop_
_space_group_symop_operation_xyz
x,y,z
-x,-y,-z
loop_
_atom_site_type_symbol
_atom_site_label
_atom_site_fract_x
_atom_site_fract_y
_atom_site_fract_z
Si Si1 0.566889 0.421287 0.285602
Si Si2 0.858337 0.330310 0.114612
Si Si3 0.239233 0.222675 0.706982
Si Si4 0.308319 0.163287 0.105688
Si Si5 0.031164 0.705052 0.443802
Si Si6 0.390260 0.532571 0.018725
O O1 0.500000 0.500000 0.500000
O O2 0.743843 0.330280 0.104296
O O3 0.606955 0.648307 0.382376
O O4 0.408738 0.218325 0.178646
O O5 0.889903 0.562779 0.348263
O O6 0.067153 0.330177 0.916355
O O7 0.764702 0.113827 0.075136
O O8 0.169641 0.953775 0.512027
O O9 0.332879 0.295097 0.801542
O O10 0.117645 0.256986 0.327344
O O11 0.461667 0.261916 0.984859
O O12 0.189202 0.580753 0.247841
O O13 0.500000 0.500000 0.000000
#
# Coordination Sequence:
#
# PCOD8004385 Si02
#       6
#     2   2   2   2   2   2
#     4  11  20  34  58  87 116 157 190 224 282 334
#     4  10  20  38  57  84 121 155 187 229 282 337
#     4   9  22  39  57  84 118 150 191 236 280 338
#     4  10  22  39  59  86 118 150 192 237 278 339
#     4  10  21  40  59  84 121 148 188 239 284 340
#     4  10  23  41  63  85 109 149 194 241 294 336
#
# _framework density 20.534642000000002
#
# number of rings (size 3 to 8) (size 9 to 14) (size 15 to 20)
#    0.000    2.000    1.667    1.000    2.333    2.000 
#    3.000    7.500    0.000    0.000    0.000    0.000 
#    0.000    0.000    0.000    0.000    0.000    0.000 
#
# Total GULP energy -148687.331946 kJ/mol
# GULP energy per Si atom -12390.610995 kJ/mol
# Density = 2.048790 g / cm^3
# Si number density = 20.534642 Si / 1000 Ang^3
#
#
#
# Elastic Constant Matrix: (Units=GPa)
#
#
# Indices 1 2 3 4 5 6 
#
# 1 135.5369 34.6633 45.5747 -5.0382 4.1426 -0.0073
# 2 34.6633 87.3833 34.7840 17.2090 15.8699 12.3014
# 3 45.5747 34.7840 78.1768 13.7632 11.0054 2.2190
# 4 -5.0382 17.2090 13.7632 38.2206 7.8690 1.9101
# 5 4.1426 15.8699 11.0054 7.8690 20.7507 -3.1515
# 6 -0.0073 12.3014 2.2190 1.9101 -3.1515 22.3679
#
#
#
# Elastic Compliance Matrix: (Units=1/GPa)
#
#
# Indices 1 2 3 4 5 6 
#
# 1 0.010224 -0.003435 -0.005580 0.004316 0.002273 0.002397
# 2 -0.003435 0.018892 -0.003600 -0.004669 -0.011799 -0.011297
# 3 -0.005580 -0.003600 0.019164 -0.005110 -0.004375 -0.000103
# 4 0.004316 -0.004669 -0.005110 0.032118 -0.006857 -0.000633
# 5 0.002273 -0.011799 -0.004375 -0.006857 0.064196 0.016554
# 6 0.002397 -0.011297 -0.000103 -0.000633 0.016554 0.053317
#
#
# Mechanical properties :
#
#
# Convention : Reuss Voigt Hill
#
# Bulk Modulus (GPa) = 43.38063 59.01565 51.19814
# Shear Modulus (GPa) = 21.66155 28.67285 25.16720
#
# Velocity S-wave (km/s) = 3.25141 3.74079 3.50465
# Velocity P-wave (km/s) = 5.93860 6.88912 6.43144
#
# Compressibility (1/GPa) = 0.02305176
#
# Stress axis : x y z
#
# Youngs Moduli (GPa) = 97.81151 52.93263 52.17990
#
# Poissons Ratio (x) = 0.18180 0.29115
# Poissons Ratio (y) = 0.33595 0.18784
# Poissons Ratio (z) = 0.54576 0.19055
#
# Static dielectric constant tensor:
#      x y z
#    x 4.825100 0.548640 -0.237660 
#    y 0.548640 3.760550 -0.032350 
#    z -0.237660 -0.032350 3.831310 
# 
# 
# High freq. dielectric constant tensor:
#      x y z
#    x 1.786220 0.028640 -0.008050 
#    y 0.028640 1.805400 0.000040 
#    z -0.008050 0.000040 1.805510 
# 
# From -- ./inp_files/19448.got.cif
#   From: 2010.06.25/outbox.cif.g09.slc.cpg/sg2_10_cif.got.tgz:19448.got - 2010.06.27 13:26:56.
