data_PCOD8004905
_publ_section_title
;
Structure prediction by ZEFSAII (Michael W. Deem and Ramdas Pophale) SiO2 
 PCOD8004905
Probable space group: P -1
;
_chemical_formula_sum "Si O2"
_cell_formula_units_Z 16
_cell_length_a 26.673426
_cell_length_b 27.718314
_cell_length_c 12.003069
_cell_angle_alpha 153.698805
_cell_angle_beta 26.168409
_cell_angle_gamma 169.841382
_cell_volume 680.496654
_symmetry_space_group_name_H-M "P -1"
_symmetry_group_IT_number 2
_symmetry_cell_setting 'triclinic'
loop_
_space_group_symop_operation_xyz
x,y,z
-x,-y,-z
loop_
_atom_site_type_symbol
_atom_site_label
_atom_site_fract_x
_atom_site_fract_y
_atom_site_fract_z
Si Si1 0.725870 0.209660 0.388036
Si Si2 0.123404 0.832842 0.171890
Si Si3 0.520762 0.674068 0.606256
Si Si4 0.141361 0.534196 0.870359
Si Si5 0.642765 0.070568 0.652067
Si Si6 0.711516 0.413937 0.534545
Si Si7 0.801973 0.919209 0.777773
Si Si8 0.654166 0.546672 0.091287
O O1 0.000000 0.500000 0.500000
O O2 0.500000 0.000000 0.500000
O O3 0.561558 0.141097 0.482981
O O4 0.826744 0.188166 0.084669
O O5 0.823481 0.634046 0.347232
O O6 0.095397 0.727165 0.115733
O O7 0.370946 0.145576 0.332755
O O8 0.626167 0.813924 0.806119
O O9 0.643795 0.662549 0.311315
O O10 0.264359 0.549815 0.573130
O O11 0.384517 0.820484 0.046036
O O12 0.000000 0.500000 0.000000
O O13 0.980761 0.346119 0.526325
O O14 0.522947 0.890107 0.616420
O O15 0.592393 0.417112 0.838607
O O16 0.582657 0.678998 0.808695
O O17 0.000000 0.000000 0.500000
O O18 0.025153 0.199087 0.972283
#
# Coordination Sequence:
#
# PCOD8004905 Si02
#       8
#     2   2   2   2   2   2   2   2
#     4  12  25  41  61  93 132 163 202 259 320 387
#     4  12  25  41  65  92 126 175 213 253 326 391
#     4  11  23  40  62  94 133 173 212 254 310 392
#     4  10  23  46  69  91 123 168 224 274 323 389
#     4  11  23  42  65  94 127 165 214 266 324 392
#     4  11  24  40  68  96 122 164 217 279 326 360
#     4  10  20  38  63  88 126 174 210 251 308 372
#     4  11  22  40  64  98 132 164 218 266 306 373
#
# _framework density 23.512241
#
# number of rings (size 3 to 8) (size 9 to 14) (size 15 to 20)
#    0.000    1.000    0.000    9.375    0.000    9.000 
#    0.000    1.250    0.000    0.000    0.000    0.000 
#    0.000    0.000    0.000    0.000    0.000    0.000 
#
# Total GULP energy -198307.758704 kJ/mol
# GULP energy per Si atom -12394.234919 kJ/mol
# Density = 2.345873 g / cm^3
# Si number density = 23.512241 Si / 1000 Ang^3
#
#
#
# Elastic Constant Matrix: (Units=GPa)
#
#
# Indices 1 2 3 4 5 6 
#
# 1 86.0965 24.1951 47.2589 3.8732 15.2050 -21.6617
# 2 24.1951 136.2263 43.3109 9.4568 5.0640 -30.4843
# 3 47.2589 43.3109 133.8385 5.2770 15.4609 -27.0189
# 4 3.8732 9.4568 5.2770 27.5796 1.2567 0.3310
# 5 15.2050 5.0640 15.4609 1.2567 32.9582 -1.2336
# 6 -21.6617 -30.4843 -27.0189 0.3310 -1.2336 48.8901
#
#
#
# Elastic Compliance Matrix: (Units=1/GPa)
#
#
# Indices 1 2 3 4 5 6 
#
# 1 0.016020 -0.000269 -0.003985 -0.001211 -0.005261 0.004604
# 2 -0.000269 0.009205 -0.001820 -0.002819 -0.000156 0.004630
# 3 -0.003985 -0.001820 0.010355 -0.000712 -0.002609 0.002761
# 4 -0.001211 -0.002819 -0.000712 0.037577 -0.000218 -0.002947
# 5 -0.005261 -0.000156 -0.002609 -0.000218 0.033912 -0.003013
# 6 0.004604 0.004630 0.002761 -0.002947 -0.003013 0.026850
#
#
# Mechanical properties :
#
#
# Convention : Reuss Voigt Hill
#
# Bulk Modulus (GPa) = 42.67690 65.07679 53.87684
# Shear Modulus (GPa) = 32.49389 37.97866 35.23628
#
# Velocity S-wave (km/s) = 3.72156 4.02340 3.87542
# Velocity P-wave (km/s) = 6.05450 7.02294 6.55662
#
# Compressibility (1/GPa) = 0.02343188
#
# Stress axis : x y z
#
# Youngs Moduli (GPa) = 62.42392 108.64198 96.57604
#
# Poissons Ratio (x) = 0.02917 0.38483
# Poissons Ratio (y) = 0.01676 0.17578
# Poissons Ratio (z) = 0.24874 0.19774
#
# Static dielectric constant tensor:
#      x y z
#    x 4.511220 0.264010 0.383350 
#    y 0.264010 4.669270 0.151030 
#    z 0.383350 0.151030 4.412530 
# 
# 
# High freq. dielectric constant tensor:
#      x y z
#    x 1.921570 0.003770 0.009640 
#    y 0.003770 1.959320 -0.005440 
#    z 0.009640 -0.005440 1.916390 
# 
# From -- ./inp_files/477235.got.cif
#   From: 2010.06.25/outbox.cif.g09.slc.cpg/sg2_239_cif.got.tgz:477235.got - 2010.06.27 13:26:56.
