data_PCOD8004244
_publ_section_title
;
Structure prediction by ZEFSAII (Michael W. Deem and Ramdas Pophale) SiO2 
 PCOD8004244
Probable space group: P -1
;
_chemical_formula_sum "Si O2"
_cell_formula_units_Z 16
_cell_length_a 21.745053
_cell_length_b 10.141493
_cell_length_c 19.807691
_cell_angle_alpha 46.800042
_cell_angle_beta 160.847747
_cell_angle_gamma 143.454937
_cell_volume 789.081637
_symmetry_space_group_name_H-M "P -1"
_symmetry_group_IT_number 2
_symmetry_cell_setting 'triclinic'
loop_
_space_group_symop_operation_xyz
x,y,z
-x,-y,-z
loop_
_atom_site_type_symbol
_atom_site_label
_atom_site_fract_x
_atom_site_fract_y
_atom_site_fract_z
Si Si1 0.928311 0.997510 0.810919
Si Si2 0.960119 0.617507 0.013403
Si Si3 0.352510 0.004549 0.717121
Si Si4 0.604030 0.192244 0.698055
Si Si5 0.058949 0.559273 0.657261
Si Si6 0.831386 0.502026 0.067341
Si Si7 0.490004 0.819302 0.813352
Si Si8 0.915081 0.821874 0.233252
O O1 0.650670 0.897176 0.565851
O O2 0.985351 0.002952 0.789137
O O3 0.955470 0.830543 0.938514
O O4 0.872139 0.738114 0.043667
O O5 0.957861 0.534391 0.115572
O O6 0.209041 0.704617 0.206492
O O7 0.714529 0.399971 0.794952
O O8 0.504375 0.962118 0.841929
O O9 0.131330 0.963155 0.463037
O O10 0.247308 0.832503 0.733203
O O11 0.537074 0.277232 0.838542
O O12 0.558313 0.969543 0.763228
O O13 0.787413 0.435014 0.390747
O O14 0.149649 0.424317 0.768413
O O15 0.049206 0.546430 0.732984
O O16 0.674158 0.767590 0.033012
#
# Coordination Sequence:
#
# PCOD8004244 Si02
#       8
#     2   2   2   2   2   2   2   2
#     4  11  21  39  61  89 123 159 191 243 298 357
#     4  11  23  38  62  89 121 156 197 243 297 355
#     4  11  22  40  62  90 119 159 202 247 296 348
#     4  11  21  39  63  90 118 153 201 246 295 350
#     4  10  23  40  63  86 121 160 200 248 298 346
#     4  11  22  41  59  88 127 161 197 237 297 363
#     4  11  19  40  65  89 120 153 199 256 294 347
#     4  10  20  37  66  90 117 152 201 252 297 345
#
# _framework density 20.276736
#
# number of rings (size 3 to 8) (size 9 to 14) (size 15 to 20)
#    0.000    1.250    6.250    2.625    0.000    2.500 
#    0.000    3.750    0.000    5.250    0.000    0.000 
#    0.000    0.000    0.000    0.000    0.000    0.000 
#
# Total GULP energy -198450.967720 kJ/mol
# GULP energy per Si atom -12403.185483 kJ/mol
# Density = 2.023059 g / cm^3
# Si number density = 20.276736 Si / 1000 Ang^3
#
#
#
# Elastic Constant Matrix: (Units=GPa)
#
#
# Indices 1 2 3 4 5 6 
#
# 1 91.4822 49.5929 57.1700 0.0522 -4.9729 4.9558
# 2 49.5929 104.6979 53.6004 22.5545 -0.6007 4.4604
# 3 57.1700 53.6004 122.6423 4.4379 11.9860 -18.3628
# 4 0.0522 22.5545 4.4379 27.1848 -6.1599 -2.7007
# 5 -4.9729 -0.6007 11.9860 -6.1599 32.2165 -0.6704
# 6 4.9558 4.4604 -18.3628 -2.7007 -0.6704 26.9708
#
#
#
# Elastic Compliance Matrix: (Units=1/GPa)
#
#
# Indices 1 2 3 4 5 6 
#
# 1 0.021161 -0.006607 -0.009253 0.007945 0.007936 -0.008102
# 2 -0.006607 0.019512 -0.005828 -0.016390 -0.001781 -0.007666
# 3 -0.009253 -0.005828 0.017915 0.001688 -0.007571 0.014842
# 4 0.007945 -0.016390 0.001688 0.053301 0.010651 0.008002
# 5 0.007936 -0.001781 -0.007571 0.010651 0.036995 -0.004332
# 6 -0.008102 -0.007666 0.014842 0.008002 -0.004332 0.050633
#
#
# Mechanical properties :
#
#
# Convention : Reuss Voigt Hill
#
# Bulk Modulus (GPa) = 65.74015 71.06101 68.40058
# Shear Modulus (GPa) = 20.16419 27.83836 24.00127
#
# Velocity S-wave (km/s) = 3.15691 3.70931 3.44421
# Velocity P-wave (km/s) = 6.76609 7.31211 7.04439
#
# Compressibility (1/GPa) = 0.01521140
#
# Stress axis : x y z
#
# Youngs Moduli (GPa) = 47.25634 51.25045 55.81791
#
# Poissons Ratio (x) = 0.33863 0.51647
# Poissons Ratio (y) = 0.31224 0.32532
# Poissons Ratio (z) = 0.43726 0.29870
#
# Static dielectric constant tensor:
#      x y z
#    x 3.704310 0.158810 -0.102520 
#    y 0.158810 3.761290 0.152130 
#    z -0.102520 0.152130 3.569020 
# 
# 
# High freq. dielectric constant tensor:
#      x y z
#    x 1.784920 0.018200 -0.007380 
#    y 0.018200 1.798390 0.012070 
#    z -0.007380 0.012070 1.781710 
# 
# From -- ./inp_files/602070.got.cif
#   From: 2010.06.25/outbox.cif.g09.slc.cpg/sg2_302_cif.got.tgz:602070.got - 2010.06.27 13:26:56.
