data_PCOD8004445
_publ_section_title
;
Structure prediction by ZEFSAII (Michael W. Deem and Ramdas Pophale) SiO2 
 PCOD8004445
Probable space group: P -1
;
_chemical_formula_sum "Si O2"
_cell_formula_units_Z 16
_cell_length_a 11.515676
_cell_length_b 14.534912
_cell_length_c 9.504233
_cell_angle_alpha 130.925280
_cell_angle_beta 50.617619
_cell_angle_gamma 135.769579
_cell_volume 796.220244
_symmetry_space_group_name_H-M "P -1"
_symmetry_group_IT_number 2
_symmetry_cell_setting 'triclinic'
loop_
_space_group_symop_operation_xyz
x,y,z
-x,-y,-z
loop_
_atom_site_type_symbol
_atom_site_label
_atom_site_fract_x
_atom_site_fract_y
_atom_site_fract_z
Si Si1 0.817736 0.127659 0.134126
Si Si2 0.736383 0.673340 0.385463
Si Si3 0.831065 0.826253 0.179298
Si Si4 0.676751 0.152694 0.531430
Si Si5 0.321322 0.863338 0.036427
Si Si6 0.548014 0.347153 0.221642
Si Si7 0.097909 0.887051 0.466497
Si Si8 0.410275 0.194190 0.907597
O O1 0.762447 0.210763 0.369984
O O2 0.802100 0.181814 0.048601
O O3 0.692966 0.960317 0.094847
O O4 0.018992 0.169927 0.029907
O O5 0.757932 0.705956 0.235111
O O6 0.689966 0.512910 0.279722
O O7 0.581820 0.694005 0.586637
O O8 0.909137 0.767120 0.438492
O O9 0.680849 0.796493 0.154183
O O10 0.906978 0.971968 0.354575
O O11 0.839398 0.154743 0.483791
O O12 0.610392 0.244298 0.755770
O O13 0.500000 0.000000 0.500000
O O14 0.346408 0.735271 0.936798
O O15 0.241738 0.915766 0.268974
O O16 0.500000 0.000000 0.000000
O O17 0.433838 0.305182 0.122364
#
# Coordination Sequence:
#
# PCOD8004445 Si02
#       8
#     2   2   2   2   2   2   2   2
#     4  11  22  37  59 101 125 158 205 262 321 363
#     4  11  27  43  63  93 128 172 208 259 313 378
#     4  12  24  39  64  97 129 161 207 266 311 374
#     4  10  20  38  58  95 128 160 203 259 322 361
#     4  12  22  38  68  94 122 163 210 266 312 371
#     4  11  25  46  65  89 128 169 215 254 318 376
#     4  12  22  40  65  96 127 161 211 266 311 364
#     4  11  22  39  65  91 128 165 204 262 312 370
#
# _framework density 20.094943000000001
#
# number of rings (size 3 to 8) (size 9 to 14) (size 15 to 20)
#    0.000    0.750    6.250    3.000    3.500    1.000 
#    0.000    0.000    0.000    1.500    0.000    0.000 
#    0.000    0.000    0.000    0.000    0.000    0.000 
#
# Total GULP energy -198332.475105 kJ/mol
# GULP energy per Si atom -12395.779694 kJ/mol
# Density = 2.004921 g / cm^3
# Si number density = 20.094943 Si / 1000 Ang^3
#
#
#
# Elastic Constant Matrix: (Units=GPa)
#
#
# Indices 1 2 3 4 5 6 
#
# 1 94.4724 25.1952 12.4333 4.0105 3.7186 -2.6532
# 2 25.1952 68.8038 30.8814 1.4886 -9.0062 6.1531
# 3 12.4333 30.8814 114.9868 -22.5458 -6.0396 -5.2835
# 4 4.0105 1.4886 -22.5458 21.5314 7.3153 -1.0163
# 5 3.7186 -9.0062 -6.0396 7.3153 33.8990 -3.7403
# 6 -2.6532 6.1531 -5.2835 -1.0163 -3.7403 16.4042
#
#
#
# Elastic Compliance Matrix: (Units=1/GPa)
#
#
# Indices 1 2 3 4 5 6 
#
# 1 0.012137 -0.004863 -0.000227 -0.001323 -0.002029 0.003170
# 2 -0.004863 0.021788 -0.007705 -0.011281 0.006200 -0.010726
# 3 -0.000227 -0.007705 0.014314 0.016685 -0.002190 0.007998
# 4 -0.001323 -0.011281 0.016685 0.070146 -0.013849 0.010580
# 5 -0.002029 0.006200 -0.002190 -0.013849 0.034367 0.003619
# 6 0.003170 -0.010726 0.007998 0.010580 0.003619 0.069552
#
#
# Mechanical properties :
#
#
# Convention : Reuss Voigt Hill
#
# Bulk Modulus (GPa) = 44.14925 46.14251 45.14588
# Shear Modulus (GPa) = 19.57381 28.35046 23.96213
#
# Velocity S-wave (km/s) = 3.12439 3.76017 3.45693
# Velocity P-wave (km/s) = 5.91893 6.47024 6.20071
#
# Compressibility (1/GPa) = 0.02265044
#
# Stress axis : x y z
#
# Youngs Moduli (GPa) = 82.39340 45.89712 69.85993
#
# Poissons Ratio (x) = 0.22320 0.01583
# Poissons Ratio (y) = 0.40068 0.53825
# Poissons Ratio (z) = 0.01867 0.35362
#
# Static dielectric constant tensor:
#      x y z
#    x 3.863670 0.065130 -0.070840 
#    y 0.065130 3.290290 -0.120970 
#    z -0.070840 -0.120970 4.200880 
# 
# 
# High freq. dielectric constant tensor:
#      x y z
#    x 1.794530 0.006530 0.005440 
#    y 0.006530 1.743630 -0.021030 
#    z 0.005440 -0.021030 1.809170 
# 
# From -- ./inp_files/190928.got.cif
#   From: 2010.06.25/outbox.cif.g09.slc.cpg/sg2_96_cif.got.tgz:190928.got - 2010.06.27 13:26:56.
