data_PCOD8004087
_publ_section_title
;
Structure prediction by ZEFSAII (Michael W. Deem and Ramdas Pophale) SiO2 
 PCOD8004087
Probable space group: P -1
;
_chemical_formula_sum "Si O2"
_cell_formula_units_Z 14
_cell_length_a 23.640097
_cell_length_b 15.139118
_cell_length_c 12.089623
_cell_angle_alpha 29.332457
_cell_angle_beta 152.434371
_cell_angle_gamma 159.468679
_cell_volume 678.753104
_symmetry_space_group_name_H-M "P -1"
_symmetry_group_IT_number 2
_symmetry_cell_setting 'triclinic'
loop_
_space_group_symop_operation_xyz
x,y,z
-x,-y,-z
loop_
_atom_site_type_symbol
_atom_site_label
_atom_site_fract_x
_atom_site_fract_y
_atom_site_fract_z
Si Si1 0.706058 0.037525 0.015992
Si Si2 0.964416 0.265556 0.410627
Si Si3 0.699678 0.165689 0.638573
Si Si4 0.503582 0.482456 0.347912
Si Si5 0.433527 0.048648 0.585336
Si Si6 0.782302 0.725421 0.755680
Si Si7 0.146479 0.603723 0.728099
O O1 0.568078 0.729791 0.128478
O O2 0.877809 0.196474 0.215439
O O3 0.608596 0.121221 0.783150
O O4 0.768156 0.104990 0.920903
O O5 0.873387 0.312135 0.283467
O O6 0.173815 0.523526 0.482887
O O7 0.935497 0.032667 0.659059
O O8 0.702124 0.083257 0.610062
O O9 0.500000 0.000000 0.500000
O O10 0.637054 0.561978 0.586999
O O11 0.310666 0.315878 0.245965
O O12 0.491653 0.313141 0.422168
O O13 0.338523 0.856298 0.735997
O O14 0.872487 0.628193 0.028877
O O15 0.000000 0.500000 0.500000
#
# Coordination Sequence:
#
# PCOD8004087 Si02
#       7
#     2   2   2   2   2   2   2
#     4  10  22  40  66  87 126 163 209 250 293 370
#     4  11  22  41  65  93 118 164 206 256 308 355
#     4  10  23  43  61  86 123 168 208 249 303 363
#     4  10  20  37  63  95 122 162 200 250 309 361
#     4  11  21  39  61  93 128 162 200 248 313 362
#     4  10  22  37  61  95 128 155 202 251 308 371
#     4  12  23  38  59  96 131 158 197 253 315 370
#
# _framework density 20.626055999999998
#
# number of rings (size 3 to 8) (size 9 to 14) (size 15 to 20)
#    0.000    1.429    4.286    1.286    0.000    2.286 
#    5.143    2.857    0.000   10.286    0.000    0.000 
#    0.000    0.000    0.000    0.000    0.000    0.000 
#
# Total GULP energy -173627.558319 kJ/mol
# GULP energy per Si atom -12401.968451 kJ/mol
# Density = 2.057911 g / cm^3
# Si number density = 20.626056 Si / 1000 Ang^3
#
#
#
# Elastic Constant Matrix: (Units=GPa)
#
#
# Indices 1 2 3 4 5 6 
#
# 1 77.9068 53.1627 50.5346 -21.8699 -9.2188 -6.9148
# 2 53.1627 135.4344 38.8390 -17.1142 -8.2759 -6.6758
# 3 50.5346 38.8390 108.0434 -22.0676 -0.6717 -14.3318
# 4 -21.8699 -17.1142 -22.0676 23.3446 0.4017 5.9904
# 5 -9.2188 -8.2759 -0.6717 0.4017 32.3916 -5.4955
# 6 -6.9148 -6.6758 -14.3318 5.9904 -5.4955 35.2010
#
#
#
# Elastic Compliance Matrix: (Units=1/GPa)
#
#
# Indices 1 2 3 4 5 6 
#
# 1 0.026057 -0.006172 -0.007341 0.012953 0.005459 -0.000393
# 2 -0.006172 0.010157 -0.000476 0.001077 0.000896 0.000477
# 3 -0.007341 -0.000476 0.014417 0.005617 -0.001446 0.003156
# 4 0.012953 0.001077 0.005617 0.062363 0.002423 -0.005199
# 5 0.005459 0.000896 -0.001446 0.002423 0.033524 0.005475
# 6 -0.000393 0.000477 0.003156 -0.005199 0.005475 0.031446
#
#
# Mechanical properties :
#
#
# Convention : Reuss Voigt Hill
#
# Bulk Modulus (GPa) = 44.14355 67.38413 55.76384
# Shear Modulus (GPa) = 23.42000 30.11066 26.76533
#
# Velocity S-wave (km/s) = 3.37331 3.82493 3.60619
# Velocity P-wave (km/s) = 6.05149 7.22821 6.66587
#
# Compressibility (1/GPa) = 0.02265337
#
# Stress axis : x y z
#
# Youngs Moduli (GPa) = 38.37784 98.45352 69.36155
#
# Poissons Ratio (x) = 0.60764 0.50920
# Poissons Ratio (y) = 0.23686 0.03300
# Poissons Ratio (z) = 0.28174 0.04684
#
# Static dielectric constant tensor:
#      x y z
#    x 4.042300 -0.079370 -0.431180 
#    y -0.079370 3.782430 -0.092420 
#    z -0.431180 -0.092420 3.755650 
# 
# 
# High freq. dielectric constant tensor:
#      x y z
#    x 1.804010 -0.004160 -0.019880 
#    y -0.004160 1.815940 -0.005960 
#    z -0.019880 -0.005960 1.799180 
# 
# From -- ./inp_files/75343.got.cif
#   From: 2010.06.25/outbox.cif.g09.slc.cpg/sg2_38_cif.got.tgz:75343.got - 2010.06.27 13:26:56.
