data_PCOD8004575
_publ_section_title
;
Structure prediction by ZEFSAII (Michael W. Deem and Ramdas Pophale) SiO2 
 PCOD8004575
Probable space group: P -1
;
_chemical_formula_sum "Si O2"
_cell_formula_units_Z 16
_cell_length_a 8.317418
_cell_length_b 13.982702
_cell_length_c 14.660876
_cell_angle_alpha 49.272917
_cell_angle_beta 51.529506
_cell_angle_gamma 90.196959
_cell_volume 732.332630
_symmetry_space_group_name_H-M "P -1"
_symmetry_group_IT_number 2
_symmetry_cell_setting 'triclinic'
loop_
_space_group_symop_operation_xyz
x,y,z
-x,-y,-z
loop_
_atom_site_type_symbol
_atom_site_label
_atom_site_fract_x
_atom_site_fract_y
_atom_site_fract_z
Si Si1 0.513490 0.665991 0.349692
Si Si2 0.358557 0.832027 0.209105
Si Si3 0.053325 0.494335 0.089265
Si Si4 0.448846 0.172570 0.189070
Si Si5 0.844813 0.377587 0.764604
Si Si6 0.032423 0.202654 0.346025
Si Si7 0.448668 0.562189 0.623937
Si Si8 0.813963 0.652386 0.608138
O O1 0.576380 0.833797 0.186541
O O2 0.640634 0.699071 0.386376
O O3 0.634071 0.616466 0.264874
O O4 0.176603 0.501592 0.589067
O O5 0.191611 0.672812 0.296655
O O6 0.142500 0.805583 0.370414
O O7 0.500000 0.000000 0.000000
O O8 0.027267 0.332745 0.213640
O O9 0.826423 0.468330 0.248968
O O10 0.355744 0.679077 0.895631
O O11 0.000000 0.500000 0.000000
O O12 0.202982 0.169269 0.248573
O O13 0.290222 0.981968 0.405388
O O14 0.641747 0.212549 0.008458
O O15 0.735276 0.473104 0.759024
O O16 0.215414 0.293131 0.318369
O O17 0.619553 0.638382 0.610631
#
# Coordination Sequence:
#
# PCOD8004575 Si02
#       8
#     2   2   2   2   2   2   2   2
#     4  10  20  38  60  87 123 169 206 252 312 375
#     4  11  21  36  59  93 126 165 218 259 305 364
#     4  12  25  41  67  96 128 169 202 256 327 384
#     4  11  24  44  68  92 124 165 215 268 309 370
#     4  11  19  38  65  88 121 166 216 258 299 370
#     4  11  25  44  67  95 122 163 220 266 310 372
#     4  11  21  37  64  90 125 164 207 251 320 377
#     4  11  20  39  64  90 121 166 217 258 304 378
#
# _framework density 21.847995999999998
#
# number of rings (size 3 to 8) (size 9 to 14) (size 15 to 20)
#    0.000    1.000    5.000    3.375    1.750    0.500 
#    0.000    1.875    0.000    0.000    0.000    0.000 
#    0.000    0.000    0.000    0.000    0.000    0.000 
#
# Total GULP energy -198317.218816 kJ/mol
# GULP energy per Si atom -12394.826176 kJ/mol
# Density = 2.179827 g / cm^3
# Si number density = 21.847996 Si / 1000 Ang^3
#
#
#
# Elastic Constant Matrix: (Units=GPa)
#
#
# Indices 1 2 3 4 5 6 
#
# 1 95.8981 21.1443 26.4760 -11.1769 24.3931 -5.1986
# 2 21.1443 55.3008 15.5571 5.0817 5.2569 -9.0706
# 3 26.4760 15.5571 60.3982 -12.3787 22.6116 -5.6246
# 4 -11.1769 5.0817 -12.3787 40.2876 -5.1134 2.6296
# 5 24.3931 5.2569 22.6116 -5.1134 31.1271 4.6026
# 6 -5.1986 -9.0706 -5.6246 2.6296 4.6026 32.6104
#
#
#
# Elastic Compliance Matrix: (Units=1/GPa)
#
#
# Indices 1 2 3 4 5 6 
#
# 1 0.014594 -0.004342 -0.000721 0.002962 -0.010014 0.002169
# 2 -0.004342 0.022370 -0.005250 -0.005729 0.001782 0.004835
# 3 -0.000721 -0.005250 0.026495 0.006052 -0.017538 0.004982
# 4 0.002962 -0.005729 0.006052 0.028274 -0.000773 -0.002248
# 5 -0.010014 0.001782 -0.017538 -0.000773 0.054014 -0.011687
# 6 0.002169 0.004835 0.004982 -0.002248 -0.011687 0.035046
#
#
# Mechanical properties :
#
#
# Convention : Reuss Voigt Hill
#
# Bulk Modulus (GPa) = 23.34594 37.55020 30.44807
# Shear Modulus (GPa) = 23.18085 30.69967 26.94026
#
# Velocity S-wave (km/s) = 3.26084 3.75260 3.51533
# Velocity P-wave (km/s) = 4.98861 6.00003 5.51754
#
# Compressibility (1/GPa) = 0.04283400
#
# Stress axis : x y z
#
# Youngs Moduli (GPa) = 68.52069 44.70291 37.74309
#
# Poissons Ratio (x) = 0.19409 0.02721
# Poissons Ratio (y) = 0.29750 0.19814
# Poissons Ratio (z) = 0.04940 0.23468
#
# Static dielectric constant tensor:
#      x y z
#    x 5.012540 2.204490 0.232760 
#    y 2.204490 9.381380 0.553640 
#    z 0.232760 0.553640 3.971000 
# 
# 
# High freq. dielectric constant tensor:
#      x y z
#    x 1.857650 -0.005770 0.013300 
#    y -0.005770 1.860480 0.021940 
#    z 0.013300 0.021940 1.847660 
# 
# From -- ./inp_files/398895.got.cif
#   From: 2010.06.25/outbox.cif.g09.slc.cpg/sg2_200_cif.got.tgz:398895.got - 2010.06.27 13:26:56.
