data_PCOD8004360
_publ_section_title
;
Structure prediction by ZEFSAII (Michael W. Deem and Ramdas Pophale) SiO2 
 PCOD8004360
Probable space group: P -1
;
_chemical_formula_sum "Si O2"
_cell_formula_units_Z 16
_cell_length_a 8.280041
_cell_length_b 26.379209
_cell_length_c 20.247754
_cell_angle_alpha 19.163747
_cell_angle_beta 40.863814
_cell_angle_gamma 33.705187
_cell_volume 794.961203
_symmetry_space_group_name_H-M "P -1"
_symmetry_group_IT_number 2
_symmetry_cell_setting 'triclinic'
loop_
_space_group_symop_operation_xyz
x,y,z
-x,-y,-z
loop_
_atom_site_type_symbol
_atom_site_label
_atom_site_fract_x
_atom_site_fract_y
_atom_site_fract_z
Si Si1 0.578187 0.605733 0.670078
Si Si2 0.482664 0.951551 0.138253
Si Si3 0.523915 0.328911 0.816393
Si Si4 0.037786 0.245139 0.670880
Si Si5 0.710320 0.306852 0.479775
Si Si6 0.226911 0.965269 0.416411
Si Si7 0.778921 0.972322 0.250384
Si Si8 0.072610 0.231265 0.021402
O O1 0.337337 0.632025 0.657721
O O2 0.840789 0.622334 0.538111
O O3 0.396288 0.754661 0.599625
O O4 0.739723 0.403793 0.900973
O O5 0.517383 0.754994 0.362860
O O6 0.744149 0.923177 0.139843
O O7 0.180604 0.114441 0.064106
O O8 0.500000 0.000000 0.000000
O O9 0.713875 0.345548 0.679172
O O10 0.346637 0.525616 0.664257
O O11 0.289277 0.294881 0.897954
O O12 0.724624 0.170829 0.003450
O O13 0.044143 0.161824 0.700646
O O14 0.028435 0.122284 0.626874
O O15 0.056721 0.103131 0.238811
O O16 0.465248 0.002811 0.324880
O O17 0.000000 0.000000 0.500000
#
# Coordination Sequence:
#
# PCOD8004360 Si02
#       8
#     2   2   2   2   2   2   2   2
#     4  10  23  39  58  90 126 156 203 248 302 369
#     4  11  23  37  57  88 129 173 204 242 297 355
#     4  11  22  34  61  87 118 167 206 247 293 350
#     4  10  20  38  55  86 127 166 209 243 290 359
#     4  11  24  37  58  90 127 161 201 247 297 354
#     4  10  21  45  71  89 115 156 203 258 315 365
#     4  10  21  39  59  89 121 155 207 256 296 360
#     4  11  23  42  62  89 125 162 206 250 297 366
#
# _framework density 20.126767999999998
#
# number of rings (size 3 to 8) (size 9 to 14) (size 15 to 20)
#    0.000    1.500    5.000    2.625    7.000    2.500 
#    0.000    0.625    0.000    3.750    0.000    0.000 
#    0.000    0.000    0.000    0.000    0.000    0.000 
#
# Total GULP energy -198301.518867 kJ/mol
# GULP energy per Si atom -12393.844929 kJ/mol
# Density = 2.008096 g / cm^3
# Si number density = 20.126768 Si / 1000 Ang^3
#
#
#
# Elastic Constant Matrix: (Units=GPa)
#
#
# Indices 1 2 3 4 5 6 
#
# 1 79.1113 24.0956 36.3835 -3.2086 22.7049 3.4853
# 2 24.0956 113.9348 43.7858 12.8058 7.2000 11.2529
# 3 36.3835 43.7858 102.9155 -19.1583 18.2628 8.2823
# 4 -3.2086 12.8058 -19.1583 24.0556 -3.9432 2.0575
# 5 22.7049 7.2000 18.2628 -3.9432 45.8039 -7.5428
# 6 3.4853 11.2529 8.2823 2.0575 -7.5428 19.4500
#
#
#
# Elastic Compliance Matrix: (Units=1/GPa)
#
#
# Indices 1 2 3 4 5 6 
#
# 1 0.017116 -0.000973 -0.004381 -0.001598 -0.007263 -0.003286
# 2 -0.000973 0.013779 -0.007695 -0.013366 -0.000297 -0.003222
# 3 -0.004381 -0.007695 0.019196 0.018736 -0.003707 -0.006357
# 4 -0.001598 -0.013366 0.018736 0.063944 -0.000192 -0.006798
# 5 -0.007263 -0.000297 -0.003707 -0.000192 0.029319 0.014442
# 6 -0.003286 -0.003222 -0.006357 -0.006798 0.014442 0.062894
#
#
# Mechanical properties :
#
#
# Convention : Reuss Voigt Hill
#
# Bulk Modulus (GPa) = 41.67627 56.05460 48.86543
# Shear Modulus (GPa) = 20.80349 30.64169 25.72259
#
# Velocity S-wave (km/s) = 3.21849 3.90607 3.57883
# Velocity P-wave (km/s) = 5.87906 6.94654 6.43498
#
# Compressibility (1/GPa) = 0.02399447
#
# Stress axis : x y z
#
# Youngs Moduli (GPa) = 58.42397 72.57365 52.09312
#
# Poissons Ratio (x) = 0.07061 0.22823
# Poissons Ratio (y) = 0.05685 0.40083
# Poissons Ratio (z) = 0.25596 0.55842
#
# Static dielectric constant tensor:
#      x y z
#    x 3.882600 0.022510 0.199550 
#    y 0.022510 3.128740 -0.087960 
#    z 0.199550 -0.087960 3.865550 
# 
# 
# High freq. dielectric constant tensor:
#      x y z
#    x 1.794840 0.004770 0.011140 
#    y 0.004770 1.740350 -0.017410 
#    z 0.011140 -0.017410 1.792940 
# 
# From -- ./inp_files/297354.got.cif
#   From: 2010.06.25/outbox.cif.g09.slc.cpg/sg2_149_cif.got.tgz:297354.got - 2010.06.27 13:26:56.
