data_PCOD8004771
_publ_section_title
;
Structure prediction by ZEFSAII (Michael W. Deem and Ramdas Pophale) SiO2 
 PCOD8004771
Probable space group: P -1
;
_chemical_formula_sum "Si O2"
_cell_formula_units_Z 16
_cell_length_a 16.422369
_cell_length_b 19.827174
_cell_length_c 9.253063
_cell_angle_alpha 143.134131
_cell_angle_beta 141.864407
_cell_angle_gamma 26.706008
_cell_volume 782.961843
_symmetry_space_group_name_H-M "P -1"
_symmetry_group_IT_number 2
_symmetry_cell_setting 'triclinic'
loop_
_space_group_symop_operation_xyz
x,y,z
-x,-y,-z
loop_
_atom_site_type_symbol
_atom_site_label
_atom_site_fract_x
_atom_site_fract_y
_atom_site_fract_z
Si Si1 0.707269 0.344246 0.286268
Si Si2 0.028687 0.233404 0.040238
Si Si3 0.593813 0.042359 0.286833
Si Si4 0.540232 0.634843 0.373084
Si Si5 0.137167 0.819813 0.063110
Si Si6 0.654041 0.581262 0.118264
Si Si7 0.403770 0.133253 0.472379
Si Si8 0.976458 0.875106 0.446335
O O1 0.664730 0.495868 0.428252
O O2 0.818243 0.291240 0.500548
O O3 0.851120 0.191214 0.114255
O O4 0.520050 0.386197 0.129146
O O5 0.855003 0.415991 0.059472
O O6 0.218426 0.189357 0.242023
O O7 0.986850 0.206242 0.092234
O O8 0.044227 0.124822 0.755745
O O9 0.522644 0.202062 0.387201
O O10 0.554590 0.060232 0.431912
O O11 0.817349 0.894168 0.329399
O O12 0.500000 0.000000 0.000000
O O13 0.355144 0.669527 0.155678
O O14 0.655818 0.577131 0.287671
O O15 0.050664 0.982753 0.291369
O O16 0.640343 0.716425 0.268892
O O17 0.500000 0.000000 0.500000
#
# Coordination Sequence:
#
# PCOD8004771 Si02
#       8
#     2   2   2   2   2   2   2   2
#     4  11  20  40  65  96 117 156 212 246 298 359
#     4  12  22  41  60  87 132 158 199 246 315 358
#     4  10  21  45  61  83 125 161 201 246 306 363
#     4   9  18  38  67  87 113 164 204 242 300 357
#     4  10  20  38  62  87 121 163 202 246 299 362
#     4  10  21  41  64  87 126 161 199 252 299 362
#     4  11  26  41  65  90 114 165 214 249 295 360
#     4  11  25  36  61  96 122 160 195 256 311 349
#
# _framework density 20.435220999999999
#
# number of rings (size 3 to 8) (size 9 to 14) (size 15 to 20)
#    0.000    1.500    3.750    2.625    3.500    0.500 
#    2.250    0.625    0.000    0.000    0.000    0.000 
#    0.000    0.000    0.000    0.000    0.000    0.000 
#
# Total GULP energy -198371.678392 kJ/mol
# GULP energy per Si atom -12398.229899 kJ/mol
# Density = 2.038871 g / cm^3
# Si number density = 20.435221 Si / 1000 Ang^3
#
#
#
# Elastic Constant Matrix: (Units=GPa)
#
#
# Indices 1 2 3 4 5 6 
#
# 1 63.4817 25.8820 16.6850 -5.7708 9.5684 0.3728
# 2 25.8820 100.0896 36.0518 -9.3733 5.8357 3.7528
# 3 16.6850 36.0518 84.5188 -6.2138 12.7553 6.1242
# 4 -5.7708 -9.3733 -6.2138 31.0353 -2.0777 4.7142
# 5 9.5684 5.8357 12.7553 -2.0777 28.1635 4.5914
# 6 0.3728 3.7528 6.1242 4.7142 4.5914 29.7512
#
#
#
# Elastic Compliance Matrix: (Units=1/GPa)
#
#
# Indices 1 2 3 4 5 6 
#
# 1 0.018573 -0.003984 -0.001175 0.001521 -0.005010 0.001044
# 2 -0.003984 0.012896 -0.004618 0.002488 0.001152 -0.001198
# 3 -0.001175 -0.004618 0.015033 0.001353 -0.005037 -0.001934
# 4 0.001521 0.002488 0.001353 0.034630 0.001953 -0.006400
# 5 -0.005010 0.001152 -0.005037 0.001953 0.040305 -0.005575
# 6 0.001044 -0.001198 -0.001934 -0.006400 -0.005575 0.036023
#
#
# Mechanical properties :
#
#
# Convention : Reuss Voigt Hill
#
# Bulk Modulus (GPa) = 37.10885 45.03640 41.07262
# Shear Modulus (GPa) = 26.88227 29.08810 27.98519
#
# Velocity S-wave (km/s) = 3.63090 3.77693 3.70463
# Velocity P-wave (km/s) = 5.98135 6.41145 6.20013
#
# Compressibility (1/GPa) = 0.02694775
#
# Stress axis : x y z
#
# Youngs Moduli (GPa) = 53.84143 77.54603 66.51856
#
# Poissons Ratio (x) = 0.30896 0.07814
# Poissons Ratio (y) = 0.21452 0.30720
# Poissons Ratio (z) = 0.06325 0.35812
#
# Static dielectric constant tensor:
#      x y z
#    x 3.825700 -0.244550 0.113650 
#    y -0.244550 3.746550 0.137180 
#    z 0.113650 0.137180 3.663710 
# 
# 
# High freq. dielectric constant tensor:
#      x y z
#    x 1.793310 -0.012580 0.011570 
#    y -0.012580 1.798630 0.010960 
#    z 0.011570 0.010960 1.788270 
# 
# From -- ./inp_files/204317.got.cif
#   From: 2010.06.25/outbox.cif.g09.slc.cpg/sg2_103_cif.got.tgz:204317.got - 2010.06.27 13:26:56.
