data_PCOD8004257
_publ_section_title
;
Structure prediction by ZEFSAII (Michael W. Deem and Ramdas Pophale) SiO2 
 PCOD8004257
Probable space group: P -1
;
_chemical_formula_sum "Si O2"
_cell_formula_units_Z 16
_cell_length_a 13.666146
_cell_length_b 8.659416
_cell_length_c 11.783141
_cell_angle_alpha 89.771547
_cell_angle_beta 64.301901
_cell_angle_gamma 133.593511
_cell_volume 806.002153
_symmetry_space_group_name_H-M "P -1"
_symmetry_group_IT_number 2
_symmetry_cell_setting 'triclinic'
loop_
_space_group_symop_operation_xyz
x,y,z
-x,-y,-z
loop_
_atom_site_type_symbol
_atom_site_label
_atom_site_fract_x
_atom_site_fract_y
_atom_site_fract_z
Si Si1 0.535619 0.459862 0.863081
Si Si2 0.679365 0.569130 0.446948
Si Si3 0.303360 0.756906 0.584875
Si Si4 0.188091 0.765087 0.420382
Si Si5 0.810689 0.245804 0.128298
Si Si6 0.824745 0.891282 0.581966
Si Si7 0.659354 0.758110 0.260416
Si Si8 0.492440 0.932007 0.130687
O O1 0.724728 0.709834 0.736921
O O2 0.411393 0.381628 0.824255
O O3 0.534071 0.276436 0.869275
O O4 0.500000 0.500000 0.000000
O O5 0.750335 0.474212 0.426937
O O6 0.751237 0.772940 0.496460
O O7 0.728987 0.684602 0.294638
O O8 0.480897 0.331789 0.579234
O O9 0.233854 0.801417 0.528757
O O10 0.212707 0.681635 0.748357
O O11 0.500000 0.000000 0.500000
O O12 0.332202 0.833745 0.275041
O O13 0.000000 0.500000 0.500000
O O14 0.179535 0.933207 0.391415
O O15 0.791820 0.041206 0.166298
O O16 0.670104 0.150113 0.107630
O O17 0.000000 0.500000 0.000000
O O18 0.000000 0.000000 0.500000
O O19 0.500000 0.000000 0.000000
#
# Coordination Sequence:
#
# PCOD8004257 Si02
#       8
#     2   2   2   2   2   2   2   2
#     4  10  21  39  63  88 126 172 211 259 319 389
#     4  10  20  37  66  94 122 161 215 274 318 383
#     4  12  22  40  68  97 127 167 224 272 326 394
#     4  12  25  42  70  97 130 174 222 278 329 392
#     4  11  24  42  63  93 136 174 218 270 329 392
#     4  11  23  41  64  95 128 162 214 273 331 385
#     4   9  19  38  64  90 122 165 216 261 322 381
#     4  11  24  43  64  96 132 174 225 269 329 396
#
# _framework density 19.851064999999998
#
# number of rings (size 3 to 8) (size 9 to 14) (size 15 to 20)
#    0.000    1.250    2.500    4.500    5.250    1.000 
#    6.750    0.625    0.000    0.000    0.000    0.000 
#    0.000    0.000    0.000    0.000    0.000    0.000 
#
# Total GULP energy -198265.893484 kJ/mol
# GULP energy per Si atom -12391.618343 kJ/mol
# Density = 1.980588 g / cm^3
# Si number density = 19.851065 Si / 1000 Ang^3
#
#
#
# Elastic Constant Matrix: (Units=GPa)
#
#
# Indices 1 2 3 4 5 6 
#
# 1 105.7047 41.2785 61.5181 -2.2251 6.5036 9.1510
# 2 41.2785 110.2409 72.6214 -5.3150 -5.9780 4.6515
# 3 61.5181 72.6214 158.5503 -0.5951 6.5901 14.7614
# 4 -2.2251 -5.3150 -0.5951 42.9987 1.9136 -6.2182
# 5 6.5036 -5.9780 6.5901 1.9136 40.6710 1.5329
# 6 9.1510 4.6515 14.7614 -6.2182 1.5329 29.9601
#
#
#
# Elastic Compliance Matrix: (Units=1/GPa)
#
#
# Indices 1 2 3 4 5 6 
#
# 1 0.012762 -0.002411 -0.003623 0.000157 -0.001754 -0.001616
# 2 -0.002411 0.013925 -0.005716 0.001599 0.003225 0.001558
# 3 -0.003623 -0.005716 0.010722 -0.001162 -0.001814 -0.003437
# 4 0.000157 0.001599 -0.001162 0.024264 -0.000945 0.005361
# 5 -0.001754 0.003225 -0.001814 -0.000945 0.025702 -0.000582
# 6 -0.001616 0.001558 -0.003437 0.005361 -0.000582 0.036465
#
#
# Mechanical properties :
#
#
# Convention : Reuss Voigt Hill
#
# Bulk Modulus (GPa) = 71.89672 80.59240 76.24456
# Shear Modulus (GPa) = 32.89974 35.99783 34.44879
#
# Velocity S-wave (km/s) = 4.07545 4.26302 4.17029
# Velocity P-wave (km/s) = 7.64476 8.05716 7.85367
#
# Compressibility (1/GPa) = 0.01390884
#
# Stress axis : x y z
#
# Youngs Moduli (GPa) = 78.35967 71.81127 93.26559
#
# Poissons Ratio (x) = 0.17314 0.33793
# Poissons Ratio (y) = 0.18893 0.53309
# Poissons Ratio (z) = 0.28392 0.41046
#
# Static dielectric constant tensor:
#      x y z
#    x 6.554840 0.194340 0.440150 
#    y 0.194340 3.653530 0.110470 
#    z 0.440150 0.110470 3.635790 
# 
# 
# High freq. dielectric constant tensor:
#      x y z
#    x 1.775960 -0.007380 0.017480 
#    y -0.007380 1.785410 0.002890 
#    z 0.017480 0.002890 1.773230 
# 
# From -- ./inp_files/238486.got.cif
#   From: 2010.06.25/outbox.cif.g09.slc.cpg/sg2_120_cif.got.tgz:238486.got - 2010.06.27 13:26:56.
