data_PCOD8004459
_publ_section_title
;
Structure prediction by ZEFSAII (Michael W. Deem and Ramdas Pophale) SiO2 
 PCOD8004459
Probable space group: P -1
;
_chemical_formula_sum "Si O2"
_cell_formula_units_Z 14
_cell_length_a 14.869248
_cell_length_b 20.541315
_cell_length_c 8.526188
_cell_angle_alpha 129.701036
_cell_angle_beta 126.941305
_cell_angle_gamma 20.128797
_cell_volume 689.505093
_symmetry_space_group_name_H-M "P -1"
_symmetry_group_IT_number 2
_symmetry_cell_setting 'triclinic'
loop_
_space_group_symop_operation_xyz
x,y,z
-x,-y,-z
loop_
_atom_site_type_symbol
_atom_site_label
_atom_site_fract_x
_atom_site_fract_y
_atom_site_fract_z
Si Si1 0.231773 0.287597 0.984884
Si Si2 0.206289 0.110104 0.674079
Si Si3 0.251006 0.720435 0.028353
Si Si4 0.298550 0.612277 0.596112
Si Si5 0.228792 0.009928 0.867933
Si Si6 0.453228 0.710030 0.451250
Si Si7 0.737465 0.673179 0.585168
O O1 0.200555 0.212556 0.783012
O O2 0.218832 0.298201 0.174456
O O3 0.000000 0.500000 0.000000
O O4 0.510772 0.137339 0.992463
O O5 0.165955 0.120166 0.833579
O O6 0.978399 0.219347 0.509739
O O7 0.481814 0.884086 0.553988
O O8 0.279508 0.793538 0.250644
O O9 0.999322 0.841035 0.015001
O O10 0.500000 0.500000 0.000000
O O11 0.249032 0.722681 0.839163
O O12 0.500000 0.500000 0.500000
O O13 0.416942 0.452059 0.563091
O O14 0.265031 0.893370 0.646529
O O15 0.687709 0.609156 0.477412
O O16 0.000000 0.500000 0.500000
#
# Coordination Sequence:
#
# PCOD8004459 Si02
#       7
#     2   2   2   2   2   2   2
#     4  10  21  38  59  85 115 152 191 236 292 345
#     4  10  20  38  59  83 116 153 191 239 288 342
#     4  10  21  36  58  84 112 152 193 233 288 343
#     4  11  23  38  57  86 117 152 195 241 288 342
#     4  10  20  38  60  84 113 152 192 237 290 344
#     4   9  20  40  59  82 117 153 190 240 289 341
#     4  10  22  38  59  88 116 150 194 238 287 343
#
# _framework density 20.304418999999999
#
# number of rings (size 3 to 8) (size 9 to 14) (size 15 to 20)
#    0.000    2.286    0.000    5.571    0.000    8.000 
#    0.000    8.571    0.000    0.000    0.000    0.000 
#    0.000    0.000    0.000    0.000    0.000    0.000 
#
# Total GULP energy -173535.011792 kJ/mol
# GULP energy per Si atom -12395.357985 kJ/mol
# Density = 2.025821 g / cm^3
# Si number density = 20.304419 Si / 1000 Ang^3
#
#
#
# Elastic Constant Matrix: (Units=GPa)
#
#
# Indices 1 2 3 4 5 6 
#
# 1 107.2302 65.9032 45.7309 9.0882 -2.2811 -19.1946
# 2 65.9032 147.4904 61.4572 -11.0524 -3.6304 -19.6457
# 3 45.7309 61.4572 98.7392 -17.7122 3.3206 -13.3953
# 4 9.0882 -11.0524 -17.7122 34.6543 -3.1441 -2.1012
# 5 -2.2811 -3.6304 3.3206 -3.1441 31.2500 12.9234
# 6 -19.1946 -19.6457 -13.3953 -2.1012 12.9234 49.7452
#
#
#
# Elastic Compliance Matrix: (Units=1/GPa)
#
#
# Indices 1 2 3 4 5 6 
#
# 1 0.015952 -0.005250 -0.005274 -0.008472 -0.000773 0.002504
# 2 -0.005250 0.011137 -0.003812 0.003156 0.001144 0.001182
# 3 -0.005274 -0.003812 0.016863 0.008675 -0.002590 0.002040
# 4 -0.008472 0.003156 0.008675 0.036779 0.001966 0.001356
# 5 -0.000773 0.001144 -0.002590 0.001966 0.036681 -0.009990
# 6 0.002504 0.001182 0.002040 0.001356 -0.009990 0.024737
#
#
# Mechanical properties :
#
#
# Convention : Reuss Voigt Hill
#
# Bulk Modulus (GPa) = 65.45137 77.73804 71.59470
# Shear Modulus (GPa) = 28.42289 35.15445 31.78867
#
# Velocity S-wave (km/s) = 3.74550 4.16549 3.96106
# Velocity P-wave (km/s) = 7.14213 7.84248 7.50048
#
# Compressibility (1/GPa) = 0.01527852
#
# Stress axis : x y z
#
# Youngs Moduli (GPa) = 62.68925 89.79401 59.30157
#
# Poissons Ratio (x) = 0.47145 0.31276
# Poissons Ratio (y) = 0.32914 0.22606
# Poissons Ratio (z) = 0.33062 0.34229
#
# Static dielectric constant tensor:
#      x y z
#    x 3.602270 -0.181070 0.113510 
#    y -0.181070 3.992270 -0.132100 
#    z 0.113510 -0.132100 4.254310 
# 
# 
# High freq. dielectric constant tensor:
#      x y z
#    x 1.780290 -0.008940 0.013570 
#    y -0.008940 1.803930 -0.007090 
#    z 0.013570 -0.007090 1.795460 
# 
# From -- ./inp_files/269557.got.cif
#   From: 2010.06.25/outbox.cif.g09.slc.cpg/sg2_135_cif.got.tgz:269557.got - 2010.06.27 13:26:56.
