data_PCOD8004014
_publ_section_title
;
Structure prediction by ZEFSAII (Michael W. Deem and Ramdas Pophale) SiO2 
 PCOD8004014
Probable space group: P -1
;
_chemical_formula_sum "Si O2"
_cell_formula_units_Z 16
_cell_length_a 15.065913
_cell_length_b 11.828635
_cell_length_c 8.783907
_cell_angle_alpha 40.343240
_cell_angle_beta 123.648715
_cell_angle_gamma 104.108234
_cell_volume 795.920348
_symmetry_space_group_name_H-M "P -1"
_symmetry_group_IT_number 2
_symmetry_cell_setting 'triclinic'
loop_
_space_group_symop_operation_xyz
x,y,z
-x,-y,-z
loop_
_atom_site_type_symbol
_atom_site_label
_atom_site_fract_x
_atom_site_fract_y
_atom_site_fract_z
Si Si1 0.762720 0.681922 0.283412
Si Si2 0.637846 0.440206 0.030525
Si Si3 0.761905 0.047893 0.045635
Si Si4 0.623721 0.422316 0.386803
Si Si5 0.221872 0.935443 0.598543
Si Si6 0.990050 0.462107 0.354811
Si Si7 0.241864 0.273100 0.126244
Si Si8 0.000847 0.943940 0.231881
O O1 0.679127 0.568690 0.355993
O O2 0.889261 0.555947 0.588663
O O3 0.723582 0.873869 0.141118
O O4 0.765201 0.733487 0.055809
O O5 0.657612 0.377611 0.289159
O O6 0.714222 0.275245 0.169434
O O7 0.509309 0.485128 0.812703
O O8 0.671860 0.622737 0.848065
O O9 0.777946 0.043970 0.243540
O O10 0.664062 0.233668 0.712918
O O11 0.877370 0.045308 0.078037
O O12 0.092428 0.007002 0.345272
O O13 0.285483 0.065582 0.446956
O O14 0.962244 0.275472 0.494329
O O15 0.000000 0.500000 0.500000
O O16 0.882215 0.625255 0.020356
O O17 0.000000 0.000000 0.000000
#
# Coordination Sequence:
#
# PCOD8004014 Si02
#       8
#     2   2   2   2   2   2   2   2
#     4   9  20  38  59  90 118 157 207 253 304 357
#     4  10  22  42  65  94 113 160 219 257 305 350
#     4  11  25  39  57  93 130 161 199 246 317 373
#     4  10  22  41  68  87 120 159 212 267 295 360
#     4  12  24  39  59  91 130 164 197 249 313 374
#     4   9  17  32  57  92 115 148 198 249 303 352
#     4  10  20  37  63  87 121 158 207 256 300 360
#     4  11  21  38  64  90 125 159 208 254 297 365
#
# _framework density 20.102513999999999
#
# number of rings (size 3 to 8) (size 9 to 14) (size 15 to 20)
#    0.000    1.750    1.250    4.125    5.250    2.500 
#    0.000    6.250    0.000    0.000    0.000    0.000 
#    0.000    0.000    0.000    0.000    0.000    0.000 
#
# Total GULP energy -198418.196045 kJ/mol
# GULP energy per Si atom -12401.137253 kJ/mol
# Density = 2.005676 g / cm^3
# Si number density = 20.102514 Si / 1000 Ang^3
#
#
#
# Elastic Constant Matrix: (Units=GPa)
#
#
# Indices 1 2 3 4 5 6 
#
# 1 64.3342 49.9123 20.2264 10.9998 9.3245 10.5893
# 2 49.9123 131.7601 45.7985 2.3056 2.7768 14.9367
# 3 20.2264 45.7985 67.4202 6.6274 5.2390 3.1113
# 4 10.9998 2.3056 6.6274 22.1551 -0.8101 -0.3878
# 5 9.3245 2.7768 5.2390 -0.8101 20.0378 4.7578
# 6 10.5893 14.9367 3.1113 -0.3878 4.7578 35.2562
#
#
#
# Elastic Compliance Matrix: (Units=1/GPa)
#
#
# Indices 1 2 3 4 5 6 
#
# 1 0.027288 -0.009841 0.000813 -0.013233 -0.011441 -0.002700
# 2 -0.009841 0.014026 -0.007436 0.005800 0.005530 -0.003013
# 3 0.000813 -0.007436 0.020562 -0.005946 -0.005380 0.001752
# 4 -0.013233 0.005800 -0.005946 0.053226 0.008716 0.001451
# 5 -0.011441 0.005530 -0.005380 0.008716 0.057675 -0.006119
# 6 -0.002700 -0.003013 0.001752 0.001451 -0.006119 0.031138
#
#
# Mechanical properties :
#
#
# Convention : Reuss Voigt Hill
#
# Bulk Modulus (GPa) = 34.54582 55.04321 44.79451
# Shear Modulus (GPa) = 20.28460 25.32831 22.80645
#
# Velocity S-wave (km/s) = 3.18001 3.55344 3.37190
# Velocity P-wave (km/s) = 5.54125 6.65407 6.12299
#
# Compressibility (1/GPa) = 0.02894706
#
# Stress axis : x y z
#
# Youngs Moduli (GPa) = 36.64558 71.29820 48.63432
#
# Poissons Ratio (x) = 0.70164 -0.03953
# Poissons Ratio (y) = 0.36062 0.36165
# Poissons Ratio (z) = -0.02978 0.53018
#
# Static dielectric constant tensor:
#      x y z
#    x 3.603130 0.174070 0.190400 
#    y 0.174070 3.822420 -0.068870 
#    z 0.190400 -0.068870 3.552540 
# 
# 
# High freq. dielectric constant tensor:
#      x y z
#    x 1.769470 0.012800 0.011200 
#    y 0.012800 1.798610 -0.009570 
#    z 0.011200 -0.009570 1.773600 
# 
# From -- ./inp_files/258547.got.cif
#   From: 2010.06.25/outbox.cif.g09.slc.cpg/sg2_130_cif.got.tgz:258547.got - 2010.06.27 13:26:56.
