data_PCOD8004094
_publ_section_title
;
Structure prediction by ZEFSAII (Michael W. Deem and Ramdas Pophale) SiO2 
 PCOD8004094
Probable space group: P -1
;
_chemical_formula_sum "Si O2"
_cell_formula_units_Z 16
_cell_length_a 12.714142
_cell_length_b 16.207662
_cell_length_c 8.699101
_cell_angle_alpha 68.445024
_cell_angle_beta 66.806122
_cell_angle_gamma 25.678255
_cell_volume 713.632853
_symmetry_space_group_name_H-M "P -1"
_symmetry_group_IT_number 2
_symmetry_cell_setting 'triclinic'
loop_
_space_group_symop_operation_xyz
x,y,z
-x,-y,-z
loop_
_atom_site_type_symbol
_atom_site_label
_atom_site_fract_x
_atom_site_fract_y
_atom_site_fract_z
Si Si1 0.056054 0.557566 0.995225
Si Si2 0.689766 0.937064 0.776342
Si Si3 0.449274 0.784517 0.211862
Si Si4 0.032692 0.976298 0.677947
Si Si5 0.439528 0.387187 0.414596
Si Si6 0.438864 0.980801 0.689667
Si Si7 0.035542 0.176922 0.602526
Si Si8 0.818911 0.576544 0.668661
O O1 0.340766 0.384344 0.914013
O O2 0.891162 0.747697 0.888866
O O3 0.020705 0.582212 0.183657
O O4 0.000000 0.500000 0.000000
O O5 0.469740 0.019791 0.798757
O O6 0.817473 0.892839 0.584571
O O7 0.563385 0.100548 0.837187
O O8 0.511775 0.693138 0.396902
O O9 0.187976 0.931622 0.189401
O O10 0.304437 0.748541 0.707491
O O11 0.025695 0.078387 0.685773
O O12 0.000000 0.000000 0.500000
O O13 0.348705 0.375613 0.358644
O O14 0.244433 0.599152 0.398644
O O15 0.645701 0.763715 0.729869
O O16 0.500000 0.000000 0.500000
O O17 0.168137 0.124942 0.716055
O O18 0.000000 0.500000 0.500000
#
# Coordination Sequence:
#
# PCOD8004094 Si02
#       8
#     2   2   2   2   2   2   2   2
#     4  12  26  43  65  97 136 176 214 274 339 389
#     4  11  21  42  63  98 139 170 218 267 333 391
#     4  11  24  43  68  98 134 174 215 277 327 388
#     4  10  21  39  65 101 130 173 222 271 321 379
#     4  11  21  39  68  96 130 171 221 268 317 384
#     4  10  20  37  63  96 134 167 216 266 323 394
#     4  11  20  37  69 102 129 175 222 268 320 387
#     4  12  23  43  66  94 131 171 220 274 327 396
#
# _framework density 22.420493
#
# number of rings (size 3 to 8) (size 9 to 14) (size 15 to 20)
#    0.000    1.000    6.250    3.000    0.000    4.500 
#    4.500    0.625    0.000    1.500    0.000    0.000 
#    0.000    0.000    0.000    0.000    0.000    0.000 
#
# Total GULP energy -198370.689613 kJ/mol
# GULP energy per Si atom -12398.168101 kJ/mol
# Density = 2.236946 g / cm^3
# Si number density = 22.420493 Si / 1000 Ang^3
#
#
#
# Elastic Constant Matrix: (Units=GPa)
#
#
# Indices 1 2 3 4 5 6 
#
# 1 122.7186 34.2950 23.2201 5.5516 14.7257 -14.2879
# 2 34.2950 137.0803 18.5514 -6.5784 2.8370 -9.4333
# 3 23.2201 18.5514 71.9962 -1.6566 5.7842 -12.2064
# 4 5.5516 -6.5784 -1.6566 21.3997 -1.1981 -4.4053
# 5 14.7257 2.8370 5.7842 -1.1981 14.3096 -5.2268
# 6 -14.2879 -9.4333 -12.2064 -4.4053 -5.2268 39.9263
#
#
#
# Elastic Compliance Matrix: (Units=1/GPa)
#
#
# Indices 1 2 3 4 5 6 
#
# 1 0.010618 -0.002313 -0.001984 -0.003965 -0.009653 0.000946
# 2 -0.002313 0.008259 -0.001230 0.003445 0.002038 0.001394
# 3 -0.001984 -0.001230 0.015723 0.001970 -0.002558 0.003689
# 4 -0.003965 0.003445 0.001970 0.050902 0.009361 0.006839
# 5 -0.009653 0.002038 -0.002558 0.009361 0.084265 0.008309
# 6 0.000946 0.001394 0.003689 0.006839 0.008309 0.028684
#
#
# Mechanical properties :
#
#
# Convention : Reuss Voigt Hill
#
# Bulk Modulus (GPa) = 42.47124 53.76981 48.12052
# Shear Modulus (GPa) = 23.00382 32.17569 27.58975
#
# Velocity S-wave (km/s) = 3.20663 3.79238 3.51174
# Velocity P-wave (km/s) = 5.71788 6.57349 6.16055
#
# Compressibility (1/GPa) = 0.02354535
#
# Stress axis : x y z
#
# Youngs Moduli (GPa) = 94.17574 121.07462 63.60255
#
# Poissons Ratio (x) = 0.28011 0.12618
# Poissons Ratio (y) = 0.21788 0.07824
# Poissons Ratio (z) = 0.18684 0.14894
#
# Static dielectric constant tensor:
#      x y z
#    x 7.568430 -3.201390 6.277140 
#    y -3.201390 7.439400 -6.812780 
#    z 6.277140 -6.812780 19.604740 
# 
# 
# High freq. dielectric constant tensor:
#      x y z
#    x 1.887860 -0.009290 0.008500 
#    y -0.009290 1.903180 -0.004060 
#    z 0.008500 -0.004060 1.853340 
# 
# From -- ./inp_files/272431.got.cif
#   From: 2010.06.25/outbox.cif.g09.slc.cpg/sg2_137_cif.got.tgz:272431.got - 2010.06.27 13:26:56.
