data_PCOD8004278
_publ_section_title
;
Structure prediction by ZEFSAII (Michael W. Deem and Ramdas Pophale) SiO2 
 PCOD8004278
Probable space group: P -1
;
_chemical_formula_sum "Si O2"
_cell_formula_units_Z 16
_cell_length_a 11.324779
_cell_length_b 9.036208
_cell_length_c 8.961690
_cell_angle_alpha 84.549553
_cell_angle_beta 99.405767
_cell_angle_gamma 124.459111
_cell_volume 745.988231
_symmetry_space_group_name_H-M "P -1"
_symmetry_group_IT_number 2
_symmetry_cell_setting 'triclinic'
loop_
_space_group_symop_operation_xyz
x,y,z
-x,-y,-z
loop_
_atom_site_type_symbol
_atom_site_label
_atom_site_fract_x
_atom_site_fract_y
_atom_site_fract_z
Si Si1 0.483091 0.022404 0.819353
Si Si2 0.960123 0.572207 0.124447
Si Si3 0.352244 0.464305 0.614770
Si Si4 0.237866 0.858918 0.324367
Si Si5 0.323019 0.251812 0.369934
Si Si6 0.277658 0.375209 0.053087
Si Si7 0.573736 0.709453 0.114467
Si Si8 0.767673 0.319527 0.355102
O O1 0.629585 0.123331 0.742272
O O2 0.407684 0.132674 0.793020
O O3 0.379607 0.831707 0.740849
O O4 0.500000 0.000000 0.000000
O O5 0.893946 0.411365 0.248462
O O6 0.100632 0.748724 0.201637
O O7 0.860177 0.640392 0.044847
O O8 0.000000 0.500000 0.000000
O O9 0.269548 0.288485 0.509058
O O10 0.504636 0.637707 0.574970
O O11 0.386187 0.413232 0.782283
O O12 0.240039 0.517815 0.606520
O O13 0.204414 0.760908 0.486384
O O14 0.262501 0.047802 0.346457
O O15 0.264567 0.330111 0.229383
O O16 0.408592 0.584274 0.035920
O O17 0.315293 0.234558 0.006740
#
# Coordination Sequence:
#
# PCOD8004278 Si02
#       8
#     2   2   2   2   2   2   2   2
#     4  12  24  40  71 107 137 171 227 284 337 389
#     4  12  27  47  68  96 138 185 223 275 345 406
#     4  10  21  38  68  98 133 169 220 275 342 389
#     4  12  26  44  67 103 142 177 226 277 334 405
#     4  10  22  39  66 102 130 173 216 280 336 393
#     4  10  21  40  67  94 132 173 227 270 337 397
#     4  10  20  37  66  98 131 169 221 284 324 393
#     4  12  25  45  68 101 134 179 228 278 335 401
#
# _framework density 21.448059000000001
#
# number of rings (size 3 to 8) (size 9 to 14) (size 15 to 20)
#    0.000    1.000    2.500    4.500    8.750    0.500 
#    0.000    0.625    0.000    0.000    0.000    0.000 
#    0.000    0.000    0.000    0.000    0.000    0.000 
#
# Total GULP energy -198276.162012 kJ/mol
# GULP energy per Si atom -12392.260126 kJ/mol
# Density = 2.139924 g / cm^3
# Si number density = 21.448059 Si / 1000 Ang^3
#
#
#
# Elastic Constant Matrix: (Units=GPa)
#
#
# Indices 1 2 3 4 5 6 
#
# 1 98.6667 51.6384 48.4753 9.0815 -7.4769 -7.5262
# 2 51.6384 97.0383 50.8031 11.9349 -4.1307 -9.1773
# 3 48.4753 50.8031 125.5294 11.7135 -8.4164 -1.7349
# 4 9.0815 11.9349 11.7135 40.3304 0.5141 -2.0427
# 5 -7.4769 -4.1307 -8.4164 0.5141 35.9340 2.0519
# 6 -7.5262 -9.1773 -1.7349 -2.0427 2.0519 33.9298
#
#
#
# Elastic Compliance Matrix: (Units=1/GPa)
#
#
# Indices 1 2 3 4 5 6 
#
# 1 0.015210 -0.006137 -0.003202 -0.000628 0.001638 0.001413
# 2 -0.006137 0.016138 -0.003960 -0.002101 -0.000474 0.002703
# 3 -0.003202 -0.003960 0.011021 -0.001399 0.001560 -0.001396
# 4 -0.000628 -0.002101 -0.001399 0.026022 -0.001121 0.000855
# 5 0.001638 -0.000474 0.001560 -0.001121 0.028581 -0.001481
# 6 0.001413 0.002703 -0.001396 0.000855 -0.001481 0.030587
#
#
# Mechanical properties :
#
#
# Convention : Reuss Voigt Hill
#
# Bulk Modulus (GPa) = 63.40437 69.22979 66.31708
# Shear Modulus (GPa) = 31.36511 33.39336 32.37924
#
# Velocity S-wave (km/s) = 3.82825 3.95009 3.88965
# Velocity P-wave (km/s) = 7.01189 7.29056 7.15258
#
# Compressibility (1/GPa) = 0.01577178
#
# Stress axis : x y z
#
# Youngs Moduli (GPa) = 65.74736 61.96632 90.73551
#
# Poissons Ratio (x) = 0.38028 0.29053
# Poissons Ratio (y) = 0.40348 0.35928
# Poissons Ratio (z) = 0.21052 0.24537
#
# Static dielectric constant tensor:
#      x y z
#    x 3.888580 -0.127240 -0.239530 
#    y -0.127240 3.911180 0.032030 
#    z -0.239530 0.032030 4.247090 
# 
# 
# High freq. dielectric constant tensor:
#      x y z
#    x 1.829090 -0.019520 -0.010890 
#    y -0.019520 1.827910 0.003600 
#    z -0.010890 0.003600 1.869200 
# 
# From -- ./inp_files/207374.got.cif
#   From: 2010.06.25/outbox.cif.g09.slc.cpg/sg2_104_cif.got.tgz:207374.got - 2010.06.27 13:26:56.
