data_PCOD8004189
_publ_section_title
;
Structure prediction by ZEFSAII (Michael W. Deem and Ramdas Pophale) SiO2 
 PCOD8004189
Probable space group: P -1
;
_chemical_formula_sum "Si O2"
_cell_formula_units_Z 14
_cell_length_a 11.858912
_cell_length_b 10.375608
_cell_length_c 10.221504
_cell_angle_alpha 41.097667
_cell_angle_beta 126.614925
_cell_angle_gamma 107.077232
_cell_volume 633.996393
_symmetry_space_group_name_H-M "P -1"
_symmetry_group_IT_number 2
_symmetry_cell_setting 'triclinic'
loop_
_space_group_symop_operation_xyz
x,y,z
-x,-y,-z
loop_
_atom_site_type_symbol
_atom_site_label
_atom_site_fract_x
_atom_site_fract_y
_atom_site_fract_z
Si Si1 0.318077 0.187457 0.095078
Si Si2 0.397922 0.807001 0.589865
Si Si3 0.223460 0.095837 0.476860
Si Si4 0.247040 0.708981 0.926635
Si Si5 0.074257 0.413546 0.929988
Si Si6 0.258527 0.456338 0.372366
Si Si7 0.412796 0.410501 0.780829
O O1 0.426985 0.265759 0.207014
O O2 0.360880 0.942209 0.328131
O O3 0.151147 0.290827 0.948625
O O4 0.342629 0.239739 0.921311
O O5 0.343838 0.610625 0.671212
O O6 0.320065 0.941993 0.555083
O O7 0.311952 0.238248 0.498792
O O8 0.174468 0.954123 0.659929
O O9 0.087599 0.259719 0.182640
O O10 0.150173 0.589635 0.875750
O O11 0.255843 0.650470 0.130683
O O12 0.413021 0.655113 0.028595
O O13 0.903751 0.515766 0.702714
O O14 0.372077 0.450554 0.571112
#
# Coordination Sequence:
#
# PCOD8004189 Si02
#       7
#     2   2   2   2   2   2   2
#     4  10  20  37  65  90 118 156 207 252 295 351
#     4  10  20  38  65  95 114 153 212 257 289 353
#     4  10  21  40  66  91 115 162 211 249 292 357
#     4  11  21  39  65  87 120 164 208 244 292 364
#     4  10  22  42  62  88 125 162 204 245 296 371
#     4  11  27  40  56  94 135 158 189 251 315 360
#     4  12  23  39  63  96 123 155 201 256 309 349
#
# _framework density 22.082142999999999
#
# number of rings (size 3 to 8) (size 9 to 14) (size 15 to 20)
#    0.000    1.429    2.857    3.429    2.000    4.571 
#    0.000    2.857    0.000    0.000    0.000    0.000 
#    0.000    0.000    0.000    0.000    0.000    0.000 
#
# Total GULP energy -173519.392105 kJ/mol
# GULP energy per Si atom -12394.242293 kJ/mol
# Density = 2.203188 g / cm^3
# Si number density = 22.082143 Si / 1000 Ang^3
#
#
#
# Elastic Constant Matrix: (Units=GPa)
#
#
# Indices 1 2 3 4 5 6 
#
# 1 68.6512 10.1988 31.3302 -8.1188 -11.5628 0.3077
# 2 10.1988 66.3350 28.4412 -9.7901 5.9269 -4.7157
# 3 31.3302 28.4412 94.2431 -17.2238 -26.4473 13.1940
# 4 -8.1188 -9.7901 -17.2238 20.5176 4.3499 -4.8071
# 5 -11.5628 5.9269 -26.4473 4.3499 43.2751 -3.7719
# 6 0.3077 -4.7157 13.1940 -4.8071 -3.7719 23.4982
#
#
#
# Elastic Compliance Matrix: (Units=1/GPa)
#
#
# Indices 1 2 3 4 5 6 
#
# 1 0.017620 0.000269 -0.005542 0.003055 0.001306 0.003769
# 2 0.000269 0.021190 -0.008830 0.006694 -0.008091 0.009278
# 3 -0.005542 -0.008830 0.020771 0.006303 0.010890 -0.010325
# 4 0.003055 0.006694 0.006303 0.061102 -0.001517 0.010021
# 5 0.001306 -0.008091 0.010890 -0.001517 0.031105 -0.003073
# 6 0.003769 0.009278 -0.010325 0.010021 -0.003073 0.051723
#
#
# Mechanical properties :
#
#
# Convention : Reuss Voigt Hill
#
# Bulk Modulus (GPa) = 31.87243 41.01885 36.44564
# Shear Modulus (GPa) = 20.64620 28.07545 24.36083
#
# Velocity S-wave (km/s) = 3.06105 3.56955 3.32504
# Velocity P-wave (km/s) = 5.19214 5.96698 5.59299
#
# Compressibility (1/GPa) = 0.03137508
#
# Stress axis : x y z
#
# Youngs Moduli (GPa) = 56.75449 47.19191 48.14318
#
# Poissons Ratio (x) = -0.01270 0.26680
# Poissons Ratio (y) = -0.01528 0.42513
# Poissons Ratio (z) = 0.31452 0.41673
#
# Static dielectric constant tensor:
#      x y z
#    x 3.943450 0.039610 -0.282660 
#    y 0.039610 3.611400 -0.368810 
#    z -0.282660 -0.368810 4.283260 
# 
# 
# High freq. dielectric constant tensor:
#      x y z
#    x 1.865320 -0.005260 -0.016390 
#    y -0.005260 1.832110 -0.023450 
#    z -0.016390 -0.023450 1.877760 
# 
# From -- ./inp_files/242246.got.cif
#   From: 2010.06.25/outbox.cif.g09.slc.cpg/sg2_122_cif.got.tgz:242246.got - 2010.06.27 13:26:56.
