data_PCOD8004007
_publ_section_title
;
Structure prediction by ZEFSAII (Michael W. Deem and Ramdas Pophale) SiO2 
 PCOD8004007
Probable space group: P -1
;
_chemical_formula_sum "Si O2"
_cell_formula_units_Z 16
_cell_length_a 9.265708
_cell_length_b 14.118909
_cell_length_c 14.070737
_cell_angle_alpha 40.851486
_cell_angle_beta 64.211049
_cell_angle_gamma 43.719444
_cell_volume 806.379811
_symmetry_space_group_name_H-M "P -1"
_symmetry_group_IT_number 2
_symmetry_cell_setting 'triclinic'
loop_
_space_group_symop_operation_xyz
x,y,z
-x,-y,-z
loop_
_atom_site_type_symbol
_atom_site_label
_atom_site_fract_x
_atom_site_fract_y
_atom_site_fract_z
Si Si1 0.600562 0.170916 0.081257
Si Si2 0.224017 0.305376 0.841207
Si Si3 0.059847 0.081626 0.347033
Si Si4 0.169218 0.493394 0.904481
Si Si5 0.969159 0.978539 0.263631
Si Si6 0.303327 0.932637 0.085972
Si Si7 0.845855 0.745421 0.564428
Si Si8 0.442202 0.996991 0.370378
O O1 0.527686 0.057732 0.223162
O O2 0.767963 0.137121 0.133337
O O3 0.385179 0.399555 0.973660
O O4 0.691949 0.109167 0.995231
O O5 0.240182 0.344901 0.913953
O O6 0.036363 0.510925 0.686358
O O7 0.471264 0.188744 0.827382
O O8 0.174803 0.163819 0.954694
O O9 0.933862 0.296534 0.259143
O O10 0.318143 0.950518 0.379063
O O11 0.981703 0.090329 0.257807
O O12 0.000000 0.000000 0.500000
O O13 0.000000 0.500000 0.000000
O O14 0.948355 0.831851 0.427393
O O15 0.179977 0.874224 0.217320
O O16 0.735088 0.832732 0.633051
O O17 0.651249 0.804493 0.508955
#
# Coordination Sequence:
#
# PCOD8004007 Si02
#       8
#     2   2   2   2   2   2   2   2
#     4  10  22  40  62  85 119 161 198 240 294 345
#     4  10  20  38  60  89 112 160 202 238 289 353
#     4  12  22  37  59  91 123 151 191 244 303 349
#     4  11  19  35  61  86 118 154 195 240 295 361
#     4  11  23  39  60  87 122 156 192 249 294 343
#     4  10  23  38  63  85 120 155 205 247 281 340
#     4  10  20  40  63  86 119 157 193 240 303 353
#     4  10  20  37  63  86 119 155 190 243 294 357
#
# _framework density 19.841766
#
# number of rings (size 3 to 8) (size 9 to 14) (size 15 to 20)
#    0.000    1.500    3.750    1.125    3.500    1.000 
#    2.250    2.500    2.750    0.000    0.000    0.000 
#    0.000    0.000    0.000    0.000    0.000    0.000 
#
# Total GULP energy -198219.095911 kJ/mol
# GULP energy per Si atom -12388.693494 kJ/mol
# Density = 1.979661 g / cm^3
# Si number density = 19.841766 Si / 1000 Ang^3
#
#
#
# Elastic Constant Matrix: (Units=GPa)
#
#
# Indices 1 2 3 4 5 6 
#
# 1 129.8968 39.9488 32.2373 -5.6326 19.7431 -13.7153
# 2 39.9488 88.5332 49.1094 1.8117 1.6704 -13.1072
# 3 32.2373 49.1094 82.7485 -7.5918 11.1743 -11.5124
# 4 -5.6326 1.8117 -7.5918 45.2462 -9.5383 4.1619
# 5 19.7431 1.6704 11.1743 -9.5383 35.7024 1.7233
# 6 -13.7153 -13.1072 -11.5124 4.1619 1.7233 31.0199
#
#
#
# Elastic Compliance Matrix: (Units=1/GPa)
#
#
# Indices 1 2 3 4 5 6 
#
# 1 0.010115 -0.003667 -0.000627 -0.000114 -0.005401 0.003005
# 2 -0.003667 0.018969 -0.010145 -0.002427 0.003534 0.002758
# 3 -0.000627 -0.010145 0.019585 0.002357 -0.004807 0.002655
# 4 -0.000114 -0.002427 0.002357 0.024212 0.006091 -0.003788
# 5 -0.005401 0.003534 -0.004807 0.006091 0.034223 -0.005397
# 6 0.003005 0.002758 0.002655 -0.003788 -0.005397 0.036525
#
#
# Mechanical properties :
#
#
# Convention : Reuss Voigt Hill
#
# Bulk Modulus (GPa) = 50.53133 60.41882 55.47507
# Shear Modulus (GPa) = 27.91669 34.38589 31.15129
#
# Velocity S-wave (km/s) = 3.75502 4.16745 3.96660
# Velocity P-wave (km/s) = 6.65753 7.32621 6.99986
#
# Compressibility (1/GPa) = 0.01978970
#
# Stress axis : x y z
#
# Youngs Moduli (GPa) = 98.86085 52.71861 51.06003
#
# Poissons Ratio (x) = 0.19333 0.03203
# Poissons Ratio (y) = 0.36253 0.51801
# Poissons Ratio (z) = 0.06202 0.53483
#
# Static dielectric constant tensor:
#      x y z
#    x 3.543280 -0.600090 0.181850 
#    y -0.600090 3.166760 0.058910 
#    z 0.181850 0.058910 3.573740 
# 
# 
# High freq. dielectric constant tensor:
#      x y z
#    x 1.783290 -0.020340 0.017500 
#    y -0.020340 1.763730 0.012620 
#    z 0.017500 0.012620 1.773700 
# 
# From -- ./inp_files/348990.got.cif
#   From: 2010.06.25/outbox.cif.g09.slc.cpg/sg2_175_cif.got.tgz:348990.got - 2010.06.27 13:26:56.
