data_PCOD8004873
_publ_section_title
;
Structure prediction by ZEFSAII (Michael W. Deem and Ramdas Pophale) SiO2 
 PCOD8004873
Probable space group: P -1
;
_chemical_formula_sum "Si O2"
_cell_formula_units_Z 14
_cell_length_a 7.790071
_cell_length_b 11.091373
_cell_length_c 7.433069
_cell_angle_alpha 92.032291
_cell_angle_beta 81.683261
_cell_angle_gamma 100.999824
_cell_volume 623.786659
_symmetry_space_group_name_H-M "P -1"
_symmetry_group_IT_number 2
_symmetry_cell_setting 'triclinic'
loop_
_space_group_symop_operation_xyz
x,y,z
-x,-y,-z
loop_
_atom_site_type_symbol
_atom_site_label
_atom_site_fract_x
_atom_site_fract_y
_atom_site_fract_z
Si Si1 0.933646 0.123453 0.351300
Si Si2 0.685598 0.459991 0.951681
Si Si3 0.705587 0.872973 0.842014
Si Si4 0.939093 0.107187 0.743919
Si Si5 0.657214 0.251873 0.241260
Si Si6 0.545269 0.388421 0.597847
Si Si7 0.780441 0.705240 0.118522
O O1 0.821422 0.182341 0.225792
O O2 0.143153 0.179442 0.297392
O O3 0.873272 0.148666 0.563687
O O4 0.908868 0.975848 0.314066
O O5 0.692500 0.423748 0.737806
O O6 0.180125 0.415799 0.000829
O O7 0.500000 0.500000 0.000000
O O8 0.699315 0.348912 0.077788
O O9 0.518628 0.848909 0.770936
O O10 0.685265 0.797541 0.024729
O O11 0.772380 0.021357 0.867284
O O12 0.023392 0.227434 0.849024
O O13 0.634193 0.309070 0.441646
O O14 0.500000 0.500000 0.500000
O O15 0.353457 0.324357 0.696693
#
# Coordination Sequence:
#
# PCOD8004873 Si02
#       7
#     2   2   2   2   2   2   2
#     4   9  23  42  62  99 128 169 230 259 326 393
#     4  10  20  38  63 100 125 167 223 261 329 384
#     4  10  20  40  67  91 137 169 209 275 323 383
#     4   9  21  43  61  94 134 172 215 269 328 381
#     4  12  21  42  71  95 131 172 218 275 319 394
#     4  11  20  36  66  98 128 173 218 262 332 385
#     4  11  19  39  67  92 132 178 210 265 336 383
#
# _framework density 22.443570000000001
#
# number of rings (size 3 to 8) (size 9 to 14) (size 15 to 20)
#    0.857    0.857    5.714    1.286    0.000    0.571 
#    2.571    2.143    0.000    0.000    0.000    0.000 
#    0.000    0.000    0.000    0.000    0.000    0.000 
#
# Total GULP energy -173439.361872 kJ/mol
# GULP energy per Si atom -12388.525848 kJ/mol
# Density = 2.239249 g / cm^3
# Si number density = 22.443570 Si / 1000 Ang^3
#
#
#
# Elastic Constant Matrix: (Units=GPa)
#
#
# Indices 1 2 3 4 5 6 
#
# 1 101.2814 66.2558 24.5945 -9.6668 26.0899 14.3099
# 2 66.2558 94.8291 38.9496 -25.3563 20.2583 27.0553
# 3 24.5945 38.9496 107.5933 -23.0991 23.8958 12.3195
# 4 -9.6668 -25.3563 -23.0991 39.0886 0.8462 13.6981
# 5 26.0899 20.2583 23.8958 0.8462 31.4735 2.3376
# 6 14.3099 27.0553 12.3195 13.6981 2.3376 48.5039
#
#
#
# Elastic Compliance Matrix: (Units=1/GPa)
#
#
# Indices 1 2 3 4 5 6 
#
# 1 0.021335 -0.016996 0.000878 -0.006917 -0.007618 0.005284
# 2 -0.016996 0.041015 0.002226 0.033559 -0.012877 -0.027286
# 3 0.000878 0.002226 0.015299 0.014044 -0.013508 -0.008702
# 4 -0.006917 0.033559 0.014044 0.067874 -0.025518 -0.038184
# 5 -0.007618 -0.012877 -0.013508 -0.025518 0.056028 0.017367
# 6 0.005284 -0.027286 -0.008702 -0.038184 0.017367 0.046435
#
#
# Mechanical properties :
#
#
# Convention : Reuss Voigt Hill
#
# Bulk Modulus (GPa) = 20.05442 62.58927 41.32184
# Shear Modulus (GPa) = 17.10035 35.40679 26.25357
#
# Velocity S-wave (km/s) = 2.76330 3.97620 3.42388
# Velocity P-wave (km/s) = 4.37447 7.00201 5.83798
#
# Compressibility (1/GPa) = 0.04986432
#
# Stress axis : x y z
#
# Youngs Moduli (GPa) = 46.87214 24.38128 65.36362
#
# Poissons Ratio (x) = 0.41439 -0.05739
# Poissons Ratio (y) = 0.79666 -0.14551
# Poissons Ratio (z) = -0.04115 -0.05428
#
# Static dielectric constant tensor:
#      x y z
#    x 4.039760 0.544880 0.335670 
#    y 0.544880 4.496200 -0.010330 
#    z 0.335670 -0.010330 3.783880 
# 
# 
# High freq. dielectric constant tensor:
#      x y z
#    x 1.862450 0.011110 0.018520 
#    y 0.011110 1.877340 -0.019090 
#    z 0.018520 -0.019090 1.887720 
# 
# From -- ./inp_files/135073.got.cif
#   From: 2010.06.25/outbox.cif.g09.slc.cpg/sg2_68_cif.got.tgz:135073.got - 2010.06.27 13:26:56.
