data_PCOD8004132
_publ_section_title
;
Structure prediction by ZEFSAII (Michael W. Deem and Ramdas Pophale) SiO2 
 PCOD8004132
Probable space group: P -1
;
_chemical_formula_sum "Si O2"
_cell_formula_units_Z 16
_cell_length_a 20.309404
_cell_length_b 16.941622
_cell_length_c 12.242576
_cell_angle_alpha 34.648743
_cell_angle_beta 21.036342
_cell_angle_gamma 31.378463
_cell_volume 779.775841
_symmetry_space_group_name_H-M "P -1"
_symmetry_group_IT_number 2
_symmetry_cell_setting 'triclinic'
loop_
_space_group_symop_operation_xyz
x,y,z
-x,-y,-z
loop_
_atom_site_type_symbol
_atom_site_label
_atom_site_fract_x
_atom_site_fract_y
_atom_site_fract_z
Si Si1 0.754053 0.780490 0.421945
Si Si2 0.771187 0.202356 0.559098
Si Si3 0.560913 0.111042 0.387161
Si Si4 0.209340 0.116560 0.077190
Si Si5 0.546080 0.408147 0.147170
Si Si6 0.787272 0.595055 0.171209
Si Si7 0.175785 0.576006 0.912897
Si Si8 0.354536 0.412234 0.046091
O O1 0.540958 0.811719 0.657648
O O2 0.935969 0.673105 0.185820
O O3 0.752401 0.946619 0.262002
O O4 0.765895 0.689285 0.619817
O O5 0.593215 0.301681 0.804219
O O6 0.984098 0.189408 0.292346
O O7 0.763129 0.041651 0.727966
O O8 0.733838 0.299681 0.393923
O O9 0.645909 0.224639 0.180688
O O10 0.381310 0.084669 0.756385
O O11 0.242568 0.228136 0.987296
O O12 0.355284 0.439619 0.483893
O O13 0.695108 0.456704 0.933044
O O14 0.500000 0.500000 0.000000
O O15 0.768915 0.544972 0.133863
O O16 0.000000 0.500000 0.000000
O O17 0.279351 0.486677 0.961729
#
# Coordination Sequence:
#
# PCOD8004132 Si02
#       8
#     2   2   2   2   2   2   2   2
#     4  11  22  40  61  88 121 166 202 247 304 361
#     4  11  21  38  62  92 120 156 203 250 306 352
#     4  10  20  38  64  89 122 153 205 254 304 350
#     4  10  20  37  64  92 119 151 203 260 301 354
#     4  11  22  38  62  93 119 155 206 256 298 351
#     4  11  21  40  61  90 123 157 201 253 303 355
#     4  12  24  41  61  90 127 165 200 245 304 369
#     4  12  24  40  61  91 126 163 204 244 303 371
#
# _framework density 20.518716999999999
#
# number of rings (size 3 to 8) (size 9 to 14) (size 15 to 20)
#    0.000    1.000    6.250    1.500    0.000    0.000 
#    2.250    2.500    0.000    0.000    0.000    0.000 
#    0.000    0.000    0.000    0.000    0.000    0.000 
#
# Total GULP energy -198264.132044 kJ/mol
# GULP energy per Si atom -12391.508253 kJ/mol
# Density = 2.047202 g / cm^3
# Si number density = 20.518717 Si / 1000 Ang^3
#
#
#
# Elastic Constant Matrix: (Units=GPa)
#
#
# Indices 1 2 3 4 5 6 
#
# 1 122.1244 62.7931 36.8508 -23.4532 19.5032 14.4415
# 2 62.7931 130.4374 51.2818 -24.5864 6.0078 25.5429
# 3 36.8508 51.2818 88.5979 -23.5065 17.8925 10.1637
# 4 -23.4532 -24.5864 -23.5065 40.3918 -2.0095 1.2593
# 5 19.5032 6.0078 17.8925 -2.0095 29.3278 -1.7634
# 6 14.4415 25.5429 10.1637 1.2593 -1.7634 24.2214
#
#
#
# Elastic Compliance Matrix: (Units=1/GPa)
#
#
# Indices 1 2 3 4 5 6 
#
# 1 0.012978 -0.004321 0.000508 0.004936 -0.007972 -0.004231
# 2 -0.004321 0.014287 -0.004732 0.003884 0.002467 -0.010527
# 3 0.000508 -0.004732 0.018447 0.007767 -0.010344 -0.004210
# 4 0.004936 0.003884 0.007767 0.034543 -0.007209 -0.012619
# 5 -0.007972 0.002467 -0.010344 -0.007209 0.045321 0.010166
# 6 -0.004231 -0.010527 -0.004210 -0.012619 0.010166 0.058073
#
#
# Mechanical properties :
#
#
# Convention : Reuss Voigt Hill
#
# Bulk Modulus (GPa) = 34.93848 71.44566 53.19207
# Shear Modulus (GPa) = 23.77763 31.47048 27.62406
#
# Velocity S-wave (km/s) = 3.40785 3.92055 3.67316
# Velocity P-wave (km/s) = 5.70519 7.44242 6.63094
#
# Compressibility (1/GPa) = 0.02862174
#
# Stress axis : x y z
#
# Youngs Moduli (GPa) = 77.05085 69.99193 54.20825
#
# Poissons Ratio (x) = 0.30247 -0.02755
# Poissons Ratio (y) = 0.33297 0.25654
# Poissons Ratio (z) = -0.03915 0.33123
#
# Static dielectric constant tensor:
#      x y z
#    x 4.326870 1.524970 -0.479420 
#    y 1.524970 5.684510 -0.901590 
#    z -0.479420 -0.901590 4.201660 
# 
# 
# High freq. dielectric constant tensor:
#      x y z
#    x 1.766690 0.017890 0.017310 
#    y 0.017890 1.813880 -0.014050 
#    z 0.017310 -0.014050 1.812600 
# 
# From -- ./inp_files/312310.got.cif
#   From: 2010.06.25/outbox.cif.g09.slc.cpg/sg2_157_cif.got.tgz:312310.got - 2010.06.27 13:26:56.
