data_PCOD8004250
_publ_section_title
;
Structure prediction by ZEFSAII (Michael W. Deem and Ramdas Pophale) SiO2 
 PCOD8004250
Probable space group: P -1
;
_chemical_formula_sum "Si O2"
_cell_formula_units_Z 16
_cell_length_a 16.327033
_cell_length_b 8.328172
_cell_length_c 9.860755
_cell_angle_alpha 95.065074
_cell_angle_beta 114.253588
_cell_angle_gamma 39.647225
_cell_volume 717.598383
_symmetry_space_group_name_H-M "P -1"
_symmetry_group_IT_number 2
_symmetry_cell_setting 'triclinic'
loop_
_space_group_symop_operation_xyz
x,y,z
-x,-y,-z
loop_
_atom_site_type_symbol
_atom_site_label
_atom_site_fract_x
_atom_site_fract_y
_atom_site_fract_z
Si Si1 0.262080 0.554430 0.977513
Si Si2 0.687655 0.607447 0.707488
Si Si3 0.677331 0.066472 0.196664
Si Si4 0.315865 0.292418 0.726022
Si Si5 0.958244 0.048139 0.703981
Si Si6 0.038807 0.170485 0.544200
Si Si7 0.531569 0.145247 0.637363
Si Si8 0.404394 0.684682 0.113187
O O1 0.338301 0.371500 0.880199
O O2 0.329937 0.370498 0.141532
O O3 0.286992 0.708997 0.024385
O O4 0.080641 0.787516 0.867326
O O5 0.846489 0.310349 0.741084
O O6 0.555293 0.694379 0.551116
O O7 0.668448 0.823333 0.671666
O O8 0.576212 0.365951 0.197982
O O9 0.622377 0.976779 0.216715
O O10 0.855115 0.832443 0.341572
O O11 0.645436 0.109198 0.016781
O O12 0.410821 0.237089 0.666165
O O13 0.138783 0.530853 0.578593
O O14 0.055061 0.022065 0.667472
O O15 0.884773 0.017645 0.554498
O O16 0.603685 0.207377 0.742646
#
# Coordination Sequence:
#
# PCOD8004250 Si02
#       8
#     2   2   2   2   2   2   2   2
#     4  11  23  40  65  91 121 160 200 251 299 358
#     4  11  23  41  63  87 122 163 199 244 306 361
#     4  11  21  35  61  96 124 151 199 256 297 351
#     4  11  22  40  65  93 120 157 204 248 302 354
#     4  10  20  39  65  89 120 159 201 245 304 355
#     4  10  20  37  66  92 119 155 201 253 296 355
#     4  11  24  41  62  88 124 163 199 248 300 357
#     4  11  23  37  59  90 125 158 201 246 299 356
#
# _framework density 22.296593999999999
#
# number of rings (size 3 to 8) (size 9 to 14) (size 15 to 20)
#    0.000    1.250    2.500    4.500    1.750    2.000 
#    0.000    3.125    2.750    0.000    0.000    0.000 
#    0.000    0.000    0.000    0.000    0.000    0.000 
#
# Total GULP energy -198299.678791 kJ/mol
# GULP energy per Si atom -12393.729924 kJ/mol
# Density = 2.224585 g / cm^3
# Si number density = 22.296594 Si / 1000 Ang^3
#
#
#
# Elastic Constant Matrix: (Units=GPa)
#
#
# Indices 1 2 3 4 5 6 
#
# 1 43.3023 6.6067 21.5839 -7.2807 9.2728 11.0426
# 2 6.6067 70.2820 24.0517 8.0907 6.8600 -1.2373
# 3 21.5839 24.0517 135.5814 0.2052 2.8412 9.0143
# 4 -7.2807 8.0907 0.2052 31.0358 6.1556 4.1181
# 5 9.2728 6.8600 2.8412 6.1556 30.6199 3.6329
# 6 11.0426 -1.2373 9.0143 4.1181 3.6329 31.0068
#
#
#
# Elastic Compliance Matrix: (Units=1/GPa)
#
#
# Indices 1 2 3 4 5 6 
#
# 1 0.032165 -0.002274 -0.003808 0.011566 -0.009920 -0.010812
# 2 -0.002274 0.016155 -0.002659 -0.004722 -0.002103 0.003101
# 3 -0.003808 -0.002659 0.008517 -0.000315 0.001179 -0.001322
# 4 0.011566 -0.004722 -0.000315 0.039114 -0.009291 -0.008322
# 5 -0.009920 -0.002103 0.001179 -0.009291 0.037904 -0.000101
# 6 -0.010812 0.003101 -0.001322 -0.008322 -0.000101 0.037727
#
#
# Mechanical properties :
#
#
# Convention : Reuss Voigt Hill
#
# Bulk Modulus (GPa) = 25.40914 39.29449 32.35181
# Shear Modulus (GPa) = 24.73014 31.66072 28.19543
#
# Velocity S-wave (km/s) = 3.33400 3.77235 3.55993
# Velocity P-wave (km/s) = 5.12264 6.05277 5.60702
#
# Compressibility (1/GPa) = 0.03935592
#
# Stress axis : x y z
#
# Youngs Moduli (GPa) = 31.09014 61.89848 117.40947
#
# Poissons Ratio (x) = 0.14076 0.44707
# Poissons Ratio (y) = 0.07070 0.31218
# Poissons Ratio (z) = 0.11838 0.16458
#
# Static dielectric constant tensor:
#      x y z
#    x 3.521540 0.117050 -0.048750 
#    y 0.117050 3.941790 -0.032030 
#    z -0.048750 -0.032030 4.350880 
# 
# 
# High freq. dielectric constant tensor:
#      x y z
#    x 1.834120 0.009510 0.004780 
#    y 0.009510 1.878630 -0.008490 
#    z 0.004780 -0.008490 1.906580 
# 
# From -- ./inp_files/329197.got.cif
#   From: 2010.06.25/outbox.cif.g09.slc.cpg/sg2_165_cif.got.tgz:329197.got - 2010.06.27 13:26:56.
