data_PCOD8004498
_publ_section_title
;
Structure prediction by ZEFSAII (Michael W. Deem and Ramdas Pophale) SiO2 
 PCOD8004498
Probable space group: P -1
;
_chemical_formula_sum "Si O2"
_cell_formula_units_Z 14
_cell_length_a 8.522785
_cell_length_b 26.726600
_cell_length_c 26.809148
_cell_angle_alpha 169.318103
_cell_angle_beta 142.815979
_cell_angle_gamma 37.318385
_cell_volume 679.911186
_symmetry_space_group_name_H-M "P -1"
_symmetry_group_IT_number 2
_symmetry_cell_setting 'triclinic'
loop_
_space_group_symop_operation_xyz
x,y,z
-x,-y,-z
loop_
_atom_site_type_symbol
_atom_site_label
_atom_site_fract_x
_atom_site_fract_y
_atom_site_fract_z
Si Si1 0.204321 0.223653 0.973709
Si Si2 0.545960 0.026291 0.776347
Si Si3 0.199947 0.543695 0.980383
Si Si4 0.387390 0.249653 0.249653
Si Si5 0.117640 0.514144 0.690001
Si Si6 0.983492 0.019617 0.456305
Si Si7 0.761645 0.309999 0.485856
O O1 0.310078 0.446338 0.254804
O O2 0.957179 0.363895 0.018639
O O3 0.440857 0.111829 0.888172
O O4 0.108402 0.965833 0.725562
O O5 0.732252 0.745196 0.553662
O O6 0.316538 0.981361 0.636105
O O7 0.690246 0.274438 0.034167
O O8 0.092677 0.281465 0.718535
O O9 0.500000 0.500000 0.000000
O O10 0.165803 0.766839 0.233160
O O11 0.500000 0.500000 0.500000
O O12 0.494474 0.227329 0.311531
O O13 0.073465 0.311531 0.227329
O O14 0.500000 0.000000 0.000000
O O15 0.966085 0.406783 0.593217
O O16 0.000000 0.000000 0.500000
#
# Coordination Sequence:
#
# PCOD8004498 Si02
#       7
#     2   2   2   2   2   2   2
#     4  11  23  41  60  88 127 160 191 247 313 358
#     4  11  23  41  60  88 127 160 191 247 313 358
#     4  11  24  43  64  90 123 161 199 248 302 356
#     4  10  20  38  59  88 123 154 197 258 303 336
#     4  11  22  39  64  90 116 160 209 248 292 358
#     4  11  24  43  64  90 123 161 199 248 302 356
#     4  11  22  39  64  90 116 160 209 248 292 358
#
# _framework density 20.590924000000001
#
# number of rings (size 3 to 8) (size 9 to 14) (size 15 to 20)
#    0.000    1.143    0.000    9.429    0.000    3.429 
#    0.000    4.286    0.000    0.000    0.000    0.000 
#    0.000    0.000    0.000    0.000    0.000    0.000 
#
# Total GULP energy -173604.528537 kJ/mol
# GULP energy per Si atom -12400.323467 kJ/mol
# Density = 2.054406 g / cm^3
# Si number density = 20.590924 Si / 1000 Ang^3
#
#
#
# Elastic Constant Matrix: (Units=GPa)
#
#
# Indices 1 2 3 4 5 6 
#
# 1 107.7768 99.1746 71.1935 -3.7429 -6.8035 -4.3091
# 2 99.1746 138.6144 83.6709 2.6313 -9.9800 -1.0190
# 3 71.1935 83.6709 193.7191 3.5363 -7.0971 -0.2610
# 4 -3.7429 2.6313 3.5363 41.1622 2.1793 -4.8811
# 5 -6.8035 -9.9800 -7.0971 2.1793 59.9538 3.8232
# 6 -4.3091 -1.0190 -0.2610 -4.8811 3.8232 35.7078
#
#
#
# Elastic Compliance Matrix: (Units=1/GPa)
#
#
# Indices 1 2 3 4 5 6 
#
# 1 0.028935 -0.019379 -0.002364 0.004533 -0.000617 0.003607
# 2 -0.019379 0.022819 -0.002619 -0.003355 0.001560 -0.002332
# 3 -0.002364 -0.002619 0.007182 -0.000726 0.000200 -0.000428
# 4 0.004533 -0.003355 -0.000726 0.025537 -0.001318 0.004078
# 5 -0.000617 0.001560 0.000200 -0.001318 0.017071 -0.002036
# 6 0.003607 -0.002332 -0.000428 0.004078 -0.002036 0.029146
#
#
# Mechanical properties :
#
#
# Convention : Reuss Voigt Hill
#
# Bulk Modulus (GPa) = 97.92271 105.35426 101.63848
# Shear Modulus (GPa) = 27.34954 39.76952 33.55953
#
# Velocity S-wave (km/s) = 3.64845 4.39955 4.04148
# Velocity P-wave (km/s) = 8.08750 8.77978 8.44074
#
# Compressibility (1/GPa) = 0.01021214
#
# Stress axis : x y z
#
# Youngs Moduli (GPa) = 34.55975 43.82285 139.23601
#
# Poissons Ratio (x) = 0.84926 0.32919
# Poissons Ratio (y) = 0.66974 0.36462
# Poissons Ratio (z) = 0.08171 0.11476
#
# Static dielectric constant tensor:
#      x y z
#    x 3.686090 0.003870 -0.056900 
#    y 0.003870 3.480660 0.080130 
#    z -0.056900 0.080130 4.078640 
# 
# 
# High freq. dielectric constant tensor:
#      x y z
#    x 1.795680 -0.001080 -0.002820 
#    y -0.001080 1.809140 0.003680 
#    z -0.002820 0.003680 1.836770 
# 
# From -- ./inp_files/617716.got.cif
#   From: 2010.06.25/outbox.cif.g09.slc.cpg/sg2_309_cif.got.tgz:617716.got - 2010.06.27 13:26:56.
