data_PCOD8004067
_publ_section_title
;
Structure prediction by ZEFSAII (Michael W. Deem and Ramdas Pophale) SiO2 
 PCOD8004067
Probable space group: P -1
;
_chemical_formula_sum "Si O2"
_cell_formula_units_Z 16
_cell_length_a 20.843286
_cell_length_b 8.829979
_cell_length_c 15.111193
_cell_angle_alpha 37.584727
_cell_angle_beta 24.514725
_cell_angle_gamma 35.358049
_cell_volume 652.899199
_symmetry_space_group_name_H-M "P -1"
_symmetry_group_IT_number 2
_symmetry_cell_setting 'triclinic'
loop_
_space_group_symop_operation_xyz
x,y,z
-x,-y,-z
loop_
_atom_site_type_symbol
_atom_site_label
_atom_site_fract_x
_atom_site_fract_y
_atom_site_fract_z
Si Si1 0.828165 0.535036 0.004160
Si Si2 0.699336 0.160308 0.891255
Si Si3 0.605819 0.553147 0.977413
Si Si4 0.171635 0.431353 0.542399
Si Si5 0.238008 0.102714 0.443988
Si Si6 0.510142 0.545957 0.301547
Si Si7 0.019697 0.806686 0.859536
Si Si8 0.249390 0.341716 0.681885
O O1 0.681996 0.459762 0.177771
O O2 0.872014 0.351163 0.120039
O O3 0.981334 0.458644 0.779326
O O4 0.781902 0.843405 0.944413
O O5 0.659889 0.268934 0.991375
O O6 0.819847 0.290114 0.632406
O O7 0.534903 0.229459 0.006800
O O8 0.754762 0.669247 0.738688
O O9 0.538953 0.556580 0.156856
O O10 0.260870 0.192923 0.472543
O O11 0.276924 0.337163 0.544350
O O12 0.383985 0.822933 0.368981
O O13 0.057815 0.075067 0.672337
O O14 0.417239 0.331098 0.526625
O O15 0.086989 0.616479 0.777323
O O16 0.820132 0.885855 0.091562
#
# Coordination Sequence:
#
# PCOD8004067 Si02
#       8
#     2   2   2   2   2   2   2   2
#     4  11  23  36  59  92 127 152 186 256 306 336
#     4  10  20  38  62  87 122 154 195 248 296 352
#     4  10  20  37  63  93 112 152 208 241 290 358
#     4  10  21  40  62  89 118 157 203 241 295 351
#     4  10  21  37  64  87 118 160 199 241 284 359
#     4  11  21  37  63  92 117 153 199 250 297 345
#     4   9  21  40  58  88 119 158 204 234 293 355
#     4   9  19  37  62  81 113 162 203 235 275 362
#
# _framework density 24.506080000000001
#
# number of rings (size 3 to 8) (size 9 to 14) (size 15 to 20)
#    0.000    2.000    2.500    0.750    0.000    4.000 
#    0.000   11.250    0.000    6.750    0.000    0.000 
#    0.000    0.000    0.000    0.000    0.000    0.000 
#
# Total GULP energy -198289.934338 kJ/mol
# GULP energy per Si atom -12393.120896 kJ/mol
# Density = 2.445030 g / cm^3
# Si number density = 24.506080 Si / 1000 Ang^3
#
#
#
# Elastic Constant Matrix: (Units=GPa)
#
#
# Indices 1 2 3 4 5 6 
#
# 1 70.9974 32.3382 49.5482 5.1532 -1.7161 26.3329
# 2 32.3382 30.2332 37.6069 4.5500 2.5566 17.9775
# 3 49.5482 37.6069 176.3463 -15.5267 -16.4904 19.8766
# 4 5.1532 4.5500 -15.5267 31.5951 13.3395 1.8777
# 5 -1.7161 2.5566 -16.4904 13.3395 42.3508 5.2345
# 6 26.3329 17.9775 19.8766 1.8777 5.2345 28.6855
#
#
#
# Elastic Compliance Matrix: (Units=1/GPa)
#
#
# Indices 1 2 3 4 5 6 
#
# 1 0.031444 -0.021941 -0.002529 -0.004374 0.004714 -0.013936
# 2 -0.021941 0.087390 -0.010920 -0.011291 -0.003690 -0.025648
# 3 -0.002529 -0.010920 0.009158 0.005456 0.002148 0.002071
# 4 -0.004374 -0.011291 0.005456 0.040960 -0.011095 0.006654
# 5 0.004714 -0.003690 0.002148 -0.011095 0.029363 -0.008135
# 6 -0.013936 -0.025648 0.002071 0.006654 -0.008135 0.063342
#
#
# Mechanical properties :
#
#
# Convention : Reuss Voigt Hill
#
# Bulk Modulus (GPa) = 17.47889 57.39594 37.43741
# Shear Modulus (GPa) = 14.22444 31.06519 22.64482
#
# Velocity S-wave (km/s) = 2.41186 3.56427 3.04312
# Velocity P-wave (km/s) = 3.86057 6.35694 5.25903
#
# Compressibility (1/GPa) = 0.05721187
#
# Stress axis : x y z
#
# Youngs Moduli (GPa) = 31.80232 11.44292 109.19486
#
# Poissons Ratio (x) = 0.25107 0.27620
# Poissons Ratio (y) = 0.69777 1.19242
# Poissons Ratio (z) = 0.08044 0.12496
#
# Static dielectric constant tensor:
#      x y z
#    x 4.202930 0.447060 -0.091750 
#    y 0.447060 4.061830 -0.198750 
#    z -0.091750 -0.198750 5.263620 
# 
# 
# High freq. dielectric constant tensor:
#      x y z
#    x 1.960900 0.033970 0.001400 
#    y 0.033970 1.945590 -0.008450 
#    z 0.001400 -0.008450 2.010750 
# 
# From -- ./inp_files/556763.got.cif
#   From: 2010.06.25/outbox.cif.g09.slc.cpg/sg2_279_cif.got.tgz:556763.got - 2010.06.27 13:26:56.
