data_PCOD8004570
_publ_section_title
;
Structure prediction by ZEFSAII (Michael W. Deem and Ramdas Pophale) SiO2 
 PCOD8004570
Probable space group: P -1
;
_chemical_formula_sum "Si O2"
_cell_formula_units_Z 14
_cell_length_a 11.889863
_cell_length_b 8.995819
_cell_length_c 20.699213
_cell_angle_alpha 135.826301
_cell_angle_beta 29.741903
_cell_angle_gamma 116.159904
_cell_volume 650.878793
_symmetry_space_group_name_H-M "P -1"
_symmetry_group_IT_number 2
_symmetry_cell_setting 'triclinic'
loop_
_space_group_symop_operation_xyz
x,y,z
-x,-y,-z
loop_
_atom_site_type_symbol
_atom_site_label
_atom_site_fract_x
_atom_site_fract_y
_atom_site_fract_z
Si Si1 0.297812 0.148382 0.776164
Si Si2 0.774051 0.896925 0.719865
Si Si3 0.115124 0.152692 0.626202
Si Si4 0.314477 0.411085 0.093507
Si Si5 0.818784 0.583985 0.213212
Si Si6 0.633628 0.349840 0.451640
Si Si7 0.961385 0.573103 0.646716
O O1 0.277356 0.326268 0.783285
O O2 0.606198 0.004564 0.600564
O O3 0.227500 0.945857 0.724351
O O4 0.102480 0.317924 0.984597
O O5 0.796162 0.811606 0.756515
O O6 0.846606 0.669728 0.566102
O O7 0.964437 0.005451 0.648757
O O8 0.471134 0.108395 0.917201
O O9 0.156927 0.199816 0.694697
O O10 0.959442 0.434522 0.761691
O O11 0.244329 0.472696 0.224055
O O12 0.500000 0.500000 0.000000
O O13 0.598954 0.548345 0.346950
O O14 0.500000 0.500000 0.500000
O O15 0.866911 0.382689 0.372710
#
# Coordination Sequence:
#
# PCOD8004570 Si02
#       7
#     2   2   2   2   2   2   2
#     4  10  21  38  62  88 117 157 201 245 292 348
#     4  10  23  39  61  89 119 160 199 241 294 350
#     4  10  20  38  60  87 121 154 196 247 295 348
#     4  10  23  39  58  85 116 155 199 243 291 347
#     4  10  21  38  62  88 115 156 203 244 292 350
#     4  11  23  39  60  90 125 156 192 244 299 353
#     4  11  22  40  62  87 123 159 196 242 295 355
#
# _framework density 21.509381000000001
#
# number of rings (size 3 to 8) (size 9 to 14) (size 15 to 20)
#    0.000    1.714    0.000    5.571    0.000    8.571 
#    0.000    4.286    0.000    0.000    0.000    0.000 
#    0.000    0.000    0.000    0.000    0.000    0.000 
#
# Total GULP energy -173526.182219 kJ/mol
# GULP energy per Si atom -12394.727301 kJ/mol
# Density = 2.146042 g / cm^3
# Si number density = 21.509381 Si / 1000 Ang^3
#
#
#
# Elastic Constant Matrix: (Units=GPa)
#
#
# Indices 1 2 3 4 5 6 
#
# 1 50.3418 36.8112 7.3659 3.6343 -7.7808 -4.7081
# 2 36.8112 94.3896 32.5527 -3.9704 -1.2915 -16.8304
# 3 7.3659 32.5527 125.6768 2.4454 -9.5016 -8.9616
# 4 3.6343 -3.9704 2.4454 31.3995 -8.5299 -0.1112
# 5 -7.7808 -1.2915 -9.5016 -8.5299 35.5022 2.9001
# 6 -4.7081 -16.8304 -8.9616 -0.1112 2.9001 36.3856
#
#
#
# Elastic Compliance Matrix: (Units=1/GPa)
#
#
# Indices 1 2 3 4 5 6 
#
# 1 0.029894 -0.012757 0.001923 -0.003628 0.005897 -0.002040
# 2 -0.012757 0.018042 -0.003777 0.003300 -0.002848 0.006002
# 3 0.001923 -0.003777 0.009063 -0.000727 0.002491 0.000533
# 4 -0.003628 0.003300 -0.000727 0.034767 0.007452 0.000390
# 5 0.005897 -0.002848 0.002491 0.007452 0.032015 -0.002470
# 6 -0.002040 0.006002 0.000533 0.000390 -0.002470 0.030325
#
#
# Mechanical properties :
#
#
# Convention : Reuss Voigt Hill
#
# Bulk Modulus (GPa) = 36.00135 47.09641 41.54888
# Shear Modulus (GPa) = 25.96219 33.56935 29.76577
#
# Velocity S-wave (km/s) = 3.47798 3.95484 3.72405
# Velocity P-wave (km/s) = 5.73606 6.54199 6.15223
#
# Compressibility (1/GPa) = 0.02777674
#
# Stress axis : x y z
#
# Youngs Moduli (GPa) = 33.45159 55.42536 110.33793
#
# Poissons Ratio (x) = 0.70708 -0.21221
# Poissons Ratio (y) = 0.42676 0.41676
# Poissons Ratio (z) = -0.06434 0.20935
#
# Static dielectric constant tensor:
#      x y z
#    x 3.824640 -0.312820 -0.252280 
#    y -0.312820 3.898730 0.078130 
#    z -0.252280 0.078130 4.346220 
# 
# 
# High freq. dielectric constant tensor:
#      x y z
#    x 1.829930 -0.020170 -0.009490 
#    y -0.020170 1.844050 0.000350 
#    z -0.009490 0.000350 1.861020 
# 
# From -- ./inp_files/282265.got.cif
#   From: 2010.06.25/outbox.cif.g09.slc.cpg/sg2_142_cif.got.tgz:282265.got - 2010.06.27 13:26:56.
