data_PCOD8004592
_publ_section_title
;
Structure prediction by ZEFSAII (Michael W. Deem and Ramdas Pophale) SiO2 
 PCOD8004592
Probable space group: P -1
;
_chemical_formula_sum "Si O2"
_cell_formula_units_Z 16
_cell_length_a 25.048041
_cell_length_b 8.672262
_cell_length_c 24.844054
_cell_angle_alpha 136.520747
_cell_angle_beta 168.689057
_cell_angle_gamma 43.305984
_cell_volume 723.079950
_symmetry_space_group_name_H-M "P -1"
_symmetry_group_IT_number 2
_symmetry_cell_setting 'triclinic'
loop_
_space_group_symop_operation_xyz
x,y,z
-x,-y,-z
loop_
_atom_site_type_symbol
_atom_site_label
_atom_site_fract_x
_atom_site_fract_y
_atom_site_fract_z
Si Si1 0.428115 0.863678 0.700799
Si Si2 0.624966 0.039808 0.832868
Si Si3 0.152187 0.003000 0.275161
Si Si4 0.866378 0.105952 0.239345
Si Si5 0.608543 0.463791 0.993892
Si Si6 0.741351 0.614336 0.601311
Si Si7 0.954759 0.223437 0.477130
Si Si8 0.827365 0.229920 0.868840
O O1 0.337193 0.618682 0.559211
O O2 0.595387 0.880224 0.814835
O O3 0.145840 0.035622 0.463845
O O4 0.649908 0.918071 0.979514
O O5 0.382427 0.995618 0.544275
O O6 0.624085 0.298129 0.916132
O O7 0.887206 0.968063 0.038243
O O8 0.139609 0.242234 0.292306
O O9 0.205545 0.788929 0.232881
O O10 0.690410 0.323444 0.093805
O O11 0.977059 0.155062 0.419688
O O12 0.806129 0.651057 0.231000
O O13 0.312274 0.601512 0.736065
O O14 0.469598 0.749019 0.392191
O O15 0.986998 0.574604 0.879011
O O16 0.000000 0.000000 0.500000
O O17 0.000000 0.000000 0.000000
#
# Coordination Sequence:
#
# PCOD8004592 Si02
#       8
#     2   2   2   2   2   2   2   2
#     4  11  24  42  63  94 129 164 211 264 313 374
#     4  11  23  40  61  90 123 161 207 256 305 371
#     4  11  21  38  63  89 120 164 209 255 309 372
#     4  11  23  43  67  90 124 175 213 249 313 395
#     4  11  23  43  64  87 125 173 208 246 314 391
#     4  11  22  39  63  90 122 163 208 262 315 371
#     4  12  25  41  64  97 128 157 207 272 313 358
#     4  10  20  38  60  89 122 163 210 254 310 384
#
# _framework density 22.127568
#
# number of rings (size 3 to 8) (size 9 to 14) (size 15 to 20)
#    0.000    1.000    0.000   10.125    0.000    3.000 
#    0.000    3.750    0.000    0.000    0.000    0.000 
#    0.000    0.000    0.000    0.000    0.000    0.000 
#
# Total GULP energy -198295.732219 kJ/mol
# GULP energy per Si atom -12393.483264 kJ/mol
# Density = 2.207720 g / cm^3
# Si number density = 22.127568 Si / 1000 Ang^3
#
#
#
# Elastic Constant Matrix: (Units=GPa)
#
#
# Indices 1 2 3 4 5 6 
#
# 1 43.5892 -18.8531 4.3228 -19.9721 12.0336 -11.6532
# 2 -18.8531 20.1181 -21.3476 -11.4171 33.4883 -0.7084
# 3 4.3228 -21.3476 128.2818 -12.6504 32.5590 -8.0204
# 4 -19.9721 -11.4171 -12.6504 46.4692 3.8918 -7.6405
# 5 12.0336 33.4883 32.5590 3.8918 -0.1097 17.8435
# 6 -11.6532 -0.7084 -8.0204 -7.6405 17.8435 18.9778
#
#
#
# Elastic Compliance Matrix: (Units=1/GPa)
#
#
# Indices 1 2 3 4 5 6 
#
# 1 0.020571 -0.004160 -0.004189 0.005633 0.013339 0.000431
# 2 -0.004160 0.014755 -0.002808 -0.003326 0.015330 -0.018943
# 3 -0.004189 -0.002808 0.006401 -0.001516 0.002823 -0.003237
# 4 0.005633 -0.003326 -0.001516 0.021821 0.011653 0.000522
# 5 0.013339 0.015330 0.002823 0.011653 0.004297 0.010608
# 6 0.000431 -0.018943 -0.003237 0.000522 0.010608 0.041119
#
#
# Mechanical properties :
#
#
# Convention : Reuss Voigt Hill
#
# Bulk Modulus (GPa) = 51.51069 13.35927 32.43498
# Shear Modulus (GPa) = 36.29807 28.25859 32.27833
#
# Velocity S-wave (km/s) = 4.05458 3.57750 3.82349
# Velocity P-wave (km/s) = 6.72674 4.80782 5.84654
#
# Compressibility (1/GPa) = 0.01941345
#
# Stress axis : x y z
#
# Youngs Moduli (GPa) = 48.61207 67.77307 156.23198
#
# Poissons Ratio (x) = 0.28195 0.65442
# Poissons Ratio (y) = 0.20224 0.43866
# Poissons Ratio (z) = 0.20362 0.19029
#
# Static dielectric constant tensor:
#      x y z
#    x 4.185710 -0.344840 -0.378490 
#    y -0.344840 3.980640 0.324330 
#    z -0.378490 0.324330 4.630490 
# 
# 
# High freq. dielectric constant tensor:
#      x y z
#    x 1.861910 -0.019390 -0.006570 
#    y -0.019390 1.859320 0.010910 
#    z -0.006570 0.010910 1.907340 
# 
# From -- ./inp_files/357953.got.cif
#   From: 2010.06.25/outbox.cif.g09.slc.cpg/sg2_179_cif.got.tgz:357953.got - 2010.06.27 13:26:56.
