data_PCOD8004963
_publ_section_title
;
Structure prediction by ZEFSAII (Michael W. Deem and Ramdas Pophale) SiO2 
 PCOD8004963
Probable space group: P -1
;
_chemical_formula_sum "Si O2"
_cell_formula_units_Z 16
_cell_length_a 26.755029
_cell_length_b 8.368027
_cell_length_c 9.604447
_cell_angle_alpha 58.095183
_cell_angle_beta 154.695878
_cell_angle_gamma 130.799286
_cell_volume 682.775022
_symmetry_space_group_name_H-M "P -1"
_symmetry_group_IT_number 2
_symmetry_cell_setting 'triclinic'
loop_
_space_group_symop_operation_xyz
x,y,z
-x,-y,-z
loop_
_atom_site_type_symbol
_atom_site_label
_atom_site_fract_x
_atom_site_fract_y
_atom_site_fract_z
Si Si1 0.024049 0.460105 0.420781
Si Si2 0.503540 0.712982 0.860156
Si Si3 0.833899 0.828778 0.446466
Si Si4 0.789418 0.518323 0.731510
Si Si5 0.693394 0.744843 0.852007
Si Si6 0.469367 0.725268 0.457523
Si Si7 0.273897 0.887998 0.826690
Si Si8 0.893014 0.838152 0.103349
O O1 0.154133 0.657712 0.582379
O O2 0.043407 0.250569 0.575491
O O3 0.000000 0.500000 0.500000
O O4 0.894430 0.428211 0.022107
O O5 0.358592 0.690593 0.535726
O O6 0.537846 0.730238 0.774270
O O7 0.500000 0.500000 0.000000
O O8 0.634268 0.933859 0.144456
O O9 0.792082 0.655244 0.542226
O O10 0.798508 0.018113 0.300618
O O11 0.766026 0.716009 0.183950
O O12 0.994915 0.945453 0.784981
O O13 0.815181 0.660097 0.870407
O O14 0.587445 0.824242 0.592486
O O15 0.627891 0.516435 0.718044
O O16 0.794964 0.899114 0.917335
O O17 0.386493 0.853278 0.206897
#
# Coordination Sequence:
#
# PCOD8004963 Si02
#       8
#     2   2   2   2   2   2   2   2
#     4  10  20  38  63  94 126 160 216 261 311 372
#     4  12  23  38  64  99 125 158 214 271 312 366
#     4  12  24  38  67  99 127 160 221 270 315 372
#     4  11  22  40  64  98 128 166 209 273 322 364
#     4  11  23  41  60  96 133 170 208 257 328 385
#     4  11  23  40  67  88 131 174 207 258 325 383
#     4  12  22  39  65 101 121 164 223 268 302 378
#     4  11  22  40  67  94 125 173 213 263 316 388
#
# _framework density 23.433781
#
# number of rings (size 3 to 8) (size 9 to 14) (size 15 to 20)
#    0.000    0.750    7.500    1.875    0.000    0.000 
#    0.000    0.625    0.000   13.500    0.000    0.000 
#    0.000    0.000    0.000    0.000    0.000    0.000 
#
# Total GULP energy -198218.289159 kJ/mol
# GULP energy per Si atom -12388.643072 kJ/mol
# Density = 2.338044 g / cm^3
# Si number density = 23.433781 Si / 1000 Ang^3
#
#
#
# Elastic Constant Matrix: (Units=GPa)
#
#
# Indices 1 2 3 4 5 6 
#
# 1 101.0601 15.5738 31.2926 -0.0995 25.4468 21.8661
# 2 15.5738 74.4013 12.9518 8.8378 15.7368 28.1002
# 3 31.2926 12.9518 80.7231 11.3089 26.5250 15.3732
# 4 -0.0995 8.8378 11.3089 40.6179 14.9802 15.0115
# 5 25.4468 15.7368 26.5250 14.9802 39.7184 13.2934
# 6 21.8661 28.1002 15.3732 15.0115 13.2934 27.4442
#
#
#
# Elastic Compliance Matrix: (Units=1/GPa)
#
#
# Indices 1 2 3 4 5 6 
#
# 1 0.015382 0.003751 -0.002189 0.008539 -0.007829 -0.015748
# 2 0.003751 0.023865 0.001102 0.007429 -0.005551 -0.029416
# 3 -0.002189 0.001102 0.016795 -0.000022 -0.008716 -0.004558
# 4 0.008539 0.007429 -0.000022 0.038683 -0.013234 -0.029145
# 5 -0.007829 -0.005551 -0.008716 -0.013234 0.041960 0.003718
# 6 -0.015748 -0.029416 -0.004558 -0.029145 0.003718 0.095799
#
#
# Mechanical properties :
#
#
# Convention : Reuss Voigt Hill
#
# Bulk Modulus (GPa) = 16.29453 41.75789 29.02621
# Shear Modulus (GPa) = 20.19274 34.64717 27.41995
#
# Velocity S-wave (km/s) = 2.93865 3.84932 3.42439
# Velocity P-wave (km/s) = 4.29915 6.13307 5.29610
#
# Compressibility (1/GPa) = 0.06137028
#
# Stress axis : x y z
#
# Youngs Moduli (GPa) = 65.01094 41.90161 59.54073
#
# Poissons Ratio (x) = -0.15716 0.13036
# Poissons Ratio (y) = -0.24384 -0.06564
# Poissons Ratio (z) = 0.14233 -0.04619
#
# Static dielectric constant tensor:
#      x y z
#    x 4.202840 0.283640 0.574140 
#    y 0.283640 4.343520 0.247200 
#    z 0.574140 0.247200 4.800130 
# 
# 
# High freq. dielectric constant tensor:
#      x y z
#    x 1.902470 0.019770 0.035970 
#    y 0.019770 1.916390 0.017670 
#    z 0.035970 0.017670 1.937520 
# 
# From -- ./inp_files/352127.got.cif
#   From: 2010.06.25/outbox.cif.g09.slc.cpg/sg2_177_cif.got.tgz:352127.got - 2010.06.27 13:26:56.
