data_PCOD8004716
_publ_section_title
;
Structure prediction by ZEFSAII (Michael W. Deem and Ramdas Pophale) SiO2 
 PCOD8004716
Probable space group: P -1
;
_chemical_formula_sum "Si O2"
_cell_formula_units_Z 14
_cell_length_a 26.646427
_cell_length_b 9.052496
_cell_length_c 11.980971
_cell_angle_alpha 139.856918
_cell_angle_beta 28.104799
_cell_angle_gamma 147.266274
_cell_volume 733.320568
_symmetry_space_group_name_H-M "P -1"
_symmetry_group_IT_number 2
_symmetry_cell_setting 'triclinic'
loop_
_space_group_symop_operation_xyz
x,y,z
-x,-y,-z
loop_
_atom_site_type_symbol
_atom_site_label
_atom_site_fract_x
_atom_site_fract_y
_atom_site_fract_z
Si Si1 0.731919 0.000044 0.380165
Si Si2 0.114876 0.474536 0.486344
Si Si3 0.541082 0.223700 0.142837
Si Si4 0.791539 0.332778 0.813897
Si Si5 0.863970 0.756255 0.085315
Si Si6 0.826755 0.229945 0.914477
Si Si7 0.260775 0.197417 0.983163
O O1 0.799997 0.320113 0.462211
O O2 0.579624 0.846241 0.587187
O O3 0.768422 0.858115 0.322806
O O4 0.780031 0.979852 0.152569
O O5 0.140545 0.658473 0.429921
O O6 0.968491 0.313159 0.714872
O O7 0.155672 0.262721 0.260160
O O8 0.601985 0.520343 0.136938
O O9 0.644250 0.227368 0.023017
O O10 0.500000 0.000000 0.000000
O O11 0.797046 0.143651 0.790717
O O12 0.869502 0.648117 0.888351
O O13 0.813790 0.490951 0.112281
O O14 0.000000 0.000000 0.000000
O O15 0.729291 0.978059 0.038772
#
# Coordination Sequence:
#
# PCOD8004716 Si02
#       7
#     2   2   2   2   2   2   2
#     4  12  21  39  67  89 116 163 208 245 290 367
#     4  11  20  39  65  88 119 165 203 242 299 362
#     4  11  21  41  67  84 115 163 217 238 289 366
#     4   9  20  38  60  88 117 157 204 244 287 355
#     4  10  20  38  61  92 118 157 203 235 300 361
#     4  10  22  37  61  89 129 156 190 256 317 342
#     4  11  23  39  58  94 124 155 198 258 301 351
#
# _framework density 19.091241
#
# number of rings (size 3 to 8) (size 9 to 14) (size 15 to 20)
#    0.857    0.571    7.143    1.286    0.000    0.571 
#    0.000    5.000    0.000    0.000    0.000    0.000 
#    0.000    0.000    0.000    0.000    0.000    0.000 
#
# Total GULP energy -173458.824691 kJ/mol
# GULP energy per Si atom -12389.916049 kJ/mol
# Density = 1.904779 g / cm^3
# Si number density = 19.091241 Si / 1000 Ang^3
#
#
#
# Elastic Constant Matrix: (Units=GPa)
#
#
# Indices 1 2 3 4 5 6 
#
# 1 90.3533 57.5037 18.9761 0.5022 9.2152 2.5000
# 2 57.5037 91.0104 25.7168 2.0021 11.9778 2.4654
# 3 18.9761 25.7168 64.8581 6.6885 1.2916 5.7328
# 4 0.5022 2.0021 6.6885 28.3642 8.4372 2.5020
# 5 9.2152 11.9778 1.2916 8.4372 26.7430 -1.1315
# 6 2.5000 2.4654 5.7328 2.5020 -1.1315 44.9914
#
#
#
# Elastic Compliance Matrix: (Units=1/GPa)
#
#
# Indices 1 2 3 4 5 6 
#
# 1 0.018642 -0.011271 -0.001046 0.001265 -0.001741 -0.000399
# 2 -0.011271 0.020120 -0.004719 0.001500 -0.005377 -0.000094
# 3 -0.001046 -0.004719 0.018165 -0.004678 0.003002 -0.001662
# 4 0.001265 0.001500 -0.004678 0.040512 -0.013754 -0.002155
# 5 -0.001741 -0.005377 0.003002 -0.013754 0.044676 0.001897
# 6 -0.000399 -0.000094 -0.001662 -0.002155 0.001897 0.022633
#
#
# Mechanical properties :
#
#
# Convention : Reuss Voigt Hill
#
# Bulk Modulus (GPa) = 43.75462 50.06833 46.91147
# Shear Modulus (GPa) = 24.22021 29.62142 26.92081
#
# Velocity S-wave (km/s) = 3.56568 3.94327 3.75922
# Velocity P-wave (km/s) = 6.31827 6.85677 6.59302
#
# Compressibility (1/GPa) = 0.02285473
#
# Stress axis : x y z
#
# Youngs Moduli (GPa) = 53.64158 49.70156 55.05065
#
# Poissons Ratio (x) = 0.56020 0.05757
# Poissons Ratio (y) = 0.60461 0.25981
# Poissons Ratio (z) = 0.05609 0.23456
#
# Static dielectric constant tensor:
#      x y z
#    x 5.225630 0.421510 -0.284350 
#    y 0.421510 3.490930 0.084820 
#    z -0.284350 0.084820 3.419030 
# 
# 
# High freq. dielectric constant tensor:
#      x y z
#    x 1.737260 0.015600 -0.005810 
#    y 0.015600 1.730190 0.013330 
#    z -0.005810 0.013330 1.730140 
# 
# From -- ./inp_files/476402.got.cif
#   From: 2010.06.25/outbox.cif.g09.slc.cpg/sg2_239_cif.got.tgz:476402.got - 2010.06.27 13:26:56.
