data_PCOD8004255
_publ_section_title
;
Structure prediction by ZEFSAII (Michael W. Deem and Ramdas Pophale) SiO2 
 PCOD8004255
Probable space group: P -1
;
_chemical_formula_sum "Si O2"
_cell_formula_units_Z 16
_cell_length_a 8.297346
_cell_length_b 20.169720
_cell_length_c 18.919781
_cell_angle_alpha 22.057525
_cell_angle_beta 139.177379
_cell_angle_gamma 141.439060
_cell_volume 734.235669
_symmetry_space_group_name_H-M "P -1"
_symmetry_group_IT_number 2
_symmetry_cell_setting 'triclinic'
loop_
_space_group_symop_operation_xyz
x,y,z
-x,-y,-z
loop_
_atom_site_type_symbol
_atom_site_label
_atom_site_fract_x
_atom_site_fract_y
_atom_site_fract_z
Si Si1 0.546912 0.348747 0.845637
Si Si2 0.392141 0.262887 0.557689
Si Si3 0.366356 0.187386 0.338231
Si Si4 0.327997 0.045891 0.616933
Si Si5 0.005068 0.382395 0.048694
Si Si6 0.841622 0.062239 0.616587
Si Si7 0.782419 0.917665 0.889020
Si Si8 0.626045 0.999192 0.966787
O O1 0.470521 0.513283 0.619079
O O2 0.852744 0.448945 0.870024
O O3 0.368504 0.276755 0.928094
O O4 0.530446 0.186277 0.944813
O O5 0.282450 0.190804 0.514514
O O6 0.608891 0.178137 0.741608
O O7 0.140107 0.195100 0.592783
O O8 0.251426 0.092201 0.468254
O O9 0.669292 0.203093 0.418853
O O10 0.298626 0.384101 0.121718
O O11 0.202691 0.056006 0.352498
O O12 0.162747 0.833697 0.785648
O O13 0.634530 0.066591 0.709160
O O14 0.000000 0.500000 0.000000
O O15 0.772712 0.907477 0.809901
O O16 0.076428 0.993394 0.939183
O O17 0.500000 0.000000 0.000000
#
# Coordination Sequence:
#
# PCOD8004255 Si02
#       8
#     2   2   2   2   2   2   2   2
#     4  11  26  43  68 104 133 171 240 273 329 423
#     4  12  23  44  71  99 132 180 224 287 338 400
#     4  10  20  37  66  93 130 184 224 271 335 402
#     4  10  21  39  67  94 135 178 227 277 334 401
#     4  11  21  37  64  97 136 178 225 276 331 403
#     4  10  21  39  68  97 137 178 223 278 346 398
#     4  10  22  44  67  97 137 176 222 279 341 405
#     4  12  24  46  74  95 137 181 217 288 353 391
#
# _framework density 21.791367999999999
#
# number of rings (size 3 to 8) (size 9 to 14) (size 15 to 20)
#    0.000    1.250    5.000    1.500    1.750    1.000 
#    0.000    4.375    0.000    0.000    0.000    0.000 
#    0.000    0.000    0.000    0.000    0.000    0.000 
#
# Total GULP energy -198245.629344 kJ/mol
# GULP energy per Si atom -12390.351834 kJ/mol
# Density = 2.174177 g / cm^3
# Si number density = 21.791368 Si / 1000 Ang^3
#
#
#
# Elastic Constant Matrix: (Units=GPa)
#
#
# Indices 1 2 3 4 5 6 
#
# 1 106.8103 33.8796 40.7460 3.5362 4.0013 -9.6748
# 2 33.8796 85.1852 45.4267 17.2516 12.2860 -8.4185
# 3 40.7460 45.4267 124.3893 1.3253 8.4763 -11.4661
# 4 3.5362 17.2516 1.3253 26.3484 0.0546 1.3917
# 5 4.0013 12.2860 8.4763 0.0546 43.1674 5.8520
# 6 -9.6748 -8.4185 -11.4661 1.3917 5.8520 34.7745
#
#
#
# Elastic Compliance Matrix: (Units=1/GPa)
#
#
# Indices 1 2 3 4 5 6 
#
# 1 0.011434 -0.003243 -0.002434 0.000629 0.000131 0.001546
# 2 -0.003243 0.019242 -0.005221 -0.012065 -0.004581 0.003288
# 3 -0.002434 -0.005221 0.010906 0.003111 -0.000656 0.001641
# 4 0.000629 -0.012065 0.003111 0.045822 0.003263 -0.004103
# 5 0.000131 -0.004581 -0.000656 0.003263 0.025353 -0.005686
# 6 0.001546 0.003288 0.001641 -0.004103 -0.005686 0.031645
#
#
# Mechanical properties :
#
#
# Convention : Reuss Voigt Hill
#
# Bulk Modulus (GPa) = 50.54053 61.83215 56.18634
# Shear Modulus (GPa) = 28.93620 33.94690 31.44155
#
# Velocity S-wave (km/s) = 3.64795 3.95120 3.80260
# Velocity P-wave (km/s) = 6.40208 7.01799 6.71710
#
# Compressibility (1/GPa) = 0.01978610
#
# Stress axis : x y z
#
# Youngs Moduli (GPa) = 87.45903 51.96878 91.69090
#
# Poissons Ratio (x) = 0.16853 0.22319
# Poissons Ratio (y) = 0.28362 0.47873
# Poissons Ratio (z) = 0.21289 0.27134
#
# Static dielectric constant tensor:
#      x y z
#    x 4.291880 0.061450 0.291720 
#    y 0.061450 3.852340 0.567840 
#    z 0.291720 0.567840 4.227040 
# 
# 
# High freq. dielectric constant tensor:
#      x y z
#    x 1.864710 -0.006850 0.013660 
#    y -0.006850 1.841470 0.036950 
#    z 0.013660 0.036950 1.852590 
# 
# From -- ./inp_files/404890.got.cif
#   From: 2010.06.25/outbox.cif.g09.slc.cpg/sg2_203_cif.got.tgz:404890.got - 2010.06.27 13:26:56.
