data_PCOD8004307
_publ_section_title
;
Structure prediction by ZEFSAII (Michael W. Deem and Ramdas Pophale) SiO2 
 PCOD8004307
Probable space group: P -1
;
_chemical_formula_sum "Si O2"
_cell_formula_units_Z 14
_cell_length_a 8.742120
_cell_length_b 11.872853
_cell_length_c 9.098677
_cell_angle_alpha 114.214733
_cell_angle_beta 46.087299
_cell_angle_gamma 111.757968
_cell_volume 615.109116
_symmetry_space_group_name_H-M "P -1"
_symmetry_group_IT_number 2
_symmetry_cell_setting 'triclinic'
loop_
_space_group_symop_operation_xyz
x,y,z
-x,-y,-z
loop_
_atom_site_type_symbol
_atom_site_label
_atom_site_fract_x
_atom_site_fract_y
_atom_site_fract_z
Si Si1 0.305456 0.646343 0.137319
Si Si2 0.037384 0.827160 0.788756
Si Si3 0.502643 0.553192 0.248602
Si Si4 0.498968 0.213879 0.447128
Si Si5 0.378436 0.861385 0.991297
Si Si6 0.066171 0.096712 0.793886
Si Si7 0.906627 0.612999 0.549606
O O1 0.422219 0.628877 0.204687
O O2 0.055666 0.661885 0.338632
O O3 0.303862 0.521015 0.972083
O O4 0.420507 0.773076 0.053018
O O5 0.289486 0.813592 0.621397
O O6 0.900407 0.719210 0.731551
O O7 0.006917 0.953010 0.794440
O O8 0.926404 0.821255 0.018940
O O9 0.561554 0.650109 0.393760
O O10 0.332342 0.440710 0.366303
O O11 0.538481 0.204392 0.242924
O O12 0.294592 0.114780 0.570913
O O13 0.123927 0.865871 0.160508
O O14 0.500000 0.000000 0.000000
O O15 0.000000 0.500000 0.500000
#
# Coordination Sequence:
#
# PCOD8004307 Si02
#       7
#     2   2   2   2   2   2   2
#     4  10  23  41  66  97 130 170 214 272 316 386
#     4  10  21  40  66 101 126 167 228 271 312 385
#     4  10  23  40  72  99 123 171 223 270 321 378
#     4  11  23  43  67  95 135 168 219 269 325 387
#     4  11  28  46  61  96 138 174 219 265 327 399
#     4  10  25  40  66  93 131 179 212 271 327 382
#     4  10  20  37  67  98 128 162 214 273 321 373
#
# _framework density 22.760190999999999
#
# number of rings (size 3 to 8) (size 9 to 14) (size 15 to 20)
#    0.000    1.714    2.857    0.429   10.000    4.571 
#    0.000    1.429    0.000    0.000    0.000    0.000 
#    0.000    0.000    0.000    0.000    0.000    0.000 
#
# Total GULP energy -173563.414647 kJ/mol
# GULP energy per Si atom -12397.386761 kJ/mol
# Density = 2.270839 g / cm^3
# Si number density = 22.760191 Si / 1000 Ang^3
#
#
#
# Elastic Constant Matrix: (Units=GPa)
#
#
# Indices 1 2 3 4 5 6 
#
# 1 40.4141 29.0073 23.0333 -8.4722 4.6678 -1.0162
# 2 29.0073 107.2212 40.9448 6.5729 21.5520 -5.4614
# 3 23.0333 40.9448 104.0185 3.3641 6.9326 -4.8649
# 4 -8.4722 6.5729 3.3641 50.0873 9.4029 3.6235
# 5 4.6678 21.5520 6.9326 9.4029 22.7223 3.6065
# 6 -1.0162 -5.4614 -4.8649 3.6235 3.6065 25.7517
#
#
#
# Elastic Compliance Matrix: (Units=1/GPa)
#
#
# Indices 1 2 3 4 5 6 
#
# 1 0.034888 -0.007968 -0.004875 0.007605 -0.000924 -0.002175
# 2 -0.007968 0.015480 -0.003278 -0.001168 -0.012233 0.004227
# 3 -0.004875 -0.003278 0.012046 -0.001462 0.000805 0.001481
# 4 0.007605 -0.001168 -0.001462 0.023418 -0.009348 -0.002210
# 5 -0.000924 -0.012233 0.000805 -0.009348 0.060965 -0.009701
# 6 -0.002175 0.004227 0.001481 -0.002210 -0.009701 0.041592
#
#
# Mechanical properties :
#
#
# Convention : Reuss Voigt Hill
#
# Bulk Modulus (GPa) = 33.14395 48.62496 40.88445
# Shear Modulus (GPa) = 21.67430 30.29017 25.98223
#
# Velocity S-wave (km/s) = 3.08927 3.65203 3.38237
# Velocity P-wave (km/s) = 5.22672 6.26047 5.76681
#
# Compressibility (1/GPa) = 0.03017142
#
# Stress axis : x y z
#
# Youngs Moduli (GPa) = 28.66350 64.60039 83.01234
#
# Poissons Ratio (x) = 0.51474 0.40468
# Poissons Ratio (y) = 0.22839 0.27213
# Poissons Ratio (z) = 0.13973 0.21177
#
# Static dielectric constant tensor:
#      x y z
#    x 3.808760 0.163250 -0.359900 
#    y 0.163250 3.976510 -0.133870 
#    z -0.359900 -0.133870 4.897590 
# 
# 
# High freq. dielectric constant tensor:
#      x y z
#    x 1.863080 0.000100 -0.012360 
#    y 0.000100 1.903650 0.004090 
#    z -0.012360 0.004090 1.918940 
# 
# From -- ./inp_files/189724.got.cif
#   From: 2010.06.25/outbox.cif.g09.slc.cpg/sg2_95_cif.got.tgz:189724.got - 2010.06.27 13:26:56.
