data_PCOD8004509
_publ_section_title
;
Structure prediction by ZEFSAII (Michael W. Deem and Ramdas Pophale) SiO2 
 PCOD8004509
Probable space group: P -1
;
_chemical_formula_sum "Si O2"
_cell_formula_units_Z 14
_cell_length_a 5.060562
_cell_length_b 12.942013
_cell_length_c 11.874733
_cell_angle_alpha 61.623486
_cell_angle_beta 80.102612
_cell_angle_gamma 82.994208
_cell_volume 673.361478
_symmetry_space_group_name_H-M "P -1"
_symmetry_group_IT_number 2
_symmetry_cell_setting 'triclinic'
loop_
_space_group_symop_operation_xyz
x,y,z
-x,-y,-z
loop_
_atom_site_type_symbol
_atom_site_label
_atom_site_fract_x
_atom_site_fract_y
_atom_site_fract_z
Si Si1 0.676530 0.318313 0.938708
Si Si2 0.207517 0.425987 0.783783
Si Si3 0.913706 0.330159 0.447341
Si Si4 0.278060 0.937988 0.979204
Si Si5 0.073336 0.122724 0.380029
Si Si6 0.381422 0.372536 0.565035
Si Si7 0.367875 0.851434 0.784418
O O1 0.458710 0.411689 0.856525
O O2 0.954856 0.381296 0.892330
O O3 0.712426 0.201024 0.918650
O O4 0.591928 0.277030 0.092088
O O5 0.163265 0.562877 0.686593
O O6 0.264863 0.343935 0.711482
O O7 0.031724 0.220119 0.427726
O O8 0.640472 0.290276 0.550842
O O9 0.137791 0.371339 0.495970
O O10 0.326396 0.950645 0.834005
O O11 0.500000 0.000000 0.000000
O O12 0.000000 0.000000 0.000000
O O13 0.899710 0.151809 0.267703
O O14 0.385001 0.118200 0.327158
O O15 0.000000 0.000000 0.500000
O O16 0.500000 0.500000 0.500000
#
# Coordination Sequence:
#
# PCOD8004509 Si02
#       7
#     2   2   2   2   2   2   2
#     4  10  22  37  62  94 127 158 190 253 326 367
#     4  11  19  39  62  95 131 158 198 253 319 385
#     4  11  23  40  65  91 125 174 210 257 307 365
#     4  10  20  40  63  90 124 162 202 246 322 366
#     4  12  25  48  63  88 122 171 222 260 300 362
#     4  10  20  38  59  92 129 161 202 258 308 359
#     4  10  24  44  64  85 133 157 198 278 306 348
#
# _framework density 20.791211000000001
#
# number of rings (size 3 to 8) (size 9 to 14) (size 15 to 20)
#    0.857    0.571    0.000    8.143    0.000    0.000 
#   15.429    4.286    0.000    0.000    0.000    0.000 
#    0.000    0.000    0.000    0.000    0.000    0.000 
#
# Total GULP energy -173548.469685 kJ/mol
# GULP energy per Si atom -12396.319263 kJ/mol
# Density = 2.074389 g / cm^3
# Si number density = 20.791211 Si / 1000 Ang^3
#
#
#
# Elastic Constant Matrix: (Units=GPa)
#
#
# Indices 1 2 3 4 5 6 
#
# 1 125.5140 17.7612 23.3850 1.1906 -2.1315 -3.7826
# 2 17.7612 79.3736 23.7014 5.0356 -2.7406 -9.5131
# 3 23.3850 23.7014 95.9704 -2.4785 -7.2742 -7.0249
# 4 1.1906 5.0356 -2.4785 30.4532 0.3454 -1.6427
# 5 -2.1315 -2.7406 -7.2742 0.3454 49.1354 9.3906
# 6 -3.7826 -9.5131 -7.0249 -1.6427 9.3906 29.2020
#
#
#
# Elastic Compliance Matrix: (Units=1/GPa)
#
#
# Indices 1 2 3 4 5 6 
#
# 1 0.008488 -0.001341 -0.001726 -0.000238 -0.000006 0.000236
# 2 -0.001341 0.014397 -0.003044 -0.002367 -0.000412 0.003784
# 3 -0.001726 -0.003044 0.011824 0.001590 0.001243 0.001319
# 4 -0.000238 -0.002367 0.001590 0.033459 -0.000449 0.001607
# 5 -0.000006 -0.000412 0.001243 -0.000449 0.021831 -0.006882
# 6 0.000236 0.003784 0.001319 0.001607 -0.006882 0.038128
#
#
# Mechanical properties :
#
#
# Convention : Reuss Voigt Hill
#
# Bulk Modulus (GPa) = 44.47143 47.83925 46.15534
# Shear Modulus (GPa) = 33.81903 37.49214 35.65558
#
# Velocity S-wave (km/s) = 4.03749 4.25110 4.14567
# Velocity P-wave (km/s) = 6.57047 6.86696 6.72035
#
# Compressibility (1/GPa) = 0.02248635
#
# Stress axis : x y z
#
# Youngs Moduli (GPa) = 117.81511 69.45843 84.57226
#
# Poissons Ratio (x) = 0.09312 0.14601
# Poissons Ratio (y) = 0.15795 0.25747
# Poissons Ratio (z) = 0.20340 0.21146
#
# Static dielectric constant tensor:
#      x y z
#    x 3.868480 -0.132110 -0.148430 
#    y -0.132110 3.630370 0.170390 
#    z -0.148430 0.170390 3.810230 
# 
# 
# High freq. dielectric constant tensor:
#      x y z
#    x 1.835190 0.000670 -0.006230 
#    y 0.000670 1.794260 0.007190 
#    z -0.006230 0.007190 1.811190 
# 
# From -- ./inp_files/364031.got.cif
#   From: 2010.06.25/outbox.cif.g09.slc.cpg/sg2_183_cif.got.tgz:364031.got - 2010.06.27 13:26:56.
