data_PCOD8004976
_publ_section_title
;
Structure prediction by ZEFSAII (Michael W. Deem and Ramdas Pophale) SiO2 
 PCOD8004976
Probable space group: P -1
;
_chemical_formula_sum "Si O2"
_cell_formula_units_Z 16
_cell_length_a 8.494645
_cell_length_b 9.198430
_cell_length_c 20.438656
_cell_angle_alpha 141.048010
_cell_angle_beta 69.008911
_cell_angle_gamma 90.184476
_cell_volume 827.813908
_symmetry_space_group_name_H-M "P -1"
_symmetry_group_IT_number 2
_symmetry_cell_setting 'triclinic'
loop_
_space_group_symop_operation_xyz
x,y,z
-x,-y,-z
loop_
_atom_site_type_symbol
_atom_site_label
_atom_site_fract_x
_atom_site_fract_y
_atom_site_fract_z
Si Si1 0.157370 0.248954 0.551799
Si Si2 0.425609 0.723611 0.793247
Si Si3 0.056173 0.286579 0.724736
Si Si4 0.874600 0.886886 0.944182
Si Si5 0.462118 0.170461 0.629745
Si Si6 0.818789 0.552653 0.612147
Si Si7 0.031596 0.859637 0.654969
Si Si8 0.867601 0.218103 0.244007
O O1 0.079735 0.196594 0.613793
O O2 0.224641 0.468610 0.629879
O O3 0.994698 0.337968 0.552795
O O4 0.349914 0.989346 0.408591
O O5 0.440243 0.452237 0.717553
O O6 0.629993 0.690179 0.731440
O O7 0.278409 0.848569 0.798073
O O8 0.345953 0.922469 0.936838
O O9 0.261301 0.207475 0.701400
O O10 0.924213 0.596973 0.859677
O O11 0.960252 0.133006 0.723016
O O12 0.924578 0.885144 0.858996
O O13 0.000000 0.000000 0.000000
O O14 0.500000 0.000000 0.500000
O O15 0.799530 0.384726 0.495632
O O16 0.859386 0.786355 0.662868
O O17 0.105848 0.897931 0.727914
#
# Coordination Sequence:
#
# PCOD8004976 Si02
#       8
#     2   2   2   2   2   2   2   2
#     4   9  18  34  56  80 109 142 186 227 275 321
#     4  11  19  34  61  83 109 140 190 231 267 318
#     4  10  18  34  58  82 107 143 187 233 268 319
#     4   9  17  36  60  83 106 137 191 240 265 303
#     4  10  16  29  56  89 100 130 185 237 267 310
#     4  10  22  38  52  82 119 149 175 222 277 339
#     4  10  22  37  53  79 120 151 175 218 284 336
#     4   9  18  36  57  80 110 147 182 222 279 327
#
# _framework density 19.328015000000001
#
# number of rings (size 3 to 8) (size 9 to 14) (size 15 to 20)
#    0.000    2.250    5.000    1.500    0.000    2.500 
#    4.500    8.750    0.000    0.000    0.000    0.000 
#    0.000    0.000    0.000    0.000    0.000    0.000 
#
# Total GULP energy -198257.800750 kJ/mol
# GULP energy per Si atom -12391.112547 kJ/mol
# Density = 1.928402 g / cm^3
# Si number density = 19.328015 Si / 1000 Ang^3
#
#
#
# Elastic Constant Matrix: (Units=GPa)
#
#
# Indices 1 2 3 4 5 6 
#
# 1 63.1267 34.6157 34.6726 -7.3427 -15.2202 1.5478
# 2 34.6157 124.2969 41.4383 4.6174 0.6700 4.5042
# 3 34.6726 41.4383 116.9767 5.5805 -21.2891 1.5174
# 4 -7.3427 4.6174 5.5805 23.2835 6.0342 5.9546
# 5 -15.2202 0.6700 -21.2891 6.0342 27.2178 -3.1018
# 6 1.5478 4.5042 1.5174 5.9546 -3.1018 24.1044
#
#
#
# Elastic Compliance Matrix: (Units=1/GPa)
#
#
# Indices 1 2 3 4 5 6 
#
# 1 0.024150 -0.005728 -0.003880 0.007655 0.008800 -0.000995
# 2 -0.005728 0.010827 -0.003124 -0.001194 -0.005867 -0.001919
# 3 -0.003880 -0.003124 0.012905 -0.007041 0.009908 0.003035
# 4 0.007655 -0.001194 -0.007041 0.055162 -0.015182 -0.015406
# 5 0.008800 -0.005867 0.009908 -0.015182 0.054133 0.010624
# 6 -0.000995 -0.001919 0.003035 -0.015406 0.010624 0.046890
#
#
# Mechanical properties :
#
#
# Convention : Reuss Voigt Hill
#
# Bulk Modulus (GPa) = 44.60401 58.42816 51.51608
# Shear Modulus (GPa) = 21.09685 27.83273 24.46479
#
# Velocity S-wave (km/s) = 3.30740 3.79888 3.56162
# Velocity P-wave (km/s) = 6.14106 7.03828 6.60492
#
# Compressibility (1/GPa) = 0.02241951
#
# Stress axis : x y z
#
# Youngs Moduli (GPa) = 41.40850 92.35959 77.48946
#
# Poissons Ratio (x) = 0.52902 0.30064
# Poissons Ratio (y) = 0.23718 0.24205
# Poissons Ratio (z) = 0.16066 0.28850
#
# Static dielectric constant tensor:
#      x y z
#    x 3.583710 -0.090500 -0.155190 
#    y -0.090500 3.503430 -0.083500 
#    z -0.155190 -0.083500 3.958950 
# 
# 
# High freq. dielectric constant tensor:
#      x y z
#    x 1.729630 0.006080 0.002280 
#    y 0.006080 1.739980 0.001900 
#    z 0.002280 0.001900 1.743830 
# 
# From -- ./inp_files/177817.got.cif
#   From: 2010.06.25/outbox.cif.g09.slc.cpg/sg2_89_cif.got.tgz:177817.got - 2010.06.27 13:26:56.
