data_PCOD8004325
_publ_section_title
;
Structure prediction by ZEFSAII (Michael W. Deem and Ramdas Pophale) SiO2 
 PCOD8004325
Probable space group: P -1
;
_chemical_formula_sum "Si O2"
_cell_formula_units_Z 16
_cell_length_a 13.103007
_cell_length_b 20.582356
_cell_length_c 9.553666
_cell_angle_alpha 62.932517
_cell_angle_beta 35.687730
_cell_angle_gamma 35.512862
_cell_volume 693.089158
_symmetry_space_group_name_H-M "P -1"
_symmetry_group_IT_number 2
_symmetry_cell_setting 'triclinic'
loop_
_space_group_symop_operation_xyz
x,y,z
-x,-y,-z
loop_
_atom_site_type_symbol
_atom_site_label
_atom_site_fract_x
_atom_site_fract_y
_atom_site_fract_z
Si Si1 0.174769 0.383733 0.311209
Si Si2 0.727227 0.297114 0.760247
Si Si3 0.155977 0.506729 0.725723
Si Si4 0.104458 0.150139 0.765196
Si Si5 0.226386 0.803198 0.674752
Si Si6 0.220768 0.273316 0.865937
Si Si7 0.085043 0.623760 0.182434
Si Si8 0.836696 0.860479 0.838048
O O1 0.000000 0.500000 0.500000
O O2 0.966892 0.450396 0.337050
O O3 0.161098 0.311015 0.477498
O O4 0.544868 0.283069 0.965442
O O5 0.018513 0.182489 0.664662
O O6 0.882353 0.259712 0.473347
O O7 0.468326 0.455310 0.936916
O O8 0.552679 0.349911 0.438450
O O9 0.000000 0.500000 0.000000
O O10 0.044252 0.620673 0.814762
O O11 0.936651 0.281752 0.892797
O O12 0.500000 0.000000 0.500000
O O13 0.931419 0.143185 0.045511
O O14 0.429286 0.806498 0.422816
O O15 0.944067 0.892156 0.781880
O O16 0.061733 0.358462 0.814636
O O17 0.267350 0.169927 0.915178
O O18 0.500000 0.000000 0.000000
#
# Coordination Sequence:
#
# PCOD8004325 Si02
#       8
#     2   2   2   2   2   2   2   2
#     4  10  20  40  66 103 137 166 228 284 333 401
#     4  11  23  41  69  97 132 179 220 281 340 389
#     4  10  20  37  69 105 131 167 220 281 337 397
#     4  12  26  44  64  97 141 178 226 280 334 406
#     4  11  22  45  69  93 134 179 216 276 345 393
#     4  11  24  43  70 100 134 172 226 282 338 402
#     4  11  23  43  69 101 131 174 233 281 334 404
#     4  12  27  45  65  99 141 177 228 275 331 414
#
# _framework density 23.085052999999998
#
# number of rings (size 3 to 8) (size 9 to 14) (size 15 to 20)
#    0.000    1.000    1.250    8.625    3.500    1.500 
#    2.250    1.250    0.000    0.000    0.000    0.000 
#    0.000    0.000    0.000    0.000    0.000    0.000 
#
# Total GULP energy -198305.249745 kJ/mol
# GULP energy per Si atom -12394.078109 kJ/mol
# Density = 2.303251 g / cm^3
# Si number density = 23.085053 Si / 1000 Ang^3
#
#
#
# Elastic Constant Matrix: (Units=GPa)
#
#
# Indices 1 2 3 4 5 6 
#
# 1 97.8026 19.3562 11.2378 -16.5775 -0.1356 -35.7572
# 2 19.3562 74.5219 35.3267 -7.1297 -6.7583 -24.2303
# 3 11.2378 35.3267 112.3062 -22.5275 -7.6519 -7.1699
# 4 -16.5775 -7.1297 -22.5275 35.5830 -8.8240 -1.4580
# 5 -0.1356 -6.7583 -7.6519 -8.8240 41.6663 -1.5531
# 6 -35.7572 -24.2303 -7.1699 -1.4580 -1.5531 40.3827
#
#
#
# Elastic Compliance Matrix: (Units=1/GPa)
#
#
# Indices 1 2 3 4 5 6 
#
# 1 0.018235 0.001985 0.001229 0.011326 0.003681 0.018107
# 2 0.001985 0.020114 -0.004757 0.003380 0.003605 0.013243
# 3 0.001229 -0.004757 0.012189 0.008172 0.003232 0.000818
# 4 0.011326 0.003380 0.008172 0.042773 0.011722 0.015503
# 5 0.003681 0.003605 0.003232 0.011722 0.027952 0.007494
# 6 0.018107 0.013243 0.000818 0.015503 0.007494 0.049735
#
#
# Mechanical properties :
#
#
# Convention : Reuss Voigt Hill
#
# Bulk Modulus (GPa) = 21.07245 46.27467 33.67356
# Shear Modulus (GPa) = 26.32958 38.10708 32.21833
#
# Velocity S-wave (km/s) = 3.38086 4.06732 3.73987
# Velocity P-wave (km/s) = 4.93845 6.49202 5.76778
#
# Compressibility (1/GPa) = 0.04745532
#
# Stress axis : x y z
#
# Youngs Moduli (GPa) = 54.83877 49.71596 82.04135
#
# Poissons Ratio (x) = -0.09871 -0.10087
# Poissons Ratio (y) = -0.10888 0.39023
# Poissons Ratio (z) = -0.06742 0.23648
#
# Static dielectric constant tensor:
#      x y z
#    x 4.443650 0.046540 0.397340 
#    y 0.046540 4.370050 -0.296250 
#    z 0.397340 -0.296250 5.206510 
# 
# 
# High freq. dielectric constant tensor:
#      x y z
#    x 1.917950 -0.020170 0.002220 
#    y -0.020170 1.892250 -0.021410 
#    z 0.002220 -0.021410 1.922220 
# 
# From -- ./inp_files/283007.got.cif
#   From: 2010.06.25/outbox.cif.g09.slc.cpg/sg2_142_cif.got.tgz:283007.got - 2010.06.27 13:26:56.
