data_PCOD8004686
_publ_section_title
;
Structure prediction by ZEFSAII (Michael W. Deem and Ramdas Pophale) SiO2 
 PCOD8004686
Probable space group: P -1
;
_chemical_formula_sum "Si O2"
_cell_formula_units_Z 16
_cell_length_a 18.477790
_cell_length_b 13.013204
_cell_length_c 10.602236
_cell_angle_alpha 147.750451
_cell_angle_beta 38.441650
_cell_angle_gamma 146.348577
_cell_volume 726.261023
_symmetry_space_group_name_H-M "P -1"
_symmetry_group_IT_number 2
_symmetry_cell_setting 'triclinic'
loop_
_space_group_symop_operation_xyz
x,y,z
-x,-y,-z
loop_
_atom_site_type_symbol
_atom_site_label
_atom_site_fract_x
_atom_site_fract_y
_atom_site_fract_z
Si Si1 0.309045 0.260826 0.749880
Si Si2 0.500856 0.226056 0.255860
Si Si3 0.183828 0.819786 0.615587
Si Si4 0.889026 0.577643 0.865056
Si Si5 0.741166 0.554074 0.438596
Si Si6 0.451445 0.288549 0.106939
Si Si7 0.732018 0.169363 0.211522
Si Si8 0.991939 0.663972 0.084100
O O1 0.378413 0.186429 0.472136
O O2 0.417628 0.499605 0.915131
O O3 0.252737 0.075039 0.742148
O O4 0.188425 0.284488 0.879437
O O5 0.646686 0.400790 0.294611
O O6 0.483309 0.319883 0.244803
O O7 0.500000 0.000000 0.000000
O O8 0.202781 0.665389 0.326989
O O9 0.258691 0.814712 0.634576
O O10 0.025160 0.726893 0.754153
O O11 0.923451 0.534024 0.912791
O O12 0.680860 0.695667 0.727882
O O13 0.745375 0.396954 0.379060
O O14 0.890837 0.730451 0.359617
O O15 0.413763 0.045160 0.852763
O O16 0.854279 0.140258 0.954788
O O17 0.000000 0.500000 0.000000
#
# Coordination Sequence:
#
# PCOD8004686 Si02
#       8
#     2   2   2   2   2   2   2   2
#     4  11  24  38  65  93 120 163 209 248 307 368
#     4  11  22  39  64  91 124 159 199 256 312 368
#     4  10  24  41  64  90 120 169 210 250 300 359
#     4  10  21  43  65  89 128 156 206 261 299 357
#     4  10  20  38  61  89 124 156 202 253 311 367
#     4  11  23  38  60  90 124 158 198 257 309 363
#     4  10  22  40  57  87 126 161 205 250 300 362
#     4   9  19  36  63  92 119 155 199 248 310 368
#
# _framework density 22.030646000000001
#
# number of rings (size 3 to 8) (size 9 to 14) (size 15 to 20)
#    0.000    1.750    1.250    3.375    3.500    2.000 
#    0.000   10.625    0.000    0.000    0.000    0.000 
#    0.000    0.000    0.000    0.000    0.000    0.000 
#
# Total GULP energy -198331.597451 kJ/mol
# GULP energy per Si atom -12395.724841 kJ/mol
# Density = 2.198050 g / cm^3
# Si number density = 22.030646 Si / 1000 Ang^3
#
#
#
# Elastic Constant Matrix: (Units=GPa)
#
#
# Indices 1 2 3 4 5 6 
#
# 1 135.3306 42.6844 23.0938 -0.8610 -0.6757 -14.5229
# 2 42.6844 108.4389 14.9250 4.6463 4.8078 -14.3217
# 3 23.0938 14.9250 62.1407 -6.8426 -14.7892 -8.1846
# 4 -0.8610 4.6463 -6.8426 22.7867 6.4223 -0.8825
# 5 -0.6757 4.8078 -14.7892 6.4223 31.6706 2.1314
# 6 -14.5229 -14.3217 -8.1846 -0.8825 2.1314 27.9079
#
#
#
# Elastic Compliance Matrix: (Units=1/GPa)
#
#
# Indices 1 2 3 4 5 6 
#
# 1 0.008980 -0.002844 -0.002449 0.000508 -0.000796 0.002572
# 2 -0.002844 0.011333 -0.001995 -0.002152 -0.002537 0.003876
# 3 -0.002449 -0.001995 0.020431 0.004107 0.008746 0.003156
# 4 0.000508 -0.002152 0.004107 0.047815 -0.007606 0.002457
# 5 -0.000796 -0.002537 0.008746 -0.007606 0.037723 -0.002273
# 6 0.002572 0.003876 0.003156 0.002457 -0.002273 0.040336
#
#
# Mechanical properties :
#
#
# Convention : Reuss Voigt Hill
#
# Bulk Modulus (GPa) = 38.21627 51.92405 45.07016
# Shear Modulus (GPa) = 26.32731 31.48683 28.90707
#
# Velocity S-wave (km/s) = 3.46067 3.78462 3.62626
# Velocity P-wave (km/s) = 5.77519 6.53590 6.16728
#
# Compressibility (1/GPa) = 0.02616687
#
# Stress axis : x y z
#
# Youngs Moduli (GPa) = 111.36370 88.24098 48.94482
#
# Poissons Ratio (x) = 0.25099 0.11986
# Poissons Ratio (y) = 0.31676 0.09765
# Poissons Ratio (z) = 0.27271 0.17605
#
# Static dielectric constant tensor:
#      x y z
#    x 4.003540 0.080860 -0.252810 
#    y 0.080860 4.161560 -0.265920 
#    z -0.252810 -0.265920 3.943590 
# 
# 
# High freq. dielectric constant tensor:
#      x y z
#    x 1.870470 0.000070 -0.015820 
#    y 0.000070 1.869960 -0.010740 
#    z -0.015820 -0.010740 1.854180 
# 
# From -- ./inp_files/471979.got.cif
#   From: 2010.06.25/outbox.cif.g09.slc.cpg/sg2_236_cif.got.tgz:471979.got - 2010.06.27 13:26:56.
