data_PCOD8004134
_publ_section_title
;
Structure prediction by ZEFSAII (Michael W. Deem and Ramdas Pophale) SiO2 
 PCOD8004134
Probable space group: P -1
;
_chemical_formula_sum "Si O2"
_cell_formula_units_Z 16
_cell_length_a 8.733665
_cell_length_b 14.964171
_cell_length_c 12.038149
_cell_angle_alpha 148.494123
_cell_angle_beta 85.111966
_cell_angle_gamma 86.161635
_cell_volume 789.202346
_symmetry_space_group_name_H-M "P -1"
_symmetry_group_IT_number 2
_symmetry_cell_setting 'triclinic'
loop_
_space_group_symop_operation_xyz
x,y,z
-x,-y,-z
loop_
_atom_site_type_symbol
_atom_site_label
_atom_site_fract_x
_atom_site_fract_y
_atom_site_fract_z
Si Si1 0.452886 0.356185 0.212247
Si Si2 0.467949 0.025361 0.157186
Si Si3 0.105080 0.107355 0.669412
Si Si4 0.069938 0.554261 0.845043
Si Si5 0.682828 0.596250 0.490703
Si Si6 0.742104 0.483813 0.806737
Si Si7 0.294493 0.330702 0.770945
Si Si8 0.635121 0.139133 0.455139
O O1 0.547754 0.504709 0.360674
O O2 0.333414 0.380001 0.350829
O O3 0.342433 0.374728 0.130889
O O4 0.574860 0.155737 0.991844
O O5 0.336045 0.215917 0.375638
O O6 0.622486 0.036597 0.231985
O O7 0.500000 0.000000 0.000000
O O8 0.170391 0.218966 0.691953
O O9 0.254373 0.984274 0.592982
O O10 0.000000 0.000000 0.500000
O O11 0.995124 0.237476 0.903946
O O12 0.143372 0.526597 0.686078
O O13 0.215663 0.471220 0.830752
O O14 0.931365 0.456015 0.762101
O O15 0.710436 0.296872 0.586223
O O16 0.669696 0.558634 0.008872
O O17 0.459004 0.201284 0.583275
#
# Coordination Sequence:
#
# PCOD8004134 Si02
#       8
#     2   2   2   2   2   2   2   2
#     4  10  21  39  65  90 122 163 214 258 309 363
#     4  10  20  37  64  92 120 157 213 266 303 357
#     4  11  24  39  59  94 132 164 202 260 324 380
#     4  11  22  41  60  88 130 165 204 255 325 371
#     4  10  21  41  63  90 123 166 210 260 307 375
#     4  11  22  38  62  89 127 167 202 261 320 374
#     4  11  22  39  63  88 122 168 213 254 310 376
#     4  12  22  40  63  91 126 164 217 261 306 375
#
# _framework density 20.273633
#
# number of rings (size 3 to 8) (size 9 to 14) (size 15 to 20)
#    0.000    1.250    2.500    5.250    0.000    2.500 
#    2.250    0.000    0.000    2.250    0.000    0.000 
#    0.000    0.000    0.000    0.000    0.000    0.000 
#
# Total GULP energy -198343.726985 kJ/mol
# GULP energy per Si atom -12396.482937 kJ/mol
# Density = 2.022749 g / cm^3
# Si number density = 20.273633 Si / 1000 Ang^3
#
#
#
# Elastic Constant Matrix: (Units=GPa)
#
#
# Indices 1 2 3 4 5 6 
#
# 1 65.9225 15.5942 40.7335 -11.8857 -10.8440 -2.2916
# 2 15.5942 65.7650 23.6080 -1.5430 -6.9819 -6.8187
# 3 40.7335 23.6080 107.0541 0.7608 -0.7120 9.5137
# 4 -11.8857 -1.5430 0.7608 36.1101 -6.0910 2.2584
# 5 -10.8440 -6.9819 -0.7120 -6.0910 39.8481 -1.4958
# 6 -2.2916 -6.8187 9.5137 2.2584 -1.4958 32.3501
#
#
#
# Elastic Compliance Matrix: (Units=1/GPa)
#
#
# Indices 1 2 3 4 5 6 
#
# 1 0.024296 -0.000917 -0.009412 0.009228 0.007844 0.004014
# 2 -0.000917 0.017707 -0.003979 0.000750 0.003082 0.004928
# 3 -0.009412 -0.003979 0.014301 -0.003860 -0.003804 -0.005618
# 4 0.009228 0.000750 -0.003860 0.032103 0.007483 0.000052
# 5 0.007844 0.003082 -0.003804 0.007483 0.028964 0.003141
# 6 0.004014 0.004928 -0.005618 0.000052 0.003141 0.034028
#
#
# Mechanical properties :
#
#
# Convention : Reuss Voigt Hill
#
# Bulk Modulus (GPa) = 36.11640 44.29033 40.20337
# Shear Modulus (GPa) = 26.42087 32.24870 29.33478
#
# Velocity S-wave (km/s) = 3.61392 3.99265 3.80800
# Velocity P-wave (km/s) = 5.93861 6.56877 6.26162
#
# Compressibility (1/GPa) = 0.02768825
#
# Stress axis : x y z
#
# Youngs Moduli (GPa) = 41.15927 56.47498 69.92402
#
# Poissons Ratio (x) = 0.05177 0.65816
# Poissons Ratio (y) = 0.03773 0.27821
# Poissons Ratio (z) = 0.38741 0.22470
#
# Static dielectric constant tensor:
#      x y z
#    x 3.512510 -0.110520 0.039800 
#    y -0.110520 3.940300 0.133960 
#    z 0.039800 0.133960 4.194810 
# 
# 
# High freq. dielectric constant tensor:
#      x y z
#    x 1.770090 -0.007520 0.010950 
#    y -0.007520 1.801130 0.000130 
#    z 0.010950 0.000130 1.809120 
# 
# From -- ./inp_files/202991.got.cif
#   From: 2010.06.25/outbox.cif.g09.slc.cpg/sg2_102_cif.got.tgz:202991.got - 2010.06.27 13:26:56.
