data_PCOD8004574
_publ_section_title
;
Structure prediction by ZEFSAII (Michael W. Deem and Ramdas Pophale) SiO2 
 PCOD8004574
Probable space group: P -1
;
_chemical_formula_sum "Si O2"
_cell_formula_units_Z 16
_cell_length_a 14.503772
_cell_length_b 14.585540
_cell_length_c 15.141326
_cell_angle_alpha 151.824901
_cell_angle_beta 134.057890
_cell_angle_gamma 30.413573
_cell_volume 736.937415
_symmetry_space_group_name_H-M "P -1"
_symmetry_group_IT_number 2
_symmetry_cell_setting 'triclinic'
loop_
_space_group_symop_operation_xyz
x,y,z
-x,-y,-z
loop_
_atom_site_type_symbol
_atom_site_label
_atom_site_fract_x
_atom_site_fract_y
_atom_site_fract_z
Si Si1 0.094499 0.236137 0.681958
Si Si2 0.389323 0.312063 0.726309
Si Si3 0.977186 0.845489 0.917200
Si Si4 0.569179 0.308657 0.004855
Si Si5 0.296596 0.456582 0.266693
Si Si6 0.710696 0.320863 0.719898
Si Si7 0.021882 0.208999 0.932464
Si Si8 0.696520 0.965451 0.167020
O O1 0.896268 0.336628 0.630264
O O2 0.065173 0.485015 0.839133
O O3 0.239061 0.965244 0.482107
O O4 0.170831 0.147750 0.757544
O O5 0.165394 0.505692 0.739658
O O6 0.445849 0.304505 0.857630
O O7 0.500000 0.000000 0.500000
O O8 0.430916 0.464051 0.829585
O O9 0.953072 0.932919 0.078563
O O10 0.776390 0.976063 0.865021
O O11 0.000000 0.000000 0.000000
O O12 0.480842 0.408317 0.128262
O O13 0.303015 0.632009 0.354285
O O14 0.478471 0.274654 0.298276
O O15 0.308576 0.257318 0.042340
O O16 0.882256 0.250912 0.813066
O O17 0.217935 0.019045 0.848579
#
# Coordination Sequence:
#
# PCOD8004574 Si02
#       8
#     2   2   2   2   2   2   2   2
#     4  11  23  39  58  92 125 164 211 250 307 364
#     4  10  22  42  69  89 120 157 202 260 317 368
#     4  10  22  43  67  90 124 163 206 257 319 372
#     4  10  23  41  61  94 122 159 205 253 310 377
#     4  10  20  38  60  87 123 168 205 254 304 359
#     4  12  22  37  64  88 128 164 206 249 308 370
#     4  11  21  41  63  86 127 165 203 263 308 361
#     4  10  20  38  63  86 124 167 208 250 310 363
#
# _framework density 21.711476000000001
#
# number of rings (size 3 to 8) (size 9 to 14) (size 15 to 20)
#    0.000    1.500    3.750    1.875    1.750    1.000 
#    2.250    2.500    0.000    0.000    0.000    0.000 
#    0.000    0.000    0.000    0.000    0.000    0.000 
#
# Total GULP energy -198265.360736 kJ/mol
# GULP energy per Si atom -12391.585046 kJ/mol
# Density = 2.166206 g / cm^3
# Si number density = 21.711476 Si / 1000 Ang^3
#
#
#
# Elastic Constant Matrix: (Units=GPa)
#
#
# Indices 1 2 3 4 5 6 
#
# 1 60.6953 31.1583 22.5621 -4.8098 -2.7658 11.7647
# 2 31.1583 110.9503 23.8211 34.2032 -8.2063 -18.8909
# 3 22.5621 23.8211 86.7839 26.4459 -8.0886 -29.4305
# 4 -4.8098 34.2032 26.4459 9.3351 -0.6180 1.3241
# 5 -2.7658 -8.2063 -8.0886 -0.6180 19.3237 -7.6996
# 6 11.7647 -18.8909 -29.4305 1.3241 -7.6996 21.4089
#
#
#
# Elastic Compliance Matrix: (Units=1/GPa)
#
#
# Indices 1 2 3 4 5 6 
#
# 1 0.011075 0.002940 0.004363 -0.017842 0.006453 0.005931
# 2 0.002940 0.005518 -0.008782 0.007412 -0.005102 -0.011112
# 3 0.004363 -0.008782 0.005940 0.018012 -0.001489 -0.003631
# 4 -0.017842 0.007412 0.018012 0.014476 0.028737 0.050546
# 5 0.006453 -0.005102 -0.001489 0.028737 0.053779 0.007469
# 6 0.005931 -0.011112 -0.003631 0.050546 0.007469 0.028215
#
#
# Mechanical properties :
#
#
# Convention : Reuss Voigt Hill
#
# Bulk Modulus (GPa) = 51.08019 45.94583 48.51301
# Shear Modulus (GPa) = 38.91519 22.07277 30.49398
#
# Velocity S-wave (km/s) = 4.23824 3.19194 3.75174
# Velocity P-wave (km/s) = 6.89407 5.89852 6.41563
#
# Compressibility (1/GPa) = 0.01957706
#
# Stress axis : x y z
#
# Youngs Moduli (GPa) = 90.29397 181.21160 168.34983
#
# Poissons Ratio (x) = -0.53281 -0.73457
# Poissons Ratio (y) = -0.26549 1.47841
# Poissons Ratio (z) = -0.39398 1.59136
#
# Static dielectric constant tensor:
#      x y z
#    x 0.788970 6.211530 2.050930 
#    y 6.211530 -8.412680 -3.762140 
#    z 2.050930 -3.762140 2.524770 
# 
# 
# High freq. dielectric constant tensor:
#      x y z
#    x 1.848530 -0.008990 -0.003760 
#    y -0.008990 1.863530 0.013390 
#    z -0.003760 0.013390 1.833540 
# 
# From -- ./inp_files/534072.got.cif
#   From: 2010.06.25/outbox.cif.g09.slc.cpg/sg2_268_cif.got.tgz:534072.got - 2010.06.27 13:26:56.
