data_PCOD8004482
_publ_section_title
;
Structure prediction by ZEFSAII (Michael W. Deem and Ramdas Pophale) SiO2 
 PCOD8004482
Probable space group: P -1
;
_chemical_formula_sum "Si O2"
_cell_formula_units_Z 16
_cell_length_a 8.647372
_cell_length_b 13.650090
_cell_length_c 10.905522
_cell_angle_alpha 124.952474
_cell_angle_beta 54.581646
_cell_angle_gamma 95.167590
_cell_volume 801.433344
_symmetry_space_group_name_H-M "P -1"
_symmetry_group_IT_number 2
_symmetry_cell_setting 'triclinic'
loop_
_space_group_symop_operation_xyz
x,y,z
-x,-y,-z
loop_
_atom_site_type_symbol
_atom_site_label
_atom_site_fract_x
_atom_site_fract_y
_atom_site_fract_z
Si Si1 0.217687 0.413979 0.385578
Si Si2 0.255074 0.182494 0.041188
Si Si3 0.697162 0.702744 0.486434
Si Si4 0.309598 0.909227 0.226927
Si Si5 0.051630 0.167125 0.663472
Si Si6 0.329744 0.917788 0.935245
Si Si7 0.425475 0.508020 0.676825
Si Si8 0.057603 0.758117 0.978193
O O1 0.268511 0.272435 0.209863
O O2 0.206963 0.402524 0.528240
O O3 0.397825 0.467858 0.304733
O O4 0.000000 0.500000 0.500000
O O5 0.075966 0.260220 0.086355
O O6 0.472483 0.146488 0.846108
O O7 0.227702 0.055835 0.017333
O O8 0.888553 0.722806 0.348804
O O9 0.538621 0.835609 0.709592
O O10 0.597607 0.629500 0.382504
O O11 0.189577 0.810370 0.220823
O O12 0.181347 0.034762 0.448071
O O13 0.355833 0.936902 0.083019
O O14 0.095137 0.165838 0.788388
O O15 0.180485 0.841538 0.928115
O O16 0.500000 0.500000 0.500000
O O17 0.208994 0.624868 0.870722
#
# Coordination Sequence:
#
# PCOD8004482 Si02
#       8
#     2   2   2   2   2   2   2   2
#     4  11  22  37  62  93 116 149 201 255 296 340
#     4  12  21  35  63  90 121 152 204 251 290 347
#     4  11  20  39  65  87 117 158 204 239 295 360
#     4  10  20  38  59  86 124 157 195 244 304 348
#     4  10  22  38  59  85 122 166 192 235 306 360
#     4  11  20  38  63  91 115 156 202 251 292 348
#     4  10  20  40  62  82 119 158 197 243 293 349
#     4  11  23  39  57  91 124 161 195 240 302 354
#
# _framework density 19.964231000000002
#
# number of rings (size 3 to 8) (size 9 to 14) (size 15 to 20)
#    0.000    1.250    5.000    3.750    0.000    1.000 
#    0.000    1.250    0.000    3.000    0.000    0.000 
#    0.000    0.000    0.000    0.000    0.000    0.000 
#
# Total GULP energy -198264.261070 kJ/mol
# GULP energy per Si atom -12391.516317 kJ/mol
# Density = 1.991879 g / cm^3
# Si number density = 19.964231 Si / 1000 Ang^3
#
#
#
# Elastic Constant Matrix: (Units=GPa)
#
#
# Indices 1 2 3 4 5 6 
#
# 1 99.1907 19.6318 35.8099 1.2054 -6.8180 4.5213
# 2 19.6318 77.0664 36.8266 -4.9131 -0.9682 19.0068
# 3 35.8099 36.8266 81.2373 -0.0886 -5.9606 7.5152
# 4 1.2054 -4.9131 -0.0886 35.5181 4.5559 -1.9992
# 5 -6.8180 -0.9682 -5.9606 4.5559 30.9955 8.2535
# 6 4.5213 19.0068 7.5152 -1.9992 8.2535 25.5252
#
#
#
# Elastic Compliance Matrix: (Units=1/GPa)
#
#
# Indices 1 2 3 4 5 6 
#
# 1 0.012146 -0.000533 -0.004857 -0.000832 0.002131 -0.001078
# 2 -0.000533 0.020103 -0.007472 0.001728 0.002362 -0.013303
# 3 -0.004857 -0.007472 0.017970 -0.001091 0.002227 0.000328
# 4 -0.000832 0.001728 -0.001091 0.029310 -0.005515 0.003261
# 5 0.002131 0.002362 0.002227 -0.005515 0.038191 -0.015573
# 6 -0.001078 -0.013303 0.000328 0.003261 -0.015573 0.054468
#
#
# Mechanical properties :
#
#
# Convention : Reuss Voigt Hill
#
# Bulk Modulus (GPa) = 40.82673 49.11455 44.97064
# Shear Modulus (GPa) = 24.26251 29.42282 26.84266
#
# Velocity S-wave (km/s) = 3.48990 3.84314 3.67077
# Velocity P-wave (km/s) = 6.06082 6.65941 6.36715
#
# Compressibility (1/GPa) = 0.02449376
#
# Stress axis : x y z
#
# Youngs Moduli (GPa) = 82.32871 49.74334 55.64879
#
# Poissons Ratio (x) = 0.02654 0.27030
# Poissons Ratio (y) = 0.04392 0.41582
# Poissons Ratio (z) = 0.39989 0.37169
#
# Static dielectric constant tensor:
#      x y z
#    x 4.649900 1.427390 0.668710 
#    y 1.427390 4.668210 0.831770 
#    z 0.668710 0.831770 4.539210 
# 
# 
# High freq. dielectric constant tensor:
#      x y z
#    x 1.775210 0.040630 0.003320 
#    y 0.040630 1.757680 0.010150 
#    z 0.003320 0.010150 1.786650 
# 
# From -- ./inp_files/182720.got.cif
#   From: 2010.06.25/outbox.cif.g09.slc.cpg/sg2_92_cif.got.tgz:182720.got - 2010.06.27 13:26:56.
