data_PCOD8004145
_publ_section_title
;
Structure prediction by ZEFSAII (Michael W. Deem and Ramdas Pophale) SiO2 
 PCOD8004145
Probable space group: P -1
;
_chemical_formula_sum "Si O2"
_cell_formula_units_Z 16
_cell_length_a 30.526534
_cell_length_b 6.443421
_cell_length_c 8.529943
_cell_angle_alpha 103.768806
_cell_angle_beta 142.225925
_cell_angle_gamma 56.632635
_cell_volume 792.316228
_symmetry_space_group_name_H-M "P -1"
_symmetry_group_IT_number 2
_symmetry_cell_setting 'triclinic'
loop_
_space_group_symop_operation_xyz
x,y,z
-x,-y,-z
loop_
_atom_site_type_symbol
_atom_site_label
_atom_site_fract_x
_atom_site_fract_y
_atom_site_fract_z
Si Si1 0.803658 0.488608 0.807154
Si Si2 0.449727 0.305435 0.455608
Si Si3 0.383748 0.748861 0.102429
Si Si4 0.889873 0.548412 0.796235
Si Si5 0.214421 0.881123 0.508820
Si Si6 0.990897 0.310867 0.333119
Si Si7 0.851726 0.256303 0.414188
Si Si8 0.304621 0.287899 0.161024
O O1 0.803527 0.639158 0.678428
O O2 0.784525 0.281227 0.663494
O O3 0.726393 0.701073 0.746976
O O4 0.903313 0.330115 0.140300
O O5 0.404844 0.492974 0.209117
O O6 0.524848 0.334032 0.741425
O O7 0.371188 0.374102 0.365601
O O8 0.500000 0.000000 0.500000
O O9 0.350835 0.989508 0.174880
O O10 0.308983 0.837155 0.775265
O O11 0.909069 0.328940 0.684112
O O12 0.868620 0.807844 0.697807
O O13 0.978072 0.408437 0.131808
O O14 0.201700 0.796160 0.625879
O O15 0.000000 0.500000 0.500000
O O16 0.080473 0.006269 0.546910
O O17 0.782114 0.501532 0.149973
#
# Coordination Sequence:
#
# PCOD8004145 Si02
#       8
#     2   2   2   2   2   2   2   2
#     4   9  25  39  55  88 126 160 199 250 301 352
#     4   9  20  36  63  95 123 147 196 255 292 359
#     4  10  20  37  64  94 117 156 202 239 307 358
#     4   9  22  42  56  84 120 162 204 250 297 357
#     4  11  21  39  64  87 118 166 198 251 299 363
#     4  10  24  41  57  86 126 160 207 257 301 347
#     4  11  22  38  61  88 118 161 212 246 297 354
#     4  11  21  38  62  91 123 157 200 250 299 359
#
# _framework density 20.193956
#
# number of rings (size 3 to 8) (size 9 to 14) (size 15 to 20)
#    0.750    1.250    2.500    0.375    3.500    2.000 
#    0.000    0.625    0.000    7.500    0.000    0.000 
#    0.000    0.000    0.000    0.000    0.000    0.000 
#
# Total GULP energy -198288.485099 kJ/mol
# GULP energy per Si atom -12393.030319 kJ/mol
# Density = 2.014799 g / cm^3
# Si number density = 20.193956 Si / 1000 Ang^3
#
#
#
# Elastic Constant Matrix: (Units=GPa)
#
#
# Indices 1 2 3 4 5 6 
#
# 1 71.5465 28.1756 17.5235 9.1818 11.2905 -7.9945
# 2 28.1756 112.8550 42.4511 6.3462 -7.3566 -4.0091
# 3 17.5235 42.4511 68.9332 11.8667 16.8973 -4.5636
# 4 9.1818 6.3462 11.8667 43.3516 8.2626 -5.6314
# 5 11.2905 -7.3566 16.8973 8.2626 26.3233 -2.4425
# 6 -7.9945 -4.0091 -4.5636 -5.6314 -2.4425 28.9340
#
#
#
# Elastic Compliance Matrix: (Units=1/GPa)
#
#
# Indices 1 2 3 4 5 6 
#
# 1 0.017764 -0.005475 0.001608 -0.001150 -0.009507 0.003377
# 2 -0.005475 0.015560 -0.011595 -0.000693 0.014347 -0.000109
# 3 0.001608 -0.011595 0.026615 -0.001933 -0.020320 0.000944
# 4 -0.001150 -0.000693 -0.001933 0.025599 -0.006147 0.003745
# 5 -0.009507 0.014347 -0.020320 -0.006147 0.061061 0.000114
# 6 0.003377 -0.000109 0.000944 0.003745 0.000114 0.036367
#
#
# Mechanical properties :
#
#
# Convention : Reuss Voigt Hill
#
# Bulk Modulus (GPa) = 34.46550 47.73725 41.10138
# Shear Modulus (GPa) = 22.36510 30.73408 26.54959
#
# Velocity S-wave (km/s) = 3.33154 3.90544 3.62985
# Velocity P-wave (km/s) = 5.64829 6.63531 6.16160
#
# Compressibility (1/GPa) = 0.02901452
#
# Stress axis : x y z
#
# Youngs Moduli (GPa) = 56.29205 64.26826 37.57273
#
# Poissons Ratio (x) = 0.35187 -0.06041
# Poissons Ratio (y) = 0.30820 0.43566
# Poissons Ratio (z) = -0.09051 0.74520
#
# Static dielectric constant tensor:
#      x y z
#    x 3.634780 0.178760 0.287670 
#    y 0.178760 3.595340 0.062440 
#    z 0.287670 0.062440 3.698370 
# 
# 
# High freq. dielectric constant tensor:
#      x y z
#    x 1.770770 0.015740 0.015380 
#    y 0.015740 1.788270 -0.000510 
#    z 0.015380 -0.000510 1.784800 
# 
# From -- ./inp_files/56752.got.cif
#   From: 2010.06.25/outbox.cif.g09.slc.cpg/sg2_29_cif.got.tgz:56752.got - 2010.06.27 13:26:56.
