data_PCOD8004116
_publ_section_title
;
Structure prediction by ZEFSAII (Michael W. Deem and Ramdas Pophale) SiO2 
 PCOD8004116
Probable space group: P -1
;
_chemical_formula_sum "Si O2"
_cell_formula_units_Z 16
_cell_length_a 6.835138
_cell_length_b 9.749149
_cell_length_c 17.260054
_cell_angle_alpha 104.135343
_cell_angle_beta 100.861491
_cell_angle_gamma 48.719207
_cell_volume 837.564749
_symmetry_space_group_name_H-M "P -1"
_symmetry_group_IT_number 2
_symmetry_cell_setting 'triclinic'
loop_
_space_group_symop_operation_xyz
x,y,z
-x,-y,-z
loop_
_atom_site_type_symbol
_atom_site_label
_atom_site_fract_x
_atom_site_fract_y
_atom_site_fract_z
Si Si1 0.509463 0.209704 0.089283
Si Si2 0.258216 0.629956 0.944145
Si Si3 0.486380 0.361779 0.433707
Si Si4 0.987794 0.656934 0.344712
Si Si5 0.997029 0.981814 0.405904
Si Si6 0.460930 0.174621 0.548945
Si Si7 0.818490 0.802203 0.055038
Si Si8 0.990171 0.524805 0.162358
O O1 0.692228 0.261869 0.095172
O O2 0.290885 0.339398 0.155617
O O3 0.677278 0.003712 0.107838
O O4 0.382004 0.219389 0.999458
O O5 0.209253 0.512210 0.873111
O O6 0.500000 0.500000 0.000000
O O7 0.007085 0.773536 0.997968
O O8 0.500000 0.500000 0.500000
O O9 0.409235 0.282605 0.481027
O O10 0.275071 0.476117 0.366218
O O11 0.758974 0.191149 0.387831
O O12 0.788656 0.689199 0.397536
O O13 0.918304 0.619174 0.252900
O O14 0.954605 0.840122 0.358151
O O15 0.286698 0.896418 0.389938
O O16 0.000000 0.000000 0.500000
O O17 0.500000 0.000000 0.500000
O O18 0.971358 0.655082 0.114148
#
# Coordination Sequence:
#
# PCOD8004116 Si02
#       8
#     2   2   2   2   2   2   2   2
#     4  10  20  38  64  88 120 158 210 240 289 366
#     4  11  18  38  66  88 117 161 208 245 286 362
#     4  11  20  40  68  88 114 158 212 254 300 370
#     4  12  24  39  62  93 126 162 200 263 318 360
#     4  10  20  39  62  88 117 151 205 254 302 365
#     4  11  20  40  67  89 117 159 212 254 300 371
#     4  10  20  37  64  90 114 167 200 243 296 358
#     4  11  24  38  58  89 130 156 197 254 314 351
#
# _framework density 19.102999000000001
#
# number of rings (size 3 to 8) (size 9 to 14) (size 15 to 20)
#    0.000    1.250    7.500    1.500    0.000    2.000 
#    0.000    0.000    2.750    0.000    0.000    0.000 
#    0.000    0.000    0.000    0.000    0.000    0.000 
#
# Total GULP energy -198375.375353 kJ/mol
# GULP energy per Si atom -12398.460960 kJ/mol
# Density = 1.905952 g / cm^3
# Si number density = 19.102999 Si / 1000 Ang^3
#
#
#
# Elastic Constant Matrix: (Units=GPa)
#
#
# Indices 1 2 3 4 5 6 
#
# 1 97.2180 32.3698 21.5105 6.5191 15.6164 5.9617
# 2 32.3698 118.5867 26.6304 14.8895 13.1025 -0.9673
# 3 21.5105 26.6304 76.7504 18.1943 14.0428 8.2252
# 4 6.5191 14.8895 18.1943 19.7367 1.1143 3.6683
# 5 15.6164 13.1025 14.0428 1.1143 19.5233 -0.8639
# 6 5.9617 -0.9673 8.2252 3.6683 -0.8639 38.6412
#
#
#
# Elastic Compliance Matrix: (Units=1/GPa)
#
#
# Indices 1 2 3 4 5 6 
#
# 1 0.012710 -0.002293 -0.000895 -0.000832 -0.008022 -0.001928
# 2 -0.002293 0.010530 -0.000871 -0.006391 -0.004182 0.001316
# 3 -0.000895 -0.000871 0.019987 -0.016246 -0.012276 -0.002870
# 4 -0.000832 -0.006391 -0.016246 0.070592 0.012478 -0.002996
# 5 -0.008022 -0.004182 -0.012276 0.012478 0.068743 0.004098
# 6 -0.001928 0.001316 -0.002870 -0.002996 0.004098 0.027197
#
#
# Mechanical properties :
#
#
# Convention : Reuss Voigt Hill
#
# Bulk Modulus (GPa) = 28.48397 50.39740 39.44069
# Shear Modulus (GPa) = 21.77884 29.71655 25.74769
#
# Velocity S-wave (km/s) = 3.38016 3.94838 3.67527
# Velocity P-wave (km/s) = 5.49337 6.87208 6.22104
#
# Compressibility (1/GPa) = 0.03510746
#
# Stress axis : x y z
#
# Youngs Moduli (GPa) = 78.67580 94.96961 50.03191
#
# Poissons Ratio (x) = 0.21781 0.04478
# Poissons Ratio (y) = 0.18044 0.04360
# Poissons Ratio (z) = 0.07041 0.08276
#
# Static dielectric constant tensor:
#      x y z
#    x 3.830380 -0.333850 0.158020 
#    y -0.333850 3.647030 0.150460 
#    z 0.158020 0.150460 3.141510 
# 
# 
# High freq. dielectric constant tensor:
#      x y z
#    x 1.752220 -0.003320 0.008160 
#    y -0.003320 1.760250 0.012420 
#    z 0.008160 0.012420 1.704590 
# 
# From -- ./inp_files/547305.got.cif
#   From: 2010.06.25/outbox.cif.g09.slc.cpg/sg2_274_cif.got.tgz:547305.got - 2010.06.27 13:26:56.
