data_PCOD8004839
_publ_section_title
;
Structure prediction by ZEFSAII (Michael W. Deem and Ramdas Pophale) SiO2 
 PCOD8004839
Probable space group: P -1
;
_chemical_formula_sum "Si O2"
_cell_formula_units_Z 14
_cell_length_a 13.137455
_cell_length_b 11.789710
_cell_length_c 10.361265
_cell_angle_alpha 119.492492
_cell_angle_beta 34.510619
_cell_angle_gamma 96.499856
_cell_volume 637.199760
_symmetry_space_group_name_H-M "P -1"
_symmetry_group_IT_number 2
_symmetry_cell_setting 'triclinic'
loop_
_space_group_symop_operation_xyz
x,y,z
-x,-y,-z
loop_
_atom_site_type_symbol
_atom_site_label
_atom_site_fract_x
_atom_site_fract_y
_atom_site_fract_z
Si Si1 0.891217 0.993558 0.930408
Si Si2 0.664240 0.877040 0.650150
Si Si3 0.904341 0.159612 0.769310
Si Si4 0.446786 0.068003 0.737393
Si Si5 0.655956 0.223167 0.548661
Si Si6 0.521275 0.509309 0.301489
Si Si7 0.743315 0.568533 0.314244
O O1 0.154047 0.845425 0.578966
O O2 0.834125 0.129783 0.963027
O O3 0.781672 0.900048 0.956772
O O4 0.781855 0.093237 0.230281
O O5 0.619776 0.741559 0.610487
O O6 0.917294 0.800968 0.381575
O O7 0.635031 0.949056 0.578226
O O8 0.500000 0.000000 0.000000
O O9 0.694821 0.315080 0.002463
O O10 0.000000 0.000000 0.500000
O O11 0.449141 0.225191 0.820015
O O12 0.500000 0.000000 0.500000
O O13 0.557973 0.404894 0.707636
O O14 0.632016 0.586944 0.301343
O O15 0.299765 0.547467 0.626362
O O16 0.000000 0.500000 0.000000
#
# Coordination Sequence:
#
# PCOD8004839 Si02
#       7
#     2   2   2   2   2   2   2
#     4  10  20  38  62  92 125 173 216 265 325 400
#     4  12  24  42  69 101 136 178 231 284 339 406
#     4  12  24  43  67  94 135 179 227 280 344 404
#     4  10  20  38  64  94 130 174 224 270 328 407
#     4  10  21  36  62  94 130 164 215 271 328 394
#     4  11  23  40  64 101 135 170 227 286 333 396
#     4  11  22  39  64  97 136 175 222 278 334 396
#
# _framework density 21.971132999999998
#
# number of rings (size 3 to 8) (size 9 to 14) (size 15 to 20)
#    0.000    1.143    2.857    6.000    0.000    1.143 
#    0.000    0.714    0.000    1.714    0.000    0.000 
#    0.000    0.000    0.000    0.000    0.000    0.000 
#
# Total GULP energy -173492.185592 kJ/mol
# GULP energy per Si atom -12392.298971 kJ/mol
# Density = 2.192113 g / cm^3
# Si number density = 21.971133 Si / 1000 Ang^3
#
#
#
# Elastic Constant Matrix: (Units=GPa)
#
#
# Indices 1 2 3 4 5 6 
#
# 1 63.5575 39.2751 27.6470 8.5658 -12.4048 4.5217
# 2 39.2751 156.7958 49.2213 1.0270 -29.3643 1.8371
# 3 27.6470 49.2213 81.9253 -0.4327 -21.6482 7.7504
# 4 8.5658 1.0270 -0.4327 40.2194 4.1621 -10.1687
# 5 -12.4048 -29.3643 -21.6482 4.1621 35.9038 1.7545
# 6 4.5217 1.8371 7.7504 -10.1687 1.7545 43.1555
#
#
#
# Elastic Compliance Matrix: (Units=1/GPa)
#
#
# Indices 1 2 3 4 5 6 
#
# 1 0.021093 -0.003405 -0.004107 -0.005426 0.002789 -0.002719
# 2 -0.003405 0.009020 -0.003186 0.000122 0.004246 0.000401
# 3 -0.004107 -0.003186 0.017564 -0.000294 0.006743 -0.002932
# 4 -0.005426 0.000122 -0.000294 0.028507 -0.005626 0.007562
# 5 0.002789 0.004246 0.006743 -0.005626 0.037228 -0.004523
# 6 -0.002719 0.000401 -0.002932 0.007562 -0.004523 0.025932
#
#
# Mechanical properties :
#
#
# Convention : Reuss Voigt Hill
#
# Bulk Modulus (GPa) = 38.04840 59.39615 48.72227
# Shear Modulus (GPa) = 29.49853 36.26476 32.88165
#
# Velocity S-wave (km/s) = 3.66813 4.06712 3.87277
# Velocity P-wave (km/s) = 5.94098 7.01054 6.49781
#
# Compressibility (1/GPa) = 0.02628231
#
# Stress axis : x y z
#
# Youngs Moduli (GPa) = 47.40858 110.86046 56.93487
#
# Poissons Ratio (x) = 0.37743 0.23385
# Poissons Ratio (y) = 0.16140 0.18138
# Poissons Ratio (z) = 0.19472 0.35318
#
# Static dielectric constant tensor:
#      x y z
#    x 4.015920 0.344950 -0.370810 
#    y 0.344950 4.130570 -0.193070 
#    z -0.370810 -0.193070 3.774770 
# 
# 
# High freq. dielectric constant tensor:
#      x y z
#    x 1.857750 0.009800 -0.025890 
#    y 0.009800 1.879100 -0.017580 
#    z -0.025890 -0.017580 1.837480 
# 
# From -- ./inp_files/256552.got.cif
#   From: 2010.06.25/outbox.cif.g09.slc.cpg/sg2_129_cif.got.tgz:256552.got - 2010.06.27 13:26:56.
