data_PCOD8004786
_publ_section_title
;
Structure prediction by ZEFSAII (Michael W. Deem and Ramdas Pophale) SiO2 
 PCOD8004786
Probable space group: P -1
;
_chemical_formula_sum "Si O2"
_cell_formula_units_Z 16
_cell_length_a 8.059615
_cell_length_b 17.423249
_cell_length_c 7.710233
_cell_angle_alpha 55.658287
_cell_angle_beta 66.587470
_cell_angle_gamma 100.257897
_cell_volume 695.235771
_symmetry_space_group_name_H-M "P -1"
_symmetry_group_IT_number 2
_symmetry_cell_setting 'triclinic'
loop_
_space_group_symop_operation_xyz
x,y,z
-x,-y,-z
loop_
_atom_site_type_symbol
_atom_site_label
_atom_site_fract_x
_atom_site_fract_y
_atom_site_fract_z
Si Si1 0.361174 0.760561 0.008496
Si Si2 0.308019 0.221167 0.673626
Si Si3 0.334819 0.994449 0.299375
Si Si4 0.918212 0.157084 0.093028
Si Si5 0.237417 0.640682 0.555118
Si Si6 0.470150 0.361592 0.115690
Si Si7 0.786278 0.543050 0.995761
Si Si8 0.262333 0.005469 0.931744
O O1 0.231888 0.663866 0.325164
O O2 0.188419 0.770250 0.952610
O O3 0.486889 0.724717 0.880084
O O4 0.531506 0.876776 0.874892
O O5 0.545708 0.258103 0.587140
O O6 0.313268 0.300655 0.421382
O O7 0.209795 0.098448 0.794361
O O8 0.176968 0.227608 0.886503
O O9 0.163999 0.927802 0.606375
O O10 0.490371 0.948731 0.274147
O O11 0.210578 0.973829 0.196810
O O12 0.875682 0.099761 0.995461
O O13 0.034808 0.632904 0.743407
O O14 0.233210 0.528016 0.735619
O O15 0.344987 0.397561 0.992578
O O16 0.689967 0.466194 0.962220
#
# Coordination Sequence:
#
# PCOD8004786 Si02
#       8
#     2   2   2   2   2   2   2   2
#     4  11  21  39  61  92 124 160 202 262 306 369
#     4  11  21  39  60  90 125 166 210 251 299 373
#     4  10  21  39  61  91 129 165 213 255 306 359
#     4  11  23  38  61  94 130 170 211 252 301 364
#     4  10  21  40  63  86 125 153 205 261 310 375
#     4  10  21  39  66  90 120 156 206 257 317 379
#     4   9  21  42  64  90 113 160 202 256 326 382
#     4  10  20  38  62  88 124 177 204 259 304 355
#
# _framework density 23.013777000000001
#
# number of rings (size 3 to 8) (size 9 to 14) (size 15 to 20)
#    0.000    1.750    1.250    4.125    0.000    1.500 
#    2.250    3.750    0.000    0.000    0.000    0.000 
#    0.000    0.000    0.000    0.000    0.000    0.000 
#
# Total GULP energy -198366.386988 kJ/mol
# GULP energy per Si atom -12397.899187 kJ/mol
# Density = 2.296140 g / cm^3
# Si number density = 23.013777 Si / 1000 Ang^3
#
#
#
# Elastic Constant Matrix: (Units=GPa)
#
#
# Indices 1 2 3 4 5 6 
#
# 1 91.5375 34.8250 47.7787 -1.7431 1.5332 -23.8588
# 2 34.8250 90.6090 35.6129 9.1476 1.4190 -24.5049
# 3 47.7787 35.6129 154.4128 15.8915 2.0607 -13.5995
# 4 -1.7431 9.1476 15.8915 22.9483 -4.9604 5.5941
# 5 1.5332 1.4190 2.0607 -4.9604 31.5917 0.9178
# 6 -23.8588 -24.5049 -13.5995 5.5941 0.9178 35.4974
#
#
#
# Elastic Compliance Matrix: (Units=1/GPa)
#
#
# Indices 1 2 3 4 5 6 
#
# 1 0.015985 -0.003207 -0.004027 0.003728 0.000030 0.006399
# 2 -0.003207 0.016367 -0.000905 -0.009138 -0.002254 0.010294
# 3 -0.004027 -0.000905 0.008718 -0.006545 -0.001391 0.001076
# 4 0.003728 -0.009138 -0.006545 0.058080 0.010233 -0.015727
# 5 0.000030 -0.002254 -0.001391 0.010233 0.033583 -0.004550
# 6 0.006399 0.010294 0.001076 -0.015727 -0.004550 0.042587
#
#
# Mechanical properties :
#
#
# Convention : Reuss Voigt Hill
#
# Bulk Modulus (GPa) = 40.33773 63.66585 52.00179
# Shear Modulus (GPa) = 25.01734 32.56367 28.79050
#
# Velocity S-wave (km/s) = 3.30064 3.76568 3.54080
# Velocity P-wave (km/s) = 5.66492 6.82872 6.27386
#
# Compressibility (1/GPa) = 0.02479069
#
# Stress axis : x y z
#
# Youngs Moduli (GPa) = 62.55941 61.09950 114.70734
#
# Poissons Ratio (x) = 0.19596 0.46191
# Poissons Ratio (y) = 0.20064 0.10384
# Poissons Ratio (z) = 0.25192 0.05531
#
# Static dielectric constant tensor:
#      x y z
#    x 4.363310 -0.185010 0.018750 
#    y -0.185010 3.836730 0.032180 
#    z 0.018750 0.032180 4.227190 
# 
# 
# High freq. dielectric constant tensor:
#      x y z
#    x 1.916560 -0.018940 0.003810 
#    y -0.018940 1.879460 -0.001460 
#    z 0.003810 -0.001460 1.914730 
# 
# From -- ./inp_files/214333.got.cif
#   From: 2010.06.25/outbox.cif.g09.slc.cpg/sg2_108_cif.got.tgz:214333.got - 2010.06.27 13:26:56.
