data_PCOD8004107
_publ_section_title
;
Structure prediction by ZEFSAII (Michael W. Deem and Ramdas Pophale) SiO2 
 PCOD8004107
Probable space group: P -1
;
_chemical_formula_sum "Si O2"
_cell_formula_units_Z 16
_cell_length_a 13.549919
_cell_length_b 13.675892
_cell_length_c 13.821123
_cell_angle_alpha 146.900845
_cell_angle_beta 33.040396
_cell_angle_gamma 145.118920
_cell_volume 700.032075
_symmetry_space_group_name_H-M "P -1"
_symmetry_group_IT_number 2
_symmetry_cell_setting 'triclinic'
loop_
_space_group_symop_operation_xyz
x,y,z
-x,-y,-z
loop_
_atom_site_type_symbol
_atom_site_label
_atom_site_fract_x
_atom_site_fract_y
_atom_site_fract_z
Si Si1 0.735474 0.988147 0.030780
Si Si2 0.142312 0.216531 0.087397
Si Si3 0.818421 0.334976 0.390828
Si Si4 0.592818 0.678379 0.227557
Si Si5 0.178472 0.443053 0.786241
Si Si6 0.521337 0.330016 0.126412
Si Si7 0.894992 0.915433 0.318317
Si Si8 0.124758 0.338720 0.525874
O O1 0.763095 0.799195 0.900777
O O2 0.524912 0.885723 0.060901
O O3 0.919341 0.100700 0.902982
O O4 0.718052 0.134856 0.246591
O O5 0.998654 0.334747 0.310385
O O6 0.318577 0.304736 0.938199
O O7 0.000000 0.000000 0.000000
O O8 0.638784 0.354228 0.615748
O O9 0.924578 0.508889 0.372332
O O10 0.629016 0.502293 0.104530
O O11 0.716601 0.868488 0.348702
O O12 0.361698 0.626103 0.832534
O O13 0.198310 0.432016 0.646852
O O14 0.162972 0.239532 0.675526
O O15 0.000000 0.500000 0.000000
O O16 0.302311 0.307966 0.306066
O O17 0.940388 0.128542 0.504231
#
# Coordination Sequence:
#
# PCOD8004107 Si02
#       8
#     2   2   2   2   2   2   2   2
#     4  10  20  40  61  84 122 161 195 253 300 344
#     4  10  20  37  64  85 124 160 199 246 303 343
#     4  10  21  38  62  90 121 158 206 241 295 362
#     4  10  20  38  60  87 124 160 194 250 295 347
#     4  11  22  36  63  89 116 158 201 243 305 363
#     4   9  22  39  59  85 122 153 197 250 298 353
#     4  10  20  39  59  86 126 155 197 252 297 351
#     4  10  21  39  60  86 119 162 195 247 305 353
#
# _framework density 22.856096999999998
#
# number of rings (size 3 to 8) (size 9 to 14) (size 15 to 20)
#    0.000    2.000    2.500    1.500    1.750    3.500 
#    0.000   12.500    0.000    0.000    0.000    0.000 
#    0.000    0.000    0.000    0.000    0.000    0.000 
#
# Total GULP energy -198271.531773 kJ/mol
# GULP energy per Si atom -12391.970736 kJ/mol
# Density = 2.280408 g / cm^3
# Si number density = 22.856097 Si / 1000 Ang^3
#
#
#
# Elastic Constant Matrix: (Units=GPa)
#
#
# Indices 1 2 3 4 5 6 
#
# 1 45.8661 15.9935 -1.3402 -5.7974 -11.5796 4.8334
# 2 15.9935 76.3353 6.6670 -3.4717 -6.0847 6.2418
# 3 -1.3402 6.6670 53.9919 -9.7304 -7.2446 -2.8980
# 4 -5.7974 -3.4717 -9.7304 33.3180 -4.9576 7.6137
# 5 -11.5796 -6.0847 -7.2446 -4.9576 29.1610 0.8660
# 6 4.8334 6.2418 -2.8980 7.6137 0.8660 35.8581
#
#
#
# Elastic Compliance Matrix: (Units=1/GPa)
#
#
# Indices 1 2 3 4 5 6 
#
# 1 0.028423 -0.004492 0.004339 0.008805 0.013069 -0.004884
# 2 -0.004492 0.014501 -0.001723 0.000900 0.001034 -0.002274
# 3 0.004339 -0.001723 0.021362 0.008124 0.008066 -0.000478
# 4 0.008805 0.000900 0.008124 0.037926 0.012419 -0.009040
# 5 0.013069 0.001034 0.008066 0.012419 0.043961 -0.004988
# 6 -0.004884 -0.002274 -0.000478 -0.009040 -0.004988 0.030943
#
#
# Mechanical properties :
#
#
# Convention : Reuss Voigt Hill
#
# Bulk Modulus (GPa) = 16.52012 24.31489 20.41750
# Shear Modulus (GPa) = 24.86968 29.99228 27.43098
#
# Velocity S-wave (km/s) = 3.30221 3.62639 3.46809
# Velocity P-wave (km/s) = 4.66723 5.30996 4.99893
#
# Compressibility (1/GPa) = 0.06053224
#
# Stress axis : x y z
#
# Youngs Moduli (GPa) = 35.18278 68.96003 46.81119
#
# Poissons Ratio (x) = 0.30980 -0.20310
# Poissons Ratio (y) = 0.15806 0.08067
# Poissons Ratio (z) = -0.15265 0.11884
#
# Static dielectric constant tensor:
#      x y z
#    x 4.612090 -0.029900 -0.210570 
#    y -0.029900 4.459040 0.203410 
#    z -0.210570 0.203410 3.877810 
# 
# 
# High freq. dielectric constant tensor:
#      x y z
#    x 1.903700 0.011160 0.014510 
#    y 0.011160 1.912110 0.007500 
#    z 0.014510 0.007500 1.883900 
# 
# From -- ./inp_files/221667.got.cif
#   From: 2010.06.25/outbox.cif.g09.slc.cpg/sg2_111_cif.got.tgz:221667.got - 2010.06.27 13:26:56.
