data_PCOD8004154
_publ_section_title
;
Structure prediction by ZEFSAII (Michael W. Deem and Ramdas Pophale) SiO2 
 PCOD8004154
Probable space group: P -1
;
_chemical_formula_sum "Si O2"
_cell_formula_units_Z 16
_cell_length_a 9.240255
_cell_length_b 11.652214
_cell_length_c 11.707488
_cell_angle_alpha 118.788101
_cell_angle_beta 50.369352
_cell_angle_gamma 131.131412
_cell_volume 727.043329
_symmetry_space_group_name_H-M "P -1"
_symmetry_group_IT_number 2
_symmetry_cell_setting 'triclinic'
loop_
_space_group_symop_operation_xyz
x,y,z
-x,-y,-z
loop_
_atom_site_type_symbol
_atom_site_label
_atom_site_fract_x
_atom_site_fract_y
_atom_site_fract_z
Si Si1 0.681721 0.081478 0.851055
Si Si2 0.396668 0.381578 0.847594
Si Si3 0.373340 0.128513 0.891018
Si Si4 0.711482 0.716500 0.803308
Si Si5 0.943568 0.339199 0.001669
Si Si6 0.523585 0.771487 0.713088
Si Si7 0.548512 0.803227 0.456396
Si Si8 0.199142 0.902210 0.665968
O O1 0.598016 0.135009 0.810078
O O2 0.715786 0.948756 0.722383
O O3 0.898389 0.226524 0.862937
O O4 0.500000 0.000000 0.000000
O O5 0.433576 0.284439 0.875337
O O6 0.572307 0.559498 0.868935
O O7 0.450699 0.332643 0.676690
O O8 0.150554 0.352305 0.969262
O O9 0.220198 0.978266 0.818254
O O10 0.272031 0.136274 0.068457
O O11 0.585756 0.679187 0.726238
O O12 0.960009 0.759039 0.689423
O O13 0.727739 0.269373 0.157822
O O14 0.000000 0.500000 0.000000
O O15 0.551710 0.746738 0.555404
O O16 0.340672 0.821743 0.546591
O O17 0.749656 0.969275 0.394518
#
# Coordination Sequence:
#
# PCOD8004154 Si02
#       8
#     2   2   2   2   2   2   2   2
#     4  10  20  37  64  94 127 165 218 268 323 375
#     4  11  26  43  66  98 141 172 220 262 335 402
#     4  11  21  41  67 100 131 167 219 281 321 383
#     4  12  24  41  65 103 129 174 221 276 324 392
#     4  11  22  44  65 100 135 173 213 277 329 390
#     4  11  23  41  70  95 133 167 227 269 327 390
#     4  10  24  47  62  95 132 181 215 271 327 398
#     4  10  24  42  68  92 134 172 225 269 330 383
#
# _framework density 22.00694
#
# number of rings (size 3 to 8) (size 9 to 14) (size 15 to 20)
#    0.000    1.250    5.000    0.750    5.250    1.500 
#    0.000    0.000    0.000    0.000    0.000    0.000 
#    0.000    0.000    0.000    0.000    0.000    0.000 
#
# Total GULP energy -198246.275848 kJ/mol
# GULP energy per Si atom -12390.392241 kJ/mol
# Density = 2.195685 g / cm^3
# Si number density = 22.006940 Si / 1000 Ang^3
#
#
#
# Elastic Constant Matrix: (Units=GPa)
#
#
# Indices 1 2 3 4 5 6 
#
# 1 87.9078 32.1717 14.9985 -21.3162 0.0589 1.1636
# 2 32.1717 92.2403 8.5788 -2.5623 -12.0616 14.2070
# 3 14.9985 8.5788 72.8835 4.3583 13.8422 12.9983
# 4 -21.3162 -2.5623 4.3583 24.7685 -4.4253 -4.3549
# 5 0.0589 -12.0616 13.8422 -4.4253 29.3304 -6.8484
# 6 1.1636 14.2070 12.9983 -4.3549 -6.8484 39.2223
#
#
#
# Elastic Compliance Matrix: (Units=1/GPa)
#
#
# Indices 1 2 3 4 5 6 
#
# 1 0.019239 -0.005941 -0.006591 0.019210 0.005113 0.006791
# 2 -0.005941 0.014092 -0.000237 -0.003632 0.004321 -0.004499
# 3 -0.006591 -0.000237 0.020520 -0.013715 -0.014298 -0.010538
# 4 0.019210 -0.003632 -0.013715 0.064999 0.018419 0.015724
# 5 0.005113 0.004321 -0.014298 0.018419 0.048550 0.013544
# 6 0.006791 -0.004499 -0.010538 0.015724 0.013544 0.034527
#
#
# Mechanical properties :
#
#
# Convention : Reuss Voigt Hill
#
# Bulk Modulus (GPa) = 35.31916 40.50328 37.91122
# Shear Modulus (GPa) = 21.10562 31.81640 26.46101
#
# Velocity S-wave (km/s) = 3.10020 3.80642 3.47132
# Velocity P-wave (km/s) = 5.37577 6.14517 5.77331
#
# Compressibility (1/GPa) = 0.02831324
#
# Stress axis : x y z
#
# Youngs Moduli (GPa) = 51.97747 70.96016 48.73331
#
# Poissons Ratio (x) = 0.42158 0.32119
# Poissons Ratio (y) = 0.30880 0.01156
# Poissons Ratio (z) = 0.34257 0.01684
#
# Static dielectric constant tensor:
#      x y z
#    x 4.120810 0.101800 0.230370 
#    y 0.101800 4.107400 0.287710 
#    z 0.230370 0.287710 4.128190 
# 
# 
# High freq. dielectric constant tensor:
#      x y z
#    x 1.872790 -0.012100 0.009210 
#    y -0.012100 1.861190 0.009850 
#    z 0.009210 0.009850 1.848790 
# 
# From -- ./inp_files/260384.got.cif
#   From: 2010.06.25/outbox.cif.g09.slc.cpg/sg2_131_cif.got.tgz:260384.got - 2010.06.27 13:26:56.
