data_PCOD8004793
_publ_section_title
;
Structure prediction by ZEFSAII (Michael W. Deem and Ramdas Pophale) SiO2 
 PCOD8004793
Probable space group: P -1
;
_chemical_formula_sum "Si O2"
_cell_formula_units_Z 16
_cell_length_a 8.847454
_cell_length_b 18.047720
_cell_length_c 9.280167
_cell_angle_alpha 150.230249
_cell_angle_beta 92.949749
_cell_angle_gamma 90.305155
_cell_volume 731.029588
_symmetry_space_group_name_H-M "P -1"
_symmetry_group_IT_number 2
_symmetry_cell_setting 'triclinic'
loop_
_space_group_symop_operation_xyz
x,y,z
-x,-y,-z
loop_
_atom_site_type_symbol
_atom_site_label
_atom_site_fract_x
_atom_site_fract_y
_atom_site_fract_z
Si Si1 0.710464 0.301963 0.309767
Si Si2 0.291126 0.366946 0.149161
Si Si3 0.164130 0.169539 0.051578
Si Si4 0.991378 0.331706 0.890342
Si Si5 0.465063 0.036113 0.899060
Si Si6 0.004023 0.672739 0.447124
Si Si7 0.125262 0.865390 0.197189
Si Si8 0.600224 0.900426 0.426774
O O1 0.644556 0.460453 0.548044
O O2 0.818150 0.303429 0.458314
O O3 0.559309 0.191417 0.125213
O O4 0.813446 0.262775 0.114670
O O5 0.242319 0.316085 0.221606
O O6 0.417329 0.267013 0.920905
O O7 0.155024 0.347013 0.995702
O O8 0.095039 0.219926 0.283930
O O9 0.286745 0.050587 0.886875
O O10 0.036222 0.093532 0.806258
O O11 0.002943 0.274669 0.630306
O O12 0.883279 0.209125 0.769608
O O13 0.934192 0.498998 0.169685
O O14 0.532295 0.901645 0.586397
O O15 0.500000 0.000000 0.000000
O O16 0.227209 0.024297 0.459639
O O17 0.500000 0.000000 0.500000
#
# Coordination Sequence:
#
# PCOD8004793 Si02
#       8
#     2   2   2   2   2   2   2   2
#     4   9  20  41  63  88 117 160 200 243 296 359
#     4  10  20  38  64  87 120 152 206 247 291 349
#     4  10  20  38  62  89 116 159 203 246 292 357
#     4   9  18  33  61  90 122 151 194 256 294 348
#     4  11  25  43  60  85 127 161 197 243 304 360
#     4   9  18  35  58  92 121 151 198 244 304 350
#     4   9  20  39  64  89 115 156 204 245 297 348
#     4  11  23  43  59  89 124 158 197 249 297 354
#
# _framework density 21.886938000000001
#
# number of rings (size 3 to 8) (size 9 to 14) (size 15 to 20)
#    0.000    2.250    1.250    0.750    1.750    6.500 
#    4.500    2.500    0.000    0.000    0.000    0.000 
#    0.000    0.000    0.000    0.000    0.000    0.000 
#
# Total GULP energy -198357.057378 kJ/mol
# GULP energy per Si atom -12397.316086 kJ/mol
# Density = 2.183712 g / cm^3
# Si number density = 21.886938 Si / 1000 Ang^3
#
#
#
# Elastic Constant Matrix: (Units=GPa)
#
#
# Indices 1 2 3 4 5 6 
#
# 1 89.8049 28.4271 20.6375 1.9798 -17.6303 -3.9212
# 2 28.4271 118.2588 20.0419 -26.6797 -18.1632 -4.2885
# 3 20.6375 20.0419 71.6736 3.0011 -21.8767 6.4338
# 4 1.9798 -26.6797 3.0011 35.4945 -3.4369 -7.5189
# 5 -17.6303 -18.1632 -21.8767 -3.4369 27.0455 -4.4152
# 6 -3.9212 -4.2885 6.4338 -7.5189 -4.4152 22.1197
#
#
#
# Elastic Compliance Matrix: (Units=1/GPa)
#
#
# Indices 1 2 3 4 5 6 
#
# 1 0.013633 -0.002000 -0.001600 -0.000713 0.006747 0.003599
# 2 -0.002000 0.014364 -0.001765 0.014133 0.010312 0.009806
# 3 -0.001600 -0.001765 0.019149 -0.002670 0.012158 -0.004676
# 4 -0.000713 0.014133 -0.002670 0.045298 0.016219 0.022026
# 5 0.006747 0.010312 0.012158 0.016219 0.063093 0.017766
# 6 0.003599 0.009806 -0.004676 0.022026 0.017766 0.060141
#
#
# Mechanical properties :
#
#
# Convention : Reuss Voigt Hill
#
# Bulk Modulus (GPa) = 27.46122 46.43892 36.95007
# Shear Modulus (GPa) = 20.96008 30.97400 25.96704
#
# Velocity S-wave (km/s) = 3.09795 3.76597 3.44818
# Velocity P-wave (km/s) = 5.03691 6.33828 5.72470
#
# Compressibility (1/GPa) = 0.03641499
#
# Stress axis : x y z
#
# Youngs Moduli (GPa) = 73.34899 69.61931 52.22190
#
# Poissons Ratio (x) = 0.13925 0.08357
# Poissons Ratio (y) = 0.14671 0.09218
# Poissons Ratio (z) = 0.11738 0.12290
#
# Static dielectric constant tensor:
#      x y z
#    x 3.417570 -0.451350 0.377920 
#    y -0.451350 3.750220 -0.403180 
#    z 0.377920 -0.403180 5.345170 
# 
# 
# High freq. dielectric constant tensor:
#      x y z
#    x 1.851000 -0.009390 -0.007250 
#    y -0.009390 1.856480 -0.011810 
#    z -0.007250 -0.011810 1.868430 
# 
# From -- ./inp_files/217065.got.cif
#   From: 2010.06.25/outbox.cif.g09.slc.cpg/sg2_109_cif.got.tgz:217065.got - 2010.06.27 13:26:56.
