data_PCOD8004025
_publ_section_title
;
Structure prediction by ZEFSAII (Michael W. Deem and Ramdas Pophale) SiO2 
 PCOD8004025
Probable space group: P -1
;
_chemical_formula_sum "Si O2"
_cell_formula_units_Z 16
_cell_length_a 6.370057
_cell_length_b 12.950140
_cell_length_c 11.820089
_cell_angle_alpha 101.498874
_cell_angle_beta 76.016035
_cell_angle_gamma 128.957939
_cell_volume 734.301688
_symmetry_space_group_name_H-M "P -1"
_symmetry_group_IT_number 2
_symmetry_cell_setting 'triclinic'
loop_
_space_group_symop_operation_xyz
x,y,z
-x,-y,-z
loop_
_atom_site_type_symbol
_atom_site_label
_atom_site_fract_x
_atom_site_fract_y
_atom_site_fract_z
Si Si1 0.202655 0.209145 0.657478
Si Si2 0.038113 0.497036 0.823255
Si Si3 0.339197 0.787609 0.487013
Si Si4 0.395488 0.981646 0.342159
Si Si5 0.424359 0.894727 0.080754
Si Si6 0.885691 0.630340 0.021108
Si Si7 0.571274 0.731911 0.118685
Si Si8 0.781138 0.572260 0.412111
O O1 0.454549 0.249074 0.554740
O O2 0.239113 0.194354 0.781237
O O3 0.183636 0.328929 0.667539
O O4 0.919165 0.071139 0.623948
O O5 0.002534 0.610042 0.886641
O O6 0.738675 0.357740 0.815699
O O7 0.195282 0.528627 0.688716
O O8 0.196086 0.485807 0.903997
O O9 0.431731 0.891797 0.397446
O O10 0.026669 0.654772 0.489755
O O11 0.394542 0.863737 0.614797
O O12 0.479359 0.972250 0.205486
O O13 0.604296 0.839153 0.048831
O O14 0.110006 0.773019 0.078222
O O15 0.500000 0.000000 0.000000
O O16 0.632858 0.635895 0.030630
O O17 0.500000 0.500000 0.500000
#
# Coordination Sequence:
#
# PCOD8004025 Si02
#       8
#     2   2   2   2   2   2   2   2
#     4  11  18  37  64  89 118 164 213 256 308 370
#     4  10  20  37  64  90 122 161 209 263 303 372
#     4  10  20  38  64  90 118 164 210 259 300 367
#     4  10  20  37  63  89 120 157 214 259 303 367
#     4  11  23  39  58  88 131 164 199 263 321 372
#     4  10  20  38  63  88 119 164 215 257 304 372
#     4  11  18  37  66  92 118 163 215 258 312 373
#     4  11  23  39  58  92 134 164 200 255 323 381
#
# _framework density 21.789408999999999
#
# number of rings (size 3 to 8) (size 9 to 14) (size 15 to 20)
#    0.000    1.500    5.000    2.250    0.000    1.000 
#    2.250    0.000    0.000    0.000    0.000    0.000 
#    0.000    0.000    0.000    0.000    0.000    0.000 
#
# Total GULP energy -198316.992798 kJ/mol
# GULP energy per Si atom -12394.812050 kJ/mol
# Density = 2.173982 g / cm^3
# Si number density = 21.789409 Si / 1000 Ang^3
#
#
#
# Elastic Constant Matrix: (Units=GPa)
#
#
# Indices 1 2 3 4 5 6 
#
# 1 128.7054 34.0508 41.4643 5.0301 -18.1673 -5.2571
# 2 34.0508 51.8769 41.4998 8.0962 -7.0911 -5.9850
# 3 41.4643 41.4998 124.6319 22.6222 -22.8262 -1.5421
# 4 5.0301 8.0962 22.6222 31.1996 -5.5511 2.7180
# 5 -18.1673 -7.0911 -22.8262 -5.5511 40.4036 4.3225
# 6 -5.2571 -5.9850 -1.5421 2.7180 4.3225 32.0836
#
#
#
# Elastic Compliance Matrix: (Units=1/GPa)
#
#
# Indices 1 2 3 4 5 6 
#
# 1 0.009949 -0.005340 -0.001192 0.001177 0.003017 0.000071
# 2 -0.005340 0.029867 -0.008259 -0.001778 -0.002583 0.004798
# 3 -0.001192 -0.008259 0.013155 -0.006259 0.004716 -0.001209
# 4 0.001177 -0.001778 -0.006259 0.037608 0.002269 -0.003931
# 5 0.003017 -0.002583 0.004716 0.002269 0.029043 -0.003866
# 6 0.000071 0.004798 -0.001209 -0.003931 -0.003866 0.032871
#
#
# Mechanical properties :
#
#
# Convention : Reuss Voigt Hill
#
# Bulk Modulus (GPa) = 42.75625 59.91601 51.33613
# Shear Modulus (GPa) = 26.33360 33.28398 29.80879
#
# Velocity S-wave (km/s) = 3.48019 3.91260 3.70272
# Velocity P-wave (km/s) = 5.98449 6.92595 6.47236
#
# Compressibility (1/GPa) = 0.02338839
#
# Stress axis : x y z
#
# Youngs Moduli (GPa) = 100.51008 33.48226 76.01551
#
# Poissons Ratio (x) = 0.17879 0.09062
# Poissons Ratio (y) = 0.53671 0.62784
# Poissons Ratio (z) = 0.11982 0.27654
#
# Static dielectric constant tensor:
#      x y z
#    x 4.425230 0.132730 0.046960 
#    y 0.132730 4.367410 0.321990 
#    z 0.046960 0.321990 3.771840 
# 
# 
# High freq. dielectric constant tensor:
#      x y z
#    x 1.876080 -0.007060 0.002890 
#    y -0.007060 1.820920 0.035930 
#    z 0.002890 0.035930 1.842550 
# 
# From -- ./inp_files/364749.got.cif
#   From: 2010.06.25/outbox.cif.g09.slc.cpg/sg2_183_cif.got.tgz:364749.got - 2010.06.27 13:26:56.
