data_PCOD8004811
_publ_section_title
;
Structure prediction by ZEFSAII (Michael W. Deem and Ramdas Pophale) SiO2 
 PCOD8004811
Probable space group: P -1
;
_chemical_formula_sum "Si O2"
_cell_formula_units_Z 14
_cell_length_a 15.656993
_cell_length_b 8.345521
_cell_length_c 7.515170
_cell_angle_alpha 125.855708
_cell_angle_beta 72.312451
_cell_angle_gamma 127.426803
_cell_volume 629.958372
_symmetry_space_group_name_H-M "P -1"
_symmetry_group_IT_number 2
_symmetry_cell_setting 'triclinic'
loop_
_space_group_symop_operation_xyz
x,y,z
-x,-y,-z
loop_
_atom_site_type_symbol
_atom_site_label
_atom_site_fract_x
_atom_site_fract_y
_atom_site_fract_z
Si Si1 0.887696 0.262936 0.375821
Si Si2 0.309623 0.712633 0.491124
Si Si3 0.159679 0.220870 0.890448
Si Si4 0.229796 0.209985 0.226846
Si Si5 0.630993 0.293526 0.944912
Si Si6 0.607674 0.940071 0.011222
Si Si7 0.959680 0.250490 0.947283
O O1 0.795831 0.300346 0.515927
O O2 0.883971 0.220517 0.140450
O O3 0.000000 0.500000 0.500000
O O4 0.868551 0.029738 0.337008
O O5 0.278014 0.467763 0.453048
O O6 0.374768 0.753215 0.294110
O O7 0.376979 0.920918 0.724804
O O8 0.171398 0.221433 0.094532
O O9 0.271765 0.442163 0.885523
O O10 0.062564 0.249029 0.929305
O O11 0.328787 0.186933 0.105242
O O12 0.131639 0.987842 0.260833
O O13 0.519746 0.262536 0.053839
O O14 0.646035 0.107843 0.922549
O O15 0.000000 0.500000 0.000000
#
# Coordination Sequence:
#
# PCOD8004811 Si02
#       7
#     2   2   2   2   2   2   2
#     4  11  21  39  60  92 127 162 214 260 311 385
#     4  11  22  42  65  95 124 172 213 255 323 378
#     4  10  20  38  62  90 125 169 205 259 321 371
#     4  10  21  40  64  92 126 165 213 262 310 386
#     4  10  24  42  66  93 130 167 212 270 310 376
#     4  11  22  46  64  94 131 166 215 264 316 372
#     4  11  21  38  62  89 129 162 205 266 318 372
#
# _framework density 22.223689
#
# number of rings (size 3 to 8) (size 9 to 14) (size 15 to 20)
#    0.000    1.429    2.857    5.571    0.000    2.286 
#    7.714    2.857    0.000    0.000    0.000    0.000 
#    0.000    0.000    0.000    0.000    0.000    0.000 
#
# Total GULP energy -173514.540207 kJ/mol
# GULP energy per Si atom -12393.895729 kJ/mol
# Density = 2.217311 g / cm^3
# Si number density = 22.223689 Si / 1000 Ang^3
#
#
#
# Elastic Constant Matrix: (Units=GPa)
#
#
# Indices 1 2 3 4 5 6 
#
# 1 117.1064 40.3787 26.8668 9.2802 -34.1819 1.0926
# 2 40.3787 136.8461 30.2186 9.7687 -25.9050 3.0447
# 3 26.8668 30.2186 49.1474 17.3254 -18.1721 -6.8392
# 4 9.2802 9.7687 17.3254 27.8156 -11.6177 -0.8278
# 5 -34.1819 -25.9050 -18.1721 -11.6177 32.4509 3.3635
# 6 1.0926 3.0447 -6.8392 -0.8278 3.3635 38.6808
#
#
#
# Elastic Compliance Matrix: (Units=1/GPa)
#
#
# Indices 1 2 3 4 5 6 
#
# 1 0.013024 -0.000937 -0.003335 0.003203 0.012447 -0.001898
# 2 -0.000937 0.009380 -0.004300 0.001683 0.004889 -0.001861
# 3 -0.003335 -0.004300 0.033064 -0.015536 0.005441 0.005473
# 4 0.003203 0.001683 -0.015536 0.049793 0.014169 -0.003136
# 5 0.012447 0.004889 0.005441 0.014169 0.056402 -0.004376
# 6 -0.001898 -0.001861 0.005473 -0.003136 -0.004376 0.027334
#
#
# Mechanical properties :
#
#
# Convention : Reuss Voigt Hill
#
# Bulk Modulus (GPa) = 26.09241 55.33645 40.71443
# Shear Modulus (GPa) = 22.83981 33.49851 28.16916
#
# Velocity S-wave (km/s) = 3.20929 3.88665 3.56410
# Velocity P-wave (km/s) = 5.04966 6.71530 5.94114
#
# Compressibility (1/GPa) = 0.03832533
#
# Stress axis : x y z
#
# Youngs Moduli (GPa) = 76.77898 106.60801 30.24432
#
# Poissons Ratio (x) = 0.09988 0.10086
# Poissons Ratio (y) = 0.07193 0.13005
# Poissons Ratio (z) = 0.25604 0.45842
#
# Static dielectric constant tensor:
#      x y z
#    x 4.007800 -0.029560 -0.381230 
#    y -0.029560 5.124510 1.554220 
#    z -0.381230 1.554220 7.680840 
# 
# 
# High freq. dielectric constant tensor:
#      x y z
#    x 1.879990 0.008260 -0.011610 
#    y 0.008260 1.893620 0.021450 
#    z -0.011610 0.021450 1.851190 
# 
# From -- ./inp_files/187264.got.cif
#   From: 2010.06.25/outbox.cif.g09.slc.cpg/sg2_94_cif.got.tgz:187264.got - 2010.06.27 13:26:56.
