data_PCOD8004356
_publ_section_title
;
Structure prediction by ZEFSAII (Michael W. Deem and Ramdas Pophale) SiO2 
 PCOD8004356
Probable space group: P -1
;
_chemical_formula_sum "Si O2"
_cell_formula_units_Z 16
_cell_length_a 13.901613
_cell_length_b 11.324688
_cell_length_c 16.509369
_cell_angle_alpha 158.449293
_cell_angle_beta 53.200578
_cell_angle_gamma 127.878162
_cell_volume 750.060113
_symmetry_space_group_name_H-M "P -1"
_symmetry_group_IT_number 2
_symmetry_cell_setting 'triclinic'
loop_
_space_group_symop_operation_xyz
x,y,z
-x,-y,-z
loop_
_atom_site_type_symbol
_atom_site_label
_atom_site_fract_x
_atom_site_fract_y
_atom_site_fract_z
Si Si1 0.267831 0.137139 0.903685
Si Si2 0.075701 0.806417 0.894932
Si Si3 0.089128 0.050320 0.799507
Si Si4 0.023299 0.877642 0.562287
Si Si5 0.484939 0.847661 0.649012
Si Si6 0.432078 0.095415 0.175831
Si Si7 0.822800 0.261793 0.873835
Si Si8 0.747756 0.118464 0.644005
O O1 0.185387 0.954252 0.754156
O O2 0.216920 0.965039 0.905246
O O3 0.406340 0.085235 0.795622
O O4 0.258093 0.513908 0.146291
O O5 0.047481 0.423073 0.645700
O O6 0.032311 0.853894 0.038121
O O7 0.000000 0.000000 0.000000
O O8 0.043529 0.765961 0.574476
O O9 0.156180 0.348470 0.898718
O O10 0.157940 0.021468 0.549862
O O11 0.942787 0.158458 0.785127
O O12 0.418745 0.475096 0.427833
O O13 0.499921 0.953859 0.804341
O O14 0.613253 0.896412 0.567449
O O15 0.297669 0.867249 0.093538
O O16 0.500000 0.000000 0.000000
O O17 0.800251 0.096985 0.692657
#
# Coordination Sequence:
#
# PCOD8004356 Si02
#       8
#     2   2   2   2   2   2   2   2
#     4  10  20  42  60  84 122 156 190 241 291 342
#     4  10  20  38  55  83 119 149 190 238 289 338
#     4  10  23  37  57  91 118 150 197 242 281 355
#     4  12  21  37  61  87 116 160 191 240 296 335
#     4  10  22  42  63  85 117 158 192 237 296 342
#     4  10  23  42  62  90 116 149 197 246 282 348
#     4  10  21  40  60  87 119 152 195 241 293 345
#     4  10  21  38  63  85 118 156 195 239 288 349
#
# _framework density 21.331620999999998
#
# number of rings (size 3 to 8) (size 9 to 14) (size 15 to 20)
#    0.000    1.750    3.750    1.875    1.750    3.000 
#    2.250    0.625    0.000    0.000    0.000    0.000 
#    0.000    0.000    0.000    0.000    0.000    0.000 
#
# Total GULP energy -198283.882965 kJ/mol
# GULP energy per Si atom -12392.742685 kJ/mol
# Density = 2.128307 g / cm^3
# Si number density = 21.331621 Si / 1000 Ang^3
#
#
#
# Elastic Constant Matrix: (Units=GPa)
#
#
# Indices 1 2 3 4 5 6 
#
# 1 88.1226 35.6845 20.5842 -18.1651 -18.9628 2.9529
# 2 35.6845 141.7469 30.1622 -16.0128 1.6079 9.5694
# 3 20.5842 30.1622 42.2418 -19.1148 -3.4655 -1.3257
# 4 -18.1651 -16.0128 -19.1148 34.4212 -4.3660 4.8391
# 5 -18.9628 1.6079 -3.4655 -4.3660 29.1074 -6.4829
# 6 2.9529 9.5694 -1.3257 4.8391 -6.4829 23.2517
#
#
#
# Elastic Compliance Matrix: (Units=1/GPa)
#
#
# Indices 1 2 3 4 5 6 
#
# 1 0.017509 -0.003412 -0.001146 0.008525 0.012950 0.000952
# 2 -0.003412 0.009498 -0.005906 -0.000549 -0.004645 -0.004993
# 3 -0.001146 -0.005906 0.037210 0.017818 0.007360 0.003041
# 4 0.008525 -0.000549 0.017818 0.045670 0.013301 -0.005637
# 5 0.012950 -0.004645 0.007360 0.013301 0.048466 0.011432
# 6 0.000952 -0.004993 0.003041 -0.005637 0.011432 0.049476
#
#
# Mechanical properties :
#
#
# Convention : Reuss Voigt Hill
#
# Bulk Modulus (GPa) = 23.09940 49.44145 36.27043
# Shear Modulus (GPa) = 20.56032 29.73474 25.14753
#
# Velocity S-wave (km/s) = 3.10795 3.73758 3.43721
# Velocity P-wave (km/s) = 4.87148 6.46946 5.72648
#
# Compressibility (1/GPa) = 0.04329117
#
# Stress axis : x y z
#
# Youngs Moduli (GPa) = 57.11256 105.28225 26.87425
#
# Poissons Ratio (x) = 0.35924 0.03079
# Poissons Ratio (y) = 0.19488 0.15871
# Poissons Ratio (z) = 0.06543 0.62175
#
# Static dielectric constant tensor:
#      x y z
#    x 3.860950 0.222310 0.138470 
#    y 0.222310 4.720950 -0.055860 
#    z 0.138470 -0.055860 3.605940 
# 
# 
# High freq. dielectric constant tensor:
#      x y z
#    x 1.823970 0.004790 0.001070 
#    y 0.004790 1.852150 0.001470 
#    z 0.001070 0.001470 1.819690 
# 
# From -- ./inp_files/573665.got.cif
#   From: 2010.06.25/outbox.cif.g09.slc.cpg/sg2_287_cif.got.tgz:573665.got - 2010.06.27 13:26:56.
