data_PCOD8004588
_publ_section_title
;
Structure prediction by ZEFSAII (Michael W. Deem and Ramdas Pophale) SiO2 
 PCOD8004588
Probable space group: P -1
;
_chemical_formula_sum "Si O2"
_cell_formula_units_Z 16
_cell_length_a 14.315516
_cell_length_b 9.090110
_cell_length_c 14.381967
_cell_angle_alpha 40.001814
_cell_angle_beta 44.394980
_cell_angle_gamma 61.411128
_cell_volume 831.728243
_symmetry_space_group_name_H-M "P -1"
_symmetry_group_IT_number 2
_symmetry_cell_setting 'triclinic'
loop_
_space_group_symop_operation_xyz
x,y,z
-x,-y,-z
loop_
_atom_site_type_symbol
_atom_site_label
_atom_site_fract_x
_atom_site_fract_y
_atom_site_fract_z
Si Si1 0.592754 0.362414 0.776116
Si Si2 0.884687 0.935040 0.188666
Si Si3 0.385652 0.318124 0.558996
Si Si4 0.652658 0.252458 0.498789
Si Si5 0.111843 0.524607 0.484639
Si Si6 0.922503 0.994172 0.652486
Si Si7 0.915663 0.248847 0.194180
Si Si8 0.362655 0.068455 0.168551
O O1 0.561452 0.571351 0.631175
O O2 0.737908 0.441441 0.684054
O O3 0.592420 0.139742 0.820105
O O4 0.478419 0.295208 0.968740
O O5 0.736490 0.894628 0.265747
O O6 0.912860 0.694767 0.326151
O O7 0.891574 0.129753 0.168733
O O8 0.000000 0.000000 0.000000
O O9 0.507656 0.215971 0.569506
O O10 0.329296 0.512387 0.567745
O O11 0.771947 0.272056 0.329645
O O12 0.658476 0.021241 0.667210
O O13 0.000000 0.500000 0.500000
O O14 0.098344 0.742445 0.451097
O O15 0.772751 0.848476 0.816684
O O16 0.999691 0.901982 0.728256
O O17 0.000000 0.000000 0.500000
O O18 0.000000 0.500000 0.000000
#
# Coordination Sequence:
#
# PCOD8004588 Si02
#       8
#     2   2   2   2   2   2   2   2
#     4   8  17  31  55  84 112 147 198 244 286 350
#     4  11  24  42  62  89 127 163 205 256 307 367
#     4   9  20  38  61  84 120 165 198 249 303 360
#     4  10  20  38  60  89 121 157 207 248 300 371
#     4  10  20  39  62  89 117 160 203 246 305 364
#     4  11  22  38  63  88 123 159 196 258 307 357
#     4  12  26  39  61  93 122 163 210 255 310 369
#     4   9  17  33  56  85 115 148 195 246 294 345
#
# _framework density 19.237053
#
# number of rings (size 3 to 8) (size 9 to 14) (size 15 to 20)
#    0.000    2.000    2.500    1.500    3.500    1.500 
#    4.500    0.000    0.000    3.750    0.000    0.000 
#    0.000    0.000    0.000    0.000    0.000    0.000 
#
# Total GULP energy -198338.812607 kJ/mol
# GULP energy per Si atom -12396.175788 kJ/mol
# Density = 1.919327 g / cm^3
# Si number density = 19.237053 Si / 1000 Ang^3
#
#
#
# Elastic Constant Matrix: (Units=GPa)
#
#
# Indices 1 2 3 4 5 6 
#
# 1 132.3368 39.3032 56.0407 2.8196 -25.3084 4.5128
# 2 39.3032 78.4215 53.3205 9.8879 -6.3208 2.6059
# 3 56.0407 53.3205 159.4139 13.6783 -21.0914 11.6575
# 4 2.8196 9.8879 13.6783 28.2596 -0.1343 2.0647
# 5 -25.3084 -6.3208 -21.0914 -0.1343 25.9977 1.6409
# 6 4.5128 2.6059 11.6575 2.0647 1.6409 23.4793
#
#
#
# Elastic Compliance Matrix: (Units=1/GPa)
#
#
# Indices 1 2 3 4 5 6 
#
# 1 0.011026 -0.003982 -0.001352 0.001115 0.008783 -0.001718
# 2 -0.003982 0.018265 -0.005002 -0.003722 -0.003627 0.001802
# 3 -0.001352 -0.005002 0.009673 -0.002467 0.005565 -0.004160
# 4 0.001115 -0.003722 -0.002467 0.037896 -0.001511 -0.001803
# 5 0.008783 -0.003627 0.005565 -0.001511 0.051113 -0.007488
# 6 -0.001718 0.001802 -0.004160 -0.001803 -0.007488 0.045468
#
#
# Mechanical properties :
#
#
# Convention : Reuss Voigt Hill
#
# Bulk Modulus (GPa) = 54.66705 74.16677 64.41691
# Shear Modulus (GPa) = 24.97354 30.31450 27.64402
#
# Velocity S-wave (km/s) = 3.60696 3.97399 3.79492
# Velocity P-wave (km/s) = 6.76950 7.72623 7.26364
#
# Compressibility (1/GPa) = 0.01829256
#
# Stress axis : x y z
#
# Youngs Moduli (GPa) = 90.69205 54.74878 103.37540
#
# Poissons Ratio (x) = 0.21803 0.13979
# Poissons Ratio (y) = 0.36117 0.51705
# Poissons Ratio (z) = 0.12264 0.27384
#
# Static dielectric constant tensor:
#      x y z
#    x 3.942150 -0.024890 -0.174700 
#    y -0.024890 3.258920 0.048930 
#    z -0.174700 0.048930 3.738140 
# 
# 
# High freq. dielectric constant tensor:
#      x y z
#    x 1.759050 -0.009450 -0.008950 
#    y -0.009450 1.722780 0.004370 
#    z -0.008950 0.004370 1.757350 
# 
# From -- ./inp_files/329002.got.cif
#   From: 2010.06.25/outbox.cif.g09.slc.cpg/sg2_165_cif.got.tgz:329002.got - 2010.06.27 13:26:56.
