data_PCOD8004317
_publ_section_title
;
Structure prediction by ZEFSAII (Michael W. Deem and Ramdas Pophale) SiO2 
 PCOD8004317
Probable space group: P -1
;
_chemical_formula_sum "Si O2"
_cell_formula_units_Z 16
_cell_length_a 10.385685
_cell_length_b 8.161047
_cell_length_c 20.670442
_cell_angle_alpha 48.024618
_cell_angle_beta 34.461796
_cell_angle_gamma 53.544932
_cell_volume 733.202443
_symmetry_space_group_name_H-M "P -1"
_symmetry_group_IT_number 2
_symmetry_cell_setting 'triclinic'
loop_
_space_group_symop_operation_xyz
x,y,z
-x,-y,-z
loop_
_atom_site_type_symbol
_atom_site_label
_atom_site_fract_x
_atom_site_fract_y
_atom_site_fract_z
Si Si1 0.188443 0.448827 0.694960
Si Si2 0.013698 0.242361 0.544191
Si Si3 0.704539 0.847396 0.984020
Si Si4 0.940018 0.117385 0.283453
Si Si5 0.304085 0.583650 0.473235
Si Si6 0.518521 0.770819 0.604791
Si Si7 0.247606 0.592575 0.873521
Si Si8 0.989345 0.995082 0.082022
O O1 0.090697 0.651371 0.726921
O O2 0.171128 0.534605 0.606257
O O3 0.445552 0.344352 0.633869
O O4 0.031505 0.251380 0.819335
O O5 0.286208 0.146058 0.449549
O O6 0.000000 0.500000 0.500000
O O7 0.859073 0.225533 0.548380
O O8 0.923394 0.081816 0.679412
O O9 0.929370 0.846440 0.846388
O O10 0.777334 0.932548 0.002032
O O11 0.610989 0.604130 0.092183
O O12 0.500000 0.000000 0.000000
O O13 0.679849 0.049425 0.391703
O O14 0.338450 0.361414 0.475681
O O15 0.367296 0.606122 0.750596
O O16 0.228237 0.832883 0.852035
O O17 0.000000 0.500000 0.000000
O O18 0.000000 0.000000 0.000000
#
# Coordination Sequence:
#
# PCOD8004317 Si02
#       8
#     2   2   2   2   2   2   2   2
#     4  10  23  42  66  93 134 175 211 257 336 394
#     4  10  23  36  63  95 130 164 222 266 321 370
#     4  11  26  42  69  95 131 170 223 274 330 371
#     4  11  22  42  65  93 131 176 213 268 322 400
#     4   9  22  40  62  93 136 168 208 268 327 381
#     4  10  20  37  68  92 126 165 224 263 313 392
#     4  10  21  41  65  95 120 172 220 263 320 389
#     4  11  24  41  70  94 126 169 221 268 315 399
#
# _framework density 21.822075000000002
#
# number of rings (size 3 to 8) (size 9 to 14) (size 15 to 20)
#    0.000    1.750    2.500    1.125   12.250    3.500 
#    0.000    5.000    0.000    0.000    0.000    0.000 
#    0.000    0.000    0.000    0.000    0.000    0.000 
#
# Total GULP energy -198247.026970 kJ/mol
# GULP energy per Si atom -12390.439186 kJ/mol
# Density = 2.177241 g / cm^3
# Si number density = 21.822075 Si / 1000 Ang^3
#
#
#
# Elastic Constant Matrix: (Units=GPa)
#
#
# Indices 1 2 3 4 5 6 
#
# 1 140.8149 42.7110 32.1812 4.5212 18.9947 -29.8490
# 2 42.7110 109.6967 10.5877 -8.8210 9.4653 -7.8173
# 3 32.1812 10.5877 38.1751 9.5056 16.0648 13.3540
# 4 4.5212 -8.8210 9.5056 35.2570 -0.6155 2.6501
# 5 18.9947 9.4653 16.0648 -0.6155 33.6269 1.8776
# 6 -29.8490 -7.8173 13.3540 2.6501 1.8776 41.2666
#
#
#
# Elastic Compliance Matrix: (Units=1/GPa)
#
#
# Indices 1 2 3 4 5 6 
#
# 1 0.015827 -0.003088 -0.018540 0.000930 -0.000135 0.016809
# 2 -0.003088 0.010723 -0.000802 0.003290 -0.000824 -0.000117
# 3 -0.018540 -0.000802 0.064586 -0.013097 -0.018566 -0.032777
# 4 0.000930 0.003290 -0.013097 0.032447 0.005220 0.003213
# 5 -0.000135 -0.000824 -0.018566 0.005220 0.038808 0.003654
# 6 0.016809 -0.000117 -0.032777 0.003213 0.003654 0.046603
#
#
# Mechanical properties :
#
#
# Convention : Reuss Voigt Hill
#
# Bulk Modulus (GPa) = 21.60975 51.07183 36.34079
# Shear Modulus (GPa) = 18.56812 35.57722 27.07267
#
# Velocity S-wave (km/s) = 2.92016 4.04212 3.52605
# Velocity P-wave (km/s) = 4.61454 6.72603 5.76773
#
# Compressibility (1/GPa) = 0.04627541
#
# Stress axis : x y z
#
# Youngs Moduli (GPa) = 63.18496 93.25530 15.48325
#
# Poissons Ratio (x) = 0.28802 0.28705
# Poissons Ratio (y) = 0.19514 0.01242
# Poissons Ratio (z) = 1.17143 0.07479
#
# Static dielectric constant tensor:
#      x y z
#    x 4.441930 -0.417470 0.109570 
#    y -0.417470 4.281580 -0.290910 
#    z 0.109570 -0.290910 4.259890 
# 
# 
# High freq. dielectric constant tensor:
#      x y z
#    x 1.853330 -0.021220 0.014760 
#    y -0.021220 1.855050 -0.014460 
#    z 0.014760 -0.014460 1.859220 
# 
# From -- ./inp_files/594027.got.cif
#   From: 2010.06.25/outbox.cif.g09.slc.cpg/sg2_298_cif.got.tgz:594027.got - 2010.06.27 13:26:56.
