data_PCOD8004252
_publ_section_title
;
Structure prediction by ZEFSAII (Michael W. Deem and Ramdas Pophale) SiO2 
 PCOD8004252
Probable space group: P -1
;
_chemical_formula_sum "Si O2"
_cell_formula_units_Z 14
_cell_length_a 13.583957
_cell_length_b 8.326967
_cell_length_c 7.704290
_cell_angle_alpha 129.386907
_cell_angle_beta 59.288776
_cell_angle_gamma 117.148848
_cell_volume 567.487832
_symmetry_space_group_name_H-M "P -1"
_symmetry_group_IT_number 2
_symmetry_cell_setting 'triclinic'
loop_
_space_group_symop_operation_xyz
x,y,z
-x,-y,-z
loop_
_atom_site_type_symbol
_atom_site_label
_atom_site_fract_x
_atom_site_fract_y
_atom_site_fract_z
Si Si1 0.810995 0.457085 0.642998
Si Si2 0.384510 0.348901 0.937162
Si Si3 0.681337 0.975313 0.914425
Si Si4 0.242038 0.589730 0.728628
Si Si5 0.602952 0.692451 0.489701
Si Si6 0.018351 0.806576 0.591146
Si Si7 0.065568 0.820706 0.177308
O O1 0.744535 0.424264 0.498260
O O2 0.920805 0.652696 0.683917
O O3 0.853979 0.239828 0.506185
O O4 0.715832 0.509922 0.900962
O O5 0.404964 0.242882 0.660172
O O6 0.500000 0.500000 0.000000
O O7 0.346271 0.171824 0.993954
O O8 0.603417 0.889824 0.756335
O O9 0.818697 0.998109 0.760368
O O10 0.661592 0.208491 0.148524
O O11 0.272973 0.380885 0.642167
O O12 0.108539 0.618201 0.913595
O O13 0.500000 0.500000 0.500000
O O14 0.995239 0.752496 0.370384
O O15 0.010964 0.055881 0.797681
#
# Coordination Sequence:
#
# PCOD8004252 Si02
#       7
#     2   2   2   2   2   2   2
#     4  11  21  39  64 100 132 172 227 268 327 396
#     4  12  23  44  69  95 134 174 218 274 334 390
#     4  10  23  45  63 100 131 168 224 270 322 402
#     4  10  22  42  65  93 138 168 218 273 326 396
#     4  12  23  43  70  93 131 177 218 277 330 387
#     4  10  20  37  66  92 135 173 221 271 326 390
#     4   9  20  40  59  95 131 170 214 271 324 390
#
# _framework density 24.670134000000001
#
# number of rings (size 3 to 8) (size 9 to 14) (size 15 to 20)
#    0.857    0.571    4.286    0.857    0.000    2.857 
#    0.000    7.143    0.000    0.000    0.000    0.000 
#    0.000    0.000    0.000    0.000    0.000    0.000 
#
# Total GULP energy -173502.744371 kJ/mol
# GULP energy per Si atom -12393.053169 kJ/mol
# Density = 2.461398 g / cm^3
# Si number density = 24.670134 Si / 1000 Ang^3
#
#
#
# Elastic Constant Matrix: (Units=GPa)
#
#
# Indices 1 2 3 4 5 6 
#
# 1 63.1684 9.2757 7.5080 -8.0499 18.1635 -9.4572
# 2 9.2757 36.1363 6.0523 -14.0797 -4.0735 -13.7492
# 3 7.5080 6.0523 72.0266 -14.1928 20.0729 0.7938
# 4 -8.0499 -14.0797 -14.1928 36.2108 -2.4880 -0.1978
# 5 18.1635 -4.0735 20.0729 -2.4880 48.0162 -4.5931
# 6 -9.4572 -13.7492 0.7938 -0.1978 -4.5931 33.1278
#
#
#
# Elastic Compliance Matrix: (Units=1/GPa)
#
#
# Indices 1 2 3 4 5 6 
#
# 1 0.019223 -0.003833 0.000917 0.002638 -0.007572 0.002841
# 2 -0.003833 0.043075 -0.002827 0.015494 0.008827 0.018167
# 3 0.000917 -0.002827 0.017262 0.005325 -0.007754 -0.002368
# 4 0.002638 0.015494 0.005325 0.036401 0.000682 0.007368
# 5 -0.007572 0.008827 -0.007754 0.000682 0.028253 0.005609
# 6 0.002841 0.018167 -0.002368 0.007368 0.005609 0.039416
#
#
# Mechanical properties :
#
#
# Convention : Reuss Voigt Hill
#
# Bulk Modulus (GPa) = 14.68985 24.11148 19.40067
# Shear Modulus (GPa) = 22.95617 33.37063 28.16340
#
# Velocity S-wave (km/s) = 3.05376 3.68186 3.38242
# Velocity P-wave (km/s) = 4.28968 5.27916 4.80993
#
# Compressibility (1/GPa) = 0.06807420
#
# Stress axis : x y z
#
# Youngs Moduli (GPa) = 52.02049 23.21547 57.93105
#
# Poissons Ratio (x) = 0.08898 -0.05312
# Poissons Ratio (y) = 0.19938 0.16377
# Poissons Ratio (z) = -0.04770 0.06563
#
# Static dielectric constant tensor:
#      x y z
#    x 4.280410 -0.121640 -0.231650 
#    y -0.121640 4.400610 0.024020 
#    z -0.231650 0.024020 4.548740 
# 
# 
# High freq. dielectric constant tensor:
#      x y z
#    x 1.968400 -0.003750 -0.011390 
#    y -0.003750 1.968370 -0.001120 
#    z -0.011390 -0.001120 1.985460 
# 
# From -- ./inp_files/327937.got.cif
#   From: 2010.06.25/outbox.cif.g09.slc.cpg/sg2_164_cif.got.tgz:327937.got - 2010.06.27 13:26:56.
