data_PCOD8004526
_publ_section_title
;
Structure prediction by ZEFSAII (Michael W. Deem and Ramdas Pophale) SiO2 
 PCOD8004526
Probable space group: P -1
;
_chemical_formula_sum "Si O2"
_cell_formula_units_Z 16
_cell_length_a 23.594209
_cell_length_b 19.850455
_cell_length_c 8.991101
_cell_angle_alpha 130.968613
_cell_angle_beta 39.099885
_cell_angle_gamma 161.347797
_cell_volume 780.367346
_symmetry_space_group_name_H-M "P -1"
_symmetry_group_IT_number 2
_symmetry_cell_setting 'triclinic'
loop_
_space_group_symop_operation_xyz
x,y,z
-x,-y,-z
loop_
_atom_site_type_symbol
_atom_site_label
_atom_site_fract_x
_atom_site_fract_y
_atom_site_fract_z
Si Si1 0.100956 0.139736 0.853980
Si Si2 0.127950 0.486170 0.571487
Si Si3 0.118940 0.984934 0.443840
Si Si4 0.281292 0.436088 0.138284
Si Si5 0.335847 0.998853 0.044312
Si Si6 0.770854 0.299873 0.589457
Si Si7 0.600882 0.955219 0.364249
Si Si8 0.218810 0.065912 0.034558
O O1 0.230664 0.182056 0.553068
O O2 0.269104 0.370517 0.910997
O O3 0.892493 0.985987 0.953278
O O4 0.000000 0.000000 0.000000
O O5 0.190315 0.451936 0.306494
O O6 0.142761 0.585028 0.578377
O O7 0.334205 0.688520 0.564379
O O8 0.879577 0.253325 0.817137
O O9 0.058101 0.926647 0.307518
O O10 0.301531 0.073718 0.241686
O O11 0.878128 0.751911 0.681322
O O12 0.537745 0.670299 0.023139
O O13 0.578181 0.188312 0.898594
O O14 0.367251 0.000883 0.812715
O O15 0.000000 0.500000 0.500000
O O16 0.667221 0.106477 0.525664
O O17 0.757566 0.015217 0.183605
#
# Coordination Sequence:
#
# PCOD8004526 Si02
#       8
#     2   2   2   2   2   2   2   2
#     4  10  21  36  60  88 116 152 193 236 284 345
#     4   9  18  36  60  78 109 151 187 229 280 331
#     4   9  19  37  58  86 114 149 196 234 281 339
#     4   9  20  37  60  85 115 157 190 232 289 337
#     4   9  18  37  60  76 112 147 187 235 272 336
#     4  11  23  34  53  85 115 143 184 230 283 341
#     4   9  20  36  56  83 104 148 192 228 281 335
#     4  10  20  38  60  81 119 151 190 241 285 335
#
# _framework density 20.503164999999999
#
# number of rings (size 3 to 8) (size 9 to 14) (size 15 to 20)
#    0.000    2.500    0.000    2.625    1.750    5.000 
#    0.000    2.500   19.250    0.000    0.000    0.000 
#    0.000    0.000    0.000    0.000    0.000    0.000 
#
# Total GULP energy -198211.067180 kJ/mol
# GULP energy per Si atom -12388.191699 kJ/mol
# Density = 2.045650 g / cm^3
# Si number density = 20.503165 Si / 1000 Ang^3
#
#
#
# Elastic Constant Matrix: (Units=GPa)
#
#
# Indices 1 2 3 4 5 6 
#
# 1 110.4764 52.7606 54.8547 5.0623 -19.7484 8.4753
# 2 52.7606 114.3012 52.8917 3.1983 -21.7357 3.3659
# 3 54.8547 52.8917 91.8591 -8.3119 -21.3127 4.1593
# 4 5.0623 3.1983 -8.3119 37.1377 -7.7319 -3.9615
# 5 -19.7484 -21.7357 -21.3127 -7.7319 25.5372 -0.2289
# 6 8.4753 3.3659 4.1593 -3.9615 -0.2289 25.8745
#
#
#
# Elastic Compliance Matrix: (Units=1/GPa)
#
#
# Indices 1 2 3 4 5 6 
#
# 1 0.014607 -0.003096 -0.006535 -0.003128 0.002226 -0.003791
# 2 -0.003096 0.013316 -0.004807 -0.000830 0.004676 -0.000031
# 3 -0.006535 -0.004807 0.020744 0.008254 0.010673 0.000789
# 4 -0.003128 -0.000830 0.008254 0.032648 0.013692 0.004926
# 5 0.002226 0.004676 0.010673 0.013692 0.057909 -0.000444
# 6 -0.003791 -0.000031 0.000789 0.004926 -0.000444 0.040517
#
#
# Mechanical properties :
#
#
# Convention : Reuss Voigt Hill
#
# Bulk Modulus (GPa) = 50.52978 70.85006 60.68992
# Shear Modulus (GPa) = 23.23265 28.11853 25.67559
#
# Velocity S-wave (km/s) = 3.36984 3.70729 3.54259
# Velocity P-wave (km/s) = 6.31185 7.27709 6.81159
#
# Compressibility (1/GPa) = 0.01979031
#
# Stress axis : x y z
#
# Youngs Moduli (GPa) = 68.45930 75.09948 48.20622
#
# Poissons Ratio (x) = 0.23252 0.31504
# Poissons Ratio (y) = 0.21196 0.23173
# Poissons Ratio (z) = 0.44739 0.36101
#
# Static dielectric constant tensor:
#      x y z
#    x 3.576840 -0.128350 -0.136400 
#    y -0.128350 3.891800 0.017840 
#    z -0.136400 0.017840 3.914950 
# 
# 
# High freq. dielectric constant tensor:
#      x y z
#    x 1.790180 -0.022640 -0.018880 
#    y -0.022640 1.797380 -0.000850 
#    z -0.018880 -0.000850 1.802150 
# 
# From -- ./inp_files/355183.got.cif
#   From: 2010.06.25/outbox.cif.g09.slc.cpg/sg2_178_cif.got.tgz:355183.got - 2010.06.27 13:26:56.
