data_PCOD8004191
_publ_section_title
;
Structure prediction by ZEFSAII (Michael W. Deem and Ramdas Pophale) SiO2 
 PCOD8004191
Probable space group: P -1
;
_chemical_formula_sum "Si O2"
_cell_formula_units_Z 14
_cell_length_a 20.173336
_cell_length_b 11.183641
_cell_length_c 11.887086
_cell_angle_alpha 116.528681
_cell_angle_beta 32.640155
_cell_angle_gamma 138.592769
_cell_volume 818.125395
_symmetry_space_group_name_H-M "P -1"
_symmetry_group_IT_number 2
_symmetry_cell_setting 'triclinic'
loop_
_space_group_symop_operation_xyz
x,y,z
-x,-y,-z
loop_
_atom_site_type_symbol
_atom_site_label
_atom_site_fract_x
_atom_site_fract_y
_atom_site_fract_z
Si Si1 0.052391 0.248062 0.510110
Si Si2 0.353931 0.143486 0.801616
Si Si3 0.896156 0.295008 0.923566
Si Si4 0.580618 0.538042 0.022421
Si Si5 0.831187 0.868191 0.520910
Si Si6 0.998025 0.082650 0.925433
Si Si7 0.209059 0.521553 0.763251
O O1 0.100397 0.203078 0.535250
O O2 0.241639 0.416903 0.229362
O O3 0.878978 0.039338 0.596750
O O4 0.978131 0.328578 0.695642
O O5 0.335708 0.257446 0.955327
O O6 0.571453 0.302901 0.518190
O O7 0.278689 0.952362 0.898244
O O8 0.220402 0.050038 0.842511
O O9 0.812426 0.374615 0.074411
O O10 0.076151 0.436225 0.809942
O O11 0.399474 0.325298 0.260858
O O12 0.500000 0.500000 0.000000
O O13 0.938621 0.957488 0.285770
O O14 0.145699 0.331174 0.834129
O O15 0.000000 0.000000 0.000000
#
# Coordination Sequence:
#
# PCOD8004191 Si02
#       7
#     2   2   2   2   2   2   2
#     4  10  16  29  49  76 104 130 155 206 265 309
#     4  11  18  33  50  77 105 134 170 205 260 302
#     4  10  19  31  51  77 109 135 158 203 261 320
#     4  10  17  25  50  76 106 128 155 207 265 310
#     4  10  17  31  46  75 104 127 166 212 255 297
#     4  11  22  36  52  72 103 141 179 214 242 288
#     4  10  20  34  49  75 107 135 169 205 252 310
#
# _framework density 17.112290999999999
#
# number of rings (size 3 to 8) (size 9 to 14) (size 15 to 20)
#    0.000    1.714    5.714    3.000    0.000    0.571 
#    0.000    0.000    0.000    0.857    0.000    2.000 
#    0.000    0.000    0.000    0.000    0.000    0.000 
#
# Total GULP energy -173539.839340 kJ/mol
# GULP energy per Si atom -12395.702810 kJ/mol
# Density = 1.707334 g / cm^3
# Si number density = 17.112291 Si / 1000 Ang^3
#
#
#
# Elastic Constant Matrix: (Units=GPa)
#
#
# Indices 1 2 3 4 5 6 
#
# 1 41.9690 22.8331 27.2079 0.3191 9.4548 -0.7531
# 2 22.8331 109.8906 68.0525 11.1480 0.7351 8.1709
# 3 27.2079 68.0525 137.8122 3.7761 2.9250 0.4210
# 4 0.3191 11.1480 3.7761 41.0687 8.4024 -1.1758
# 5 9.4548 0.7351 2.9250 8.4024 13.7180 0.7032
# 6 -0.7531 8.1709 0.4210 -1.1758 0.7032 13.7965
#
#
#
# Elastic Compliance Matrix: (Units=1/GPa)
#
#
# Indices 1 2 3 4 5 6 
#
# 1 0.036420 -0.006597 -0.003556 0.008075 -0.029356 0.008188
# 2 -0.006597 0.015810 -0.006508 -0.005823 0.009191 -0.010490
# 3 -0.003556 -0.006508 0.011143 0.000934 -0.000323 0.003416
# 4 0.008075 -0.005823 0.000934 0.031098 -0.024900 0.007780
# 5 -0.029356 0.009191 -0.000323 -0.024900 0.108711 -0.014699
# 6 0.008188 -0.010490 0.003416 0.007780 -0.014699 0.080450
#
#
# Mechanical properties :
#
#
# Convention : Reuss Voigt Hill
#
# Bulk Modulus (GPa) = 33.27655 58.42875 45.85265
# Shear Modulus (GPa) = 15.29184 25.15519 20.22352
#
# Velocity S-wave (km/s) = 2.99259 3.83823 3.44148
# Velocity P-wave (km/s) = 5.60615 7.33901 6.53032
#
# Compressibility (1/GPa) = 0.03005119
#
# Stress axis : x y z
#
# Youngs Moduli (GPa) = 27.45718 63.25006 89.74260
#
# Poissons Ratio (x) = 0.41726 0.31912
# Poissons Ratio (y) = 0.18113 0.58407
# Poissons Ratio (z) = 0.09764 0.41165
#
# Static dielectric constant tensor:
#      x y z
#    x 2.616050 0.071590 0.297340 
#    y 0.071590 2.728260 1.857100 
#    z 0.297340 1.857100 -0.975080 
# 
# 
# High freq. dielectric constant tensor:
#      x y z
#    x 1.586980 0.032400 -0.000360 
#    y 0.032400 1.668170 -0.004600 
#    z -0.000360 -0.004600 1.683620 
# 
# From -- ./inp_files/338825.got.cif
#   From: 2010.06.25/outbox.cif.g09.slc.cpg/sg2_170_cif.got.tgz:338825.got - 2010.06.27 13:26:56.
