data_PCOD8004143
_publ_section_title
;
Structure prediction by ZEFSAII (Michael W. Deem and Ramdas Pophale) SiO2 
 PCOD8004143
Probable space group: P -1
;
_chemical_formula_sum "Si O2"
_cell_formula_units_Z 14
_cell_length_a 10.102880
_cell_length_b 7.874866
_cell_length_c 12.832950
_cell_angle_alpha 68.337421
_cell_angle_beta 143.766896
_cell_angle_gamma 102.892813
_cell_volume 555.648933
_symmetry_space_group_name_H-M "P -1"
_symmetry_group_IT_number 2
_symmetry_cell_setting 'triclinic'
loop_
_space_group_symop_operation_xyz
x,y,z
-x,-y,-z
loop_
_atom_site_type_symbol
_atom_site_label
_atom_site_fract_x
_atom_site_fract_y
_atom_site_fract_z
Si Si1 0.163818 0.126223 0.758613
Si Si2 0.483180 0.943042 0.165988
Si Si3 0.771615 0.111321 0.788914
Si Si4 0.068237 0.529256 0.196964
Si Si5 0.304289 0.777769 0.628679
Si Si6 0.762149 0.498662 0.190093
Si Si7 0.710640 0.732835 0.764038
O O1 0.167045 0.303894 0.790143
O O2 0.906941 0.085267 0.584969
O O3 0.288213 0.152834 0.721420
O O4 0.293022 0.963557 0.949143
O O5 0.540539 0.134155 0.208598
O O6 0.396166 0.829994 0.232243
O O7 0.801532 0.306281 0.708302
O O8 0.682130 0.959692 0.689411
O O9 0.000000 0.000000 0.000000
O O10 0.244753 0.361158 0.299752
O O11 0.918085 0.429686 0.205594
O O12 0.913166 0.641544 0.985937
O O13 0.178067 0.627016 0.642360
O O14 0.471310 0.683994 0.666625
O O15 0.500000 0.500000 0.000000
#
# Coordination Sequence:
#
# PCOD8004143 Si02
#       7
#     2   2   2   2   2   2   2
#     4  11  23  39  67  98 127 171 215 267 333 386
#     4  10  22  41  66  97 125 169 218 269 325 393
#     4   9  18  35  63  91 124 168 219 261 321 388
#     4  10  20  37  64  93 130 172 218 263 323 396
#     4  11  22  42  66  96 132 166 219 271 321 388
#     4  12  22  40  63  96 132 168 216 269 320 389
#     4   9  19  36  63  93 124 175 213 267 325 378
#
# _framework density 25.195765999999999
#
# number of rings (size 3 to 8) (size 9 to 14) (size 15 to 20)
#    0.000    1.714    2.857    2.571    2.000    1.143 
#    2.571    0.714    3.143   11.143    0.000    0.000 
#    0.000    0.000    0.000    0.000    0.000    0.000 
#
# Total GULP energy -173472.320317 kJ/mol
# GULP energy per Si atom -12390.880023 kJ/mol
# Density = 2.513842 g / cm^3
# Si number density = 25.195766 Si / 1000 Ang^3
#
#
#
# Elastic Constant Matrix: (Units=GPa)
#
#
# Indices 1 2 3 4 5 6 
#
# 1 215.1492 64.6769 34.4645 1.7965 30.1966 -11.5293
# 2 64.6769 88.9702 11.2765 6.5656 1.5232 -1.9077
# 3 34.4645 11.2765 74.6189 9.6562 14.8799 -5.2049
# 4 1.7965 6.5656 9.6562 8.5195 -4.5556 3.8105
# 5 30.1966 1.5232 14.8799 -4.5556 19.2558 -3.2496
# 6 -11.5293 -1.9077 -5.2049 3.8105 -3.2496 42.4918
#
#
#
# Elastic Compliance Matrix: (Units=1/GPa)
#
#
# Indices 1 2 3 4 5 6 
#
# 1 0.008343 -0.005345 0.001037 -0.007574 -0.014970 0.001685
# 2 -0.005345 0.015669 0.000315 -0.008908 0.004870 0.000463
# 3 0.001037 0.000315 0.026395 -0.050535 -0.033070 0.005531
# 4 -0.007574 -0.008908 -0.050535 0.250619 0.107054 -0.022932
# 5 -0.014970 0.004870 -0.033070 0.107054 0.124560 -0.007968
# 6 0.001685 0.000463 0.005531 -0.022932 -0.007968 0.026137
#
#
# Mechanical properties :
#
#
# Convention : Reuss Voigt Hill
#
# Bulk Modulus (GPa) = 23.57339 66.61935 45.09637
# Shear Modulus (GPa) = 10.55187 31.94144 21.24665
#
# Velocity S-wave (km/s) = 2.04867 3.56438 2.90705
# Velocity P-wave (km/s) = 3.86943 6.59074 5.40418
#
# Compressibility (1/GPa) = 0.04242071
#
# Stress axis : x y z
#
# Youngs Moduli (GPa) = 119.85770 63.81836 37.88623
#
# Poissons Ratio (x) = 0.34112 -0.03929
# Poissons Ratio (y) = 0.64066 -0.01193
# Poissons Ratio (z) = -0.12429 -0.02009
#
# Static dielectric constant tensor:
#      x y z
#    x 5.010670 -0.017550 0.211920 
#    y -0.017550 4.656740 0.203430 
#    z 0.211920 0.203430 4.443720 
# 
# 
# High freq. dielectric constant tensor:
#      x y z
#    x 2.022730 -0.004020 0.014930 
#    y -0.004020 1.979420 0.013410 
#    z 0.014930 0.013410 1.985510 
# 
# From -- ./inp_files/315717.got.cif
#   From: 2010.06.25/outbox.cif.g09.slc.cpg/sg2_158_cif.got.tgz:315717.got - 2010.06.27 13:26:56.
