data_PCOD8004688
_publ_section_title
;
Structure prediction by ZEFSAII (Michael W. Deem and Ramdas Pophale) SiO2 
 PCOD8004688
Probable space group: P -1
;
_chemical_formula_sum "Si O2"
_cell_formula_units_Z 14
_cell_length_a 25.596734
_cell_length_b 10.766383
_cell_length_c 11.647169
_cell_angle_alpha 155.448038
_cell_angle_beta 32.247714
_cell_angle_gamma 149.928812
_cell_volume 641.287654
_symmetry_space_group_name_H-M "P -1"
_symmetry_group_IT_number 2
_symmetry_cell_setting 'triclinic'
loop_
_space_group_symop_operation_xyz
x,y,z
-x,-y,-z
loop_
_atom_site_type_symbol
_atom_site_label
_atom_site_fract_x
_atom_site_fract_y
_atom_site_fract_z
Si Si1 0.611299 0.133264 0.623578
Si Si2 0.284289 0.297291 0.509277
Si Si3 0.837101 0.266624 0.890319
Si Si4 0.491129 0.519112 0.169493
Si Si5 0.580708 0.858490 0.684052
Si Si6 0.057993 0.566148 0.826580
Si Si7 0.192345 0.173061 0.206416
O O1 0.697062 0.496828 0.730111
O O2 0.581012 0.865858 0.350933
O O3 0.648219 0.026031 0.583003
O O4 0.508242 0.199955 0.911169
O O5 0.373229 0.467930 0.386992
O O6 0.331892 0.156673 0.403347
O O7 0.179018 0.991321 0.398001
O O8 0.241363 0.561448 0.850866
O O9 0.964868 0.525969 0.872768
O O10 0.798394 0.058822 0.905431
O O11 0.500000 0.500000 0.000000
O O12 0.500000 0.500000 0.500000
O O13 0.500000 0.000000 0.000000
O O14 0.096296 0.280549 0.495412
O O15 0.000000 0.500000 0.000000
O O16 0.159036 0.938155 0.955021
#
# Coordination Sequence:
#
# PCOD8004688 Si02
#       7
#     2   2   2   2   2   2   2
#     4  12  24  43  63  91 125 169 213 259 302 378
#     4  12  23  39  63  91 125 166 213 259 303 369
#     4  11  22  38  62  94 126 160 206 258 320 372
#     4  12  25  39  59  93 134 163 197 257 327 376
#     4  12  23  45  67  84 122 173 228 254 296 364
#     4  10  20  38  61  89 125 164 203 251 311 387
#     4  11  22  38  63  92 126 162 205 254 320 379
#
# _framework density 21.831077000000001
#
# number of rings (size 3 to 8) (size 9 to 14) (size 15 to 20)
#    0.000    0.571    2.857    8.143    0.000    3.429 
#    0.000    0.000    0.000    5.143    0.000    0.000 
#    0.000    0.000    0.000    0.000    0.000    0.000 
#
# Total GULP energy -173457.154364 kJ/mol
# GULP energy per Si atom -12389.796740 kJ/mol
# Density = 2.178139 g / cm^3
# Si number density = 21.831077 Si / 1000 Ang^3
#
#
#
# Elastic Constant Matrix: (Units=GPa)
#
#
# Indices 1 2 3 4 5 6 
#
# 1 129.6245 49.0596 38.5172 16.3902 -1.5784 11.7648
# 2 49.0596 53.1068 18.9570 24.1644 14.5488 9.5080
# 3 38.5172 18.9570 103.3574 22.8792 -6.9251 -2.6472
# 4 16.3902 24.1644 22.8792 33.5374 13.7348 4.9093
# 5 -1.5784 14.5488 -6.9251 13.7348 44.8192 7.6891
# 6 11.7648 9.5080 -2.6472 4.9093 7.6891 31.3434
#
#
#
# Elastic Compliance Matrix: (Units=1/GPa)
#
#
# Indices 1 2 3 4 5 6 
#
# 1 0.013783 -0.014146 -0.003422 0.004735 0.003576 -0.002790
# 2 -0.014146 0.044030 0.001660 -0.022633 -0.007151 -0.002607
# 3 -0.003422 0.001660 0.013383 -0.010778 0.004274 0.002551
# 4 0.004735 -0.022633 -0.010778 0.055932 -0.010967 -0.001892
# 5 0.003576 -0.007151 0.004274 -0.010967 0.029524 -0.004337
# 6 -0.002790 -0.002607 0.002551 -0.001892 -0.004337 0.035319
#
#
# Mechanical properties :
#
#
# Convention : Reuss Voigt Hill
#
# Bulk Modulus (GPa) = 25.39282 55.46182 40.42732
# Shear Modulus (GPa) = 21.10468 33.91032 27.50750
#
# Velocity S-wave (km/s) = 3.11260 3.94547 3.55352
# Velocity P-wave (km/s) = 4.95726 6.79822 5.94938
#
# Compressibility (1/GPa) = 0.03938122
#
# Stress axis : x y z
#
# Youngs Moduli (GPa) = 72.55057 22.71194 74.72032
#
# Poissons Ratio (x) = 0.32129 0.25568
# Poissons Ratio (y) = 1.02631 -0.12406
# Poissons Ratio (z) = 0.24826 -0.03771
#
# Static dielectric constant tensor:
#      x y z
#    x 4.154690 0.571410 -0.044320 
#    y 0.571410 4.217750 0.316260 
#    z -0.044320 0.316260 4.496240 
# 
# 
# High freq. dielectric constant tensor:
#      x y z
#    x 1.852620 0.030480 -0.006160 
#    y 0.030480 1.834020 0.021740 
#    z -0.006160 0.021740 1.885410 
# 
# From -- ./inp_files/476665.got.cif
#   From: 2010.06.25/outbox.cif.g09.slc.cpg/sg2_239_cif.got.tgz:476665.got - 2010.06.27 13:26:56.
