data_PCOD8004361
_publ_section_title
;
Structure prediction by ZEFSAII (Michael W. Deem and Ramdas Pophale) SiO2 
 PCOD8004361
Probable space group: P -1
;
_chemical_formula_sum "Si O2"
_cell_formula_units_Z 16
_cell_length_a 13.702031
_cell_length_b 8.871579
_cell_length_c 13.472438
_cell_angle_alpha 96.367613
_cell_angle_beta 83.301563
_cell_angle_gamma 32.450030
_cell_volume 802.571110
_symmetry_space_group_name_H-M "P -1"
_symmetry_group_IT_number 2
_symmetry_cell_setting 'triclinic'
loop_
_space_group_symop_operation_xyz
x,y,z
-x,-y,-z
loop_
_atom_site_type_symbol
_atom_site_label
_atom_site_fract_x
_atom_site_fract_y
_atom_site_fract_z
Si Si1 0.597362 0.717085 0.505715
Si Si2 0.169717 0.763394 0.078875
Si Si3 0.049787 0.183898 0.004023
Si Si4 0.234714 0.020507 0.624431
Si Si5 0.814961 0.766139 0.155563
Si Si6 0.436192 0.192496 0.111306
Si Si7 0.110039 0.873190 0.682713
Si Si8 0.160712 0.559505 0.344875
O O1 0.773416 0.431312 0.390535
O O2 0.687386 0.629778 0.597156
O O3 0.500000 0.000000 0.500000
O O4 0.434288 0.800308 0.527275
O O5 0.362823 0.452303 0.094105
O O6 0.207109 0.874059 0.027184
O O7 0.974029 0.045186 0.191643
O O8 0.129825 0.686927 0.995223
O O9 0.986274 0.413195 0.093632
O O10 0.136202 0.134073 0.887979
O O11 0.212965 0.180555 0.720670
O O12 0.032293 0.290502 0.600353
O O13 0.255748 0.825872 0.658510
O O14 0.618160 0.971168 0.144328
O O15 0.264367 0.355800 0.216061
O O16 0.500000 0.000000 0.000000
O O17 0.924646 0.157625 0.650992
#
# Coordination Sequence:
#
# PCOD8004361 Si02
#       8
#     2   2   2   2   2   2   2   2
#     4  12  24  40  66  94 114 155 209 258 303 350
#     4  10  20  38  55  88 120 157 195 252 296 353
#     4  10  21  34  59  85 121 157 199 241 304 351
#     4  10  22  41  64  86 121 159 205 240 307 366
#     4  11  20  36  63  86 119 163 202 239 298 372
#     4  11  20  36  61  90 118 160 203 244 296 359
#     4   9  21  41  63  82 123 160 200 242 309 357
#     4   9  22  41  62  85 124 158 199 244 302 367
#
# _framework density 19.935927
#
# number of rings (size 3 to 8) (size 9 to 14) (size 15 to 20)
#    0.750    1.000    3.750    0.750    3.500    1.000 
#    0.000    0.000    2.750    0.000    0.000    0.000 
#    0.000    0.000    0.000    0.000    0.000    0.000 
#
# Total GULP energy -198213.845187 kJ/mol
# GULP energy per Si atom -12388.365324 kJ/mol
# Density = 1.989055 g / cm^3
# Si number density = 19.935927 Si / 1000 Ang^3
#
#
#
# Elastic Constant Matrix: (Units=GPa)
#
#
# Indices 1 2 3 4 5 6 
#
# 1 67.9976 32.9729 12.5223 -1.6173 0.2516 -0.2458
# 2 32.9729 101.6419 30.4815 2.0420 3.3693 7.2177
# 3 12.5223 30.4815 62.3149 17.1267 12.2877 16.4340
# 4 -1.6173 2.0420 17.1267 29.4100 1.9154 1.8917
# 5 0.2516 3.3693 12.2877 1.9154 24.0896 -2.0352
# 6 -0.2458 7.2177 16.4340 1.8917 -2.0352 35.3849
#
#
#
# Elastic Compliance Matrix: (Units=1/GPa)
#
#
# Indices 1 2 3 4 5 6 
#
# 1 0.017827 -0.005239 -0.002794 0.002685 0.001966 0.002460
# 2 -0.005239 0.013372 -0.006468 0.002453 0.001304 0.000184
# 3 -0.002794 -0.006468 0.030232 -0.015558 -0.014326 -0.012733
# 4 0.002685 0.002453 -0.015558 0.042435 0.004591 0.004739
# 5 0.001966 0.001304 -0.014326 0.004591 0.049009 0.008974
# 6 0.002460 0.000184 -0.012733 0.004739 0.008974 0.034417
#
#
# Mechanical properties :
#
#
# Convention : Reuss Voigt Hill
#
# Bulk Modulus (GPa) = 30.83716 42.65644 36.74680
# Shear Modulus (GPa) = 22.01639 28.17541 25.09590
#
# Velocity S-wave (km/s) = 3.32679 3.76346 3.55185
# Velocity P-wave (km/s) = 5.50077 6.35044 5.94081
#
# Compressibility (1/GPa) = 0.03242841
#
# Stress axis : x y z
#
# Youngs Moduli (GPa) = 56.09520 74.78207 33.07797
#
# Poissons Ratio (x) = 0.39178 0.09242
# Poissons Ratio (y) = 0.29388 0.21396
# Poissons Ratio (z) = 0.15672 0.48371
#
# Static dielectric constant tensor:
#      x y z
#    x -15.366770 -6.888240 -15.837560 
#    y -6.888240 1.097530 -5.683620 
#    z -15.837560 -5.683620 -9.643680 
# 
# 
# High freq. dielectric constant tensor:
#      x y z
#    x 1.754690 -0.001650 0.005030 
#    y -0.001650 1.771170 0.008340 
#    z 0.005030 0.008340 1.775530 
# 
# From -- ./inp_files/527553.got.cif
#   From: 2010.06.25/outbox.cif.g09.slc.cpg/sg2_264_cif.got.tgz:527553.got - 2010.06.27 13:26:56.
