data_PCOD8004547
_publ_section_title
;
Structure prediction by ZEFSAII (Michael W. Deem and Ramdas Pophale) SiO2 
 PCOD8004547
Probable space group: P -1
;
_chemical_formula_sum "Si O2"
_cell_formula_units_Z 14
_cell_length_a 7.841825
_cell_length_b 17.694670
_cell_length_c 20.920467
_cell_angle_alpha 19.021550
_cell_angle_beta 134.724014
_cell_angle_gamma 127.672145
_cell_volume 653.603620
_symmetry_space_group_name_H-M "P -1"
_symmetry_group_IT_number 2
_symmetry_cell_setting 'triclinic'
loop_
_space_group_symop_operation_xyz
x,y,z
-x,-y,-z
loop_
_atom_site_type_symbol
_atom_site_label
_atom_site_fract_x
_atom_site_fract_y
_atom_site_fract_z
Si Si1 0.352700 0.227674 0.315207
Si Si2 0.737269 0.374268 0.122888
Si Si3 0.960145 0.965475 0.436284
Si Si4 0.141890 0.652701 0.233905
Si Si5 0.864032 0.250452 0.475654
Si Si6 0.007680 0.152083 0.731174
Si Si7 0.680774 0.483608 0.474076
O O1 0.146668 0.133995 0.375370
O O2 0.565324 0.315422 0.340567
O O3 0.500000 0.000000 0.500000
O O4 0.205132 0.427373 0.067908
O O5 0.707853 0.141501 0.256935
O O6 0.951968 0.288097 0.301997
O O7 0.500000 0.500000 0.000000
O O8 0.982636 0.922903 0.400383
O O9 0.387387 0.519982 0.367122
O O10 0.201283 0.672578 0.308616
O O11 0.935623 0.503725 0.289806
O O12 0.041978 0.912295 0.971588
O O13 0.945990 0.108773 0.676115
O O14 0.251771 0.258027 0.713961
O O15 0.778589 0.344632 0.546560
#
# Coordination Sequence:
#
# PCOD8004547 Si02
#       7
#     2   2   2   2   2   2   2
#     4  10  20  39  60  80 117 156 192 238 288 341
#     4  11  20  39  64  81 105 158 203 242 287 343
#     4  10  23  40  59  84 115 158 201 238 290 344
#     4  10  20  38  60  84 119 149 186 239 285 336
#     4  10  22  38  52  92 121 143 197 239 283 348
#     4  10  20  38  62  83 118 150 186 236 288 341
#     4   9  20  39  61  87 108 151 199 223 281 360
#
# _framework density 21.419709000000001
#
# number of rings (size 3 to 8) (size 9 to 14) (size 15 to 20)
#    0.000    2.000    2.857    1.286    0.000    3.429 
#   10.286    0.000    0.000    0.000    0.000    0.000 
#    0.000    0.000    0.000    0.000    0.000    0.000 
#
# Total GULP energy -173439.998981 kJ/mol
# GULP energy per Si atom -12388.571356 kJ/mol
# Density = 2.137096 g / cm^3
# Si number density = 21.419709 Si / 1000 Ang^3
#
#
#
# Elastic Constant Matrix: (Units=GPa)
#
#
# Indices 1 2 3 4 5 6 
#
# 1 64.3937 27.0147 10.3085 -1.3323 5.3215 -3.8319
# 2 27.0147 82.9859 21.4312 -0.0249 3.8682 -4.3557
# 3 10.3085 21.4312 114.6101 -9.0434 -10.5840 4.0965
# 4 -1.3323 -0.0249 -9.0434 11.7210 -1.3565 3.5372
# 5 5.3215 3.8682 -10.5840 -1.3565 33.4636 -12.3530
# 6 -3.8319 -4.3557 4.0965 3.5372 -12.3530 49.7873
#
#
#
# Elastic Compliance Matrix: (Units=1/GPa)
#
#
# Indices 1 2 3 4 5 6 
#
# 1 0.018239 -0.005626 -0.000724 0.001140 -0.002316 0.000315
# 2 -0.005626 0.014680 -0.002648 -0.003099 -0.001420 0.000937
# 3 -0.000724 -0.002648 0.010336 0.008566 0.003735 -0.000820
# 4 0.001140 -0.003099 0.008566 0.094519 0.004305 -0.006535
# 5 -0.002316 -0.001420 0.003735 0.004305 0.034603 0.007670
# 6 0.000315 0.000937 -0.000820 -0.006535 0.007670 0.022626
#
#
# Mechanical properties :
#
#
# Convention : Reuss Voigt Hill
#
# Bulk Modulus (GPa) = 39.58904 42.16651 40.87777
# Shear Modulus (GPa) = 22.58167 32.54340 27.56253
#
# Velocity S-wave (km/s) = 3.25044 3.90207 3.59107
# Velocity P-wave (km/s) = 5.71050 6.32694 6.02661
#
# Compressibility (1/GPa) = 0.02525952
#
# Stress axis : x y z
#
# Youngs Moduli (GPa) = 54.82691 68.12037 96.75263
#
# Poissons Ratio (x) = 0.38322 0.07003
# Poissons Ratio (y) = 0.30844 0.25621
# Poissons Ratio (z) = 0.03969 0.18039
#
# Static dielectric constant tensor:
#      x y z
#    x 4.117900 0.180980 -0.102820 
#    y 0.180980 3.932000 0.040200 
#    z -0.102820 0.040200 3.943430 
# 
# 
# High freq. dielectric constant tensor:
#      x y z
#    x 1.859230 -0.019590 -0.009610 
#    y -0.019590 1.810520 -0.004570 
#    z -0.009610 -0.004570 1.843360 
# 
# From -- ./inp_files/590902.got.cif
#   From: 2010.06.25/outbox.cif.g09.slc.cpg/sg2_296_cif.got.tgz:590902.got - 2010.06.27 13:26:56.
