data_PCOD8004519
_publ_section_title
;
Structure prediction by ZEFSAII (Michael W. Deem and Ramdas Pophale) SiO2 
 PCOD8004519
Probable space group: P -1
;
_chemical_formula_sum "Si O2"
_cell_formula_units_Z 14
_cell_length_a 7.615703
_cell_length_b 8.144063
_cell_length_c 17.871345
_cell_angle_alpha 79.802287
_cell_angle_beta 64.397020
_cell_angle_gamma 124.052369
_cell_volume 685.697745
_symmetry_space_group_name_H-M "P -1"
_symmetry_group_IT_number 2
_symmetry_cell_setting 'triclinic'
loop_
_space_group_symop_operation_xyz
x,y,z
-x,-y,-z
loop_
_atom_site_type_symbol
_atom_site_label
_atom_site_fract_x
_atom_site_fract_y
_atom_site_fract_z
Si Si1 0.065596 0.299545 0.968346
Si Si2 0.203719 0.919297 0.313451
Si Si3 0.536894 0.182612 0.094564
Si Si4 0.019727 0.997630 0.119996
Si Si5 0.789818 0.917412 0.327675
Si Si6 0.717900 0.369923 0.465275
Si Si7 0.519761 0.079579 0.387399
O O1 0.778328 0.220876 0.009486
O O2 0.043803 0.191255 0.060293
O O3 0.328006 0.582425 0.902985
O O4 0.126133 0.216624 0.894254
O O5 0.039256 0.989715 0.323133
O O6 0.012092 0.643163 0.392293
O O7 0.369110 0.969725 0.203758
O O8 0.414539 0.088414 0.328025
O O9 0.329634 0.124449 0.073921
O O10 0.818471 0.886860 0.237860
O O11 0.501748 0.667202 0.436984
O O12 0.783745 0.115565 0.321681
O O13 0.609503 0.291157 0.405376
O O14 0.730997 0.183907 0.506105
#
# Coordination Sequence:
#
# PCOD8004519 Si02
#       7
#     2   2   2   2   2   2   2
#     4  10  21  39  59  80 110 147 180 232 277 319
#     4  11  20  35  59  82 109 150 178 221 279 323
#     4  10  22  37  57  85 111 141 187 225 273 327
#     4  10  20  38  60  81 110 143 185 225 276 325
#     4   9  20  36  55  85 111 140 184 226 265 327
#     4   9  20  39  54  81 117 142 183 225 265 326
#     4   9  20  38  54  78 116 146 180 224 267 319
#
# _framework density 20.417159000000002
#
# number of rings (size 3 to 8) (size 9 to 14) (size 15 to 20)
#    0.857    1.429    0.000    2.571    0.000    2.857 
#    0.000   12.857    0.000    0.000    0.000    0.000 
#    0.000    0.000    0.000    0.000    0.000    0.000 
#
# Total GULP energy -173505.063183 kJ/mol
# GULP energy per Si atom -12393.218799 kJ/mol
# Density = 2.037069 g / cm^3
# Si number density = 20.417159 Si / 1000 Ang^3
#
#
#
# Elastic Constant Matrix: (Units=GPa)
#
#
# Indices 1 2 3 4 5 6 
#
# 1 81.3307 20.8990 11.3718 8.4231 14.3746 5.6623
# 2 20.8990 54.9554 29.9476 11.5534 -0.3308 2.8902
# 3 11.3718 29.9476 63.2820 13.2993 -1.6634 -8.5369
# 4 8.4231 11.5534 13.2993 27.3510 4.4252 1.1408
# 5 14.3746 -0.3308 -1.6634 4.4252 17.6135 3.2005
# 6 5.6623 2.8902 -8.5369 1.1408 3.2005 20.1649
#
#
#
# Elastic Compliance Matrix: (Units=1/GPa)
#
#
# Indices 1 2 3 4 5 6 
#
# 1 0.016355 -0.005730 -0.000852 0.000014 -0.013168 -0.002043
# 2 -0.005730 0.028737 -0.012487 -0.005055 0.006870 -0.008601
# 3 -0.000852 -0.012487 0.025266 -0.007678 0.002455 0.012770
# 4 0.000014 -0.005055 -0.007678 0.044406 -0.011400 -0.003233
# 5 -0.013168 0.006870 0.002455 -0.011400 0.072025 -0.007034
# 6 -0.002043 -0.008601 0.012770 -0.003233 -0.007034 0.058103
#
#
# Mechanical properties :
#
#
# Convention : Reuss Voigt Hill
#
# Bulk Modulus (GPa) = 31.03702 36.00054 33.51878
# Shear Modulus (GPa) = 17.02017 22.18251 19.60134
#
# Velocity S-wave (km/s) = 2.89038 3.29973 3.10182
# Velocity P-wave (km/s) = 5.13552 5.67348 5.41119
#
# Compressibility (1/GPa) = 0.03221958
#
# Stress axis : x y z
#
# Youngs Moduli (GPa) = 61.14263 34.79848 39.57945
#
# Poissons Ratio (x) = 0.19940 0.03371
# Poissons Ratio (y) = 0.35036 0.49423
# Poissons Ratio (z) = 0.05208 0.43453
#
# Static dielectric constant tensor:
#      x y z
#    x 3.659900 0.013060 0.085190 
#    y 0.013060 3.389910 0.088310 
#    z 0.085190 0.088310 3.683490 
# 
# 
# High freq. dielectric constant tensor:
#      x y z
#    x 1.797890 0.003610 0.010180 
#    y 0.003610 1.775120 0.011320 
#    z 0.010180 0.011320 1.798380 
# 
# From -- ./inp_files/556221.got.cif
#   From: 2010.06.25/outbox.cif.g09.slc.cpg/sg2_279_cif.got.tgz:556221.got - 2010.06.27 13:26:56.
