data_PCOD8004234
_publ_section_title
;
Structure prediction by ZEFSAII (Michael W. Deem and Ramdas Pophale) SiO2 
 PCOD8004234
Probable space group: P -1
;
_chemical_formula_sum "Si O2"
_cell_formula_units_Z 16
_cell_length_a 8.859273
_cell_length_b 8.985437
_cell_length_c 14.676710
_cell_angle_alpha 40.769768
_cell_angle_beta 70.427049
_cell_angle_gamma 68.177149
_cell_volume 705.509641
_symmetry_space_group_name_H-M "P -1"
_symmetry_group_IT_number 2
_symmetry_cell_setting 'triclinic'
loop_
_space_group_symop_operation_xyz
x,y,z
-x,-y,-z
loop_
_atom_site_type_symbol
_atom_site_label
_atom_site_fract_x
_atom_site_fract_y
_atom_site_fract_z
Si Si1 0.679637 0.437466 0.719099
Si Si2 0.664892 0.008211 0.015444
Si Si3 0.170674 0.830763 0.530903
Si Si4 0.306818 0.473855 0.805388
Si Si5 0.672366 0.758730 0.736902
Si Si6 0.315990 0.465390 0.530484
Si Si7 0.170674 0.534167 0.991182
Si Si8 0.666344 0.069704 0.191472
O O1 0.487072 0.456873 0.739126
O O2 0.717932 0.633347 0.689159
O O3 0.743876 0.462827 0.592935
O O4 0.760213 0.184471 0.861384
O O5 0.616514 0.104941 0.080235
O O6 0.768006 0.744423 0.118668
O O7 0.500000 0.000000 0.000000
O O8 0.204298 0.716035 0.676992
O O9 0.184650 0.622421 0.550954
O O10 0.301261 0.979741 0.401817
O O11 0.000000 0.000000 0.500000
O O12 0.306053 0.453933 0.923501
O O13 0.482241 0.783842 0.787694
O O14 0.787458 0.623409 0.854882
O O15 0.500000 0.500000 0.500000
O O16 0.295348 0.199997 0.666386
O O17 0.177290 0.805525 0.883678
O O18 0.000000 0.500000 0.000000
#
# Coordination Sequence:
#
# PCOD8004234 Si02
#       8
#     2   2   2   2   2   2   2   2
#     4  11  22  39  70 112 137 177 243 309 347 417
#     4  10  20  37  66 104 143 174 235 312 354 407
#     4  12  27  46  69 103 152 190 230 295 375 441
#     4  11  22  42  69 100 143 187 240 294 364 419
#     4  12  24  43  72 106 143 187 247 302 359 430
#     4  12  23  44  74 111 141 186 245 301 360 431
#     4  12  27  45  67 105 152 198 238 299 375 433
#     4  12  22  43  75 106 141 190 253 302 344 437
#
# _framework density 22.678640000000001
#
# number of rings (size 3 to 8) (size 9 to 14) (size 15 to 20)
#    0.000    0.500    6.250    3.375    3.500    1.000 
#    0.000    2.500    0.000    0.000    0.000    0.000 
#    0.000    0.000    0.000    0.000    0.000    0.000 
#
# Total GULP energy -198317.773975 kJ/mol
# GULP energy per Si atom -12394.860873 kJ/mol
# Density = 2.262702 g / cm^3
# Si number density = 22.678640 Si / 1000 Ang^3
#
#
#
# Elastic Constant Matrix: (Units=GPa)
#
#
# Indices 1 2 3 4 5 6 
#
# 1 72.3881 35.4411 39.6233 -11.6732 -1.8339 8.1124
# 2 35.4411 118.5557 45.6807 -0.3515 2.9688 16.1674
# 3 39.6233 45.6807 159.2733 -14.9886 8.5594 13.8390
# 4 -11.6732 -0.3515 -14.9886 55.4608 10.8801 3.9189
# 5 -1.8339 2.9688 8.5594 10.8801 29.8805 -6.5600
# 6 8.1124 16.1674 13.8390 3.9189 -6.5600 34.8935
#
#
#
# Elastic Compliance Matrix: (Units=1/GPa)
#
#
# Indices 1 2 3 4 5 6 
#
# 1 0.018092 -0.004100 -0.003008 0.002846 0.001073 -0.001232
# 2 -0.004100 0.010862 -0.001791 -0.000771 -0.001312 -0.003529
# 3 -0.003008 -0.001791 0.008227 0.002537 -0.003891 -0.002750
# 4 0.002846 -0.000771 0.002537 0.021573 -0.009544 -0.005527
# 5 0.001073 -0.001312 -0.003891 -0.009544 0.040580 0.010603
# 6 -0.001232 -0.003529 -0.002750 -0.005527 0.010603 0.034285
#
#
# Mechanical properties :
#
#
# Convention : Reuss Voigt Hill
#
# Bulk Modulus (GPa) = 51.58776 65.74525 58.66651
# Shear Modulus (GPa) = 31.66969 39.34510 35.50739
#
# Velocity S-wave (km/s) = 3.74097 4.16973 3.96115
# Velocity P-wave (km/s) = 6.43867 7.22738 6.84440
#
# Compressibility (1/GPa) = 0.01938444
#
# Stress axis : x y z
#
# Youngs Moduli (GPa) = 55.27207 92.06042 121.54806
#
# Poissons Ratio (x) = 0.37745 0.36560
# Poissons Ratio (y) = 0.22662 0.21767
# Poissons Ratio (z) = 0.16625 0.16487
#
# Static dielectric constant tensor:
#      x y z
#    x 3.558680 0.349100 -0.318460 
#    y 0.349100 4.278940 0.253870 
#    z -0.318460 0.253870 3.109170 
# 
# 
# High freq. dielectric constant tensor:
#      x y z
#    x 1.850760 0.022250 0.002620 
#    y 0.022250 1.906490 -0.005220 
#    z 0.002620 -0.005220 1.922220 
# 
# From -- ./inp_files/320694.got.cif
#   From: 2010.06.25/outbox.cif.g09.slc.cpg/sg2_161_cif.got.tgz:320694.got - 2010.06.27 13:26:56.
