data_PCOD8004346
_publ_section_title
;
Structure prediction by ZEFSAII (Michael W. Deem and Ramdas Pophale) SiO2 
 PCOD8004346
Probable space group: P -1
;
_chemical_formula_sum "Si O2"
_cell_formula_units_Z 14
_cell_length_a 11.476211
_cell_length_b 20.706272
_cell_length_c 19.590290
_cell_angle_alpha 157.299105
_cell_angle_beta 158.027867
_cell_angle_gamma 34.742295
_cell_volume 653.512126
_symmetry_space_group_name_H-M "P -1"
_symmetry_group_IT_number 2
_symmetry_cell_setting 'triclinic'
loop_
_space_group_symop_operation_xyz
x,y,z
-x,-y,-z
loop_
_atom_site_type_symbol
_atom_site_label
_atom_site_fract_x
_atom_site_fract_y
_atom_site_fract_z
Si Si1 0.122861 0.308411 0.447053
Si Si2 0.468212 0.568201 0.786995
Si Si3 0.816753 0.045486 0.879043
Si Si4 0.726514 0.651998 0.660780
Si Si5 0.281713 0.848899 0.689666
Si Si6 0.153219 0.115218 0.633603
Si Si7 0.131258 0.437071 0.722769
O O1 0.395809 0.402068 0.634528
O O2 0.113851 0.423579 0.619236
O O3 0.785445 0.306811 0.223637
O O4 0.194098 0.130417 0.340573
O O5 0.484652 0.496923 0.649148
O O6 0.786260 0.691719 0.112759
O O7 0.465455 0.066223 0.724717
O O8 0.022105 0.209976 0.112442
O O9 0.000000 0.000000 0.000000
O O10 0.491547 0.735852 0.657605
O O11 0.919545 0.578326 0.754131
O O12 0.099756 0.921289 0.601022
O O13 0.017466 0.734867 0.484384
O O14 0.500000 0.000000 0.000000
O O15 0.000000 0.000000 0.500000
O O16 0.500000 0.500000 0.000000
#
# Coordination Sequence:
#
# PCOD8004346 Si02
#       7
#     2   2   2   2   2   2   2
#     4  10  20  37  71  97 131 174 221 284 338 403
#     4  10  20  40  66 101 131 169 231 282 339 398
#     4  12  20  40  68 103 135 173 228 283 351 401
#     4  11  24  42  74  97 135 187 229 282 350 411
#     4  12  28  48  67 100 148 187 230 285 349 416
#     4  12  27  43  67 103 142 179 233 288 343 415
#     4  11  24  45  69  97 137 184 236 282 342 420
#
# _framework density 21.422706999999999
#
# number of rings (size 3 to 8) (size 9 to 14) (size 15 to 20)
#    0.000    0.857    2.857    5.571    4.000    1.714 
#    2.571    2.857    0.000    0.000    0.000    0.000 
#    0.000    0.000    0.000    0.000    0.000    0.000 
#
# Total GULP energy -173482.896348 kJ/mol
# GULP energy per Si atom -12391.635453 kJ/mol
# Density = 2.137395 g / cm^3
# Si number density = 21.422707 Si / 1000 Ang^3
#
#
#
# Elastic Constant Matrix: (Units=GPa)
#
#
# Indices 1 2 3 4 5 6 
#
# 1 88.1360 32.4066 49.9267 -10.0898 -9.2874 5.4946
# 2 32.4066 113.4437 47.4632 -8.4108 -16.4897 4.9213
# 3 49.9267 47.4632 140.7564 -2.6718 -8.2896 5.8966
# 4 -10.0898 -8.4108 -2.6718 36.8935 3.5395 -0.1692
# 5 -9.2874 -16.4897 -8.2896 3.5395 27.0617 3.5849
# 6 5.4946 4.9213 5.8966 -0.1692 3.5849 45.8534
#
#
#
# Elastic Compliance Matrix: (Units=1/GPa)
#
#
# Indices 1 2 3 4 5 6 
#
# 1 0.015299 -0.001810 -0.004557 0.003196 0.002497 -0.001236
# 2 -0.001810 0.011458 -0.002829 0.001384 0.005454 -0.001070
# 3 -0.004557 -0.002829 0.009661 -0.001182 -0.000122 -0.000388
# 4 0.003196 0.001384 -0.001182 0.028412 -0.002124 -0.000109
# 5 0.002497 0.005454 -0.000122 -0.002124 0.041924 -0.004154
# 6 -0.001236 -0.001070 -0.000388 -0.000109 -0.004154 0.022446
#
#
# Mechanical properties :
#
#
# Convention : Reuss Voigt Hill
#
# Bulk Modulus (GPa) = 55.47563 66.88104 61.17833
# Shear Modulus (GPa) = 32.55191 36.13101 34.34146
#
# Velocity S-wave (km/s) = 3.90231 4.11125 4.00814
# Velocity P-wave (km/s) = 6.80117 7.33648 7.07389
#
# Compressibility (1/GPa) = 0.01802593
#
# Stress axis : x y z
#
# Youngs Moduli (GPa) = 65.36331 87.27833 103.50585
#
# Poissons Ratio (x) = 0.15800 0.47164
# Poissons Ratio (y) = 0.11833 0.29282
# Poissons Ratio (z) = 0.29784 0.24691
#
# Static dielectric constant tensor:
#      x y z
#    x 3.907280 -0.325370 -0.431990 
#    y -0.325370 2.387990 -1.029860 
#    z -0.431990 -1.029860 3.067620 
# 
# 
# High freq. dielectric constant tensor:
#      x y z
#    x 1.845300 0.001120 -0.004170 
#    y 0.001120 1.848120 0.008850 
#    z -0.004170 0.008850 1.841650 
# 
# From -- ./inp_files/242899.got.cif
#   From: 2010.06.25/outbox.cif.g09.slc.cpg/sg2_122_cif.got.tgz:242899.got - 2010.06.27 13:26:56.
