data_PCOD8004589
_publ_section_title
;
Structure prediction by ZEFSAII (Michael W. Deem and Ramdas Pophale) SiO2 
 PCOD8004589
Probable space group: P -1
;
_chemical_formula_sum "Si O2"
_cell_formula_units_Z 16
_cell_length_a 29.835451
_cell_length_b 15.092165
_cell_length_c 9.155390
_cell_angle_alpha 137.863045
_cell_angle_beta 145.836255
_cell_angle_gamma 19.863152
_cell_volume 771.929518
_symmetry_space_group_name_H-M "P -1"
_symmetry_group_IT_number 2
_symmetry_cell_setting 'triclinic'
loop_
_space_group_symop_operation_xyz
x,y,z
-x,-y,-z
loop_
_atom_site_type_symbol
_atom_site_label
_atom_site_fract_x
_atom_site_fract_y
_atom_site_fract_z
Si Si1 0.426335 0.963012 0.285859
Si Si2 0.912737 0.297543 0.059066
Si Si3 0.682810 0.514825 0.231966
Si Si4 0.811660 0.054853 0.094077
Si Si5 0.164732 0.882190 0.448313
Si Si6 0.122941 0.545006 0.149831
Si Si7 0.615552 0.710916 0.971890
Si Si8 0.493967 0.690446 0.403365
O O1 0.232855 0.256338 0.119114
O O2 0.500000 0.000000 0.500000
O O3 0.504142 0.756769 0.118601
O O4 0.476312 0.838375 0.426106
O O5 0.908553 0.159035 0.805881
O O6 0.902131 0.415835 0.043768
O O7 0.768524 0.524726 0.059686
O O8 0.077756 0.088374 0.336435
O O9 0.761596 0.257168 0.115167
O O10 0.792435 0.443764 0.549189
O O11 0.672645 0.602281 0.157168
O O12 0.876873 0.997726 0.359998
O O13 0.662118 0.173331 0.848177
O O14 0.951484 0.774811 0.046053
O O15 0.355931 0.614596 0.614142
O O16 0.526814 0.706242 0.669853
O O17 0.500000 0.000000 0.000000
#
# Coordination Sequence:
#
# PCOD8004589 Si02
#       8
#     2   2   2   2   2   2   2   2
#     4  10  20  41  64  87 118 163 209 256 301 367
#     4  10  21  37  63  91 120 156 202 266 301 346
#     4  11  21  37  66  91 120 162 216 257 298 368
#     4  12  24  38  61  94 128 164 202 256 313 377
#     4  10  20  38  60  89 121 158 203 251 312 357
#     4  11  22  38  62  94 125 159 214 255 304 361
#     4  11  22  40  65  91 121 160 213 261 308 365
#     4  11  24  41  61  90 128 164 202 253 323 368
#
# _framework density 20.72728
#
# number of rings (size 3 to 8) (size 9 to 14) (size 15 to 20)
#    0.000    1.250    2.500    6.000    5.250    1.000 
#    0.000    0.000    0.000    2.250    0.000    0.000 
#    0.000    0.000    0.000    0.000    0.000    0.000 
#
# Total GULP energy -198409.037943 kJ/mol
# GULP energy per Si atom -12400.564871 kJ/mol
# Density = 2.068010 g / cm^3
# Si number density = 20.727280 Si / 1000 Ang^3
#
#
#
# Elastic Constant Matrix: (Units=GPa)
#
#
# Indices 1 2 3 4 5 6 
#
# 1 99.3859 42.3566 55.2593 -19.6412 -21.1480 -8.4913
# 2 42.3566 113.7534 42.4169 -31.5189 -12.6122 -18.5493
# 3 55.2593 42.4169 72.3198 -27.8283 -14.0433 -1.9280
# 4 -19.6412 -31.5189 -27.8283 28.9875 2.3284 -2.3267
# 5 -21.1480 -12.6122 -14.0433 2.3284 38.6188 -5.4681
# 6 -8.4913 -18.5493 -1.9280 -2.3267 -5.4681 32.5868
#
#
#
# Elastic Compliance Matrix: (Units=1/GPa)
#
#
# Indices 1 2 3 4 5 6 
#
# 1 0.019404 -0.001100 -0.013173 -0.000820 0.006181 0.004629
# 2 -0.001100 0.016645 -0.001263 0.016637 0.004947 0.011131
# 3 -0.013173 -0.001263 0.033624 0.021712 0.003283 -0.000061
# 4 -0.000820 0.016637 0.021712 0.073411 0.010949 0.017620
# 5 0.006181 0.004947 0.003283 0.010949 0.032977 0.010936
# 6 0.004629 0.011131 -0.000061 0.017620 0.010936 0.041319
#
#
# Mechanical properties :
#
#
# Convention : Reuss Voigt Hill
#
# Bulk Modulus (GPa) = 25.90562 62.83610 44.37086
# Shear Modulus (GPa) = 19.13375 29.73369 24.43372
#
# Velocity S-wave (km/s) = 3.04158 3.79161 3.43712
# Velocity P-wave (km/s) = 4.98602 7.03917 6.09960
#
# Compressibility (1/GPa) = 0.03860166
#
# Stress axis : x y z
#
# Youngs Moduli (GPa) = 51.53708 60.07865 29.74051
#
# Poissons Ratio (x) = 0.06609 0.39176
# Poissons Ratio (y) = 0.05669 0.03755
# Poissons Ratio (z) = 0.67888 0.07586
#
# Static dielectric constant tensor:
#      x y z
#    x 3.621650 -0.167190 -0.306190 
#    y -0.167190 4.387790 -0.241100 
#    z -0.306190 -0.241100 3.660500 
# 
# 
# High freq. dielectric constant tensor:
#      x y z
#    x 1.801750 -0.010500 -0.027000 
#    y -0.010500 1.826430 -0.020150 
#    z -0.027000 -0.020150 1.791100 
# 
# From -- ./inp_files/358872.got.cif
#   From: 2010.06.25/outbox.cif.g09.slc.cpg/sg2_180_cif.got.tgz:358872.got - 2010.06.27 13:26:56.
