data_PCOD8004550
_publ_section_title
;
Structure prediction by ZEFSAII (Michael W. Deem and Ramdas Pophale) SiO2 
 PCOD8004550
Probable space group: P -1
;
_chemical_formula_sum "Si O2"
_cell_formula_units_Z 14
_cell_length_a 5.418509
_cell_length_b 15.557194
_cell_length_c 15.198054
_cell_angle_alpha 149.438866
_cell_angle_beta 102.702550
_cell_angle_gamma 75.167545
_cell_volume 629.702552
_symmetry_space_group_name_H-M "P -1"
_symmetry_group_IT_number 2
_symmetry_cell_setting 'triclinic'
loop_
_space_group_symop_operation_xyz
x,y,z
-x,-y,-z
loop_
_atom_site_type_symbol
_atom_site_label
_atom_site_fract_x
_atom_site_fract_y
_atom_site_fract_z
Si Si1 0.372825 0.899147 0.705360
Si Si2 0.563420 0.414888 0.022627
Si Si3 0.083824 0.657066 0.556155
Si Si4 0.206786 0.121531 0.146631
Si Si5 0.350116 0.350544 0.222370
Si Si6 0.873793 0.742439 0.051171
Si Si7 0.632842 0.586034 0.351571
O O1 0.205571 0.832085 0.710275
O O2 0.624430 0.953103 0.821792
O O3 0.423379 0.743033 0.502747
O O4 0.217759 0.056525 0.782065
O O5 0.319113 0.327354 0.956352
O O6 0.830145 0.286917 0.921720
O O7 0.500000 0.500000 0.000000
O O8 0.607922 0.563099 0.225367
O O9 0.288581 0.489256 0.417882
O O10 0.940128 0.690116 0.667729
O O11 0.904020 0.638018 0.441750
O O12 0.379153 0.166941 0.114918
O O13 0.000000 0.000000 0.000000
O O14 0.597990 0.406266 0.241551
O O15 0.139624 0.342111 0.121474
#
# Coordination Sequence:
#
# PCOD8004550 Si02
#       7
#     2   2   2   2   2   2   2
#     4  10  24  40  61  95 132 177 213 269 323 385
#     4  11  24  46  73 100 126 166 219 274 331 407
#     4  10  20  38  60  84 129 173 222 263 317 379
#     4  11  24  36  58  91 132 172 226 270 309 372
#     4  10  21  37  59  90 125 177 221 264 314 379
#     4  11  24  42  70  97 135 168 215 270 339 389
#     4   9  21  41  65  90 128 173 213 268 328 391
#
# _framework density 22.23272
#
# number of rings (size 3 to 8) (size 9 to 14) (size 15 to 20)
#    0.000    1.714    1.429    1.714    6.000    8.571 
#    0.000    1.429    0.000    0.000    0.000    0.000 
#    0.000    0.000    0.000    0.000    0.000    0.000 
#
# Total GULP energy -173445.723951 kJ/mol
# GULP energy per Si atom -12388.980282 kJ/mol
# Density = 2.218212 g / cm^3
# Si number density = 22.232720 Si / 1000 Ang^3
#
#
#
# Elastic Constant Matrix: (Units=GPa)
#
#
# Indices 1 2 3 4 5 6 
#
# 1 99.5871 44.5632 29.3472 -2.3721 11.0433 0.6911
# 2 44.5632 134.8562 45.0550 -2.7180 5.5785 5.1070
# 3 29.3472 45.0550 89.5958 0.0394 13.5344 10.2233
# 4 -2.3721 -2.7180 0.0394 30.5314 0.6977 1.1520
# 5 11.0433 5.5785 13.5344 0.6977 27.3147 -3.5026
# 6 0.6911 5.1070 10.2233 1.1520 -3.5026 31.2177
#
#
#
# Elastic Compliance Matrix: (Units=1/GPa)
#
#
# Indices 1 2 3 4 5 6 
#
# 1 0.012501 -0.003340 -0.001968 0.000734 -0.003350 0.000511
# 2 -0.003340 0.009829 -0.004038 0.000594 0.001318 -0.000086
# 3 -0.001968 -0.004038 0.015425 -0.000188 -0.006670 -0.005089
# 4 0.000734 0.000594 -0.000188 0.032948 -0.001348 -0.001419
# 5 -0.003350 0.001318 -0.006670 -0.001348 0.041907 0.006795
# 6 0.000511 -0.000086 -0.005089 -0.001419 0.006795 0.034517
#
#
# Mechanical properties :
#
#
# Convention : Reuss Voigt Hill
#
# Bulk Modulus (GPa) = 52.45658 62.44109 57.44883
# Shear Modulus (GPa) = 29.04071 31.48434 30.26252
#
# Velocity S-wave (km/s) = 3.61808 3.76723 3.69341
# Velocity P-wave (km/s) = 6.41089 6.86068 6.63959
#
# Compressibility (1/GPa) = 0.01906339
#
# Stress axis : x y z
#
# Youngs Moduli (GPa) = 79.99221 101.74274 64.83013
#
# Poissons Ratio (x) = 0.33977 0.12759
# Poissons Ratio (y) = 0.26713 0.26180
# Poissons Ratio (z) = 0.15742 0.41086
#
# Static dielectric constant tensor:
#      x y z
#    x 4.302800 0.149390 -0.070350 
#    y 0.149390 3.586470 0.001250 
#    z -0.070350 0.001250 4.138740 
# 
# 
# High freq. dielectric constant tensor:
#      x y z
#    x 1.892550 0.007060 -0.000190 
#    y 0.007060 1.833770 0.004260 
#    z -0.000190 0.004260 1.885020 
# 
# From -- ./inp_files/34549.got.cif
#   From: 2010.06.25/outbox.cif.g09.slc.cpg/sg2_18_cif.got.tgz:34549.got - 2010.06.27 13:26:56.
