data_PCOD8004603
_publ_section_title
;
Structure prediction by ZEFSAII (Michael W. Deem and Ramdas Pophale) SiO2 
 PCOD8004603
Probable space group: P -1
;
_chemical_formula_sum "Si O2"
_cell_formula_units_Z 16
_cell_length_a 17.489461
_cell_length_b 22.982355
_cell_length_c 11.048075
_cell_angle_alpha 30.096478
_cell_angle_beta 148.088594
_cell_angle_gamma 158.112373
_cell_volume 804.561827
_symmetry_space_group_name_H-M "P -1"
_symmetry_group_IT_number 2
_symmetry_cell_setting 'triclinic'
loop_
_space_group_symop_operation_xyz
x,y,z
-x,-y,-z
loop_
_atom_site_type_symbol
_atom_site_label
_atom_site_fract_x
_atom_site_fract_y
_atom_site_fract_z
Si Si1 0.866473 0.978633 0.044750
Si Si2 0.502838 0.089721 0.235827
Si Si3 0.548592 0.487195 0.956320
Si Si4 0.182819 0.775651 0.220617
Si Si5 0.855270 0.481660 0.481277
Si Si6 0.108686 0.219125 0.717076
Si Si7 0.979215 0.390343 0.267425
Si Si8 0.924157 0.842239 0.753454
O O1 0.886993 0.853255 0.270784
O O2 0.635349 0.878819 0.965105
O O3 0.034504 0.116003 0.123616
O O4 0.924175 0.075109 0.822584
O O5 0.739203 0.264616 0.212121
O O6 0.500000 0.000000 0.500000
O O7 0.405850 0.965210 0.213811
O O8 0.338372 0.335077 0.875041
O O9 0.675520 0.662738 0.736272
O O10 0.500000 0.500000 0.000000
O O11 0.684313 0.450154 0.227166
O O12 0.200157 0.687379 0.300351
O O13 0.082828 0.653793 0.424093
O O14 0.043828 0.800077 0.937819
O O15 0.861516 0.509533 0.583342
O O16 0.046677 0.312651 0.428893
O O17 0.000000 0.500000 0.000000
O O18 0.000000 0.000000 0.500000
#
# Coordination Sequence:
#
# PCOD8004603 Si02
#       8
#     2   2   2   2   2   2   2   2
#     4  10  22  38  63  90 118 155 201 252 285 354
#     4  11  20  39  62  85 116 157 201 234 293 355
#     4  11  20  37  63  82 113 157 194 243 287 347
#     4   9  20  36  63  88 110 150 204 248 277 351
#     4  10  20  38  60  90 115 149 203 242 294 344
#     4  11  22  39  61  95 119 151 207 245 299 347
#     4  12  25  40  59  89 130 157 188 250 304 354
#     4  10  21  39  59  86 121 155 192 243 299 348
#
# _framework density 19.886600999999999
#
# number of rings (size 3 to 8) (size 9 to 14) (size 15 to 20)
#    0.000    1.500    5.000    0.750    1.750    4.000 
#    0.000    1.875    0.000    0.000    0.000    0.000 
#    0.000    0.000    0.000    0.000    0.000    0.000 
#
# Total GULP energy -198282.523635 kJ/mol
# GULP energy per Si atom -12392.657727 kJ/mol
# Density = 1.984134 g / cm^3
# Si number density = 19.886601 Si / 1000 Ang^3
#
#
#
# Elastic Constant Matrix: (Units=GPa)
#
#
# Indices 1 2 3 4 5 6 
#
# 1 70.5074 31.6176 39.0875 -11.6097 28.4687 -3.5339
# 2 31.6176 85.5374 34.0660 1.4390 15.0681 14.0419
# 3 39.0875 34.0660 114.7161 -21.8406 19.2241 5.8155
# 4 -11.6097 1.4390 -21.8406 31.1680 -2.0362 3.0339
# 5 28.4687 15.0681 19.2241 -2.0362 36.5856 -10.9593
# 6 -3.5339 14.0419 5.8155 3.0339 -10.9593 25.0063
#
#
#
# Elastic Compliance Matrix: (Units=1/GPa)
#
#
# Indices 1 2 3 4 5 6 
#
# 1 0.026004 -0.005588 -0.003259 0.006641 -0.015914 -0.000209
# 2 -0.005588 0.017806 -0.002597 -0.003902 -0.005464 -0.012106
# 3 -0.003259 -0.002597 0.013164 0.008332 -0.004338 -0.004976
# 4 0.006641 -0.003902 0.008332 0.040765 -0.007821 -0.007181
# 5 -0.015914 -0.005464 -0.004338 -0.007821 0.051389 0.025299
# 6 -0.000209 -0.012106 -0.004976 -0.007181 0.025299 0.059874
#
#
# Mechanical properties :
#
#
# Convention : Reuss Voigt Hill
#
# Bulk Modulus (GPa) = 29.33767 53.36702 41.35234
# Shear Modulus (GPa) = 20.55468 29.61797 25.08633
#
# Velocity S-wave (km/s) = 3.21844 3.86339 3.55557
# Velocity P-wave (km/s) = 5.34749 6.84068 6.13965
#
# Compressibility (1/GPa) = 0.03408587
#
# Stress axis : x y z
#
# Youngs Moduli (GPa) = 38.45550 56.16033 75.96194
#
# Poissons Ratio (x) = 0.31382 0.24757
# Poissons Ratio (y) = 0.21489 0.19729
# Poissons Ratio (z) = 0.12533 0.14586
#
# Static dielectric constant tensor:
#      x y z
#    x 3.444330 -0.072900 0.299720 
#    y -0.072900 3.303420 -0.239510 
#    z 0.299720 -0.239510 3.366300 
# 
# 
# High freq. dielectric constant tensor:
#      x y z
#    x 1.763760 -0.005910 0.024170 
#    y -0.005910 1.778040 0.000930 
#    z 0.024170 0.000930 1.765350 
# 
# From -- ./inp_files/333723.got.cif
#   From: 2010.06.25/outbox.cif.g09.slc.cpg/sg2_167_cif.got.tgz:333723.got - 2010.06.27 13:26:56.
