data_PCOD8004405
_publ_section_title
;
Structure prediction by ZEFSAII (Michael W. Deem and Ramdas Pophale) SiO2 
 PCOD8004405
Probable space group: P -1
;
_chemical_formula_sum "Si O2"
_cell_formula_units_Z 16
_cell_length_a 14.414864
_cell_length_b 8.857777
_cell_length_c 11.877084
_cell_angle_alpha 78.082730
_cell_angle_beta 139.812688
_cell_angle_gamma 120.172975
_cell_volume 802.050344
_symmetry_space_group_name_H-M "P -1"
_symmetry_group_IT_number 2
_symmetry_cell_setting 'triclinic'
loop_
_space_group_symop_operation_xyz
x,y,z
-x,-y,-z
loop_
_atom_site_type_symbol
_atom_site_label
_atom_site_fract_x
_atom_site_fract_y
_atom_site_fract_z
Si Si1 0.484815 0.479858 0.760496
Si Si2 0.598806 0.290409 0.226926
Si Si3 0.832276 0.328971 0.816821
Si Si4 0.248858 0.602013 0.888505
Si Si5 0.509176 0.343618 0.473650
Si Si6 0.334276 0.124682 0.547023
Si Si7 0.347427 0.894417 0.105433
Si Si8 0.881523 0.272505 0.622044
O O1 0.413731 0.530437 0.795386
O O2 0.538968 0.654443 0.701246
O O3 0.335437 0.287670 0.591846
O O4 0.649287 0.473450 0.941114
O O5 0.657057 0.292497 0.153921
O O6 0.733893 0.301778 0.439468
O O7 0.409568 0.102420 0.097205
O O8 0.698937 0.385932 0.655905
O O9 0.746808 0.158988 0.852564
O O10 0.885502 0.272666 0.761328
O O11 0.000000 0.500000 0.000000
O O12 0.061283 0.428045 0.711911
O O13 0.225766 0.741869 0.922546
O O14 0.500000 0.500000 0.500000
O O15 0.370599 0.159131 0.440692
O O16 0.483268 0.110068 0.740822
O O17 0.157158 0.925755 0.425752
#
# Coordination Sequence:
#
# PCOD8004405 Si02
#       8
#     2   2   2   2   2   2   2   2
#     4  10  20  38  58  82 111 155 197 229 277 339
#     4  11  22  38  62  84 109 154 202 233 270 344
#     4  11  20  35  60  90 117 142 185 243 288 335
#     4  11  22  40  56  84 120 152 188 238 285 329
#     4   9  18  34  57  80 113 151 185 221 287 339
#     4   8  19  35  57  81 116 152 182 229 290 347
#     4   9  20  36  60  85 112 149 190 234 285 336
#     4  11  22  37  59  87 117 148 188 237 293 336
#
# _framework density 19.948872000000001
#
# number of rings (size 3 to 8) (size 9 to 14) (size 15 to 20)
#    0.000    2.000    2.500    1.875    1.750    1.500 
#    0.000    5.000    0.000    0.000    0.000    0.000 
#    0.000    0.000    0.000    0.000    0.000    0.000 
#
# Total GULP energy -198295.948444 kJ/mol
# GULP energy per Si atom -12393.496778 kJ/mol
# Density = 1.990347 g / cm^3
# Si number density = 19.948872 Si / 1000 Ang^3
#
#
#
# Elastic Constant Matrix: (Units=GPa)
#
#
# Indices 1 2 3 4 5 6 
#
# 1 62.9231 28.5195 8.6223 2.5587 -9.0784 3.5383
# 2 28.5195 99.9867 36.2709 22.2637 4.2489 4.1874
# 3 8.6223 36.2709 67.9513 11.8780 -1.5241 6.9538
# 4 2.5587 22.2637 11.8780 25.9280 5.0283 -0.9129
# 5 -9.0784 4.2489 -1.5241 5.0283 27.0742 2.5152
# 6 3.5383 4.1874 6.9538 -0.9129 2.5152 35.4381
#
#
#
# Elastic Compliance Matrix: (Units=1/GPa)
#
#
# Indices 1 2 3 4 5 6 
#
# 1 0.019928 -0.006724 0.001124 0.001741 0.007655 -0.001914
# 2 -0.006724 0.016592 -0.006315 -0.010045 -0.003342 -0.000072
# 3 0.001124 -0.006315 0.019126 -0.004263 0.003560 -0.003481
# 4 0.001741 -0.010045 -0.004263 0.050623 -0.007827 0.003709
# 5 0.007655 -0.003342 0.003560 -0.007827 0.042076 -0.004256
# 6 -0.001914 -0.000072 -0.003481 0.003709 -0.004256 0.029499
#
#
# Mechanical properties :
#
#
# Convention : Reuss Voigt Hill
#
# Bulk Modulus (GPa) = 31.43198 41.96516 36.69857
# Shear Modulus (GPa) = 23.55394 28.18462 25.86928
#
# Velocity S-wave (km/s) = 3.43988 3.76286 3.60499
# Velocity P-wave (km/s) = 5.61850 6.32146 5.98032
#
# Compressibility (1/GPa) = 0.03181473
#
# Stress axis : x y z
#
# Youngs Moduli (GPa) = 50.18184 60.27079 52.28516
#
# Poissons Ratio (x) = 0.40529 -0.05877
# Poissons Ratio (y) = 0.33745 0.33017
# Poissons Ratio (z) = -0.05641 0.38060
#
# Static dielectric constant tensor:
#      x y z
#    x 3.515350 0.211580 -0.173820 
#    y 0.211580 4.031980 0.049530 
#    z -0.173820 0.049530 3.451320 
# 
# 
# High freq. dielectric constant tensor:
#      x y z
#    x 1.766400 0.003590 -0.024430 
#    y 0.003590 1.780310 0.004620 
#    z -0.024430 0.004620 1.761250 
# 
# From -- ./inp_files/176685.got.cif
#   From: 2010.06.25/outbox.cif.g09.slc.cpg/sg2_89_cif.got.tgz:176685.got - 2010.06.27 13:26:56.
