data_PCOD8004122
_publ_section_title
;
Structure prediction by ZEFSAII (Michael W. Deem and Ramdas Pophale) SiO2 
 PCOD8004122
Probable space group: P -1
;
_chemical_formula_sum "Si O2"
_cell_formula_units_Z 16
_cell_length_a 9.479273
_cell_length_b 10.197600
_cell_length_c 16.592495
_cell_angle_alpha 73.792431
_cell_angle_beta 149.525853
_cell_angle_gamma 104.209433
_cell_volume 781.063023
_symmetry_space_group_name_H-M "P -1"
_symmetry_group_IT_number 2
_symmetry_cell_setting 'triclinic'
loop_
_space_group_symop_operation_xyz
x,y,z
-x,-y,-z
loop_
_atom_site_type_symbol
_atom_site_label
_atom_site_fract_x
_atom_site_fract_y
_atom_site_fract_z
Si Si1 0.112373 0.426561 0.145730
Si Si2 0.683647 0.956860 0.365609
Si Si3 0.309622 0.281094 0.468743
Si Si4 0.766809 0.049244 0.989428
Si Si5 0.681928 0.803374 0.811604
Si Si6 0.679852 0.749907 0.998312
Si Si7 0.820202 0.222093 0.135128
Si Si8 0.157610 0.566273 0.302684
O O1 0.333601 0.309151 0.248164
O O2 0.247286 0.528825 0.260182
O O3 0.842933 0.358457 0.068650
O O4 0.000000 0.500000 0.000000
O O5 0.668385 0.808514 0.424812
O O6 0.522623 0.942822 0.203821
O O7 0.540547 0.075140 0.329524
O O8 0.000000 0.000000 0.500000
O O9 0.158124 0.429267 0.381625
O O10 0.615046 0.320178 0.577273
O O11 0.128940 0.195260 0.328978
O O12 0.720737 0.099905 0.049366
O O13 0.007588 0.131187 0.047060
O O14 0.852174 0.891554 0.066248
O O15 0.630356 0.722770 0.883790
O O16 0.852607 0.629587 0.145327
O O17 0.385920 0.758839 0.895744
#
# Coordination Sequence:
#
# PCOD8004122 Si02
#       8
#     2   2   2   2   2   2   2   2
#     4  10  20  38  60  88 117 152 205 250 285 354
#     4  11  22  38  61  89 125 158 194 251 304 351
#     4  10  21  39  57  85 123 156 192 239 305 360
#     4  10  21  39  63  89 117 160 208 243 290 356
#     4  10  20  37  64  91 114 162 209 240 292 357
#     4  11  19  36  61  91 119 152 202 252 295 354
#     4  10  23  38  59  92 117 157 199 252 303 341
#     4  10  21  37  62  87 118 161 195 246 302 356
#
# _framework density 20.484905000000001
#
# number of rings (size 3 to 8) (size 9 to 14) (size 15 to 20)
#    0.000    1.750    1.250    4.875    1.750    2.000 
#    2.250   16.250    0.000    3.750    0.000    0.000 
#    0.000    0.000    0.000    0.000    0.000    0.000 
#
# Total GULP energy -198271.033422 kJ/mol
# GULP energy per Si atom -12391.939589 kJ/mol
# Density = 2.043828 g / cm^3
# Si number density = 20.484905 Si / 1000 Ang^3
#
#
#
# Elastic Constant Matrix: (Units=GPa)
#
#
# Indices 1 2 3 4 5 6 
#
# 1 99.7683 30.5374 34.2588 -0.6710 11.5876 -3.6287
# 2 30.5374 75.7294 46.3349 -9.2257 -5.7673 -4.5791
# 3 34.2588 46.3349 110.6558 -8.3274 1.5345 -8.6733
# 4 -0.6710 -9.2257 -8.3274 37.1523 4.6942 -12.8933
# 5 11.5876 -5.7673 1.5345 4.6942 25.4863 -3.8417
# 6 -3.6287 -4.5791 -8.6733 -12.8933 -3.8417 34.9408
#
#
#
# Elastic Compliance Matrix: (Units=1/GPa)
#
#
# Indices 1 2 3 4 5 6 
#
# 1 0.012895 -0.004571 -0.002110 -0.000809 -0.006745 -0.000824
# 2 -0.004571 0.020237 -0.006693 0.003465 0.006806 0.002543
# 3 -0.002110 -0.006693 0.012909 0.002343 -0.001338 0.002826
# 4 -0.000809 0.003465 0.002343 0.033140 -0.003159 0.012833
# 5 -0.006745 0.006806 -0.001338 -0.003159 0.045056 0.003647
# 6 -0.000824 0.002543 0.002826 0.012833 0.003647 0.034705
#
#
# Mechanical properties :
#
#
# Convention : Reuss Voigt Hill
#
# Bulk Modulus (GPa) = 51.83107 56.49063 54.16085
# Shear Modulus (GPa) = 26.02509 31.18404 28.60457
#
# Velocity S-wave (km/s) = 3.56821 3.90589 3.74086
# Velocity P-wave (km/s) = 6.50639 6.92661 6.71979
#
# Compressibility (1/GPa) = 0.01929345
#
# Stress axis : x y z
#
# Youngs Moduli (GPa) = 77.55020 49.41335 77.46319
#
# Poissons Ratio (x) = 0.22585 0.16347
# Poissons Ratio (y) = 0.35445 0.51848
# Poissons Ratio (z) = 0.16365 0.33073
#
# Static dielectric constant tensor:
#      x y z
#    x 3.743250 -0.022260 -0.110910 
#    y -0.022260 4.035880 -0.072720 
#    z -0.110910 -0.072720 3.653520 
# 
# 
# High freq. dielectric constant tensor:
#      x y z
#    x 1.787220 0.009600 -0.008960 
#    y 0.009600 1.808650 -0.004340 
#    z -0.008960 -0.004340 1.788980 
# 
# From -- ./inp_files/559847.got.cif
#   From: 2010.06.25/outbox.cif.g09.slc.cpg/sg2_280_cif.got.tgz:559847.got - 2010.06.27 13:26:56.
