data_PCOD8004715
_publ_section_title
;
Structure prediction by ZEFSAII (Michael W. Deem and Ramdas Pophale) SiO2 
 PCOD8004715
Probable space group: P -1
;
_chemical_formula_sum "Si O2"
_cell_formula_units_Z 14
_cell_length_a 11.904577
_cell_length_b 6.749122
_cell_length_c 8.668534
_cell_angle_alpha 99.637820
_cell_angle_beta 89.126344
_cell_angle_gamma 78.884562
_cell_volume 672.952459
_symmetry_space_group_name_H-M "P -1"
_symmetry_group_IT_number 2
_symmetry_cell_setting 'triclinic'
loop_
_space_group_symop_operation_xyz
x,y,z
-x,-y,-z
loop_
_atom_site_type_symbol
_atom_site_label
_atom_site_fract_x
_atom_site_fract_y
_atom_site_fract_z
Si Si1 0.722776 0.388367 0.684069
Si Si2 0.967396 0.151665 0.224452
Si Si3 0.332024 0.014255 0.906305
Si Si4 0.212440 0.973828 0.583777
Si Si5 0.116147 0.356065 0.430003
Si Si6 0.846538 0.178220 0.942504
Si Si7 0.544921 0.660602 0.913716
O O1 0.786660 0.519228 0.589331
O O2 0.787083 0.341014 0.840481
O O3 0.601211 0.531905 0.746517
O O4 0.712945 0.180487 0.563798
O O5 0.077914 0.250984 0.264454
O O6 0.894399 0.128346 0.376354
O O7 0.880027 0.278621 0.115958
O O8 0.027938 0.926491 0.136608
O O9 0.285059 0.022485 0.734467
O O10 0.441348 0.831111 0.878229
O O11 0.366088 0.229589 0.979734
O O12 0.239150 0.973187 0.028686
O O13 0.164169 0.190344 0.535815
O O14 0.000000 0.500000 0.500000
O O15 0.500000 0.500000 0.000000
#
# Coordination Sequence:
#
# PCOD8004715 Si02
#       7
#     2   2   2   2   2   2   2
#     4  12  24  39  68  96 127 170 215 265 318 376
#     4  10  20  38  61  91 128 172 209 252 312 377
#     4  10  24  45  67  93 126 169 212 271 324 372
#     4  11  24  42  63  95 137 166 208 266 321 382
#     4  12  23  37  63  95 133 172 208 251 321 379
#     4  10  20  38  65  90 125 167 214 258 309 377
#     4  11  24  44  71  94 122 164 221 271 319 379
#
# _framework density 20.803847999999999
#
# number of rings (size 3 to 8) (size 9 to 14) (size 15 to 20)
#    0.000    1.143    4.286    2.143    0.000    3.429 
#    0.000    1.429    0.000    0.000    0.000    0.000 
#    0.000    0.000    0.000    0.000    0.000    0.000 
#
# Total GULP energy -173506.978031 kJ/mol
# GULP energy per Si atom -12393.355574 kJ/mol
# Density = 2.075650 g / cm^3
# Si number density = 20.803848 Si / 1000 Ang^3
#
#
#
# Elastic Constant Matrix: (Units=GPa)
#
#
# Indices 1 2 3 4 5 6 
#
# 1 85.6273 28.5205 42.0999 8.6989 -8.4922 -4.7851
# 2 28.5205 96.6426 54.6034 5.1194 -4.7075 -7.7218
# 3 42.0999 54.6034 107.9370 -1.8478 -3.9155 -8.7453
# 4 8.6989 5.1194 -1.8478 22.6825 -6.7712 -5.8117
# 5 -8.4922 -4.7075 -3.9155 -6.7712 45.7795 4.7635
# 6 -4.7851 -7.7218 -8.7453 -5.8117 4.7635 29.6981
#
#
#
# Elastic Compliance Matrix: (Units=1/GPa)
#
#
# Indices 1 2 3 4 5 6 
#
# 1 0.015503 -0.001083 -0.005614 -0.005926 0.001495 -0.000836
# 2 -0.001083 0.014938 -0.007107 -0.003245 0.000148 0.000958
# 3 -0.005614 -0.007107 0.015387 0.005781 0.000098 0.002894
# 4 -0.005926 -0.003245 0.005781 0.051606 0.005750 0.009080
# 5 0.001495 0.000148 0.000098 0.005750 0.023234 -0.002294
# 6 -0.000836 0.000958 0.002894 0.009080 -0.002294 0.036784
#
#
# Mechanical properties :
#
#
# Convention : Reuss Voigt Hill
#
# Bulk Modulus (GPa) = 54.88630 60.07274 57.47952
# Shear Modulus (GPa) = 26.15985 30.63089 28.39537
#
# Velocity S-wave (km/s) = 3.54990 3.84131 3.69848
# Velocity P-wave (km/s) = 6.57590 6.97228 6.77699
#
# Compressibility (1/GPa) = 0.01821948
#
# Stress axis : x y z
#
# Youngs Moduli (GPa) = 64.50365 66.94215 64.99190
#
# Poissons Ratio (x) = 0.07253 0.36484
# Poissons Ratio (y) = 0.06989 0.46190
# Poissons Ratio (z) = 0.36210 0.47576
#
# Static dielectric constant tensor:
#      x y z
#    x 3.721920 0.137760 0.423610 
#    y 0.137760 3.214280 -0.942610 
#    z 0.423610 -0.942610 1.872620 
# 
# 
# High freq. dielectric constant tensor:
#      x y z
#    x 1.814240 -0.007490 -0.005480 
#    y -0.007490 1.809550 0.002560 
#    z -0.005480 0.002560 1.823620 
# 
# From -- ./inp_files/26815.got.cif
#   From: 2010.06.25/outbox.cif.g09.slc.cpg/sg2_14_cif.got.tgz:26815.got - 2010.06.27 13:26:56.
