data_PCOD8004127
_publ_section_title
;
Structure prediction by ZEFSAII (Michael W. Deem and Ramdas Pophale) SiO2 
 PCOD8004127
Probable space group: P -1
;
_chemical_formula_sum "Si O2"
_cell_formula_units_Z 16
_cell_length_a 13.079941
_cell_length_b 10.377819
_cell_length_c 11.104874
_cell_angle_alpha 58.552551
_cell_angle_beta 83.247137
_cell_angle_gamma 44.533521
_cell_volume 816.367278
_symmetry_space_group_name_H-M "P -1"
_symmetry_group_IT_number 2
_symmetry_cell_setting 'triclinic'
loop_
_space_group_symop_operation_xyz
x,y,z
-x,-y,-z
loop_
_atom_site_type_symbol
_atom_site_label
_atom_site_fract_x
_atom_site_fract_y
_atom_site_fract_z
Si Si1 0.056096 0.010202 0.302426
Si Si2 0.898131 0.330475 0.383861
Si Si3 0.397342 0.692081 0.318204
Si Si4 0.545933 0.852942 0.186154
Si Si5 0.535831 0.035841 0.351431
Si Si6 0.463122 0.455775 0.188864
Si Si7 0.121720 0.242589 0.567142
Si Si8 0.225751 0.836036 0.849760
O O1 0.130470 0.792844 0.479994
O O2 0.207291 0.921478 0.262284
O O3 0.950301 0.244729 0.281495
O O4 0.926972 0.100521 0.177521
O O5 0.738326 0.612408 0.275006
O O6 0.054015 0.235848 0.462786
O O7 0.500000 0.500000 0.500000
O O8 0.457339 0.790888 0.223608
O O9 0.427617 0.528941 0.295160
O O10 0.497658 0.990268 0.252881
O O11 0.500000 0.000000 0.000000
O O12 0.449360 0.295998 0.231538
O O13 0.500000 0.000000 0.500000
O O14 0.722545 0.840562 0.444178
O O15 0.639596 0.325659 0.196849
O O16 0.316151 0.705654 0.023763
O O17 0.000000 0.500000 0.500000
O O18 0.157152 0.083041 0.746025
#
# Coordination Sequence:
#
# PCOD8004127 Si02
#       8
#     2   2   2   2   2   2   2   2
#     4  10  22  39  67  96 122 168 225 277 324 388
#     4  10  21  40  66  91 128 169 219 273 329 397
#     4  12  25  41  68  98 131 173 231 275 327 399
#     4  12  27  43  68 100 142 177 217 274 349 401
#     4  11  25  42  66  97 134 174 220 275 336 394
#     4  10  23  41  68  93 129 170 221 276 323 401
#     4  10  20  37  64  91 122 169 219 260 323 405
#     4   9  21  39  67  92 123 163 222 263 332 381
#
# _framework density 19.599022000000001
#
# number of rings (size 3 to 8) (size 9 to 14) (size 15 to 20)
#    0.000    1.500    2.500    1.500   14.000    0.500 
#    0.000    1.875    0.000    0.000    0.000    0.000 
#    0.000    0.000    0.000    0.000    0.000    0.000 
#
# Total GULP energy -198256.883623 kJ/mol
# GULP energy per Si atom -12391.055226 kJ/mol
# Density = 1.955441 g / cm^3
# Si number density = 19.599022 Si / 1000 Ang^3
#
#
#
# Elastic Constant Matrix: (Units=GPa)
#
#
# Indices 1 2 3 4 5 6 
#
# 1 107.3653 36.9917 40.9037 -5.5543 0.6320 -6.7339
# 2 36.9917 120.5999 54.6924 1.0809 0.1161 14.9288
# 3 40.9037 54.6924 125.2470 -8.4442 3.9218 -0.9181
# 4 -5.5543 1.0809 -8.4442 34.9004 -2.9566 1.9177
# 5 0.6320 0.1161 3.9218 -2.9566 23.7558 -4.0117
# 6 -6.7339 14.9288 -0.9181 1.9177 -4.0117 30.7054
#
#
#
# Elastic Compliance Matrix: (Units=1/GPa)
#
#
# Indices 1 2 3 4 5 6 
#
# 1 0.011551 -0.002954 -0.002401 0.001210 0.000920 0.003942
# 2 -0.002954 0.012041 -0.004432 -0.001600 -0.000564 -0.006608
# 3 -0.002401 -0.004432 0.010901 0.002203 -0.001159 0.001665
# 4 0.001210 -0.001600 0.002203 0.029722 0.003257 -0.000322
# 5 0.000920 -0.000564 -0.001159 0.003257 0.043674 0.005944
# 6 0.003942 -0.006608 0.001665 -0.000322 0.005944 0.037491
#
#
# Mechanical properties :
#
#
# Convention : Reuss Voigt Hill
#
# Bulk Modulus (GPa) = 67.02844 68.70976 67.86910
# Shear Modulus (GPa) = 29.42478 32.58060 31.00269
#
# Velocity S-wave (km/s) = 3.87892 4.08163 3.98156
# Velocity P-wave (km/s) = 7.37126 7.57276 7.47269
#
# Compressibility (1/GPa) = 0.01491904
#
# Stress axis : x y z
#
# Youngs Moduli (GPa) = 86.57390 83.05165 91.73861
#
# Poissons Ratio (x) = 0.24533 0.22024
# Poissons Ratio (y) = 0.25574 0.40657
# Poissons Ratio (z) = 0.20784 0.36807
#
# Static dielectric constant tensor:
#      x y z
#    x 3.573200 0.046170 -0.067950 
#    y 0.046170 3.668470 -0.228890 
#    z -0.067950 -0.228890 3.558050 
# 
# 
# High freq. dielectric constant tensor:
#      x y z
#    x 1.769070 0.003210 0.012760 
#    y 0.003210 1.767990 -0.009430 
#    z 0.012760 -0.009430 1.761320 
# 
# From -- ./inp_files/277788.got.cif
#   From: 2010.06.25/outbox.cif.g09.slc.cpg/sg2_139_cif.got.tgz:277788.got - 2010.06.27 13:26:56.
