data_PCOD8005501
_publ_section_title
;
Structure prediction by ZEFSAII (Michael W. Deem and Ramdas Pophale) SiO2 
 PCOD8005501
Probable space group: P -1
;
_chemical_formula_sum "Si O2"
_cell_formula_units_Z 16
_cell_length_a 8.817252
_cell_length_b 14.989289
_cell_length_c 8.566496
_cell_angle_alpha 91.626760
_cell_angle_beta 59.028117
_cell_angle_gamma 117.208749
_cell_volume 830.949965
_symmetry_space_group_name_H-M "P -1"
_symmetry_group_IT_number 2
_symmetry_cell_setting 'triclinic'
loop_
_space_group_symop_operation_xyz
x,y,z
-x,-y,-z
loop_
_atom_site_type_symbol
_atom_site_label
_atom_site_fract_x
_atom_site_fract_y
_atom_site_fract_z
Si Si1 0.008303 0.373998 0.607007
Si Si2 0.294602 0.777349 0.652663
Si Si3 0.016399 0.207673 0.388186
Si Si4 0.282332 0.141685 0.077623
Si Si5 0.718513 0.202831 0.974534
Si Si6 0.333512 0.195863 0.705611
Si Si7 0.727256 0.394865 0.520699
Si Si8 0.920277 0.090837 0.739737
O O1 0.081484 0.315604 0.446919
O O2 0.206461 0.486919 0.549317
O O3 0.830782 0.390100 0.627670
O O4 0.918314 0.307945 0.809840
O O5 0.311753 0.791443 0.827564
O O6 0.523246 0.842209 0.456106
O O7 0.198488 0.654337 0.657685
O O8 0.154278 0.818465 0.655836
O O9 0.215752 0.216552 0.200041
O O10 0.916850 0.113128 0.559605
O O11 0.520572 0.185856 0.986117
O O12 0.135373 0.026535 0.217084
O O13 0.245626 0.136465 0.911838
O O14 0.749802 0.106060 0.920161
O O15 0.477096 0.321659 0.666004
O O16 0.146158 0.172297 0.691559
#
# Coordination Sequence:
#
# PCOD8005501 Si02
#       8
#     2   2   2   2   2   2   2   2
#     4   9  17  37  63  83 112 149 182 231 283 333
#     4   9  20  37  59  81 119 145 183 232 280 329
#     4  10  21  38  57  85 114 149 187 236 275 336
#     4  12  22  38  58  82 115 153 189 232 282 330
#     4  11  21  37  58  85 113 150 191 233 273 336
#     4  10  20  39  58  85 113 149 184 237 276 336
#     4   8  17  36  63  81 115 146 183 225 291 326
#     4  11  23  38  58  82 114 151 191 233 282 329
#
# _framework density 19.25507
#
# number of rings (size 3 to 8) (size 9 to 14) (size 15 to 20)
#    0.750    1.250    1.250    3.375    0.000    0.500 
#    0.000    5.000    2.750    0.000    0.000    0.000 
#    0.000    0.000    0.000    0.000    0.000    0.000 
#
# Total GULP energy -198349.562097 kJ/mol
# GULP energy per Si atom -12396.847631 kJ/mol
# Density = 1.921124 g / cm^3
# Si number density = 19.255070 Si / 1000 Ang^3
#
#
#
# Elastic Constant Matrix: (Units=GPa)
#
#
# Indices 1 2 3 4 5 6 
#
# 1 79.8731 26.4013 23.8176 2.5942 -10.6222 -3.7785
# 2 26.4013 70.2327 37.4891 -10.1035 -3.4412 -8.1933
# 3 23.8176 37.4891 85.7752 13.9199 1.6434 -11.1032
# 4 2.5942 -10.1035 13.9199 33.3044 -1.0171 -3.2845
# 5 -10.6222 -3.4412 1.6434 -1.0171 37.2176 4.5726
# 6 -3.7785 -8.1933 -11.1032 -3.2845 4.5726 21.1398
#
#
#
# Elastic Compliance Matrix: (Units=1/GPa)
#
#
# Indices 1 2 3 4 5 6 
#
# 1 0.015289 -0.004851 -0.002097 -0.001800 0.004133 -0.001422
# 2 -0.004851 0.024196 -0.010710 0.012684 0.001105 0.004617
# 3 -0.002097 -0.010710 0.019344 -0.010811 -0.003312 0.004671
# 4 -0.001800 0.012684 -0.010811 0.039039 0.001635 0.004628
# 5 0.004133 0.001105 -0.003312 0.001635 0.029156 -0.006625
# 6 -0.001422 0.004617 0.004671 0.004628 -0.006625 0.053445
#
#
# Mechanical properties :
#
#
# Convention : Reuss Voigt Hill
#
# Bulk Modulus (GPa) = 42.52636 45.69964 44.11300
# Shear Modulus (GPa) = 22.35914 28.21056 25.28485
#
# Velocity S-wave (km/s) = 3.41135 3.83181 3.62768
# Velocity P-wave (km/s) = 6.13597 6.58501 6.36445
#
# Compressibility (1/GPa) = 0.02351483
#
# Stress axis : x y z
#
# Youngs Moduli (GPa) = 65.40545 41.32887 51.69526
#
# Poissons Ratio (x) = 0.20047 0.10838
# Poissons Ratio (y) = 0.31726 0.55366
# Poissons Ratio (z) = 0.13712 0.44264
#
# Static dielectric constant tensor:
#      x y z
#    x 3.472340 -0.071590 -0.005850 
#    y -0.071590 3.427630 0.036270 
#    z -0.005850 0.036270 3.374210 
# 
# 
# High freq. dielectric constant tensor:
#      x y z
#    x 1.750960 -0.002420 0.004110 
#    y -0.002420 1.732640 0.006120 
#    z 0.004110 0.006120 1.744950 
# 
# From -- ./inp_files/197371.got.cif
#   From: 2010.06.25/outbox.cif.g09.slc.cpg/sg2_99_cif.got.tgz:197371.got - 2010.06.27 13:26:56.
