data_PCOD8005092
_publ_section_title
;
Structure prediction by ZEFSAII (Michael W. Deem and Ramdas Pophale) SiO2 
 PCOD8005092
Probable space group: P -1
;
_chemical_formula_sum "Si O2"
_cell_formula_units_Z 16
_cell_length_a 12.446096
_cell_length_b 10.010231
_cell_length_c 8.901134
_cell_angle_alpha 118.666653
_cell_angle_beta 121.140101
_cell_angle_gamma 49.708507
_cell_volume 705.842550
_symmetry_space_group_name_H-M "P -1"
_symmetry_group_IT_number 2
_symmetry_cell_setting 'triclinic'
loop_
_space_group_symop_operation_xyz
x,y,z
-x,-y,-z
loop_
_atom_site_type_symbol
_atom_site_label
_atom_site_fract_x
_atom_site_fract_y
_atom_site_fract_z
Si Si1 0.818964 0.396428 0.606893
Si Si2 0.117778 0.056116 0.138926
Si Si3 0.957532 0.369243 0.981886
Si Si4 0.293310 0.327192 0.873427
Si Si5 0.887095 0.821598 0.465469
Si Si6 0.306313 0.837327 0.670914
Si Si7 0.606964 0.125919 0.922006
Si Si8 0.608345 0.780557 0.780735
O O1 0.889839 0.303443 0.769345
O O2 0.711036 0.333443 0.438753
O O3 0.728677 0.611695 0.678050
O O4 0.950629 0.340810 0.553752
O O5 0.103086 0.138510 0.334084
O O6 0.285346 0.885280 0.140401
O O7 0.096213 0.200041 0.071505
O O8 0.000000 0.000000 0.000000
O O9 0.834126 0.467215 0.076687
O O10 0.000000 0.500000 0.000000
O O11 0.230984 0.237169 0.671322
O O12 0.441188 0.306743 0.893761
O O13 0.339997 0.226531 0.013762
O O14 0.836919 0.996389 0.422198
O O15 0.456165 0.784307 0.664438
O O16 0.309771 0.888021 0.871887
O O17 0.580359 0.963338 0.790339
#
# Coordination Sequence:
#
# PCOD8005092 Si02
#       8
#     2   2   2   2   2   2   2   2
#     4  11  22  35  64  95 127 166 212 269 316 375
#     4  12  27  43  62  94 133 170 207 271 334 375
#     4  11  22  44  68  94 129 170 218 259 317 384
#     4  10  20  38  64  94 117 167 216 265 302 378
#     4  12  22  38  59  92 129 158 218 259 320 375
#     4  11  20  39  63  93 126 168 214 264 315 384
#     4  11  21  42  66  85 127 174 217 254 319 388
#     4  10  20  38  64  94 123 164 219 264 310 379
#
# _framework density 22.667943000000001
#
# number of rings (size 3 to 8) (size 9 to 14) (size 15 to 20)
#    0.000    1.000    3.750    5.250    0.000    1.000 
#    0.000    0.625    0.000    0.000    0.000    0.000 
#    0.000    0.000    0.000    0.000    0.000    0.000 
#
# Total GULP energy -198391.823389 kJ/mol
# GULP energy per Si atom -12399.488962 kJ/mol
# Density = 2.261635 g / cm^3
# Si number density = 22.667943 Si / 1000 Ang^3
#
#
#
# Elastic Constant Matrix: (Units=GPa)
#
#
# Indices 1 2 3 4 5 6 
#
# 1 154.5406 19.7635 69.0839 13.3009 -2.2580 -35.1902
# 2 19.7635 35.2657 30.6310 3.2803 -2.6804 -11.9389
# 3 69.0839 30.6310 146.5354 13.7474 -3.2271 -6.6092
# 4 13.3009 3.2803 13.7474 20.9576 -4.9937 -3.3130
# 5 -2.2580 -2.6804 -3.2271 -4.9937 41.9158 13.0439
# 6 -35.1902 -11.9389 -6.6092 -3.3130 13.0439 36.4685
#
#
#
# Elastic Compliance Matrix: (Units=1/GPa)
#
#
# Indices 1 2 3 4 5 6 
#
# 1 0.011353 0.001982 -0.005014 -0.003251 -0.003681 0.011716
# 2 0.001982 0.039263 -0.008546 -0.000153 -0.002439 0.014076
# 3 -0.005014 -0.008546 0.011031 -0.003352 0.001668 -0.006538
# 4 -0.003251 -0.000153 -0.003352 0.053309 0.006281 -0.001199
# 5 -0.003681 -0.002439 0.001668 0.006281 0.028651 -0.013725
# 6 0.011716 0.014076 -0.006538 -0.001199 -0.013725 0.046950
#
#
# Mechanical properties :
#
#
# Convention : Reuss Voigt Hill
#
# Bulk Modulus (GPa) = 25.98101 63.92204 44.95153
# Shear Modulus (GPa) = 22.07092 34.32593 28.19843
#
# Velocity S-wave (km/s) = 3.12374 3.89561 3.53083
# Velocity P-wave (km/s) = 4.94942 6.96383 6.04118
#
# Compressibility (1/GPa) = 0.03848964
#
# Stress axis : x y z
#
# Youngs Moduli (GPa) = 88.08475 25.46957 90.65389
#
# Poissons Ratio (x) = -0.05048 0.45455
# Poissons Ratio (y) = -0.17458 0.77474
# Poissons Ratio (z) = 0.44167 0.21767
#
# Static dielectric constant tensor:
#      x y z
#    x 4.251790 -0.503950 0.042880 
#    y -0.503950 3.907380 0.135570 
#    z 0.042880 0.135570 4.152180 
# 
# 
# High freq. dielectric constant tensor:
#      x y z
#    x 1.902030 -0.036110 0.008740 
#    y -0.036110 1.859720 0.016650 
#    z 0.008740 0.016650 1.901740 
# 
# From -- ./inp_files/245614.got.cif
#   From: 2010.06.25/outbox.cif.g09.slc.cpg/sg2_123_cif.got.tgz:245614.got - 2010.06.27 13:26:56.
