data_PCOD8005799
_publ_section_title
;
Structure prediction by ZEFSAII (Michael W. Deem and Ramdas Pophale) SiO2 
 PCOD8005799
Probable space group: P -1
;
_chemical_formula_sum "Si O2"
_cell_formula_units_Z 12
_cell_length_a 17.597017
_cell_length_b 11.108031
_cell_length_c 13.241829
_cell_angle_alpha 157.672911
_cell_angle_beta 144.610564
_cell_angle_gamma 37.642946
_cell_volume 561.029506
_symmetry_space_group_name_H-M "P -1"
_symmetry_group_IT_number 2
_symmetry_cell_setting 'triclinic'
loop_
_space_group_symop_operation_xyz
x,y,z
-x,-y,-z
loop_
_atom_site_type_symbol
_atom_site_label
_atom_site_fract_x
_atom_site_fract_y
_atom_site_fract_z
Si Si1 0.970098 0.750142 0.069877
Si Si2 0.410678 0.930729 0.582357
Si Si3 0.084686 0.173251 0.647806
Si Si4 0.647434 0.823592 0.498377
Si Si5 0.693847 0.059125 0.935454
Si Si6 0.624297 0.784749 0.019328
O O1 0.057712 0.032957 0.399571
O O2 0.024749 0.554664 0.876958
O O3 0.815057 0.900720 0.014366
O O4 0.000000 0.500000 0.000000
O O5 0.379079 0.579729 0.298769
O O6 0.318972 0.076624 0.501369
O O7 0.567296 0.899240 0.703798
O O8 0.376959 0.168287 0.825016
O O9 0.240609 0.113594 0.798599
O O10 0.000000 0.000000 0.500000
O O11 0.660744 0.438775 0.215159
O O12 0.500000 0.000000 0.500000
O O13 0.735103 0.959513 0.786091
O O14 0.500000 0.000000 0.000000
#
# Coordination Sequence:
#
# PCOD8005799 Si02
#       6
#     2   2   2   2   2   2
#     4  10  22  37  63  89 127 165 214 257 310 377
#     4  11  23  39  64  93 135 161 211 272 324 371
#     4  10  23  41  61  83 129 170 214 252 309 387
#     4  10  20  39  62  97 130 168 216 266 318 371
#     4  11  21  37  69  97 128 169 218 262 316 376
#     4  12  26  39  64  94 132 169 207 265 337 373
#
# _framework density 21.389249
#
# number of rings (size 3 to 8) (size 9 to 14) (size 15 to 20)
#    0.000    1.333    0.000    7.500    9.333    0.000 
#    0.000    0.000    0.000   20.000    0.000    0.000 
#    0.000    0.000    0.000    0.000    0.000    0.000 
#
# Total GULP energy -148709.441432 kJ/mol
# GULP energy per Si atom -12392.453453 kJ/mol
# Density = 2.134057 g / cm^3
# Si number density = 21.389249 Si / 1000 Ang^3
#
#
#
# Elastic Constant Matrix: (Units=GPa)
#
#
# Indices 1 2 3 4 5 6 
#
# 1 65.5684 34.2506 32.6886 0.7315 -8.0381 -3.3511
# 2 34.2506 139.4164 61.3087 -6.6184 7.4610 -8.6192
# 3 32.6886 61.3087 164.3398 4.7611 -26.1026 -13.8570
# 4 0.7315 -6.6184 4.7611 30.7360 -10.6828 2.4893
# 5 -8.0381 7.4610 -26.1026 -10.6828 44.2391 -3.5271
# 6 -3.3511 -8.6192 -13.8570 2.4893 -3.5271 30.9361
#
#
#
# Elastic Compliance Matrix: (Units=1/GPa)
#
#
# Indices 1 2 3 4 5 6 
#
# 1 0.018560 -0.003953 -0.001684 -0.000001 0.003085 0.000507
# 2 -0.003953 0.010055 -0.003666 0.001341 -0.004242 0.000140
# 3 -0.001684 -0.003666 0.009021 -0.000411 0.005818 0.003533
# 4 -0.000001 0.001341 -0.000411 0.035826 0.008041 -0.001776
# 5 0.003085 -0.004242 0.005818 0.008041 0.029613 0.004487
# 6 0.000507 0.000140 0.003533 -0.001776 0.004487 0.034656
#
#
# Mechanical properties :
#
#
# Convention : Reuss Voigt Hill
#
# Bulk Modulus (GPa) = 52.54660 69.53563 61.04111
# Shear Modulus (GPa) = 30.73509 37.25402 33.99456
#
# Velocity S-wave (km/s) = 3.79481 4.17792 3.99096
# Velocity P-wave (km/s) = 6.61974 7.47352 7.05955
#
# Compressibility (1/GPa) = 0.01903073
#
# Stress axis : x y z
#
# Youngs Moduli (GPa) = 53.87970 99.45090 110.84728
#
# Poissons Ratio (x) = 0.39311 0.18670
# Poissons Ratio (y) = 0.21297 0.40634
# Poissons Ratio (z) = 0.09075 0.36457
#
# Static dielectric constant tensor:
#      x y z
#    x 3.924010 0.207200 -0.351040 
#    y 0.207200 3.816650 -0.246330 
#    z -0.351040 -0.246330 3.946220 
# 
# 
# High freq. dielectric constant tensor:
#      x y z
#    x 1.815540 -0.004570 -0.036030 
#    y -0.004570 1.829940 0.000710 
#    z -0.036030 0.000710 1.865320 
# 
# From -- ./inp_files/43356.got.cif
#   From: 2010.06.25/outbox.cif.g09.slc.cpg/sg2_22_cif.got.tgz:43356.got - 2010.06.27 13:26:56.
