data_PCOD8005242
_publ_section_title
;
Structure prediction by ZEFSAII (Michael W. Deem and Ramdas Pophale) SiO2 
 PCOD8005242
Probable space group: P -1
;
_chemical_formula_sum "Si O2"
_cell_formula_units_Z 14
_cell_length_a 15.606473
_cell_length_b 7.897432
_cell_length_c 9.007800
_cell_angle_alpha 116.237749
_cell_angle_beta 97.871138
_cell_angle_gamma 128.298184
_cell_volume 634.534897
_symmetry_space_group_name_H-M "P -1"
_symmetry_group_IT_number 2
_symmetry_cell_setting 'triclinic'
loop_
_space_group_symop_operation_xyz
x,y,z
-x,-y,-z
loop_
_atom_site_type_symbol
_atom_site_label
_atom_site_fract_x
_atom_site_fract_y
_atom_site_fract_z
Si Si1 0.551862 0.651112 0.410571
Si Si2 0.806359 0.813528 0.490456
Si Si3 0.710950 0.893702 0.011900
Si Si4 0.693314 0.213304 0.528151
Si Si5 0.643730 0.186464 0.169787
Si Si6 0.875690 0.215845 0.451650
Si Si7 0.860601 0.844812 0.846689
O O1 0.500000 0.500000 0.500000
O O2 0.677178 0.731750 0.434374
O O3 0.595445 0.945310 0.520810
O O4 0.437331 0.435502 0.176098
O O5 0.756846 0.533523 0.303242
O O6 0.878779 0.906626 0.700230
O O7 0.913120 0.097541 0.517478
O O8 0.819113 0.974441 0.960593
O O9 0.703872 0.107070 0.065571
O O10 0.757075 0.939843 0.209756
O O11 0.622033 0.118098 0.314443
O O12 0.826399 0.308326 0.574959
O O13 0.740142 0.493454 0.712733
O O14 0.500000 0.000000 0.000000
O O15 0.000000 0.500000 0.500000
O O16 0.000000 0.000000 0.000000
#
# Coordination Sequence:
#
# PCOD8005242 Si02
#       7
#     2   2   2   2   2   2   2
#     4  11  21  41  65  99 135 162 217 269 334 388
#     4  10  22  42  68  95 133 173 206 278 330 378
#     4  11  23  39  68  98 130 169 219 265 323 387
#     4   9  23  40  64  92 134 173 204 276 329 372
#     4  10  20  38  65  98 131 162 211 263 331 389
#     4  10  22  44  66  94 132 174 221 264 319 387
#     4  11  23  46  65  94 133 175 223 264 318 390
#
# _framework density 22.063403000000001
#
# number of rings (size 3 to 8) (size 9 to 14) (size 15 to 20)
#    0.000    1.714    2.857    0.857    2.000    2.286 
#    5.143   12.143    0.000    0.000    0.000    0.000 
#    0.000    0.000    0.000    0.000    0.000    0.000 
#
# Total GULP energy -173544.317322 kJ/mol
# GULP energy per Si atom -12396.022666 kJ/mol
# Density = 2.201319 g / cm^3
# Si number density = 22.063403 Si / 1000 Ang^3
#
#
#
# Elastic Constant Matrix: (Units=GPa)
#
#
# Indices 1 2 3 4 5 6 
#
# 1 114.7291 44.1451 55.6025 5.4342 -2.7264 -20.5926
# 2 44.1451 184.1296 45.7126 -7.2603 1.3127 -23.4339
# 3 55.6025 45.7126 110.1174 2.2609 12.4247 -11.9496
# 4 5.4342 -7.2603 2.2609 16.2615 -6.0421 2.8718
# 5 -2.7264 1.3127 12.4247 -6.0421 43.4592 3.8361
# 6 -20.5926 -23.4339 -11.9496 2.8718 3.8361 31.9084
#
#
#
# Elastic Compliance Matrix: (Units=1/GPa)
#
#
# Indices 1 2 3 4 5 6 
#
# 1 0.013181 -0.001239 -0.005562 -0.004728 0.001286 0.005785
# 2 -0.001239 0.006731 -0.001959 0.003327 0.000472 0.003054
# 3 -0.005562 -0.001959 0.013354 -0.002698 -0.004550 0.000763
# 4 -0.004728 0.003327 -0.002698 0.070674 0.011021 -0.009304
# 5 0.001286 0.000472 -0.004550 0.011021 0.026323 -0.004684
# 6 0.005785 0.003054 0.000763 -0.009304 -0.004684 0.039002
#
#
# Mechanical properties :
#
#
# Convention : Reuss Voigt Hill
#
# Bulk Modulus (GPa) = 63.50169 77.76627 70.63398
# Shear Modulus (GPa) = 26.03719 35.89355 30.96537
#
# Velocity S-wave (km/s) = 3.43900 4.03778 3.75036
# Velocity P-wave (km/s) = 6.67929 7.55391 7.13002
#
# Compressibility (1/GPa) = 0.01574761
#
# Stress axis : x y z
#
# Youngs Moduli (GPa) = 75.86612 148.57194 74.88234
#
# Poissons Ratio (x) = 0.18405 0.41647
# Poissons Ratio (y) = 0.09398 0.14668
# Poissons Ratio (z) = 0.42195 0.29102
#
# Static dielectric constant tensor:
#      x y z
#    x 4.088100 -0.433850 0.029270 
#    y -0.433850 4.958490 -0.005750 
#    z 0.029270 -0.005750 4.102420 
# 
# 
# High freq. dielectric constant tensor:
#      x y z
#    x 1.873370 -0.021250 0.005470 
#    y -0.021250 1.859260 0.004950 
#    z 0.005470 0.004950 1.869200 
# 
# From -- ./inp_files/299535.got.cif
#   From: 2010.06.25/outbox.cif.g09.slc.cpg/sg2_150_cif.got.tgz:299535.got - 2010.06.27 13:26:56.
