data_PCOD8005351
_publ_section_title
;
Structure prediction by ZEFSAII (Michael W. Deem and Ramdas Pophale) SiO2 
 PCOD8005351
Probable space group: P -1
;
_chemical_formula_sum "Si O2"
_cell_formula_units_Z 16
_cell_length_a 20.402028
_cell_length_b 8.842934
_cell_length_c 9.452904
_cell_angle_alpha 56.544318
_cell_angle_beta 36.746661
_cell_angle_gamma 75.627331
_cell_volume 784.690622
_symmetry_space_group_name_H-M "P -1"
_symmetry_group_IT_number 2
_symmetry_cell_setting 'triclinic'
loop_
_space_group_symop_operation_xyz
x,y,z
-x,-y,-z
loop_
_atom_site_type_symbol
_atom_site_label
_atom_site_fract_x
_atom_site_fract_y
_atom_site_fract_z
Si Si1 0.308762 0.902324 0.755303
Si Si2 0.703388 0.169374 0.856115
Si Si3 0.506951 0.296944 0.137688
Si Si4 0.070790 0.202410 0.346858
Si Si5 0.965364 0.474319 0.236348
Si Si6 0.964338 0.291986 0.743530
Si Si7 0.429503 0.620560 0.707771
Si Si8 0.323128 0.238469 0.938010
O O1 0.367114 0.752978 0.669973
O O2 0.378323 0.120477 0.458292
O O3 0.319419 0.916182 0.899826
O O4 0.175525 0.833658 0.964789
O O5 0.825395 0.355518 0.546634
O O6 0.600587 0.226837 0.929198
O O7 0.707095 0.987680 0.848500
O O8 0.578682 0.339049 0.136762
O O9 0.500000 0.500000 0.000000
O O10 0.040409 0.366667 0.235701
O O11 0.036248 0.185910 0.583272
O O12 0.209165 0.255573 0.053717
O O13 0.000000 0.000000 0.500000
O O14 0.996968 0.674788 0.173506
O O15 0.000000 0.500000 0.000000
O O16 0.000000 0.500000 0.500000
O O17 0.358012 0.386951 0.933464
O O18 0.566467 0.682640 0.399969
#
# Coordination Sequence:
#
# PCOD8005351 Si02
#       8
#     2   2   2   2   2   2   2   2
#     4  11  18  41  69  88 120 166 220 263 308 378
#     4  11  20  42  66  83 127 167 214 264 314 388
#     4  11  24  40  60  93 124 167 207 265 329 378
#     4  11  21  37  65  92 124 164 219 259 306 386
#     4  11  24  42  61  95 130 169 209 270 332 372
#     4  10  20  38  67  94 120 169 220 261 309 391
#     4  10  21  35  64  90 118 157 213 259 308 375
#     4  11  20  36  63  95 116 158 217 262 299 370
#
# _framework density 20.390201999999999
#
# number of rings (size 3 to 8) (size 9 to 14) (size 15 to 20)
#    0.000    1.250    6.250    2.250    1.750    1.000 
#    2.250    1.250    0.000    0.000    0.000    0.000 
#    0.000    0.000    0.000    0.000    0.000    0.000 
#
# Total GULP energy -198237.070066 kJ/mol
# GULP energy per Si atom -12389.816879 kJ/mol
# Density = 2.034379 g / cm^3
# Si number density = 20.390202 Si / 1000 Ang^3
#
#
#
# Elastic Constant Matrix: (Units=GPa)
#
#
# Indices 1 2 3 4 5 6 
#
# 1 62.0408 38.2833 47.0144 -4.2834 -8.1189 4.9131
# 2 38.2833 131.6167 49.1422 -9.8411 -7.4414 10.5443
# 3 47.0144 49.1422 119.9758 -6.3659 -28.1187 -9.7127
# 4 -4.2834 -9.8411 -6.3659 35.3411 5.9209 -5.1564
# 5 -8.1189 -7.4414 -28.1187 5.9209 35.8236 5.3395
# 6 4.9131 10.5443 -9.7127 -5.1564 5.3395 40.4401
#
#
#
# Elastic Compliance Matrix: (Units=1/GPa)
#
#
# Indices 1 2 3 4 5 6 
#
# 1 0.025492 -0.003754 -0.009152 0.000063 -0.001585 -0.004099
# 2 -0.003754 0.010085 -0.003018 0.001605 -0.001009 -0.002560
# 3 -0.009152 -0.003018 0.015601 0.000027 0.008872 0.004478
# 4 0.000063 0.001605 0.000027 0.030236 -0.005243 0.004128
# 5 -0.001585 -0.001009 0.008872 -0.005243 0.035591 -0.002781
# 6 -0.004099 -0.002560 0.004478 0.004128 -0.002781 0.027863
#
#
# Mechanical properties :
#
#
# Convention : Reuss Voigt Hill
#
# Bulk Modulus (GPa) = 51.73476 64.72368 58.22922
# Shear Modulus (GPa) = 27.29887 34.26717 30.78302
#
# Velocity S-wave (km/s) = 3.66296 4.10392 3.88970
# Velocity P-wave (km/s) = 6.58158 7.36666 6.98516
#
# Compressibility (1/GPa) = 0.01932936
#
# Stress axis : x y z
#
# Youngs Moduli (GPa) = 39.22859 99.15904 64.09950
#
# Poissons Ratio (x) = 0.37228 0.58661
# Poissons Ratio (y) = 0.14728 0.19345
# Poissons Ratio (z) = 0.35900 0.29927
#
# Static dielectric constant tensor:
#      x y z
#    x 3.595180 0.080750 -0.171470 
#    y 0.080750 1.095740 0.894080 
#    z -0.171470 0.894080 3.488400 
# 
# 
# High freq. dielectric constant tensor:
#      x y z
#    x 1.758560 0.012370 -0.039320 
#    y 0.012370 1.821740 0.005360 
#    z -0.039320 0.005360 1.793260 
# 
# From -- ./inp_files/202024.got.cif
#   From: 2010.06.25/outbox.cif.g09.slc.cpg/sg2_102_cif.got.tgz:202024.got - 2010.06.27 13:26:56.
