data_PCOD8005716
_publ_section_title
;
Structure prediction by ZEFSAII (Michael W. Deem and Ramdas Pophale) SiO2 
 PCOD8005716
Probable space group: P -1
;
_chemical_formula_sum "Si O2"
_cell_formula_units_Z 16
_cell_length_a 14.694197
_cell_length_b 11.099381
_cell_length_c 8.885800
_cell_angle_alpha 128.210646
_cell_angle_beta 58.303336
_cell_angle_gamma 137.986862
_cell_volume 756.156895
_symmetry_space_group_name_H-M "P -1"
_symmetry_group_IT_number 2
_symmetry_cell_setting 'triclinic'
loop_
_space_group_symop_operation_xyz
x,y,z
-x,-y,-z
loop_
_atom_site_type_symbol
_atom_site_label
_atom_site_fract_x
_atom_site_fract_y
_atom_site_fract_z
Si Si1 0.392218 0.282231 0.573734
Si Si2 0.687701 0.613081 0.559501
Si Si3 0.746316 0.329765 0.359512
Si Si4 0.966518 0.285088 0.103418
Si Si5 0.529794 0.977818 0.788389
Si Si6 0.786126 0.321813 0.667279
Si Si7 0.139423 0.940922 0.684758
Si Si8 0.950955 0.990255 0.702124
O O1 0.537059 0.475057 0.661800
O O2 0.324842 0.346845 0.572450
O O3 0.421450 0.154620 0.354367
O O4 0.288191 0.154670 0.701805
O O5 0.756435 0.507194 0.416910
O O6 0.786787 0.817492 0.720842
O O7 0.873576 0.348820 0.195593
O O8 0.604838 0.121326 0.273757
O O9 0.752494 0.345475 0.546423
O O10 0.887794 0.105423 0.151676
O O11 0.113841 0.466341 0.178632
O O12 0.985350 0.197601 0.871569
O O13 0.646868 0.191801 0.783279
O O14 0.500000 0.000000 0.000000
O O15 0.862049 0.225540 0.524572
O O16 0.021284 0.938071 0.716191
O O17 0.000000 0.000000 0.500000
#
# Coordination Sequence:
#
# PCOD8005716 Si02
#       8
#     2   2   2   2   2   2   2   2
#     4   9  20  38  64  84 118 166 202 248 311 359
#     4  10  20  39  62  86 120 162 204 244 309 365
#     4  10  21  40  66  92 121 163 206 257 309 365
#     4  11  24  39  63  94 124 160 210 257 303 373
#     4  10  22  37  64  94 127 159 206 257 304 369
#     4  10  21  42  65  90 124 163 207 254 311 363
#     4  10  20  42  63  87 122 163 202 256 308 361
#     4  12  24  38  61  90 125 163 204 252 312 367
#
# _framework density 21.159631000000001
#
# number of rings (size 3 to 8) (size 9 to 14) (size 15 to 20)
#    0.000    1.750    1.250    3.750    1.750    3.000 
#    0.000    2.500    0.000    0.000    0.000    0.000 
#    0.000    0.000    0.000    0.000    0.000    0.000 
#
# Total GULP energy -198429.264988 kJ/mol
# GULP energy per Si atom -12401.829062 kJ/mol
# Density = 2.111147 g / cm^3
# Si number density = 21.159631 Si / 1000 Ang^3
#
#
#
# Elastic Constant Matrix: (Units=GPa)
#
#
# Indices 1 2 3 4 5 6 
#
# 1 127.9355 43.8819 41.4818 15.3526 -7.4954 9.4804
# 2 43.8819 142.8831 51.0796 12.3574 10.2447 24.3746
# 3 41.4818 51.0796 111.6783 9.0889 8.9446 12.1667
# 4 15.3526 12.3574 9.0889 25.2911 3.4599 5.7850
# 5 -7.4954 10.2447 8.9446 3.4599 13.4816 6.6241
# 6 9.4804 24.3746 12.1667 5.7850 6.6241 40.7575
#
#
#
# Elastic Compliance Matrix: (Units=1/GPa)
#
#
# Indices 1 2 3 4 5 6 
#
# 1 0.011310 -0.002387 -0.003492 -0.005853 0.012597 -0.001377
# 2 -0.002387 0.009733 -0.002714 -0.000844 -0.004973 -0.003527
# 3 -0.003492 -0.002714 0.012109 0.000166 -0.008004 0.000098
# 4 -0.005853 -0.000844 0.000166 0.045836 -0.013239 -0.002538
# 5 0.012597 -0.004973 -0.008004 -0.013239 0.099492 -0.011857
# 6 -0.001377 -0.003527 0.000098 -0.002538 -0.011857 0.029224
#
#
# Mechanical properties :
#
#
# Convention : Reuss Voigt Hill
#
# Bulk Modulus (GPa) = 62.62867 72.82037 67.72452
# Shear Modulus (GPa) = 21.71906 32.30964 27.01435
#
# Velocity S-wave (km/s) = 3.20728 3.91186 3.57696
# Velocity P-wave (km/s) = 6.58620 7.40898 7.00967
#
# Compressibility (1/GPa) = 0.01596713
#
# Stress axis : x y z
#
# Youngs Moduli (GPa) = 88.41850 102.73869 82.58083
#
# Poissons Ratio (x) = 0.24527 0.28834
# Poissons Ratio (y) = 0.21108 0.22411
# Poissons Ratio (z) = 0.30872 0.27881
#
# Static dielectric constant tensor:
#      x y z
#    x 3.991920 0.135690 -0.118100 
#    y 0.135690 4.178040 0.046170 
#    z -0.118100 0.046170 3.516760 
# 
# 
# High freq. dielectric constant tensor:
#      x y z
#    x 1.839720 0.005900 -0.008760 
#    y 0.005900 1.846660 0.001210 
#    z -0.008760 0.001210 1.797070 
# 
# From -- ./inp_files/263293.got.cif
#   From: 2010.06.25/outbox.cif.g09.slc.cpg/sg2_132_cif.got.tgz:263293.got - 2010.06.27 13:26:56.
