data_PCOD8005384
_publ_section_title
;
Structure prediction by ZEFSAII (Michael W. Deem and Ramdas Pophale) SiO2 
 PCOD8005384
Probable space group: P -1
;
_chemical_formula_sum "Si O2"
_cell_formula_units_Z 16
_cell_length_a 12.910812
_cell_length_b 15.018336
_cell_length_c 11.090672
_cell_angle_alpha 90.721244
_cell_angle_beta 90.132996
_cell_angle_gamma 160.505715
_cell_volume 716.933445
_symmetry_space_group_name_H-M "P -1"
_symmetry_group_IT_number 2
_symmetry_cell_setting 'triclinic'
loop_
_space_group_symop_operation_xyz
x,y,z
-x,-y,-z
loop_
_atom_site_type_symbol
_atom_site_label
_atom_site_fract_x
_atom_site_fract_y
_atom_site_fract_z
Si Si1 0.781516 0.424484 0.257544
Si Si2 0.106205 0.769831 0.033396
Si Si3 0.742002 0.877741 0.783044
Si Si4 0.334224 0.848173 0.827522
Si Si5 0.543384 0.960160 0.399234
Si Si6 0.654282 0.717854 0.537477
Si Si7 0.793786 0.488936 0.519927
Si Si8 0.701495 0.596477 0.078889
O O1 0.413288 0.153486 0.255633
O O2 0.837209 0.363446 0.260585
O O3 0.923436 0.577361 0.385133
O O4 0.920763 0.577011 0.139360
O O5 0.978605 0.767126 0.012057
O O6 0.466598 0.052911 0.078091
O O7 0.084516 0.701650 0.903081
O O8 0.683815 0.755407 0.680775
O O9 0.550705 0.681034 0.889141
O O10 0.107743 0.192499 0.815419
O O11 0.541792 0.076395 0.739099
O O12 0.912550 0.238621 0.398241
O O13 0.500000 0.000000 0.500000
O O14 0.347441 0.714862 0.427299
O O15 0.500000 0.500000 0.500000
O O16 0.462018 0.641613 0.475153
O O17 0.000000 0.000000 0.500000
O O18 0.500000 0.500000 0.000000
#
# Coordination Sequence:
#
# PCOD8005384 Si02
#       8
#     2   2   2   2   2   2   2   2
#     4  10  20  38  68  90 127 169 219 273 319 400
#     4  10  23  40  62  96 124 176 221 275 327 394
#     4  10  22  40  68  95 122 170 221 266 329 397
#     4  11  22  39  64  90 138 169 223 264 334 394
#     4  12  24  41  64  99 136 179 213 271 335 407
#     4  11  23  44  70  97 132 176 224 281 334 393
#     4  11  25  42  67  98 136 170 228 270 335 406
#     4  11  22  43  66  94 127 168 223 276 330 391
#
# _framework density 22.317274000000001
#
# number of rings (size 3 to 8) (size 9 to 14) (size 15 to 20)
#    0.000    1.250    2.500    3.375    1.750    2.000 
#    6.750    0.000    0.000    0.000    0.000    0.000 
#    0.000    0.000    0.000    0.000    0.000    0.000 
#
# Total GULP energy -198254.670856 kJ/mol
# GULP energy per Si atom -12390.916929 kJ/mol
# Density = 2.226648 g / cm^3
# Si number density = 22.317274 Si / 1000 Ang^3
#
#
#
# Elastic Constant Matrix: (Units=GPa)
#
#
# Indices 1 2 3 4 5 6 
#
# 1 139.8391 32.1926 57.5636 0.5327 -9.7798 4.8450
# 2 32.1926 95.7571 17.5336 6.6084 1.4050 -4.6119
# 3 57.5636 17.5336 92.6336 -4.7979 -3.4921 4.8364
# 4 0.5327 6.6084 -4.7979 37.7040 2.9601 6.1354
# 5 -9.7798 1.4050 -3.4921 2.9601 33.4589 0.1112
# 6 4.8450 -4.6119 4.8364 6.1354 0.1112 39.2592
#
#
#
# Elastic Compliance Matrix: (Units=1/GPa)
#
#
# Indices 1 2 3 4 5 6 
#
# 1 0.010327 -0.002438 -0.005847 -0.000539 0.002561 -0.000763
# 2 -0.002438 0.011731 -0.000986 -0.002416 -0.001102 0.002181
# 3 -0.005847 -0.000986 0.014812 0.002426 -0.000331 -0.001597
# 4 -0.000539 -0.002416 0.002426 0.028243 -0.002285 -0.004923
# 5 0.002561 -0.001102 -0.000331 -0.002285 0.030850 -0.000135
# 6 -0.000763 0.002181 -0.001597 -0.004923 -0.000135 0.026789
#
#
# Mechanical properties :
#
#
# Convention : Reuss Voigt Hill
#
# Bulk Modulus (GPa) = 54.56330 60.31215 57.43772
# Shear Modulus (GPa) = 33.92041 36.81376 35.36708
#
# Velocity S-wave (km/s) = 3.90284 4.06589 3.98520
# Velocity P-wave (km/s) = 6.69414 7.00896 6.85336
#
# Compressibility (1/GPa) = 0.01832734
#
# Stress axis : x y z
#
# Youngs Moduli (GPa) = 96.83346 85.24250 67.51288
#
# Poissons Ratio (x) = 0.20784 0.39477
# Poissons Ratio (y) = 0.23611 0.06656
# Poissons Ratio (z) = 0.56622 0.08403
#
# Static dielectric constant tensor:
#      x y z
#    x 4.340430 0.176960 0.200440 
#    y 0.176960 3.938790 0.697720 
#    z 0.200440 0.697720 2.881550 
# 
# 
# High freq. dielectric constant tensor:
#      x y z
#    x 1.880320 0.007940 -0.001780 
#    y 0.007940 1.883850 0.003820 
#    z -0.001780 0.003820 1.867230 
# 
# From -- ./inp_files/80379.got.cif
#   From: 2010.06.25/outbox.cif.g09.slc.cpg/sg2_41_cif.got.tgz:80379.got - 2010.06.27 13:26:56.
