data_PCOD8005648
_publ_section_title
;
Structure prediction by ZEFSAII (Michael W. Deem and Ramdas Pophale) SiO2 
 PCOD8005648
Probable space group: P -1
;
_chemical_formula_sum "Si O2"
_cell_formula_units_Z 12
_cell_length_a 9.754869
_cell_length_b 9.355673
_cell_length_c 10.964015
_cell_angle_alpha 141.392518
_cell_angle_beta 100.569793
_cell_angle_gamma 62.567974
_cell_volume 525.239411
_symmetry_space_group_name_H-M "P -1"
_symmetry_group_IT_number 2
_symmetry_cell_setting 'triclinic'
loop_
_space_group_symop_operation_xyz
x,y,z
-x,-y,-z
loop_
_atom_site_type_symbol
_atom_site_label
_atom_site_fract_x
_atom_site_fract_y
_atom_site_fract_z
Si Si1 0.428275 0.749492 0.243577
Si Si2 0.742818 0.483844 0.244712
Si Si3 0.159938 0.785143 0.676263
Si Si4 0.907249 0.674380 0.857051
Si Si5 0.189380 0.063420 0.227307
Si Si6 0.825589 0.258177 0.621294
O O1 0.577046 0.742047 0.337573
O O2 0.308242 0.724509 0.299280
O O3 0.323711 0.020281 0.324339
O O4 0.500000 0.500000 0.000000
O O5 0.735020 0.454730 0.370610
O O6 0.897218 0.507462 0.249160
O O7 0.762820 0.218519 0.011360
O O8 0.239587 0.726166 0.516594
O O9 0.983485 0.816383 0.653861
O O10 0.143352 0.056965 0.901239
O O11 0.822763 0.740577 0.752573
O O12 0.843702 0.514921 0.818435
O O13 0.000000 0.000000 0.500000
#
# Coordination Sequence:
#
# PCOD8005648 Si02
#       6
#     2   2   2   2   2   2
#     4  10  20  39  61  87 129 158 186 253 309 344
#     4   8  17  35  63  87 120 159 194 243 303 349
#     4   9  18  38  61  89 121 153 203 245 287 360
#     4   9  20  39  67  86 114 165 203 236 295 359
#     4   8  15  35  61  87 118 160 196 235 298 364
#     4  12  24  38  63  93 119 155 206 250 290 351
#
# _framework density 22.846726
#
# number of rings (size 3 to 8) (size 9 to 14) (size 15 to 20)
#    0.000    2.667    1.667    2.000    0.000    4.000 
#    0.000    8.333    0.000    0.000    0.000    0.000 
#    0.000    0.000    0.000    0.000    0.000    0.000 
#
# Total GULP energy -148752.595866 kJ/mol
# GULP energy per Si atom -12396.049655 kJ/mol
# Density = 2.279473 g / cm^3
# Si number density = 22.846726 Si / 1000 Ang^3
#
#
#
# Elastic Constant Matrix: (Units=GPa)
#
#
# Indices 1 2 3 4 5 6 
#
# 1 84.1626 51.6190 13.1781 -5.6370 -13.7077 -20.8061
# 2 51.6190 134.3120 23.6493 -6.6429 -14.1439 -36.5202
# 3 13.1781 23.6493 37.7076 -11.6615 -15.7029 -5.0269
# 4 -5.6370 -6.6429 -11.6615 40.1870 3.6154 -2.7373
# 5 -13.7077 -14.1439 -15.7029 3.6154 29.5818 -6.6561
# 6 -20.8061 -36.5202 -5.0269 -2.7373 -6.6561 50.0463
#
#
#
# Elastic Compliance Matrix: (Units=1/GPa)
#
#
# Indices 1 2 3 4 5 6 
#
# 1 0.016992 -0.004552 0.001051 0.001625 0.007157 0.004889
# 2 -0.004552 0.012113 -0.003507 0.000526 0.003346 0.007068
# 3 0.001051 -0.003507 0.040545 0.009861 0.020295 0.005189
# 4 0.001625 0.000526 0.009861 0.028002 0.003734 0.004078
# 5 0.007157 0.003346 0.020295 0.003734 0.052327 0.014619
# 6 0.004889 0.007068 0.005189 0.004078 0.014619 0.029860
#
#
# Mechanical properties :
#
#
# Convention : Reuss Voigt Hill
#
# Bulk Modulus (GPa) = 17.97484 48.11947 33.04715
# Shear Modulus (GPa) = 23.54046 35.14540 29.34293
#
# Velocity S-wave (km/s) = 3.21341 3.92639 3.58765
# Velocity P-wave (km/s) = 4.65324 6.45468 5.62653
#
# Compressibility (1/GPa) = 0.05563331
#
# Stress axis : x y z
#
# Youngs Moduli (GPa) = 58.85047 82.55810 24.66384
#
# Poissons Ratio (x) = 0.37583 -0.02593
# Poissons Ratio (y) = 0.26791 0.08651
# Poissons Ratio (z) = -0.06187 0.28956
#
# Static dielectric constant tensor:
#      x y z
#    x 4.144170 -0.516100 -0.073450 
#    y -0.516100 4.986600 -0.023220 
#    z -0.073450 -0.023220 4.004920 
# 
# 
# High freq. dielectric constant tensor:
#      x y z
#    x 1.868370 -0.013350 0.014100 
#    y -0.013350 1.920960 -0.002210 
#    z 0.014100 -0.002210 1.910710 
# 
# From -- ./inp_files/146250.got.cif
#   From: 2010.06.25/outbox.cif.g09.slc.cpg/sg2_74_cif.got.tgz:146250.got - 2010.06.27 13:26:56.
