data_PCOD8005596
_publ_section_title
;
Structure prediction by ZEFSAII (Michael W. Deem and Ramdas Pophale) SiO2 
 PCOD8005596
Probable space group: P -1
;
_chemical_formula_sum "Si O2"
_cell_formula_units_Z 12
_cell_length_a 8.649342
_cell_length_b 11.210930
_cell_length_c 19.583865
_cell_angle_alpha 148.273495
_cell_angle_beta 135.647467
_cell_angle_gamma 64.988207
_cell_volume 602.824169
_symmetry_space_group_name_H-M "P -1"
_symmetry_group_IT_number 2
_symmetry_cell_setting 'triclinic'
loop_
_space_group_symop_operation_xyz
x,y,z
-x,-y,-z
loop_
_atom_site_type_symbol
_atom_site_label
_atom_site_fract_x
_atom_site_fract_y
_atom_site_fract_z
Si Si1 0.056652 0.229155 0.951406
Si Si2 0.069370 0.686575 0.831949
Si Si3 0.216423 0.442642 0.962313
Si Si4 0.793411 0.726092 0.270374
Si Si5 0.652838 0.721113 0.805453
Si Si6 0.732811 0.633197 0.586008
O O1 0.142919 0.252375 0.911682
O O2 0.305835 0.301701 0.112019
O O3 0.824104 0.938194 0.752174
O O4 0.962012 0.430962 0.037002
O O5 0.185719 0.510596 0.805580
O O6 0.842119 0.645898 0.790160
O O7 0.965744 0.614717 0.685837
O O8 0.292229 0.989492 0.054938
O O9 0.166670 0.262273 0.792672
O O10 0.511546 0.675225 0.173310
O O11 0.000000 0.000000 0.500000
O O12 0.361223 0.519749 0.590661
O O13 0.500000 0.500000 0.500000
#
# Coordination Sequence:
#
# PCOD8005596 Si02
#       6
#     2   2   2   2   2   2
#     4  10  20  39  60  90 119 148 202 242 295 335
#     4   9  18  34  54  87 113 146 200 238 289 338
#     4  10  24  39  58  85 124 161 188 244 287 356
#     4  11  24  39  59  85 121 163 195 230 296 360
#     4   9  17  33  60  85 113 146 192 252 285 329
#     4   9  19  30  60  90 112 146 193 250 285 337
#
# _framework density 19.906302
#
# number of rings (size 3 to 8) (size 9 to 14) (size 15 to 20)
#    0.000    2.333    1.667    1.000    4.667    2.667 
#    0.000    6.667    0.000    6.000    0.000    0.000 
#    0.000    0.000    0.000    0.000    0.000    0.000 
#
# Total GULP energy -148760.397939 kJ/mol
# GULP energy per Si atom -12396.699828 kJ/mol
# Density = 1.986099 g / cm^3
# Si number density = 19.906302 Si / 1000 Ang^3
#
#
#
# Elastic Constant Matrix: (Units=GPa)
#
#
# Indices 1 2 3 4 5 6 
#
# 1 69.2542 32.1969 28.3424 0.5645 -2.0639 20.7811
# 2 32.1969 98.1259 34.3023 -5.7555 -16.3936 23.4967
# 3 28.3424 34.3023 136.3370 -16.7641 -18.5617 21.2044
# 4 0.5645 -5.7555 -16.7641 27.7018 4.0169 -1.0794
# 5 -2.0639 -16.3936 -18.5617 4.0169 15.4596 0.0841
# 6 20.7811 23.4967 21.2044 -1.0794 0.0841 32.1562
#
#
#
# Elastic Compliance Matrix: (Units=1/GPa)
#
#
# Indices 1 2 3 4 5 6 
#
# 1 0.019945 -0.004712 -0.002756 -0.002641 -0.004915 -0.007705
# 2 -0.004712 0.016884 0.000866 0.001122 0.018078 -0.009873
# 3 -0.002756 0.000866 0.010887 0.004795 0.012408 -0.005902
# 4 -0.002641 0.001122 0.004795 0.039794 -0.003740 -0.000930
# 5 -0.004915 0.018078 0.012408 -0.003740 0.099169 -0.018600
# 6 -0.007705 -0.009873 -0.005902 -0.000930 -0.018600 0.047201
#
#
# Mechanical properties :
#
#
# Convention : Reuss Voigt Hill
#
# Bulk Modulus (GPa) = 28.97533 54.82225 41.89879
# Shear Modulus (GPa) = 19.33570 28.98854 24.16212
#
# Velocity S-wave (km/s) = 3.12001 3.82022 3.48773
# Velocity P-wave (km/s) = 5.25040 6.85994 6.10841
#
# Compressibility (1/GPa) = 0.03451212
#
# Stress axis : x y z
#
# Youngs Moduli (GPa) = 50.13717 59.22600 91.85541
#
# Poissons Ratio (x) = 0.27907 0.25319
# Poissons Ratio (y) = 0.23624 -0.07956
# Poissons Ratio (z) = 0.13820 -0.05130
#
# Static dielectric constant tensor:
#      x y z
#    x 3.441240 0.280220 -0.231590 
#    y 0.280220 3.845560 -0.383200 
#    z -0.231590 -0.383200 3.982500 
# 
# 
# High freq. dielectric constant tensor:
#      x y z
#    x 1.741080 0.018260 -0.009850 
#    y 0.018260 1.787900 -0.013810 
#    z -0.009850 -0.013810 1.780600 
# 
# From -- ./inp_files/247443.got.cif
#   From: 2010.06.25/outbox.cif.g09.slc.cpg/sg2_124_cif.got.tgz:247443.got - 2010.06.27 13:26:56.
