data_PCOD8005094
_publ_section_title
;
Structure prediction by ZEFSAII (Michael W. Deem and Ramdas Pophale) SiO2 
 PCOD8005094
Probable space group: P -1
;
_chemical_formula_sum "Si O2"
_cell_formula_units_Z 16
_cell_length_a 8.504461
_cell_length_b 17.528356
_cell_length_c 4.973827
_cell_angle_alpha 91.265585
_cell_angle_beta 78.340891
_cell_angle_gamma 92.273121
_cell_volume 725.500090
_symmetry_space_group_name_H-M "P -1"
_symmetry_group_IT_number 2
_symmetry_cell_setting 'triclinic'
loop_
_space_group_symop_operation_xyz
x,y,z
-x,-y,-z
loop_
_atom_site_type_symbol
_atom_site_label
_atom_site_fract_x
_atom_site_fract_y
_atom_site_fract_z
Si Si1 0.308701 0.643369 0.408007
Si Si2 0.674599 0.522796 0.548716
Si Si3 0.565986 0.122171 0.088077
Si Si4 0.665073 0.620338 0.083074
Si Si5 0.779752 0.267148 0.038501
Si Si6 0.136790 0.230904 0.017973
Si Si7 0.742003 0.849921 0.531510
Si Si8 0.362333 0.027377 0.737759
O O1 0.234481 0.557196 0.472087
O O2 0.488542 0.646425 0.226350
O O3 0.310763 0.688558 0.691682
O O4 0.194122 0.680617 0.229439
O O5 0.500000 0.500000 0.500000
O O6 0.752267 0.582908 0.310506
O O7 0.657191 0.557090 0.851043
O O8 0.676933 0.193290 0.962875
O O9 0.453622 0.152129 0.373543
O O10 0.687315 0.052336 0.101259
O O11 0.433693 0.093267 0.915050
O O12 0.769044 0.690813 0.929073
O O13 0.948176 0.241386 0.090764
O O14 0.198731 0.213343 0.697523
O O15 0.171704 0.163810 0.214758
O O16 0.779257 0.934639 0.388865
O O17 0.500000 0.000000 0.500000
#
# Coordination Sequence:
#
# PCOD8005094 Si02
#       8
#     2   2   2   2   2   2   2   2
#     4  11  22  41  63  92 120 162 210 259 302 364
#     4  10  20  38  64  94 120 150 211 266 306 350
#     4  10  21  41  68  96 120 160 205 260 306 361
#     4  11  21  39  66  91 120 164 204 258 308 364
#     4  12  26  40  60  93 131 164 203 255 307 363
#     4  12  25  41  59  92 132 166 207 248 305 371
#     4  11  21  42  64  90 122 166 207 255 296 368
#     4   9  20  38  70  95 122 148 215 257 304 358
#
# _framework density 22.053751999999999
#
# number of rings (size 3 to 8) (size 9 to 14) (size 15 to 20)
#    0.000    1.250    1.250    6.750    3.500    0.000 
#    0.000    5.000    0.000    0.000    0.000    0.000 
#    0.000    0.000    0.000    0.000    0.000    0.000 
#
# Total GULP energy -198261.743575 kJ/mol
# GULP energy per Si atom -12391.358973 kJ/mol
# Density = 2.200356 g / cm^3
# Si number density = 22.053752 Si / 1000 Ang^3
#
#
#
# Elastic Constant Matrix: (Units=GPa)
#
#
# Indices 1 2 3 4 5 6 
#
# 1 57.2180 39.7842 13.3005 -5.9435 3.9406 -16.2368
# 2 39.7842 112.1863 45.6885 -0.4437 5.3890 -27.1709
# 3 13.3005 45.6885 111.3351 0.0417 14.3938 -7.8139
# 4 -5.9435 -0.4437 0.0417 45.2442 -13.9061 18.0871
# 5 3.9406 5.3890 14.3938 -13.9061 22.5583 -9.6589
# 6 -16.2368 -27.1709 -7.8139 18.0871 -9.6589 21.4505
#
#
#
# Elastic Compliance Matrix: (Units=1/GPa)
#
#
# Indices 1 2 3 4 5 6 
#
# 1 0.025081 -0.005450 0.000020 -0.002028 0.001940 0.014672
# 2 -0.005450 0.021285 -0.006668 -0.011662 0.007286 0.033520
# 3 0.000020 -0.006668 0.012373 0.000377 -0.009774 -0.008644
# 4 -0.002028 -0.011662 0.000377 0.044249 0.009016 -0.049420
# 5 0.001940 0.007286 -0.009774 0.009016 0.066706 0.029572
# 6 0.014672 0.033520 -0.008644 -0.049420 0.029572 0.152022
#
#
# Mechanical properties :
#
#
# Convention : Reuss Voigt Hill
#
# Bulk Modulus (GPa) = 28.95106 53.14288 41.04697
# Shear Modulus (GPa) = 13.98886 29.98169 21.98527
#
# Velocity S-wave (km/s) = 2.52128 3.69112 3.16079
# Velocity P-wave (km/s) = 4.65100 6.50500 5.65451
#
# Compressibility (1/GPa) = 0.03454105
#
# Stress axis : x y z
#
# Youngs Moduli (GPa) = 39.87036 46.98232 80.82247
#
# Poissons Ratio (x) = 0.25607 -0.00162
# Poissons Ratio (y) = 0.21731 0.53896
# Poissons Ratio (z) = -0.00080 0.31330
#
# Static dielectric constant tensor:
#      x y z
#    x 3.442490 -0.535190 0.360450 
#    y -0.535190 5.277590 -0.607210 
#    z 0.360450 -0.607210 3.839790 
# 
# 
# High freq. dielectric constant tensor:
#      x y z
#    x 1.810050 -0.030190 0.014220 
#    y -0.030190 1.888640 -0.002610 
#    z 0.014220 -0.002610 1.886490 
# 
# From -- ./inp_files/42225.got.cif
#   From: 2010.06.25/outbox.cif.g09.slc.cpg/sg2_22_cif.got.tgz:42225.got - 2010.06.27 13:26:56.
