data_PCOD8005740
_publ_section_title
;
Structure prediction by ZEFSAII (Michael W. Deem and Ramdas Pophale) SiO2 
 PCOD8005740
Probable space group: P -1
;
_chemical_formula_sum "Si O2"
_cell_formula_units_Z 16
_cell_length_a 7.975609
_cell_length_b 15.030571
_cell_length_c 10.386562
_cell_angle_alpha 120.849294
_cell_angle_beta 144.150110
_cell_angle_gamma 61.195325
_cell_volume 620.602568
_symmetry_space_group_name_H-M "P -1"
_symmetry_group_IT_number 2
_symmetry_cell_setting 'triclinic'
loop_
_space_group_symop_operation_xyz
x,y,z
-x,-y,-z
loop_
_atom_site_type_symbol
_atom_site_label
_atom_site_fract_x
_atom_site_fract_y
_atom_site_fract_z
Si Si1 0.122417 0.062465 0.239009
Si Si2 0.183205 0.893963 0.679647
Si Si3 0.311807 0.333549 0.367748
Si Si4 0.228905 0.218970 0.987340
Si Si5 0.774306 0.281939 0.124631
Si Si6 0.818292 0.454101 0.463071
Si Si7 0.312629 0.868994 0.451565
Si Si8 0.847113 0.710019 0.287480
O O1 0.469637 0.064057 0.441134
O O2 0.028195 0.022161 0.296671
O O3 0.948099 0.177291 0.211071
O O4 0.000000 0.000000 0.000000
O O5 0.212848 0.924924 0.569518
O O6 0.030955 0.791330 0.525109
O O7 0.499562 0.873097 0.928037
O O8 0.398836 0.449080 0.538633
O O9 0.510169 0.244898 0.501150
O O10 0.975352 0.336763 0.195333
O O11 0.333576 0.305320 0.210553
O O12 0.127135 0.280841 0.842272
O O13 0.963769 0.157774 0.823902
O O14 0.663609 0.361893 0.232850
O O15 0.486588 0.260829 0.854163
O O16 0.000000 0.500000 0.500000
O O17 0.028876 0.405222 0.672365
#
# Coordination Sequence:
#
# PCOD8005740 Si02
#       8
#     2   2   2   2   2   2   2   2
#     4  11  22  42  70  95 123 163 213 264 315 381
#     4  10  21  42  64  89 133 165 204 265 318 370
#     4   9  21  35  58  91 124 161 212 260 300 372
#     4  10  20  39  62  88 125 173 205 253 316 368
#     4  10  21  39  61  87 127 164 208 258 319 374
#     4  10  21  36  56  92 129 163 209 258 308 368
#     4   9  22  40  64  92 129 169 202 258 320 369
#     4  11  20  36  65  83 122 179 199 252 324 366
#
# _framework density 25.781393000000001
#
# number of rings (size 3 to 8) (size 9 to 14) (size 15 to 20)
#    0.000    2.000    2.500    0.000    1.750    4.000 
#    0.000   10.000    0.000    0.000    0.000    0.000 
#    0.000    0.000    0.000    0.000    0.000    0.000 
#
# Total GULP energy -198219.235722 kJ/mol
# GULP energy per Si atom -12388.702233 kJ/mol
# Density = 2.572271 g / cm^3
# Si number density = 25.781393 Si / 1000 Ang^3
#
#
#
# Elastic Constant Matrix: (Units=GPa)
#
#
# Indices 1 2 3 4 5 6 
#
# 1 119.7285 32.6696 28.4800 4.2356 0.3804 -23.9535
# 2 32.6696 78.6816 6.0582 17.1417 1.5615 -16.0783
# 3 28.4800 6.0582 99.6215 2.6926 24.7020 -19.2068
# 4 4.2356 17.1417 2.6926 30.4122 -10.8538 -1.2404
# 5 0.3804 1.5615 24.7020 -10.8538 51.0718 -10.1421
# 6 -23.9535 -16.0783 -19.2068 -1.2404 -10.1421 36.6956
#
#
#
# Elastic Compliance Matrix: (Units=1/GPa)
#
#
# Indices 1 2 3 4 5 6 
#
# 1 0.010933 -0.003839 -0.002687 0.002056 0.002741 0.004875
# 2 -0.003839 0.017471 0.001939 -0.010204 -0.002599 0.005101
# 3 -0.002687 0.001939 0.013185 -0.004026 -0.006463 0.004074
# 4 0.002056 -0.010204 -0.004026 0.042661 0.011170 -0.000707
# 5 0.002741 -0.002599 -0.006463 0.011170 0.026104 0.004860
# 6 0.004875 0.005101 0.004074 -0.000707 0.004860 0.036120
#
#
# Mechanical properties :
#
#
# Convention : Reuss Voigt Hill
#
# Bulk Modulus (GPa) = 30.85060 48.04969 39.45015
# Shear Modulus (GPa) = 30.03841 39.02417 34.53129
#
# Velocity S-wave (km/s) = 3.41709 3.89479 3.66374
# Velocity P-wave (km/s) = 5.24984 6.23728 5.76474
#
# Compressibility (1/GPa) = 0.03241428
#
# Stress axis : x y z
#
# Youngs Moduli (GPa) = 91.46812 57.23773 75.84220
#
# Poissons Ratio (x) = 0.21971 0.20381
# Poissons Ratio (y) = 0.35111 -0.14702
# Poissons Ratio (z) = 0.24580 -0.11096
#
# Static dielectric constant tensor:
#      x y z
#    x 5.133060 -0.275110 0.178100 
#    y -0.275110 5.308820 0.304230 
#    z 0.178100 0.304230 4.964170 
# 
# 
# High freq. dielectric constant tensor:
#      x y z
#    x 2.041960 0.000320 0.005220 
#    y 0.000320 2.032920 -0.003600 
#    z 0.005220 -0.003600 2.029180 
# 
# From -- ./inp_files/403297.got.cif
#   From: 2010.06.25/outbox.cif.g09.slc.cpg/sg2_202_cif.got.tgz:403297.got - 2010.06.27 13:26:56.
