data_PCOD8005576
_publ_section_title
;
Structure prediction by ZEFSAII (Michael W. Deem and Ramdas Pophale) SiO2 
 PCOD8005576
Probable space group: P -1
;
_chemical_formula_sum "Si O2"
_cell_formula_units_Z 16
_cell_length_a 8.623643
_cell_length_b 14.632278
_cell_length_c 17.820071
_cell_angle_alpha 156.353433
_cell_angle_beta 65.678675
_cell_angle_gamma 112.607119
_cell_volume 821.698903
_symmetry_space_group_name_H-M "P -1"
_symmetry_group_IT_number 2
_symmetry_cell_setting 'triclinic'
loop_
_space_group_symop_operation_xyz
x,y,z
-x,-y,-z
loop_
_atom_site_type_symbol
_atom_site_label
_atom_site_fract_x
_atom_site_fract_y
_atom_site_fract_z
Si Si1 0.243934 0.988851 0.682039
Si Si2 0.311063 0.566872 0.924009
Si Si3 0.003788 0.646385 0.535129
Si Si4 0.989277 0.481061 0.253762
Si Si5 0.107905 0.889165 0.113913
Si Si6 0.406471 0.805664 0.229140
Si Si7 0.856708 0.822248 0.420549
Si Si8 0.649790 0.354821 0.715210
O O1 0.191574 0.768314 0.578769
O O2 0.303264 0.889471 0.514710
O O3 0.070986 0.136756 0.822105
O O4 0.400023 0.141568 0.798373
O O5 0.312039 0.629996 0.059258
O O6 0.264660 0.797555 0.062266
O O7 0.171374 0.369561 0.783010
O O8 0.495540 0.476505 0.794109
O O9 0.957978 0.487096 0.353524
O O10 0.000000 0.500000 0.500000
O O11 0.862566 0.846249 0.716256
O O12 0.189412 0.474434 0.190706
O O13 0.911849 0.705046 0.398892
O O14 0.903090 0.252081 0.067381
O O15 0.409603 0.685538 0.218320
O O16 0.315915 0.047113 0.431712
O O17 0.000000 0.000000 0.500000
#
# Coordination Sequence:
#
# PCOD8005576 Si02
#       8
#     2   2   2   2   2   2   2   2
#     4   9  21  39  61  81 120 151 196 245 295 346
#     4  11  24  36  58  83 118 162 198 243 289 340
#     4   9  20  39  67  91 111 148 195 246 300 356
#     4  10  20  39  60  86 123 151 196 242 289 347
#     4   9  21  40  59  87 115 151 196 240 300 348
#     4  12  22  37  56  84 121 161 205 239 285 342
#     4  11  23  39  55  86 122 165 199 239 284 340
#     4  11  21  38  55  85 119 161 198 240 285 344
#
# _framework density 19.471852999999999
#
# number of rings (size 3 to 8) (size 9 to 14) (size 15 to 20)
#    0.750    1.000    2.500    2.250    0.000    1.000 
#    2.250    0.000    0.000    6.000    0.000    0.000 
#    0.000    0.000    0.000    0.000    0.000    0.000 
#
# Total GULP energy -198301.530444 kJ/mol
# GULP energy per Si atom -12393.845653 kJ/mol
# Density = 1.942753 g / cm^3
# Si number density = 19.471853 Si / 1000 Ang^3
#
#
#
# Elastic Constant Matrix: (Units=GPa)
#
#
# Indices 1 2 3 4 5 6 
#
# 1 83.1861 40.0400 28.1177 1.8396 -7.7205 -19.5162
# 2 40.0400 113.6883 48.8256 -4.8751 3.3572 -19.7587
# 3 28.1177 48.8256 99.9764 -1.8080 -7.0235 -19.9817
# 4 1.8396 -4.8751 -1.8080 23.2028 -11.1017 0.9559
# 5 -7.7205 3.3572 -7.0235 -11.1017 38.0109 4.5116
# 6 -19.5162 -19.7587 -19.9817 0.9559 4.5116 21.4919
#
#
#
# Elastic Compliance Matrix: (Units=1/GPa)
#
#
# Indices 1 2 3 4 5 6 
#
# 1 0.016868 -0.003949 -0.000544 -0.001763 0.001870 0.010867
# 2 -0.003949 0.013106 -0.004515 0.001048 -0.003065 0.004862
# 3 -0.000544 -0.004515 0.014129 0.000930 0.002223 0.007984
# 4 -0.001763 0.001048 0.000930 0.051044 0.015252 -0.005244
# 5 0.001870 -0.003065 0.002223 0.015252 0.032604 -0.006576
# 6 0.010867 0.004862 0.007984 -0.005244 -0.006576 0.069903
#
#
# Mechanical properties :
#
#
# Convention : Reuss Voigt Hill
#
# Bulk Modulus (GPa) = 38.33269 58.97972 48.65621
# Shear Modulus (GPa) = 22.28496 28.53229 25.40863
#
# Velocity S-wave (km/s) = 3.38667 3.83209 3.61625
# Velocity P-wave (km/s) = 5.91791 7.06650 6.51755
#
# Compressibility (1/GPa) = 0.02608739
#
# Stress axis : x y z
#
# Youngs Moduli (GPa) = 59.28398 76.29910 70.77783
#
# Poissons Ratio (x) = 0.30133 0.03850
# Poissons Ratio (y) = 0.23413 0.31953
# Poissons Ratio (z) = 0.03224 0.34446
#
# Static dielectric constant tensor:
#      x y z
#    x 3.688740 -0.244840 -0.121390 
#    y -0.244840 3.028960 -0.046460 
#    z -0.121390 -0.046460 3.866490 
# 
# 
# High freq. dielectric constant tensor:
#      x y z
#    x 1.752210 -0.024400 0.000050 
#    y -0.024400 1.705110 -0.007620 
#    z 0.000050 -0.007620 1.783890 
# 
# From -- ./inp_files/501145.got.cif
#   From: 2010.06.25/outbox.cif.g09.slc.cpg/sg2_251_cif.got.tgz:501145.got - 2010.06.27 13:26:56.
