data_PCOD8005286
_publ_section_title
;
Structure prediction by ZEFSAII (Michael W. Deem and Ramdas Pophale) SiO2 
 PCOD8005286
Probable space group: P -1
;
_chemical_formula_sum "Si O2"
_cell_formula_units_Z 16
_cell_length_a 12.447772
_cell_length_b 11.930309
_cell_length_c 12.734512
_cell_angle_alpha 122.825215
_cell_angle_beta 103.597796
_cell_angle_gamma 125.727546
_cell_volume 758.967135
_symmetry_space_group_name_H-M "P -1"
_symmetry_group_IT_number 2
_symmetry_cell_setting 'triclinic'
loop_
_space_group_symop_operation_xyz
x,y,z
-x,-y,-z
loop_
_atom_site_type_symbol
_atom_site_label
_atom_site_fract_x
_atom_site_fract_y
_atom_site_fract_z
Si Si1 0.121474 0.834700 0.358982
Si Si2 0.314202 0.419688 0.436007
Si Si3 0.252887 0.700767 0.264258
Si Si4 0.574411 0.901168 0.870930
Si Si5 0.028472 0.254740 0.114138
Si Si6 0.651171 0.288331 0.057949
Si Si7 0.009167 0.103698 0.810870
Si Si8 0.434464 0.680418 0.155049
O O1 0.120553 0.700135 0.217947
O O2 0.118085 0.954313 0.340974
O O3 0.341278 0.087983 0.609150
O O4 0.911063 0.605808 0.272873
O O5 0.500000 0.500000 0.500000
O O6 0.427953 0.673363 0.633540
O O7 0.188149 0.322338 0.249044
O O8 0.120006 0.173343 0.350897
O O9 0.160034 0.528748 0.258313
O O10 0.255875 0.607863 0.115822
O O11 0.500000 0.000000 0.500000
O O12 0.621640 0.098996 0.938537
O O13 0.439814 0.762060 0.877191
O O14 0.803541 0.060206 0.026299
O O15 0.957556 0.112303 0.916881
O O16 0.513795 0.227820 0.906808
O O17 0.279318 0.383406 0.986729
#
# Coordination Sequence:
#
# PCOD8005286 Si02
#       8
#     2   2   2   2   2   2   2   2
#     4  10  20  38  66  92 127 164 208 269 315 368
#     4  12  27  40  65  93 131 171 210 257 315 384
#     4   9  19  31  60  95 120 156 203 261 318 369
#     4  11  25  41  64  91 134 170 212 259 309 382
#     4  11  23  40  62  96 129 165 205 263 324 372
#     4  10  23  42  62  97 126 170 215 257 314 375
#     4  10  23  38  61  96 125 159 209 255 317 381
#     4   9  21  35  63  88 126 161 209 263 314 368
#
# _framework density 21.081284
#
# number of rings (size 3 to 8) (size 9 to 14) (size 15 to 20)
#    0.000    1.750    2.500    0.375   10.500    2.500 
#    0.000    5.000    0.000    4.500    0.000    0.000 
#    0.000    0.000    0.000    0.000    0.000    0.000 
#
# Total GULP energy -198312.952814 kJ/mol
# GULP energy per Si atom -12394.559551 kJ/mol
# Density = 2.103330 g / cm^3
# Si number density = 21.081284 Si / 1000 Ang^3
#
#
#
# Elastic Constant Matrix: (Units=GPa)
#
#
# Indices 1 2 3 4 5 6 
#
# 1 48.9518 25.0860 31.9411 1.4616 8.8860 3.7312
# 2 25.0860 119.9202 43.6711 6.4606 7.6072 -5.4109
# 3 31.9411 43.6711 110.2598 3.0538 17.5394 -4.5833
# 4 1.4616 6.4606 3.0538 31.2241 -2.5979 -2.7562
# 5 8.8860 7.6072 17.5394 -2.5979 24.1452 2.1453
# 6 3.7312 -5.4109 -4.5833 -2.7562 2.1453 27.5614
#
#
#
# Elastic Compliance Matrix: (Units=1/GPa)
#
#
# Indices 1 2 3 4 5 6 
#
# 1 0.027329 -0.003425 -0.006087 -0.000777 -0.004184 -0.005136
# 2 -0.003425 0.010304 -0.002941 -0.001535 -0.000180 0.001858
# 3 -0.006087 -0.002941 0.013214 -0.000706 -0.006766 0.002900
# 4 -0.000777 -0.001535 -0.000706 0.033065 0.004606 0.002634
# 5 -0.004184 -0.000180 -0.006766 0.004606 0.048772 -0.003930
# 6 -0.005136 0.001858 0.002900 0.002634 -0.003930 0.038394
#
#
# Mechanical properties :
#
#
# Convention : Reuss Voigt Hill
#
# Bulk Modulus (GPa) = 38.54661 53.39202 45.96931
# Shear Modulus (GPa) = 24.43411 28.48170 26.45791
#
# Velocity S-wave (km/s) = 3.40817 3.67964 3.54650
# Velocity P-wave (km/s) = 5.81480 6.59050 6.21477
#
# Compressibility (1/GPa) = 0.02594262
#
# Stress axis : x y z
#
# Youngs Moduli (GPa) = 36.59071 97.04792 75.67791
#
# Poissons Ratio (x) = 0.33237 0.46064
# Poissons Ratio (y) = 0.12532 0.22254
# Poissons Ratio (z) = 0.22272 0.28539
#
# Static dielectric constant tensor:
#      x y z
#    x 3.862090 0.019270 -0.153900 
#    y 0.019270 3.890840 0.316370 
#    z -0.153900 0.316370 3.891980 
# 
# 
# High freq. dielectric constant tensor:
#      x y z
#    x 1.795300 -0.010500 0.007440 
#    y -0.010500 1.838940 0.018680 
#    z 0.007440 0.018680 1.837520 
# 
# From -- ./inp_files/428749.got.cif
#   From: 2010.06.25/outbox.cif.g09.slc.cpg/sg2_215_cif.got.tgz:428749.got - 2010.06.27 13:26:56.
