data_PCOD8005203
_publ_section_title
;
Structure prediction by ZEFSAII (Michael W. Deem and Ramdas Pophale) SiO2 
 PCOD8005203
Probable space group: P -1
;
_chemical_formula_sum "Si O2"
_cell_formula_units_Z 14
_cell_length_a 9.555238
_cell_length_b 17.652598
_cell_length_c 11.622709
_cell_angle_alpha 26.425052
_cell_angle_beta 130.070891
_cell_angle_gamma 135.432995
_cell_volume 612.136494
_symmetry_space_group_name_H-M "P -1"
_symmetry_group_IT_number 2
_symmetry_cell_setting 'triclinic'
loop_
_space_group_symop_operation_xyz
x,y,z
-x,-y,-z
loop_
_atom_site_type_symbol
_atom_site_label
_atom_site_fract_x
_atom_site_fract_y
_atom_site_fract_z
Si Si1 0.259675 0.064679 0.512540
Si Si2 0.100760 0.896311 0.416897
Si Si3 0.569430 0.660853 0.223400
Si Si4 0.991803 0.732811 0.956424
Si Si5 0.046975 0.251425 0.831804
Si Si6 0.679576 0.077014 0.722316
Si Si7 0.865873 0.493031 0.832945
O O1 0.213910 0.250066 0.218269
O O2 0.493199 0.131832 0.567768
O O3 0.180915 0.923076 0.554153
O O4 0.152077 0.945758 0.730391
O O5 0.282066 0.907651 0.414938
O O6 0.908007 0.708168 0.541983
O O7 0.024156 0.048931 0.130748
O O8 0.500000 0.500000 0.500000
O O9 0.738114 0.635712 0.267416
O O10 0.364506 0.625089 0.094879
O O11 0.643023 0.869326 0.029287
O O12 0.974820 0.658991 0.179683
O O13 0.056529 0.587567 0.123548
O O14 0.865760 0.229281 0.681168
O O15 0.000000 0.500000 0.000000
#
# Coordination Sequence:
#
# PCOD8005203 Si02
#       7
#     2   2   2   2   2   2   2
#     4  10  20  39  65  91 125 162 205 254 304 365
#     4  10  20  38  65  93 124 159 208 254 301 369
#     4  11  22  41  63  94 124 162 206 258 306 365
#     4  10  22  41  61  92 129 159 204 257 311 358
#     4  10  23  41  65  90 128 163 206 252 309 370
#     4  11  20  39  65  95 117 169 209 250 302 375
#     4  12  22  40  65  94 123 163 207 255 307 364
#
# _framework density 22.870715000000001
#
# number of rings (size 3 to 8) (size 9 to 14) (size 15 to 20)
#    0.000    1.429    2.857    3.857    0.000    2.857 
#    0.000    5.714    0.000    0.000    0.000    0.000 
#    0.000    0.000    0.000    0.000    0.000    0.000 
#
# Total GULP energy -173511.887915 kJ/mol
# GULP energy per Si atom -12393.706280 kJ/mol
# Density = 2.281866 g / cm^3
# Si number density = 22.870715 Si / 1000 Ang^3
#
#
#
# Elastic Constant Matrix: (Units=GPa)
#
#
# Indices 1 2 3 4 5 6 
#
# 1 150.4628 80.2705 20.9509 12.6978 -14.2933 21.6498
# 2 80.2705 122.1929 26.0440 10.6076 -1.6227 23.9297
# 3 20.9509 26.0440 34.3087 -7.3767 -17.0575 0.3486
# 4 12.6978 10.6076 -7.3767 34.8152 0.5417 5.3644
# 5 -14.2933 -1.6227 -17.0575 0.5417 34.0196 7.3467
# 6 21.6498 23.9297 0.3486 5.3644 7.3467 32.6760
#
#
#
# Elastic Compliance Matrix: (Units=1/GPa)
#
#
# Indices 1 2 3 4 5 6 
#
# 1 0.011263 -0.006617 0.000610 -0.001491 0.005528 -0.003622
# 2 -0.006617 0.016679 -0.013224 -0.004542 -0.007402 -0.005279
# 3 0.000610 -0.013224 0.055624 0.015157 0.027259 0.000069
# 4 -0.001491 -0.004542 0.015157 0.034219 0.006862 -0.003009
# 5 0.005528 -0.007402 0.027259 0.006862 0.047138 -0.010257
# 6 -0.003622 -0.005279 0.000069 -0.003009 -0.010257 0.039669
#
#
# Mechanical properties :
#
#
# Convention : Reuss Voigt Hill
#
# Bulk Modulus (GPa) = 22.17080 62.38835 42.27957
# Shear Modulus (GPa) = 19.37323 32.28209 25.82766
#
# Velocity S-wave (km/s) = 2.91361 3.76107 3.36414
# Velocity P-wave (km/s) = 4.58627 6.79697 5.79796
#
# Compressibility (1/GPa) = 0.04510438
#
# Stress axis : x y z
#
# Youngs Moduli (GPa) = 88.78255 59.95591 17.97795
#
# Poissons Ratio (x) = 0.39673 -0.01096
# Poissons Ratio (y) = 0.58748 0.23773
# Poissons Ratio (z) = -0.05414 0.79283
#
# Static dielectric constant tensor:
#      x y z
#    x 6.641500 -0.863380 -0.151290 
#    y -0.863380 3.946860 0.774060 
#    z -0.151290 0.774060 3.567840 
# 
# 
# High freq. dielectric constant tensor:
#      x y z
#    x 1.908310 0.010550 -0.002200 
#    y 0.010550 1.881440 0.008050 
#    z -0.002200 0.008050 1.909320 
# 
# From -- ./inp_files/184541.got.cif
#   From: 2010.06.25/outbox.cif.g09.slc.cpg/sg2_93_cif.got.tgz:184541.got - 2010.06.27 13:26:56.
