data_PCOD8005462
_publ_section_title
;
Structure prediction by ZEFSAII (Michael W. Deem and Ramdas Pophale) SiO2 
 PCOD8005462
Probable space group: P -1
;
_chemical_formula_sum "Si O2"
_cell_formula_units_Z 14
_cell_length_a 17.414915
_cell_length_b 9.144959
_cell_length_c 12.511400
_cell_angle_alpha 138.801434
_cell_angle_beta 30.856886
_cell_angle_gamma 120.234718
_cell_volume 610.435568
_symmetry_space_group_name_H-M "P -1"
_symmetry_group_IT_number 2
_symmetry_cell_setting 'triclinic'
loop_
_space_group_symop_operation_xyz
x,y,z
-x,-y,-z
loop_
_atom_site_type_symbol
_atom_site_label
_atom_site_fract_x
_atom_site_fract_y
_atom_site_fract_z
Si Si1 0.095192 0.249147 0.686524
Si Si2 0.150054 0.950252 0.078612
Si Si3 0.465544 0.496461 0.416209
Si Si4 0.030873 0.198941 0.142116
Si Si5 0.771630 0.705143 0.672633
Si Si6 0.378151 0.188275 0.662780
Si Si7 0.430103 0.043271 0.275066
O O1 0.140102 0.314998 0.555098
O O2 0.251900 0.063015 0.464847
O O3 0.973898 0.119660 0.742216
O O4 0.000000 0.500000 0.000000
O O5 0.049565 0.134764 0.208155
O O6 0.231248 0.071674 0.129530
O O7 0.285151 0.712283 0.726781
O O8 0.500000 0.500000 0.500000
O O9 0.598402 0.555478 0.219293
O O10 0.466747 0.230156 0.252894
O O11 0.864298 0.446375 0.476036
O O12 0.188668 0.241375 0.936968
O O13 0.000000 0.000000 0.000000
O O14 0.576020 0.772958 0.928730
O O15 0.431821 0.088560 0.424576
O O16 0.500000 0.000000 0.500000
#
# Coordination Sequence:
#
# PCOD8005462 Si02
#       7
#     2   2   2   2   2   2   2
#     4  12  25  43  71 103 139 180 226 283 351 404
#     4  12  23  45  68 104 139 178 233 282 331 407
#     4  10  20  38  72  98 140 172 225 277 338 401
#     4  12  27  46  68 101 139 184 230 280 350 405
#     4  12  26  44  70  98 139 182 230 288 336 409
#     4  11  21  41  70 101 131 183 226 268 340 413
#     4  11  23  44  68 104 141 174 229 282 338 403
#
# _framework density 22.934442000000001
#
# number of rings (size 3 to 8) (size 9 to 14) (size 15 to 20)
#    0.000    0.571    5.714    3.857    2.000    1.143 
#    0.000    4.286    0.000    0.000    0.000    0.000 
#    0.000    0.000    0.000    0.000    0.000    0.000 
#
# Total GULP energy -173555.528019 kJ/mol
# GULP energy per Si atom -12396.823430 kJ/mol
# Density = 2.288224 g / cm^3
# Si number density = 22.934442 Si / 1000 Ang^3
#
#
#
# Elastic Constant Matrix: (Units=GPa)
#
#
# Indices 1 2 3 4 5 6 
#
# 1 68.9740 9.0958 15.4587 3.6944 -16.3419 -12.7612
# 2 9.0958 74.8783 24.6837 3.7466 -14.7885 -6.9761
# 3 15.4587 24.6837 129.6317 21.0227 -30.9632 -2.3755
# 4 3.6944 3.7466 21.0227 36.0328 -8.1682 -8.3566
# 5 -16.3419 -14.7885 -30.9632 -8.1682 40.6821 -5.8097
# 6 -12.7612 -6.9761 -2.3755 -8.3566 -5.8097 45.3875
#
#
#
# Elastic Compliance Matrix: (Units=1/GPa)
#
#
# Indices 1 2 3 4 5 6 
#
# 1 0.017539 0.000069 -0.000340 0.001667 0.008041 0.006261
# 2 0.000069 0.015145 -0.001907 0.001338 0.004794 0.003108
# 3 -0.000340 -0.001907 0.010295 -0.004347 0.006153 0.000137
# 4 0.001667 0.001338 -0.004347 0.032892 0.005481 0.007204
# 5 0.008041 0.004794 0.006153 0.005481 0.036624 0.009017
# 6 0.006261 0.003108 0.000137 0.007204 0.009017 0.026758
#
#
# Mechanical properties :
#
#
# Convention : Reuss Voigt Hill
#
# Bulk Modulus (GPa) = 25.89080 41.32894 33.60987
# Shear Modulus (GPa) = 31.95245 39.37020 35.66133
#
# Velocity S-wave (km/s) = 3.73662 4.14773 3.94753
# Velocity P-wave (km/s) = 5.47083 6.40295 5.95516
#
# Compressibility (1/GPa) = 0.03862376
#
# Stress axis : x y z
#
# Youngs Moduli (GPa) = 57.01470 66.03003 97.13644
#
# Poissons Ratio (x) = -0.00458 0.03302
# Poissons Ratio (y) = -0.00395 0.18524
# Poissons Ratio (z) = 0.01938 0.12592
#
# Static dielectric constant tensor:
#      x y z
#    x 4.496110 0.115520 -0.089160 
#    y 0.115520 4.686480 -0.042170 
#    z -0.089160 -0.042170 4.083600 
# 
# 
# High freq. dielectric constant tensor:
#      x y z
#    x 1.916060 -0.011150 -0.022450 
#    y -0.011150 1.904850 -0.004960 
#    z -0.022450 -0.004960 1.903680 
# 
# From -- ./inp_files/158602.got.cif
#   From: 2010.06.25/outbox.cif.g09.slc.cpg/sg2_80_cif.got.tgz:158602.got - 2010.06.27 13:26:56.
