data_PCOD8005609
_publ_section_title
;
Structure prediction by ZEFSAII (Michael W. Deem and Ramdas Pophale) SiO2 
 PCOD8005609
Probable space group: P -1
;
_chemical_formula_sum "Si O2"
_cell_formula_units_Z 16
_cell_length_a 8.743711
_cell_length_b 13.602746
_cell_length_c 8.215940
_cell_angle_alpha 57.086947
_cell_angle_beta 110.807410
_cell_angle_gamma 103.410345
_cell_volume 765.902078
_symmetry_space_group_name_H-M "P -1"
_symmetry_group_IT_number 2
_symmetry_cell_setting 'triclinic'
loop_
_space_group_symop_operation_xyz
x,y,z
-x,-y,-z
loop_
_atom_site_type_symbol
_atom_site_label
_atom_site_fract_x
_atom_site_fract_y
_atom_site_fract_z
Si Si1 0.643693 0.750272 0.113421
Si Si2 0.104958 0.906366 0.412120
Si Si3 0.803019 0.306918 0.554435
Si Si4 0.866942 0.097188 0.199287
Si Si5 0.935966 0.708018 0.082832
Si Si6 0.589458 0.967622 0.723558
Si Si7 0.428564 0.852278 0.191197
Si Si8 0.343154 0.468890 0.858860
O O1 0.839525 0.769981 0.140274
O O2 0.587339 0.793417 0.229097
O O3 0.589263 0.612649 0.188509
O O4 0.565628 0.829025 0.870198
O O5 0.093871 0.774866 0.453233
O O6 0.174629 0.898952 0.628957
O O7 0.221865 0.987594 0.266665
O O8 0.931311 0.969006 0.292899
O O9 0.641126 0.235578 0.618286
O O10 0.741118 0.417398 0.337389
O O11 0.911278 0.348076 0.716098
O O12 0.705120 0.122404 0.017581
O O13 0.005619 0.199481 0.116393
O O14 0.807272 0.609933 0.041124
O O15 0.500000 0.000000 0.500000
O O16 0.514276 0.027685 0.803070
O O17 0.500000 0.500000 0.000000
#
# Coordination Sequence:
#
# PCOD8005609 Si02
#       8
#     2   2   2   2   2   2   2   2
#     4  10  22  39  61  89 124 162 197 253 301 362
#     4  10  21  35  63  89 122 159 201 245 303 365
#     4  10  22  40  62  87 118 164 206 253 298 363
#     4  10  20  39  60  92 122 160 198 249 304 368
#     4   9  21  40  63  84 123 155 207 249 304 355
#     4  11  22  37  60  92 128 157 196 250 310 364
#     4  10  23  36  64  90 124 158 200 245 311 365
#     4  10  23  39  67  85 122 161 208 250 308 350
#
# _framework density 20.890398000000001
#
# number of rings (size 3 to 8) (size 9 to 14) (size 15 to 20)
#    0.750    1.250    1.250    1.500    7.000    2.000 
#    2.250    0.625    0.000    0.000    0.000    0.000 
#    0.000    0.000    0.000    0.000    0.000    0.000 
#
# Total GULP energy -198214.153197 kJ/mol
# GULP energy per Si atom -12388.384575 kJ/mol
# Density = 2.084285 g / cm^3
# Si number density = 20.890398 Si / 1000 Ang^3
#
#
#
# Elastic Constant Matrix: (Units=GPa)
#
#
# Indices 1 2 3 4 5 6 
#
# 1 64.6178 25.7107 14.5422 -9.2423 -9.9982 -13.0287
# 2 25.7107 99.0748 37.0547 -16.9425 1.9045 -7.5960
# 3 14.5422 37.0547 86.1554 -18.8714 1.2762 -7.3099
# 4 -9.2423 -16.9425 -18.8714 35.0434 -2.5794 0.6246
# 5 -9.9982 1.9045 1.2762 -2.5794 26.8929 3.7617
# 6 -13.0287 -7.5960 -7.3099 0.6246 3.7617 33.0809
#
#
#
# Elastic Compliance Matrix: (Units=1/GPa)
#
#
# Indices 1 2 3 4 5 6 
#
# 1 0.020038 -0.004120 -0.000451 0.003479 0.007264 0.005955
# 2 -0.004120 0.013368 -0.004336 0.002875 -0.002091 0.000672
# 3 -0.000451 -0.004336 0.014999 0.005803 -0.000305 0.002066
# 4 0.003479 0.002875 0.005803 0.034207 0.003782 0.002237
# 5 0.007264 -0.002091 -0.000305 0.003782 0.040745 -0.002391
# 6 0.005955 0.000672 0.002066 0.002237 -0.002391 0.033415
#
#
# Mechanical properties :
#
#
# Convention : Reuss Voigt Hill
#
# Bulk Modulus (GPa) = 32.68868 44.94037 38.81452
# Shear Modulus (GPa) = 27.05893 30.50612 28.78252
#
# Velocity S-wave (km/s) = 3.60291 3.82552 3.71588
# Velocity P-wave (km/s) = 5.74366 6.40874 6.08529
#
# Compressibility (1/GPa) = 0.03059163
#
# Stress axis : x y z
#
# Youngs Moduli (GPa) = 49.90419 74.80743 66.67225
#
# Poissons Ratio (x) = 0.30818 0.03005
# Poissons Ratio (y) = 0.20559 0.28910
# Poissons Ratio (z) = 0.02250 0.32437
#
# Static dielectric constant tensor:
#      x y z
#    x 3.997370 -0.040340 -0.121000 
#    y -0.040340 3.673660 -0.168400 
#    z -0.121000 -0.168400 3.646020 
# 
# 
# High freq. dielectric constant tensor:
#      x y z
#    x 1.822600 -0.001030 0.001160 
#    y -0.001030 1.799730 -0.010880 
#    z 0.001160 -0.010880 1.812230 
# 
# From -- ./inp_files/205747.got.cif
#   From: 2010.06.25/outbox.cif.g09.slc.cpg/sg2_103_cif.got.tgz:205747.got - 2010.06.27 13:26:56.
