data_PCOD8005423
_publ_section_title
;
Structure prediction by ZEFSAII (Michael W. Deem and Ramdas Pophale) SiO2 
 PCOD8005423
Probable space group: P -1
;
_chemical_formula_sum "Si O2"
_cell_formula_units_Z 16
_cell_length_a 13.625359
_cell_length_b 27.011954
_cell_length_c 8.687815
_cell_angle_alpha 42.464721
_cell_angle_beta 53.731212
_cell_angle_gamma 21.921995
_cell_volume 749.377843
_symmetry_space_group_name_H-M "P -1"
_symmetry_group_IT_number 2
_symmetry_cell_setting 'triclinic'
loop_
_space_group_symop_operation_xyz
x,y,z
-x,-y,-z
loop_
_atom_site_type_symbol
_atom_site_label
_atom_site_fract_x
_atom_site_fract_y
_atom_site_fract_z
Si Si1 0.043579 0.718638 0.794470
Si Si2 0.376504 0.756730 0.084878
Si Si3 0.663995 0.809082 0.798547
Si Si4 0.356378 0.171789 0.594575
Si Si5 0.452846 0.582143 0.214914
Si Si6 0.104682 0.051547 0.708617
Si Si7 0.073121 0.195061 0.968374
Si Si8 0.059961 0.483312 0.806819
O O1 0.311034 0.551888 0.827864
O O2 0.759574 0.833866 0.727066
O O3 0.002652 0.828527 0.583658
O O4 0.071525 0.684170 0.028268
O O5 0.464230 0.660540 0.077615
O O6 0.657618 0.620497 0.234648
O O7 0.159601 0.826795 0.222917
O O8 0.230494 0.913591 0.813487
O O9 0.643996 0.824100 0.598259
O O10 0.350576 0.954194 0.812225
O O11 0.887713 0.624768 0.071664
O O12 0.204982 0.326992 0.450786
O O13 0.669086 0.996483 0.775557
O O14 0.175920 0.198849 0.743082
O O15 0.500000 0.500000 0.500000
O O16 0.150076 0.734368 0.071716
O O17 0.000000 0.500000 0.000000
#
# Coordination Sequence:
#
# PCOD8005423 Si02
#       8
#     2   2   2   2   2   2   2   2
#     4  12  23  40  63  97 130 165 209 264 318 371
#     4  10  21  38  62  99 121 166 218 254 315 370
#     4  10  20  38  69  94 121 170 213 254 312 382
#     4  10  21  39  62  92 129 167 213 258 318 373
#     4  12  23  41  66  88 122 169 219 256 313 383
#     4  10  21  36  64  97 131 155 211 273 303 369
#     4  11  25  38  59  94 134 166 207 269 317 370
#     4   9  18  37  66  92 121 159 214 261 299 372
#
# _framework density 21.351044999999999
#
# number of rings (size 3 to 8) (size 9 to 14) (size 15 to 20)
#    0.000    1.500    2.500    3.750    0.000    1.000 
#    0.000    1.250    2.750    0.000    0.000    0.000 
#    0.000    0.000    0.000    0.000    0.000    0.000 
#
# Total GULP energy -198304.258528 kJ/mol
# GULP energy per Si atom -12394.016158 kJ/mol
# Density = 2.130245 g / cm^3
# Si number density = 21.351045 Si / 1000 Ang^3
#
#
#
# Elastic Constant Matrix: (Units=GPa)
#
#
# Indices 1 2 3 4 5 6 
#
# 1 89.6670 27.3026 42.1739 -1.4469 -12.9725 -9.3730
# 2 27.3026 121.3500 35.8932 -2.5234 -10.2985 -10.3411
# 3 42.1739 35.8932 81.4441 -15.5643 -12.0745 -2.8802
# 4 -1.4469 -2.5234 -15.5643 25.7030 0.5897 -8.7571
# 5 -12.9725 -10.2985 -12.0745 0.5897 31.1637 -3.6323
# 6 -9.3730 -10.3411 -2.8802 -8.7571 -3.6323 34.1954
#
#
#
# Elastic Compliance Matrix: (Units=1/GPa)
#
#
# Indices 1 2 3 4 5 6 
#
# 1 0.015858 -0.000744 -0.007771 -0.002909 0.003763 0.003122
# 2 -0.000744 0.009861 -0.003694 -0.000489 0.001822 0.002535
# 3 -0.007771 -0.003694 0.020941 0.012515 0.003667 0.002111
# 4 -0.002909 -0.000489 0.012515 0.050796 0.004095 0.013552
# 5 0.003763 0.001822 0.003667 0.004095 0.036394 0.006806
# 6 0.003122 0.002535 0.002111 0.013552 0.006806 0.035238
#
#
# Mechanical properties :
#
#
# Convention : Reuss Voigt Hill
#
# Bulk Modulus (GPa) = 44.96292 55.91118 50.43705
# Shear Modulus (GPa) = 24.88547 30.68518 27.78532
#
# Velocity S-wave (km/s) = 3.41770 3.79512 3.61135
# Velocity P-wave (km/s) = 6.05631 6.74147 6.40805
#
# Compressibility (1/GPa) = 0.02224055
#
# Stress axis : x y z
#
# Youngs Moduli (GPa) = 63.05984 101.40644 47.75417
#
# Poissons Ratio (x) = 0.07549 0.37111
# Poissons Ratio (y) = 0.04694 0.17641
# Poissons Ratio (z) = 0.49005 0.37460
#
# Static dielectric constant tensor:
#      x y z
#    x 3.818600 -0.030510 -0.387460 
#    y -0.030510 4.376970 -0.222110 
#    z -0.387460 -0.222110 4.001400 
# 
# 
# High freq. dielectric constant tensor:
#      x y z
#    x 1.814980 -0.010530 -0.033320 
#    y -0.010530 1.865670 -0.008950 
#    z -0.033320 -0.008950 1.822700 
# 
# From -- ./inp_files/321023.got.cif
#   From: 2010.06.25/outbox.cif.g09.slc.cpg/sg2_161_cif.got.tgz:321023.got - 2010.06.27 13:26:56.
