data_PCOD8005537
_publ_section_title
;
Structure prediction by ZEFSAII (Michael W. Deem and Ramdas Pophale) SiO2 
 PCOD8005537
Probable space group: P -1
;
_chemical_formula_sum "Si O2"
_cell_formula_units_Z 16
_cell_length_a 10.710400
_cell_length_b 16.952075
_cell_length_c 9.909099
_cell_angle_alpha 62.606791
_cell_angle_beta 27.858162
_cell_angle_gamma 66.468200
_cell_volume 746.314801
_symmetry_space_group_name_H-M "P -1"
_symmetry_group_IT_number 2
_symmetry_cell_setting 'triclinic'
loop_
_space_group_symop_operation_xyz
x,y,z
-x,-y,-z
loop_
_atom_site_type_symbol
_atom_site_label
_atom_site_fract_x
_atom_site_fract_y
_atom_site_fract_z
Si Si1 0.942514 0.632693 0.097672
Si Si2 0.758036 0.656894 0.956352
Si Si3 0.385101 0.824106 0.838425
Si Si4 0.545332 0.475100 0.320507
Si Si5 0.257654 0.762527 0.303750
Si Si6 0.767466 0.993610 0.116659
Si Si7 0.770373 0.041249 0.770051
Si Si8 0.826200 0.799478 0.249958
O O1 0.744151 0.562898 0.420337
O O2 0.881897 0.730461 0.133380
O O3 0.896533 0.634425 0.981706
O O4 0.246733 0.603346 0.846844
O O5 0.982270 0.704178 0.610820
O O6 0.648266 0.562905 0.072037
O O7 0.498945 0.714931 0.186364
O O8 0.610015 0.766720 0.593768
O O9 0.359913 0.780037 0.042071
O O10 0.459336 0.932354 0.684937
O O11 0.103150 0.818646 0.040973
O O12 0.500000 0.500000 0.500000
O O13 0.216444 0.853329 0.352240
O O14 0.844723 0.024974 0.867661
O O15 0.686275 0.889845 0.257528
O O16 0.000000 0.000000 0.000000
O O17 0.000000 0.000000 0.500000
O O18 0.500000 0.000000 0.000000
#
# Coordination Sequence:
#
# PCOD8005537 Si02
#       8
#     2   2   2   2   2   2   2   2
#     4  11  22  36  61  94 123 147 193 261 317 349
#     4  11  21  38  63  90 115 157 201 240 303 389
#     4  10  22  41  58  85 119 164 204 246 295 347
#     4  10  20  39  59  87 125 156 190 246 314 372
#     4  11  23  38  63  85 121 160 208 237 296 384
#     4   9  22  42  63  89 120 176 220 250 301 380
#     4  11  25  41  59  91 135 165 198 273 326 353
#     4  11  22  37  64  87 118 154 208 258 290 356
#
# _framework density 21.438673999999999
#
# number of rings (size 3 to 8) (size 9 to 14) (size 15 to 20)
#    0.000    1.500    0.000    6.375    3.500    7.000 
#    0.000    0.000    0.000   15.000    0.000    0.000 
#    0.000    0.000    0.000    0.000    0.000    0.000 
#
# Total GULP energy -198228.594147 kJ/mol
# GULP energy per Si atom -12389.287134 kJ/mol
# Density = 2.138988 g / cm^3
# Si number density = 21.438674 Si / 1000 Ang^3
#
#
#
# Elastic Constant Matrix: (Units=GPa)
#
#
# Indices 1 2 3 4 5 6 
#
# 1 51.3711 10.5544 7.3693 4.7950 -4.1198 -3.8800
# 2 10.5544 120.6733 45.5559 -5.7623 11.8571 10.5098
# 3 7.3693 45.5559 126.4187 11.6232 -5.8877 4.5496
# 4 4.7950 -5.7623 11.6232 56.4510 5.9830 -8.6776
# 5 -4.1198 11.8571 -5.8877 5.9830 21.4709 5.3274
# 6 -3.8800 10.5098 4.5496 -8.6776 5.3274 34.9637
#
#
#
# Elastic Compliance Matrix: (Units=1/GPa)
#
#
# Indices 1 2 3 4 5 6 
#
# 1 0.020818 -0.002733 0.000213 -0.002465 0.005852 0.001600
# 2 -0.002733 0.011341 -0.004577 0.003090 -0.008648 -0.001032
# 3 0.000213 -0.004577 0.010267 -0.003615 0.006857 -0.001878
# 4 -0.002465 0.003090 -0.003615 0.021038 -0.010546 0.006096
# 5 0.005852 -0.008648 0.006857 -0.010546 0.059610 -0.009344
# 6 0.001600 -0.001032 -0.001878 0.006096 -0.009344 0.032270
#
#
# Mechanical properties :
#
#
# Convention : Reuss Voigt Hill
#
# Bulk Modulus (GPa) = 35.42305 47.26914 41.34609
# Shear Modulus (GPa) = 27.94093 38.24268 33.09181
#
# Velocity S-wave (km/s) = 3.61403 4.22811 3.93307
# Velocity P-wave (km/s) = 5.82871 6.77733 6.32084
#
# Compressibility (1/GPa) = 0.02823021
#
# Stress axis : x y z
#
# Youngs Moduli (GPa) = 48.03641 88.17573 97.40395
#
# Poissons Ratio (x) = 0.24101 -0.02076
# Poissons Ratio (y) = 0.13130 0.44584
# Poissons Ratio (z) = -0.01024 0.40360
#
# Static dielectric constant tensor:
#      x y z
#    x 3.714760 -0.001840 0.126300 
#    y -0.001840 4.469650 -0.196170 
#    z 0.126300 -0.196170 4.114100 
# 
# 
# High freq. dielectric constant tensor:
#      x y z
#    x 1.807830 -0.002000 0.000380 
#    y -0.002000 1.857380 0.004850 
#    z 0.000380 0.004850 1.855460 
# 
# From -- ./inp_files/138545.got.cif
#   From: 2010.06.25/outbox.cif.g09.slc.cpg/sg2_70_cif.got.tgz:138545.got - 2010.06.27 13:26:56.
