data_PCOD8005106
_publ_section_title
;
Structure prediction by ZEFSAII (Michael W. Deem and Ramdas Pophale) SiO2 
 PCOD8005106
Probable space group: P -1
;
_chemical_formula_sum "Si O2"
_cell_formula_units_Z 12
_cell_length_a 5.044663
_cell_length_b 10.024202
_cell_length_c 12.632770
_cell_angle_alpha 74.031187
_cell_angle_beta 92.176239
_cell_angle_gamma 79.160076
_cell_volume 600.484155
_symmetry_space_group_name_H-M "P -1"
_symmetry_group_IT_number 2
_symmetry_cell_setting 'triclinic'
loop_
_space_group_symop_operation_xyz
x,y,z
-x,-y,-z
loop_
_atom_site_type_symbol
_atom_site_label
_atom_site_fract_x
_atom_site_fract_y
_atom_site_fract_z
Si Si1 0.706658 0.105280 0.591122
Si Si2 0.098517 0.457064 0.744056
Si Si3 0.715968 0.076284 0.355146
Si Si4 0.834790 0.417144 0.942273
Si Si5 0.329648 0.658231 0.836006
Si Si6 0.385662 0.594549 0.379003
O O1 0.673961 0.139937 0.458533
O O2 0.735438 0.245986 0.621911
O O3 0.445374 0.048839 0.638969
O O4 0.968387 0.984685 0.647066
O O5 0.099810 0.608033 0.769763
O O6 0.384755 0.397223 0.706259
O O7 0.024854 0.351248 0.859619
O O8 0.855909 0.476735 0.651618
O O9 0.601928 0.201146 0.243694
O O10 0.577981 0.523758 0.865108
O O11 0.750248 0.305317 0.048785
O O12 0.000000 0.500000 0.000000
O O13 0.500000 0.500000 0.500000
#
# Coordination Sequence:
#
# PCOD8005106 Si02
#       6
#     2   2   2   2   2   2
#     4  10  23  39  56  89 117 160 201 232 296 351
#     4  11  22  37  60  90 124 152 190 257 294 350
#     4  10  22  39  62  82 123 155 195 251 283 361
#     4   9  20  36  61  97 117 148 201 256 301 348
#     4  10  20  38  64  95 117 154 201 247 315 334
#     4  12  24  39  60  87 123 163 200 240 295 360
#
# _framework density 19.983874
#
# number of rings (size 3 to 8) (size 9 to 14) (size 15 to 20)
#    0.000    1.667    1.667    2.500    4.667    2.667 
#    0.000    0.000    0.000    6.000    0.000    0.000 
#    0.000    0.000    0.000    0.000    0.000    0.000 
#
# Total GULP energy -148706.890637 kJ/mol
# GULP energy per Si atom -12392.240886 kJ/mol
# Density = 1.993839 g / cm^3
# Si number density = 19.983874 Si / 1000 Ang^3
#
#
#
# Elastic Constant Matrix: (Units=GPa)
#
#
# Indices 1 2 3 4 5 6 
#
# 1 95.9337 18.6121 33.0374 3.2642 -0.8781 5.3753
# 2 18.6121 63.1030 47.7095 0.5361 -4.6609 2.0824
# 3 33.0374 47.7095 120.8607 -12.1865 -10.0954 -0.1195
# 4 3.2642 0.5361 -12.1865 27.2831 3.7729 1.2232
# 5 -0.8781 -4.6609 -10.0954 3.7729 40.3822 13.0062
# 6 5.3753 2.0824 -0.1195 1.2232 13.0062 20.5801
#
#
#
# Elastic Compliance Matrix: (Units=1/GPa)
#
#
# Indices 1 2 3 4 5 6 
#
# 1 0.011971 -0.001005 -0.003098 -0.002743 0.000695 -0.003320
# 2 -0.001005 0.023442 -0.009300 -0.004602 0.001755 -0.002999
# 3 -0.003098 -0.009300 0.013560 0.006381 0.001489 0.000508
# 4 -0.002743 -0.004602 0.006381 0.040303 -0.002991 0.000714
# 5 0.000695 0.001755 0.001489 -0.002991 0.032254 -0.020556
# 6 -0.003320 -0.002999 0.000508 0.000714 -0.020556 0.062713
#
#
# Mechanical properties :
#
#
# Convention : Reuss Voigt Hill
#
# Bulk Modulus (GPa) = 45.10650 53.17948 49.14299
# Shear Modulus (GPa) = 22.88992 29.68497 26.28745
#
# Velocity S-wave (km/s) = 3.38808 3.85833 3.63082
# Velocity P-wave (km/s) = 6.15840 6.82040 6.49784
#
# Compressibility (1/GPa) = 0.02216975
#
# Stress axis : x y z
#
# Youngs Moduli (GPa) = 83.53357 42.65823 73.74623
#
# Poissons Ratio (x) = 0.04286 0.22843
# Poissons Ratio (y) = 0.08393 0.68580
# Poissons Ratio (z) = 0.25875 0.39670
#
# Static dielectric constant tensor:
#      x y z
#    x 3.434520 -0.130880 -0.488130 
#    y -0.130880 3.156840 0.300680 
#    z -0.488130 0.300680 4.313560 
# 
# 
# High freq. dielectric constant tensor:
#      x y z
#    x 1.804250 0.009320 -0.007220 
#    y 0.009320 1.726380 0.017530 
#    z -0.007220 0.017530 1.791340 
# 
# From -- ./inp_files/24737.got.cif
#   From: 2010.06.25/outbox.cif.g09.slc.cpg/sg2_13_cif.got.tgz:24737.got - 2010.06.27 13:26:56.
