data_PCOD8005302
_publ_section_title
;
Structure prediction by ZEFSAII (Michael W. Deem and Ramdas Pophale) SiO2 
 PCOD8005302
Probable space group: P -1
;
_chemical_formula_sum "Si O2"
_cell_formula_units_Z 16
_cell_length_a 12.967937
_cell_length_b 14.708398
_cell_length_c 8.785550
_cell_angle_alpha 107.891781
_cell_angle_beta 51.646987
_cell_angle_gamma 143.074654
_cell_volume 723.303793
_symmetry_space_group_name_H-M "P -1"
_symmetry_group_IT_number 2
_symmetry_cell_setting 'triclinic'
loop_
_space_group_symop_operation_xyz
x,y,z
-x,-y,-z
loop_
_atom_site_type_symbol
_atom_site_label
_atom_site_fract_x
_atom_site_fract_y
_atom_site_fract_z
Si Si1 0.310386 0.957841 0.994462
Si Si2 0.795795 0.614876 0.923280
Si Si3 0.253697 0.820865 0.675329
Si Si4 0.789918 0.264501 0.809508
Si Si5 0.728810 0.394055 0.452284
Si Si6 0.581763 0.676007 0.094537
Si Si7 0.334478 0.625922 0.850851
Si Si8 0.791904 0.906252 0.744180
O O1 0.266437 0.872572 0.143407
O O2 0.161394 0.965067 0.150284
O O3 0.210606 0.832539 0.890642
O O4 0.578450 0.150682 0.825054
O O5 0.652410 0.505361 0.849006
O O6 0.063902 0.760661 0.712669
O O7 0.725768 0.682909 0.062736
O O8 0.755299 0.520518 0.054253
O O9 0.234749 0.696778 0.618262
O O10 0.500000 0.000000 0.500000
O O11 0.045088 0.420792 0.586486
O O12 0.797318 0.355495 0.972166
O O13 0.501307 0.288047 0.699859
O O14 0.693211 0.408862 0.320360
O O15 0.738917 0.801168 0.874242
O O16 0.593414 0.797699 0.746724
O O17 0.000000 0.000000 0.500000
#
# Coordination Sequence:
#
# PCOD8005302 Si02
#       8
#     2   2   2   2   2   2   2   2
#     4  10  22  39  61 102 129 168 223 272 332 401
#     4  10  23  45  64  90 146 175 226 281 326 409
#     4  12  25  39  65 101 139 172 221 284 345 390
#     4  10  20  38  66  94 136 167 218 274 333 401
#     4  12  23  40  72 102 133 177 224 283 340 398
#     4  10  25  44  66  99 131 184 234 270 337 406
#     4  10  20  40  67  99 130 175 225 272 335 404
#     4  10  23  44  67  90 135 182 224 275 339 405
#
# _framework density 22.120719000000001
#
# number of rings (size 3 to 8) (size 9 to 14) (size 15 to 20)
#    0.000    1.500    2.500    1.875    1.750    6.000 
#    0.000    1.875    0.000    0.000    0.000    0.000 
#    0.000    0.000    0.000    0.000    0.000    0.000 
#
# Total GULP energy -198309.120924 kJ/mol
# GULP energy per Si atom -12394.320058 kJ/mol
# Density = 2.207037 g / cm^3
# Si number density = 22.120719 Si / 1000 Ang^3
#
#
#
# Elastic Constant Matrix: (Units=GPa)
#
#
# Indices 1 2 3 4 5 6 
#
# 1 115.4357 40.3517 47.4248 -1.0401 -24.2223 -9.3499
# 2 40.3517 95.6924 37.0038 -9.6698 -16.0640 -12.5454
# 3 47.4248 37.0038 112.7180 -10.2348 -26.0808 -8.5124
# 4 -1.0401 -9.6698 -10.2348 38.4291 -2.3249 -3.0802
# 5 -24.2223 -16.0640 -26.0808 -2.3249 32.2754 6.2988
# 6 -9.3499 -12.5454 -8.5124 -3.0802 6.2988 28.8426
#
#
#
# Elastic Compliance Matrix: (Units=1/GPa)
#
#
# Indices 1 2 3 4 5 6 
#
# 1 0.012033 -0.003137 -0.002936 -0.000907 0.004935 0.000495
# 2 -0.003137 0.013852 -0.002079 0.003325 0.002269 0.004254
# 3 -0.002936 -0.002079 0.012812 0.003302 0.007216 0.000702
# 4 -0.000907 0.003325 0.003302 0.028337 0.004886 0.004086
# 5 0.004935 0.002269 0.007216 0.004886 0.042801 -0.004109
# 6 0.000495 0.004254 0.000702 0.004086 -0.004109 0.038223
#
#
# Mechanical properties :
#
#
# Convention : Reuss Voigt Hill
#
# Bulk Modulus (GPa) = 44.65924 63.71184 54.18554
# Shear Modulus (GPa) = 29.09928 33.18048 31.13988
#
# Velocity S-wave (km/s) = 3.63088 3.87715 3.75604
# Velocity P-wave (km/s) = 6.14902 6.99339 6.58475
#
# Compressibility (1/GPa) = 0.02239178
#
# Stress axis : x y z
#
# Youngs Moduli (GPa) = 83.10409 72.19360 78.05173
#
# Poissons Ratio (x) = 0.22648 0.22917
# Poissons Ratio (y) = 0.26071 0.16229
# Poissons Ratio (z) = 0.24400 0.15011
#
# Static dielectric constant tensor:
#      x y z
#    x 4.113450 0.091190 -0.255620 
#    y 0.091190 4.443120 -0.054810 
#    z -0.255620 -0.054810 3.988330 
# 
# 
# High freq. dielectric constant tensor:
#      x y z
#    x 1.868700 -0.002650 -0.012940 
#    y -0.002650 1.875480 -0.004240 
#    z -0.012940 -0.004240 1.859040 
# 
# From -- ./inp_files/273587.got.cif
#   From: 2010.06.25/outbox.cif.g09.slc.cpg/sg2_137_cif.got.tgz:273587.got - 2010.06.27 13:26:56.
