data_PCOD8005910
_publ_section_title
;
Structure prediction by ZEFSAII (Michael W. Deem and Ramdas Pophale) SiO2 
 PCOD8005910
Probable space group: P -1
;
_chemical_formula_sum "Si O2"
_cell_formula_units_Z 16
_cell_length_a 13.460910
_cell_length_b 8.801401
_cell_length_c 18.106113
_cell_angle_alpha 60.651205
_cell_angle_beta 156.766001
_cell_angle_gamma 117.336235
_cell_volume 737.367934
_symmetry_space_group_name_H-M "P -1"
_symmetry_group_IT_number 2
_symmetry_cell_setting 'triclinic'
loop_
_space_group_symop_operation_xyz
x,y,z
-x,-y,-z
loop_
_atom_site_type_symbol
_atom_site_label
_atom_site_fract_x
_atom_site_fract_y
_atom_site_fract_z
Si Si1 0.264924 0.143102 0.502008
Si Si2 0.857924 0.967334 0.802115
Si Si3 0.462973 0.254229 0.459923
Si Si4 0.708176 0.539784 0.462334
Si Si5 0.327927 0.123282 0.143792
Si Si6 0.251119 0.593728 0.785610
Si Si7 0.308626 0.840926 0.887995
Si Si8 0.471922 0.510761 0.814119
O O1 0.405936 0.257397 0.507101
O O2 0.307236 0.254832 0.578857
O O3 0.971347 0.107767 0.289456
O O4 0.393499 0.957172 0.645659
O O5 0.797812 0.811956 0.740818
O O6 0.796858 0.896078 0.857715
O O7 0.690689 0.129143 0.626025
O O8 0.152435 0.024819 0.986320
O O9 0.550014 0.438860 0.441399
O O10 0.607955 0.500400 0.322221
O O11 0.005715 0.498458 0.676607
O O12 0.330283 0.328173 0.079162
O O13 0.287968 0.791728 0.797436
O O14 0.238224 0.570334 0.693150
O O15 0.500000 0.500000 0.000000
O O16 0.397565 0.667848 0.031959
O O17 0.500000 0.000000 0.000000
#
# Coordination Sequence:
#
# PCOD8005910 Si02
#       8
#     2   2   2   2   2   2   2   2
#     4  10  24  41  62  94 131 169 204 257 327 371
#     4   9  20  37  62  93 129 164 210 257 301 370
#     4  10  20  39  63  95 126 174 205 255 316 374
#     4  11  22  40  62  93 132 160 216 263 313 370
#     4  10  21  40  63  95 126 162 213 259 306 372
#     4   9  22  40  62  93 117 166 211 257 315 370
#     4  10  24  46  66  93 129 162 210 263 324 378
#     4  11  23  41  67  93 119 170 213 262 310 367
#
# _framework density 21.698801
#
# number of rings (size 3 to 8) (size 9 to 14) (size 15 to 20)
#    0.000    2.000    1.250    0.750    5.250    6.000 
#    2.250    3.750    0.000    0.000    0.000    0.000 
#    0.000    0.000    0.000    0.000    0.000    0.000 
#
# Total GULP energy -198222.535962 kJ/mol
# GULP energy per Si atom -12388.908498 kJ/mol
# Density = 2.164941 g / cm^3
# Si number density = 21.698801 Si / 1000 Ang^3
#
#
#
# Elastic Constant Matrix: (Units=GPa)
#
#
# Indices 1 2 3 4 5 6 
#
# 1 65.4528 31.7136 33.0236 8.4962 0.3199 -7.0064
# 2 31.7136 137.8083 61.7660 14.7438 6.1743 9.1223
# 3 33.0236 61.7660 119.2577 14.7138 13.8179 0.7243
# 4 8.4962 14.7438 14.7138 31.8498 -1.6347 -4.5679
# 5 0.3199 6.1743 13.8179 -1.6347 26.1459 -0.7316
# 6 -7.0064 9.1223 0.7243 -4.5679 -0.7316 25.6236
#
#
#
# Elastic Compliance Matrix: (Units=1/GPa)
#
#
# Indices 1 2 3 4 5 6 
#
# 1 0.019660 -0.003176 -0.004062 -0.000815 0.002788 0.006555
# 2 -0.003176 0.010490 -0.004102 -0.002864 -0.000590 -0.005014
# 3 -0.004062 -0.004102 0.012737 -0.003317 -0.005942 -0.000771
# 4 -0.000815 -0.002864 -0.003317 0.035786 0.004884 0.007409
# 5 0.002788 -0.000590 -0.005942 0.004884 0.041887 0.003207
# 6 0.006555 -0.005014 -0.000771 0.007409 0.003207 0.044038
#
#
# Mechanical properties :
#
#
# Convention : Reuss Voigt Hill
#
# Bulk Modulus (GPa) = 49.48258 63.94725 56.71492
# Shear Modulus (GPa) = 25.77138 29.79157 27.78148
#
# Velocity S-wave (km/s) = 3.45002 3.70937 3.58204
# Velocity P-wave (km/s) = 6.22286 6.91956 6.58044
#
# Compressibility (1/GPa) = 0.02020913
#
# Stress axis : x y z
#
# Youngs Moduli (GPa) = 50.86471 95.32541 78.51305
#
# Poissons Ratio (x) = 0.30271 0.31890
# Poissons Ratio (y) = 0.16152 0.32204
# Poissons Ratio (z) = 0.20660 0.39100
#
# Static dielectric constant tensor:
#      x y z
#    x 4.574540 -0.214480 -0.033350 
#    y -0.214480 3.836480 0.238180 
#    z -0.033350 0.238180 3.972380 
# 
# 
# High freq. dielectric constant tensor:
#      x y z
#    x 1.853940 -0.010140 -0.002420 
#    y -0.010140 1.844880 0.016090 
#    z -0.002420 0.016090 1.848780 
# 
# From -- ./inp_files/597358.got.cif
#   From: 2010.06.25/outbox.cif.g09.slc.cpg/sg2_299_cif.got.tgz:597358.got - 2010.06.27 13:26:56.
