data_PCOD8005918
_publ_section_title
;
Structure prediction by ZEFSAII (Michael W. Deem and Ramdas Pophale) SiO2 
 PCOD8005918
Probable space group: P -1
;
_chemical_formula_sum "Si O2"
_cell_formula_units_Z 16
_cell_length_a 10.266946
_cell_length_b 17.256948
_cell_length_c 8.337477
_cell_angle_alpha 47.080762
_cell_angle_beta 46.096454
_cell_angle_gamma 46.031286
_cell_volume 707.046813
_symmetry_space_group_name_H-M "P -1"
_symmetry_group_IT_number 2
_symmetry_cell_setting 'triclinic'
loop_
_space_group_symop_operation_xyz
x,y,z
-x,-y,-z
loop_
_atom_site_type_symbol
_atom_site_label
_atom_site_fract_x
_atom_site_fract_y
_atom_site_fract_z
Si Si1 0.981860 0.152687 0.984185
Si Si2 0.695214 0.105817 0.486330
Si Si3 0.715948 0.882436 0.659299
Si Si4 0.023333 0.648891 0.786453
Si Si5 0.311780 0.914734 0.112714
Si Si6 0.722216 0.759866 0.487444
Si Si7 0.263072 0.428117 0.042522
Si Si8 0.293628 0.707323 0.255915
O O1 0.832750 0.196462 0.900790
O O2 0.100280 0.235266 0.778565
O O3 0.845729 0.166201 0.238565
O O4 0.138118 0.017991 0.018650
O O5 0.721644 0.056220 0.712010
O O6 0.470630 0.197413 0.518306
O O7 0.754675 0.998547 0.459431
O O8 0.904507 0.786288 0.730918
O O9 0.695773 0.838528 0.559879
O O10 0.516917 0.916280 0.881746
O O11 0.155827 0.570430 0.932480
O O12 0.174632 0.634924 0.527652
O O13 0.848383 0.608942 0.950193
O O14 0.324702 0.785543 0.259153
O O15 0.768745 0.627075 0.685893
O O16 0.496781 0.382985 0.868169
#
# Coordination Sequence:
#
# PCOD8005918 Si02
#       8
#     2   2   2   2   2   2   2   2
#     4  12  24  37  60  91 125 166 199 247 306 370
#     4  12  25  41  60  88 133 165 202 248 304 371
#     4  11  21  40  63  92 121 164 200 254 307 357
#     4  10  21  37  64  94 121 152 204 265 305 349
#     4  12  25  39  59  94 129 169 198 244 310 375
#     4  11  22  39  64  91 121 158 207 253 308 354
#     4  10  20  39  63  97 117 152 208 262 306 347
#     4  12  21  39  63  95 122 162 202 255 306 361
#
# _framework density 22.629335000000001
#
# number of rings (size 3 to 8) (size 9 to 14) (size 15 to 20)
#    0.000    0.750    7.500    2.625    1.750    0.000 
#    0.000    0.000    0.000    1.500    3.250    0.000 
#    0.000    0.000    0.000    0.000    0.000    0.000 
#
# Total GULP energy -198309.407934 kJ/mol
# GULP energy per Si atom -12394.337996 kJ/mol
# Density = 2.257783 g / cm^3
# Si number density = 22.629335 Si / 1000 Ang^3
#
#
#
# Elastic Constant Matrix: (Units=GPa)
#
#
# Indices 1 2 3 4 5 6 
#
# 1 54.8962 42.2947 39.5092 1.9055 -2.0049 -31.3534
# 2 42.2947 73.9022 34.5722 -12.0483 -1.6805 -46.8401
# 3 39.5092 34.5722 148.5129 11.9655 -15.6659 -28.2184
# 4 1.9055 -12.0483 11.9655 36.2708 -18.5878 4.2854
# 5 -2.0049 -1.6805 -15.6659 -18.5878 33.7000 3.6419
# 6 -31.3534 -46.8401 -28.2184 4.2854 3.6419 36.3592
#
#
#
# Elastic Compliance Matrix: (Units=1/GPa)
#
#
# Indices 1 2 3 4 5 6 
#
# 1 0.041640 -0.009783 -0.004684 -0.010833 -0.008519 0.021799
# 2 -0.009783 0.083254 0.000477 0.018372 0.003477 0.096673
# 3 -0.004684 0.000477 0.008927 -0.001587 0.002649 0.003425
# 4 -0.010833 0.018372 -0.001587 0.046904 0.024856 0.005076
# 5 -0.008519 0.003477 0.002649 0.024856 0.045174 -0.008265
# 6 0.021799 0.096673 0.003425 0.005076 -0.008265 0.173729
#
#
# Mechanical properties :
#
#
# Convention : Reuss Voigt Hill
#
# Bulk Modulus (GPa) = 9.44819 56.67374 33.06097
# Shear Modulus (GPa) = 10.80174 31.99501 21.39837
#
# Velocity S-wave (km/s) = 2.18717 3.76423 3.07840
# Velocity P-wave (km/s) = 3.25000 6.63259 5.22273
#
# Compressibility (1/GPa) = 0.10584037
#
# Stress axis : x y z
#
# Youngs Moduli (GPa) = 24.01555 12.01142 112.02485
#
# Poissons Ratio (x) = 0.11751 0.52473
# Poissons Ratio (y) = 0.23495 -0.05345
# Poissons Ratio (z) = 0.11249 -0.00573
#
# Static dielectric constant tensor:
#      x y z
#    x 3.826980 -0.568310 -0.199380 
#    y -0.568310 4.121400 -0.277390 
#    z -0.199380 -0.277390 4.447610 
# 
# 
# High freq. dielectric constant tensor:
#      x y z
#    x 1.867980 -0.049880 -0.018780 
#    y -0.049880 1.869250 -0.011940 
#    z -0.018780 -0.011940 1.912700 
# 
# From -- ./inp_files/281492.got.cif
#   From: 2010.06.25/outbox.cif.g09.slc.cpg/sg2_141_cif.got.tgz:281492.got - 2010.06.27 13:26:56.
