data_PCOD8005464
_publ_section_title
;
Structure prediction by ZEFSAII (Michael W. Deem and Ramdas Pophale) SiO2 
 PCOD8005464
Probable space group: P -1
;
_chemical_formula_sum "Si O2"
_cell_formula_units_Z 14
_cell_length_a 8.380716
_cell_length_b 14.256595
_cell_length_c 15.213446
_cell_angle_alpha 30.640730
_cell_angle_beta 103.234192
_cell_angle_gamma 125.133226
_cell_volume 582.978739
_symmetry_space_group_name_H-M "P -1"
_symmetry_group_IT_number 2
_symmetry_cell_setting 'triclinic'
loop_
_space_group_symop_operation_xyz
x,y,z
-x,-y,-z
loop_
_atom_site_type_symbol
_atom_site_label
_atom_site_fract_x
_atom_site_fract_y
_atom_site_fract_z
Si Si1 0.287177 0.422494 0.590943
Si Si2 0.003305 0.683374 0.015900
Si Si3 0.261253 0.093952 0.099820
Si Si4 0.254762 0.894173 0.589269
Si Si5 0.459989 0.924079 0.156217
Si Si6 0.589017 0.402427 0.333778
Si Si7 0.765944 0.824829 0.784433
O O1 0.500000 0.500000 0.500000
O O2 0.364788 0.543704 0.601077
O O3 0.245682 0.582925 0.408318
O O4 0.019598 0.086397 0.825412
O O5 0.958925 0.447529 0.150294
O O6 0.827442 0.531559 0.203216
O O7 0.958101 0.821209 0.834939
O O8 0.290276 0.942525 0.874229
O O9 0.364342 0.016055 0.121203
O O10 0.246750 0.040985 0.244470
O O11 0.457184 0.429076 0.840967
O O12 0.500000 0.000000 0.500000
O O13 0.339158 0.063276 0.555709
O O14 0.159107 0.981437 0.444416
O O15 0.500000 0.000000 0.000000
O O16 0.500000 0.500000 0.000000
#
# Coordination Sequence:
#
# PCOD8005464 Si02
#       7
#     2   2   2   2   2   2   2
#     4  12  25  43  69  97 132 179 229 283 347 408
#     4  10  23  43  70 101 141 181 225 283 339 412
#     4  11  24  42  69  97 134 181 221 287 341 405
#     4  10  20  38  74 102 135 179 226 280 344 407
#     4  12  27  45  63 100 139 178 237 283 334 412
#     4  10  21  43  70  99 133 175 224 277 350 402
#     4  11  20  41  71 102 137 179 227 278 348 407
#
# _framework density 24.014597999999999
#
# number of rings (size 3 to 8) (size 9 to 14) (size 15 to 20)
#    0.000    1.143    4.286    4.286    6.000    0.000 
#    2.571    5.000    0.000    0.000    0.000    0.000 
#    0.000    0.000    0.000    0.000    0.000    0.000 
#
# Total GULP energy -173475.133333 kJ/mol
# GULP energy per Si atom -12391.080952 kJ/mol
# Density = 2.395994 g / cm^3
# Si number density = 24.014598 Si / 1000 Ang^3
#
#
#
# Elastic Constant Matrix: (Units=GPa)
#
#
# Indices 1 2 3 4 5 6 
#
# 1 125.1442 43.2178 23.8492 -5.9374 11.6123 -6.8327
# 2 43.2178 151.6646 19.8537 2.4337 5.1897 -13.5443
# 3 23.8492 19.8537 62.0959 -2.4741 25.9366 -3.9874
# 4 -5.9374 2.4337 -2.4741 35.9429 -3.4810 7.9997
# 5 11.6123 5.1897 25.9366 -3.4810 30.4290 -2.6041
# 6 -6.8327 -13.5443 -3.9874 7.9997 -2.6041 49.1027
#
#
#
# Elastic Compliance Matrix: (Units=1/GPa)
#
#
# Indices 1 2 3 4 5 6 
#
# 1 0.009425 -0.002345 -0.002392 0.001414 -0.000980 0.000188
# 2 -0.002345 0.007676 -0.002043 -0.001344 0.001337 0.001915
# 3 -0.002392 -0.002043 0.026646 -0.000553 -0.021496 0.000218
# 4 0.001414 -0.001344 -0.000553 0.029492 0.003119 -0.004858
# 5 -0.000980 0.001337 -0.021496 0.003119 0.051750 0.000723
# 6 0.000188 0.001915 0.000218 -0.004858 0.000723 0.021767
#
#
# Mechanical properties :
#
#
# Convention : Reuss Voigt Hill
#
# Bulk Modulus (GPa) = 33.12635 56.97177 45.04906
# Shear Modulus (GPa) = 29.34637 39.89385 34.62011
#
# Velocity S-wave (km/s) = 3.49954 4.08024 3.80100
# Velocity P-wave (km/s) = 5.49119 6.78035 6.16954
#
# Compressibility (1/GPa) = 0.03018745
#
# Stress axis : x y z
#
# Youngs Moduli (GPa) = 106.10341 130.27775 37.52839
#
# Poissons Ratio (x) = 0.30548 0.08979
# Poissons Ratio (y) = 0.24880 0.07665
# Poissons Ratio (z) = 0.25385 0.26610
#
# Static dielectric constant tensor:
#      x y z
#    x 4.311690 -0.161100 0.432230 
#    y -0.161100 4.734750 -0.234790 
#    z 0.432230 -0.234790 4.819100 
# 
# 
# High freq. dielectric constant tensor:
#      x y z
#    x 1.944390 -0.016610 0.019680 
#    y -0.016610 1.967620 -0.013330 
#    z 0.019680 -0.013330 1.954110 
# 
# From -- ./inp_files/429150.got.cif
#   From: 2010.06.25/outbox.cif.g09.slc.cpg/sg2_215_cif.got.tgz:429150.got - 2010.06.27 13:26:56.
