data_PCOD8005750
_publ_section_title
;
Structure prediction by ZEFSAII (Michael W. Deem and Ramdas Pophale) SiO2 
 PCOD8005750
Probable space group: P -1
;
_chemical_formula_sum "Si O2"
_cell_formula_units_Z 16
_cell_length_a 11.918382
_cell_length_b 20.103805
_cell_length_c 6.896426
_cell_angle_alpha 123.442186
_cell_angle_beta 43.590324
_cell_angle_gamma 141.954705
_cell_volume 701.430844
_symmetry_space_group_name_H-M "P -1"
_symmetry_group_IT_number 2
_symmetry_cell_setting 'triclinic'
loop_
_space_group_symop_operation_xyz
x,y,z
-x,-y,-z
loop_
_atom_site_type_symbol
_atom_site_label
_atom_site_fract_x
_atom_site_fract_y
_atom_site_fract_z
Si Si1 0.468926 0.999055 0.808988
Si Si2 0.664928 0.768605 0.759644
Si Si3 0.962291 0.808986 0.127341
Si Si4 0.771935 0.389276 0.181450
Si Si5 0.753293 0.513157 0.707546
Si Si6 0.890108 0.313985 0.219430
Si Si7 0.717711 0.664313 0.849709
Si Si8 0.493542 0.862163 0.306608
O O1 0.583221 0.959945 0.500326
O O2 0.578179 0.115070 0.766892
O O3 0.209051 0.921371 0.957757
O O4 0.500000 0.000000 0.000000
O O5 0.837572 0.827675 0.461188
O O6 0.410920 0.675582 0.860692
O O7 0.739615 0.715879 0.701532
O O8 0.673113 0.853100 0.012041
O O9 0.813045 0.757731 0.038969
O O10 0.981255 0.725329 0.051161
O O11 0.692072 0.419398 0.500545
O O12 0.794357 0.309980 0.125787
O O13 0.000000 0.500000 0.000000
O O14 0.841442 0.619711 0.643751
O O15 0.943033 0.562772 0.711436
O O16 0.530357 0.449796 0.003778
O O17 0.709508 0.245935 0.505219
#
# Coordination Sequence:
#
# PCOD8005750 Si02
#       8
#     2   2   2   2   2   2   2   2
#     4  10  24  47  75  99 130 166 223 273 342 413
#     4  12  25  39  69  97 137 175 218 274 335 390
#     4  10  24  43  66 100 128 174 217 279 337 394
#     4  12  24  36  62 102 132 182 237 270 319 388
#     4  10  20  39  62  89 134 180 221 274 317 384
#     4  10  22  42  66  92 142 177 229 277 325 390
#     4  10  22  41  61  91 139 174 216 270 331 387
#     4  10  24  43  68 101 129 175 212 273 340 393
#
# _framework density 22.810517999999998
#
# number of rings (size 3 to 8) (size 9 to 14) (size 15 to 20)
#    0.000    1.500    1.250    2.625    5.250    5.000 
#    0.000    1.250    0.000    0.000    0.000    0.000 
#    0.000    0.000    0.000    0.000    0.000    0.000 
#
# Total GULP energy -198244.915590 kJ/mol
# GULP energy per Si atom -12390.307224 kJ/mol
# Density = 2.275860 g / cm^3
# Si number density = 22.810518 Si / 1000 Ang^3
#
#
#
# Elastic Constant Matrix: (Units=GPa)
#
#
# Indices 1 2 3 4 5 6 
#
# 1 99.4566 22.4022 24.4454 -5.1109 22.5124 -4.9828
# 2 22.4022 66.4950 16.6811 -9.4795 5.3885 0.3922
# 3 24.4454 16.6811 97.9556 3.7529 -3.3904 -1.4558
# 4 -5.1109 -9.4795 3.7529 35.4875 -7.0654 -0.4909
# 5 22.5124 5.3885 -3.3904 -7.0654 36.1425 -2.3287
# 6 -4.9828 0.3922 -1.4558 -0.4909 -2.3287 28.4488
#
#
#
# Elastic Compliance Matrix: (Units=1/GPa)
#
#
# Indices 1 2 3 4 5 6 
#
# 1 0.013419 -0.003128 -0.003067 -0.000172 -0.008112 0.001570
# 2 -0.003128 0.017319 -0.002351 0.004403 -0.000047 -0.000835
# 3 -0.003067 -0.002351 0.011549 -0.001683 0.003035 0.000306
# 4 -0.000172 0.004403 -0.001683 0.030579 0.005321 0.000786
# 5 -0.008112 -0.000047 0.003035 0.005321 0.034158 0.001623
# 6 0.001570 -0.000835 0.000306 0.000786 0.001623 0.035599
#
#
# Mechanical properties :
#
#
# Convention : Reuss Voigt Hill
#
# Bulk Modulus (GPa) = 39.69218 43.44051 41.56635
# Shear Modulus (GPa) = 29.74189 33.37434 31.55812
#
# Velocity S-wave (km/s) = 3.61483 3.82921 3.72356
# Velocity P-wave (km/s) = 5.90434 6.21578 6.06206
#
# Compressibility (1/GPa) = 0.02519388
#
# Stress axis : x y z
#
# Youngs Moduli (GPa) = 74.52081 57.74037 86.59067
#
# Poissons Ratio (x) = 0.18060 0.26558
# Poissons Ratio (y) = 0.23309 0.20361
# Poissons Ratio (z) = 0.22856 0.13577
#
# Static dielectric constant tensor:
#      x y z
#    x 4.188960 -0.121000 -0.102310 
#    y -0.121000 4.029980 0.124970 
#    z -0.102310 0.124970 4.140300 
# 
# 
# High freq. dielectric constant tensor:
#      x y z
#    x 1.895740 -0.007380 0.002090 
#    y -0.007380 1.891590 0.001970 
#    z 0.002090 0.001970 1.897680 
# 
# From -- ./inp_files/83389.got.cif
#   From: 2010.06.25/outbox.cif.g09.slc.cpg/sg2_42_cif.got.tgz:83389.got - 2010.06.27 13:26:56.
