data_PCOD8005403
_publ_section_title
;
Structure prediction by ZEFSAII (Michael W. Deem and Ramdas Pophale) SiO2 
 PCOD8005403
Probable space group: P -1
;
_chemical_formula_sum "Si O2"
_cell_formula_units_Z 12
_cell_length_a 5.234242
_cell_length_b 14.309724
_cell_length_c 14.909832
_cell_angle_alpha 28.602359
_cell_angle_beta 110.488923
_cell_angle_gamma 101.847710
_cell_volume 487.675236
_symmetry_space_group_name_H-M "P -1"
_symmetry_group_IT_number 2
_symmetry_cell_setting 'triclinic'
loop_
_space_group_symop_operation_xyz
x,y,z
-x,-y,-z
loop_
_atom_site_type_symbol
_atom_site_label
_atom_site_fract_x
_atom_site_fract_y
_atom_site_fract_z
Si Si1 0.256382 0.650213 0.110447
Si Si2 0.612527 0.273092 0.739748
Si Si3 0.345382 0.754205 0.525249
Si Si4 0.389983 0.198700 0.122236
Si Si5 0.706733 0.134758 0.382040
Si Si6 0.972728 0.721260 0.348669
O O1 0.258753 0.735961 0.138209
O O2 0.376759 0.412663 0.322674
O O3 0.456194 0.755943 0.986605
O O4 0.936467 0.692696 0.002729
O O5 0.500000 0.500000 0.500000
O O6 0.352940 0.162832 0.794432
O O7 0.851536 0.162992 0.792246
O O8 0.257267 0.735516 0.634613
O O9 0.083426 0.715615 0.468512
O O10 0.419305 0.961535 0.332939
O O11 0.556344 0.270431 0.166305
O O12 0.500000 0.000000 0.500000
O O13 0.000000 0.000000 0.500000
O O14 0.000000 0.500000 0.500000
#
# Coordination Sequence:
#
# PCOD8005403 Si02
#       6
#     2   2   2   2   2   2
#     4  12  25  44  74 101 145 184 231 296 343 412
#     4  10  20  39  65  95 137 178 224 288 333 404
#     4  11  25  46  78  96 142 201 216 288 377 387
#     4  11  27  45  66 112 140 172 252 286 331 437
#     4  10  23  46  71 102 143 180 231 292 340 419
#     4  10  20  38  68  97 130 178 236 272 335 425
#
# _framework density 24.606539000000001
#
# number of rings (size 3 to 8) (size 9 to 14) (size 15 to 20)
#    0.000    1.333    3.333    3.000    2.333    9.333 
#    0.000    5.000    0.000    0.000    0.000    0.000 
#    0.000    0.000    0.000    0.000    0.000    0.000 
#
# Total GULP energy -148767.607159 kJ/mol
# GULP energy per Si atom -12397.300597 kJ/mol
# Density = 2.455053 g / cm^3
# Si number density = 24.606539 Si / 1000 Ang^3
#
#
#
# Elastic Constant Matrix: (Units=GPa)
#
#
# Indices 1 2 3 4 5 6 
#
# 1 221.2224 54.2722 38.8922 23.9540 25.5413 -2.1420
# 2 54.2722 171.3951 38.9516 39.5067 15.6720 1.6535
# 3 38.8922 38.9516 90.2786 20.4183 22.7698 1.6676
# 4 23.9540 39.5067 20.4183 38.2672 3.6341 0.8632
# 5 25.5413 15.6720 22.7698 3.6341 39.4587 14.1262
# 6 -2.1420 1.6535 1.6676 0.8632 14.1262 28.4403
#
#
#
# Elastic Compliance Matrix: (Units=1/GPa)
#
#
# Indices 1 2 3 4 5 6 
#
# 1 0.005479 -0.000838 -0.000752 -0.001890 -0.003414 0.002259
# 2 -0.000838 0.008143 -0.001158 -0.007129 -0.001553 0.000519
# 3 -0.000752 -0.001158 0.015319 -0.005767 -0.008644 0.003581
# 4 -0.001890 -0.007129 -0.005767 0.037343 0.005024 -0.003019
# 5 -0.003414 -0.001553 -0.008644 0.005024 0.039684 -0.019524
# 6 0.002259 0.000519 0.003581 -0.003019 -0.019524 0.044880
#
#
# Mechanical properties :
#
#
# Convention : Reuss Voigt Hill
#
# Bulk Modulus (GPa) = 42.65318 83.01423 62.83370
# Shear Modulus (GPa) = 30.45828 44.61859 37.53843
#
# Velocity S-wave (km/s) = 3.52207 4.26288 3.91006
# Velocity P-wave (km/s) = 5.82338 7.61836 6.78053
#
# Compressibility (1/GPa) = 0.02344491
#
# Stress axis : x y z
#
# Youngs Moduli (GPa) = 182.52161 122.80252 65.27937
#
# Poissons Ratio (x) = 0.10290 0.04908
# Poissons Ratio (y) = 0.15294 0.07560
# Poissons Ratio (z) = 0.13723 0.14222
#
# Static dielectric constant tensor:
#      x y z
#    x 4.354710 -3.780180 -0.836390 
#    y -3.780180 3.350230 0.165050 
#    z -0.836390 0.165050 4.340120 
# 
# 
# High freq. dielectric constant tensor:
#      x y z
#    x 1.998640 -0.001770 0.003400 
#    y -0.001770 1.981730 0.023980 
#    z 0.003400 0.023980 1.971340 
# 
# From -- ./inp_files/483231.got.cif
#   From: 2010.06.25/outbox.cif.g09.slc.cpg/sg2_242_cif.got.tgz:483231.got - 2010.06.27 13:26:56.
