data_PCOD8005225
_publ_section_title
;
Structure prediction by ZEFSAII (Michael W. Deem and Ramdas Pophale) SiO2 
 PCOD8005225
Probable space group: P -1
;
_chemical_formula_sum "Si O2"
_cell_formula_units_Z 16
_cell_length_a 10.777177
_cell_length_b 21.781233
_cell_length_c 11.911077
_cell_angle_alpha 137.950461
_cell_angle_beta 155.322542
_cell_angle_gamma 40.897240
_cell_volume 748.232162
_symmetry_space_group_name_H-M "P -1"
_symmetry_group_IT_number 2
_symmetry_cell_setting 'triclinic'
loop_
_space_group_symop_operation_xyz
x,y,z
-x,-y,-z
loop_
_atom_site_type_symbol
_atom_site_label
_atom_site_fract_x
_atom_site_fract_y
_atom_site_fract_z
Si Si1 0.908265 0.722342 0.178763
Si Si2 0.854165 0.947664 0.717800
Si Si3 0.124269 0.248653 0.430226
Si Si4 0.687607 0.480069 0.743357
Si Si5 0.164856 0.015306 0.865735
Si Si6 0.454762 0.854479 0.559806
Si Si7 0.411676 0.815911 0.715062
Si Si8 0.434536 0.339682 0.981775
O O1 0.212911 0.629880 0.283098
O O2 0.078670 0.802167 0.457831
O O3 0.698356 0.751221 0.934653
O O4 0.676319 0.708515 0.066219
O O5 0.889442 0.836866 0.615570
O O6 0.998553 0.957282 0.730197
O O7 0.500000 0.000000 0.500000
O O8 0.000000 0.000000 0.000000
O O9 0.380399 0.216277 0.500102
O O10 0.777551 0.284710 0.145338
O O11 0.202597 0.333488 0.681709
O O12 0.500000 0.500000 0.500000
O O13 0.542963 0.553685 0.825293
O O14 0.000000 0.500000 0.000000
O O15 0.383497 0.930066 0.853125
O O16 0.910156 0.096354 0.697749
O O17 0.374295 0.063573 0.177663
O O18 0.483579 0.790323 0.608362
#
# Coordination Sequence:
#
# PCOD8005225 Si02
#       8
#     2   2   2   2   2   2   2   2
#     4  11  22  41  63  94 122 151 196 255 315 363
#     4  12  21  36  55  85 118 156 194 248 308 347
#     4  12  23  38  60  89 126 161 201 245 304 370
#     4  10  20  38  65  95 127 152 185 248 322 375
#     4  12  22  41  60  85 120 160 219 256 302 349
#     4  12  25  42  58  84 122 173 211 249 296 348
#     4  12  25  40  63  86 120 164 214 256 289 358
#     4  11  22  38  64  96 121 151 195 248 312 378
#
# _framework density 21.383735999999999
#
# number of rings (size 3 to 8) (size 9 to 14) (size 15 to 20)
#    0.000    0.500    2.500    9.000    0.000    0.000 
#    0.000    0.000    0.000    4.500    0.000    0.000 
#    0.000    0.000    0.000    0.000    0.000    0.000 
#
# Total GULP energy -198332.082325 kJ/mol
# GULP energy per Si atom -12395.755145 kJ/mol
# Density = 2.133507 g / cm^3
# Si number density = 21.383736 Si / 1000 Ang^3
#
#
#
# Elastic Constant Matrix: (Units=GPa)
#
#
# Indices 1 2 3 4 5 6 
#
# 1 62.9485 26.9118 13.7879 -5.6902 -20.5559 -3.0229
# 2 26.9118 81.9470 34.3733 -9.2145 -10.2683 -13.9471
# 3 13.7879 34.3733 133.4205 -7.4153 -13.6601 -5.6540
# 4 -5.6902 -9.2145 -7.4153 43.0080 -4.1395 -5.2898
# 5 -20.5559 -10.2683 -13.6601 -4.1395 31.8526 -1.3673
# 6 -3.0229 -13.9471 -5.6540 -5.2898 -1.3673 25.3631
#
#
#
# Elastic Compliance Matrix: (Units=1/GPa)
#
#
# Indices 1 2 3 4 5 6 
#
# 1 0.022990 -0.005484 0.000710 0.003493 0.013886 0.001360
# 2 -0.005484 0.017523 -0.003185 0.003761 0.001625 0.009144
# 3 0.000710 -0.003185 0.008691 0.001323 0.003362 0.000728
# 4 0.003493 0.003761 0.001323 0.026580 0.007864 0.008747
# 5 0.013886 0.001625 0.003362 0.007864 0.043657 0.007292
# 6 0.001360 0.009144 0.000728 0.008747 0.007292 0.046997
#
#
# Mechanical properties :
#
#
# Convention : Reuss Voigt Hill
#
# Bulk Modulus (GPa) = 30.04150 47.60689 38.82419
# Shear Modulus (GPa) = 25.84645 33.59429 29.72037
#
# Velocity S-wave (km/s) = 3.48040 3.96791 3.73213
# Velocity P-wave (km/s) = 5.49820 6.58057 6.06358
#
# Compressibility (1/GPa) = 0.03328729
#
# Stress axis : x y z
#
# Youngs Moduli (GPa) = 43.49640 57.06912 115.06429
#
# Poissons Ratio (x) = 0.31296 -0.08175
# Poissons Ratio (y) = 0.23853 0.36645
# Poissons Ratio (z) = -0.03090 0.18175
#
# Static dielectric constant tensor:
#      x y z
#    x 3.790420 0.170880 0.122780 
#    y 0.170880 2.516910 -0.210800 
#    z 0.122780 -0.210800 3.953050 
# 
# 
# High freq. dielectric constant tensor:
#      x y z
#    x 1.823820 -0.013830 0.002390 
#    y -0.013830 1.827280 -0.001190 
#    z 0.002390 -0.001190 1.864250 
# 
# From -- ./inp_files/439294.got.cif
#   From: 2010.06.25/outbox.cif.g09.slc.cpg/sg2_220_cif.got.tgz:439294.got - 2010.06.27 13:26:56.
