data_PCOD8005781
_publ_section_title
;
Structure prediction by ZEFSAII (Michael W. Deem and Ramdas Pophale) SiO2 
 PCOD8005781
Probable space group: P -1
;
_chemical_formula_sum "Si O2"
_cell_formula_units_Z 16
_cell_length_a 10.776424
_cell_length_b 10.801197
_cell_length_c 8.671854
_cell_angle_alpha 119.126393
_cell_angle_beta 77.456670
_cell_angle_gamma 70.313276
_cell_volume 735.686076
_symmetry_space_group_name_H-M "P -1"
_symmetry_group_IT_number 2
_symmetry_cell_setting 'triclinic'
loop_
_space_group_symop_operation_xyz
x,y,z
-x,-y,-z
loop_
_atom_site_type_symbol
_atom_site_label
_atom_site_fract_x
_atom_site_fract_y
_atom_site_fract_z
Si Si1 0.095890 0.067433 0.308996
Si Si2 0.220325 0.684838 0.372770
Si Si3 0.176170 0.170517 0.658597
Si Si4 0.436825 0.403630 0.364534
Si Si5 0.401613 0.928036 0.046701
Si Si6 0.418118 0.842021 0.345352
Si Si7 0.117579 0.724993 0.092736
Si Si8 0.707500 0.608830 0.312553
O O1 0.124911 0.089060 0.491514
O O2 0.922476 0.204259 0.406787
O O3 0.223557 0.070398 0.170944
O O4 0.131329 0.882881 0.159748
O O5 0.329174 0.512781 0.322407
O O6 0.307278 0.775915 0.361960
O O7 0.166310 0.646626 0.203886
O O8 0.174104 0.333717 0.702565
O O9 0.054272 0.223834 0.858409
O O10 0.343158 0.019968 0.565654
O O11 0.500000 0.500000 0.500000
O O12 0.346296 0.356262 0.476614
O O13 0.568493 0.231651 0.156280
O O14 0.441043 0.870081 0.177977
O O15 0.500000 0.000000 0.000000
O O16 0.575543 0.710741 0.290836
O O17 0.219420 0.585774 0.857539
#
# Coordination Sequence:
#
# PCOD8005781 Si02
#       8
#     2   2   2   2   2   2   2   2
#     4  10  20  41  69  89 119 164 215 253 297 373
#     4  11  21  41  68  95 114 165 219 254 296 365
#     4  10  20  39  62  94 120 156 208 261 306 361
#     4  12  25  40  59  93 132 161 203 259 308 358
#     4  11  24  43  64  94 126 163 205 253 312 371
#     4  11  21  41  68  89 122 165 213 247 302 377
#     4  11  20  40  67  92 116 163 216 251 301 372
#     4  12  25  38  60  94 132 162 197 259 318 359
#
# _framework density 21.748405999999999
#
# number of rings (size 3 to 8) (size 9 to 14) (size 15 to 20)
#    0.000    1.000    5.000    4.500    0.000    1.000 
#    0.000   11.875    0.000    0.000    0.000    0.000 
#    0.000    0.000    0.000    0.000    0.000    0.000 
#
# Total GULP energy -198301.546772 kJ/mol
# GULP energy per Si atom -12393.846673 kJ/mol
# Density = 2.169891 g / cm^3
# Si number density = 21.748406 Si / 1000 Ang^3
#
#
#
# Elastic Constant Matrix: (Units=GPa)
#
#
# Indices 1 2 3 4 5 6 
#
# 1 64.0724 26.0305 19.1818 -6.0467 -23.5056 21.6791
# 2 26.0305 59.2652 25.7014 -3.6209 -10.0974 12.5356
# 3 19.1818 25.7014 95.5775 4.6162 -20.4331 -5.1503
# 4 -6.0467 -3.6209 4.6162 36.5068 9.0280 -4.0397
# 5 -23.5056 -10.0974 -20.4331 9.0280 34.7896 -2.5936
# 6 21.6791 12.5356 -5.1503 -4.0397 -2.5936 30.8327
#
#
#
# Elastic Compliance Matrix: (Units=1/GPa)
#
#
# Indices 1 2 3 4 5 6 
#
# 1 0.030987 -0.006105 -0.001837 -0.001504 0.017106 -0.018370
# 2 -0.006105 0.023143 -0.005771 0.001772 -0.001704 -0.005992
# 3 -0.001837 -0.005771 0.014382 -0.003737 0.006958 0.006136
# 4 -0.001504 0.001772 -0.003737 0.030691 -0.010448 0.002855
# 5 0.017106 -0.001704 0.006958 -0.010448 0.046033 -0.007669
# 6 -0.018370 -0.005992 0.006136 0.002855 -0.007669 0.048540
#
#
# Mechanical properties :
#
#
# Convention : Reuss Voigt Hill
#
# Bulk Modulus (GPa) = 24.33968 40.08249 32.21108
# Shear Modulus (GPa) = 21.28593 30.29257 25.78925
#
# Velocity S-wave (km/s) = 3.13187 3.73616 3.44728
# Velocity P-wave (km/s) = 4.92888 6.08949 5.53967
#
# Compressibility (1/GPa) = 0.04108517
#
# Stress axis : x y z
#
# Youngs Moduli (GPa) = 32.27164 43.21031 69.53212
#
# Poissons Ratio (x) = 0.26380 0.12776
# Poissons Ratio (y) = 0.19702 0.40125
# Poissons Ratio (z) = 0.05930 0.24935
#
# Static dielectric constant tensor:
#      x y z
#    x 4.163160 -0.006390 -0.371280 
#    y -0.006390 3.848430 0.192260 
#    z -0.371280 0.192260 4.157720 
# 
# 
# High freq. dielectric constant tensor:
#      x y z
#    x 1.858370 0.016910 -0.024950 
#    y 0.016910 1.834720 0.017560 
#    z -0.024950 0.017560 1.860510 
# 
# From -- ./inp_files/244976.got.cif
#   From: 2010.06.25/outbox.cif.g09.slc.cpg/sg2_123_cif.got.tgz:244976.got - 2010.06.27 13:26:56.
