data_PCOD8005167
_publ_section_title
;
Structure prediction by ZEFSAII (Michael W. Deem and Ramdas Pophale) SiO2 
 PCOD8005167
Probable space group: P -1
;
_chemical_formula_sum "Si O2"
_cell_formula_units_Z 16
_cell_length_a 8.794696
_cell_length_b 20.770982
_cell_length_c 10.167900
_cell_angle_alpha 47.254875
_cell_angle_beta 107.984252
_cell_angle_gamma 69.931042
_cell_volume 793.287385
_symmetry_space_group_name_H-M "P -1"
_symmetry_group_IT_number 2
_symmetry_cell_setting 'triclinic'
loop_
_space_group_symop_operation_xyz
x,y,z
-x,-y,-z
loop_
_atom_site_type_symbol
_atom_site_label
_atom_site_fract_x
_atom_site_fract_y
_atom_site_fract_z
Si Si1 0.629259 0.023377 0.770340
Si Si2 0.899201 0.499624 0.841988
Si Si3 0.838912 0.767652 0.322521
Si Si4 0.971401 0.955138 0.750248
Si Si5 0.747786 0.218558 0.185493
Si Si6 0.862109 0.515536 0.319156
Si Si7 0.960868 0.743121 0.685711
Si Si8 0.578637 0.175315 0.769559
O O1 0.337080 0.114505 0.543101
O O2 0.625145 0.117896 0.715131
O O3 0.764346 0.978620 0.727724
O O4 0.798346 0.881185 0.096213
O O5 0.603848 0.659387 0.514122
O O6 0.090693 0.445391 0.850718
O O7 0.000000 0.500000 0.000000
O O8 0.903117 0.393220 0.005214
O O9 0.972218 0.714934 0.573965
O O10 0.558942 0.840774 0.158081
O O11 0.025211 0.631097 0.466720
O O12 0.147193 0.824637 0.875778
O O13 0.148236 0.919540 0.961078
O O14 0.808972 0.099687 0.432740
O O15 0.880114 0.237596 0.277918
O O16 0.440209 0.364661 0.896893
O O17 0.000000 0.500000 0.500000
#
# Coordination Sequence:
#
# PCOD8005167 Si02
#       8
#     2   2   2   2   2   2   2   2
#     4  11  21  37  64  88 123 161 209 259 313 365
#     4  11  20  41  67  95 124 164 211 254 310 377
#     4  10  21  38  62  92 121 159 209 256 312 371
#     4  11  24  41  59  91 124 167 212 251 312 377
#     4  11  25  41  62  88 129 165 207 260 311 369
#     4  11  24  43  66  90 127 172 205 251 321 376
#     4  11  22  39  63  95 125 160 209 264 308 367
#     4  10  20  38  65  89 125 158 205 259 310 368
#
# _framework density 20.169235
#
# number of rings (size 3 to 8) (size 9 to 14) (size 15 to 20)
#    0.000    1.250    3.750    5.625    0.000    4.000 
#    0.000    1.875    0.000    0.000    0.000    0.000 
#    0.000    0.000    0.000    0.000    0.000    0.000 
#
# Total GULP energy -198481.388833 kJ/mol
# GULP energy per Si atom -12405.086802 kJ/mol
# Density = 2.012333 g / cm^3
# Si number density = 20.169235 Si / 1000 Ang^3
#
#
#
# Elastic Constant Matrix: (Units=GPa)
#
#
# Indices 1 2 3 4 5 6 
#
# 1 88.6165 57.3815 47.7721 -2.6109 3.8928 -7.4890
# 2 57.3815 119.3935 46.1795 -9.3792 7.9187 -18.5111
# 3 47.7721 46.1795 85.4892 -7.3608 2.8828 -10.6907
# 4 -2.6109 -9.3792 -7.3608 33.5800 3.3789 1.3152
# 5 3.8928 7.9187 2.8828 3.3789 48.6244 2.6761
# 6 -7.4890 -18.5111 -10.6907 1.3152 2.6761 33.4676
#
#
#
# Elastic Compliance Matrix: (Units=1/GPa)
#
#
# Indices 1 2 3 4 5 6 
#
# 1 0.019698 -0.006967 -0.007658 -0.002047 0.000255 -0.001832
# 2 -0.006967 0.013934 -0.002658 0.002763 -0.002041 0.005354
# 3 -0.007658 -0.002658 0.017951 0.002533 -0.000331 0.002478
# 4 -0.002047 0.002763 0.002533 0.031180 -0.002651 0.000866
# 5 0.000255 -0.002041 -0.000331 -0.002651 0.021234 -0.002771
# 6 -0.001832 0.005354 0.002478 0.000866 -0.002771 0.033410
#
#
# Mechanical properties :
#
#
# Convention : Reuss Voigt Hill
#
# Bulk Modulus (GPa) = 58.75800 66.24060 62.49930
# Shear Modulus (GPa) = 28.14597 32.61213 30.37905
#
# Velocity S-wave (km/s) = 3.73968 4.02546 3.88520
# Velocity P-wave (km/s) = 6.91684 7.38373 7.15409
#
# Compressibility (1/GPa) = 0.01701896
#
# Stress axis : x y z
#
# Youngs Moduli (GPa) = 50.76769 71.76509 55.70571
#
# Poissons Ratio (x) = 0.49995 0.42659
# Poissons Ratio (y) = 0.35368 0.14806
# Poissons Ratio (z) = 0.38877 0.19074
#
# Static dielectric constant tensor:
#      x y z
#    x 3.580390 0.000710 -0.180410 
#    y 0.000710 3.750600 -0.158400 
#    z -0.180410 -0.158400 3.850200 
# 
# 
# High freq. dielectric constant tensor:
#      x y z
#    x 1.778110 -0.004520 -0.003540 
#    y -0.004520 1.792940 -0.006470 
#    z -0.003540 -0.006470 1.793760 
# 
# From -- ./inp_files/223225.got.cif
#   From: 2010.06.25/outbox.cif.g09.slc.cpg/sg2_112_cif.got.tgz:223225.got - 2010.06.27 13:26:56.
