data_PCOD8005070
_publ_section_title
;
Structure prediction by ZEFSAII (Michael W. Deem and Ramdas Pophale) SiO2 
 PCOD8005070
Probable space group: P -1
;
_chemical_formula_sum "Si O2"
_cell_formula_units_Z 14
_cell_length_a 14.463446
_cell_length_b 13.949768
_cell_length_c 8.629153
_cell_angle_alpha 46.750035
_cell_angle_beta 100.906342
_cell_angle_gamma 137.998416
_cell_volume 640.091326
_symmetry_space_group_name_H-M "P -1"
_symmetry_group_IT_number 2
_symmetry_cell_setting 'triclinic'
loop_
_space_group_symop_operation_xyz
x,y,z
-x,-y,-z
loop_
_atom_site_type_symbol
_atom_site_label
_atom_site_fract_x
_atom_site_fract_y
_atom_site_fract_z
Si Si1 0.380182 0.223385 0.259031
Si Si2 0.159383 0.106233 0.102323
Si Si3 0.544154 0.687746 0.482634
Si Si4 0.086664 0.952214 0.916699
Si Si5 0.874732 0.459175 0.432127
Si Si6 0.611260 0.256609 0.802165
Si Si7 0.462991 0.061660 0.287871
O O1 0.365221 0.146949 0.512513
O O2 0.460368 0.204136 0.199692
O O3 0.500000 0.500000 0.000000
O O4 0.185396 0.033497 0.332053
O O5 0.359108 0.390919 0.792780
O O6 0.062785 0.924472 0.126185
O O7 0.031185 0.069411 0.168265
O O8 0.501666 0.750223 0.277011
O O9 0.698817 0.776528 0.361019
O O10 0.001945 0.712405 0.092823
O O11 0.800089 0.466778 0.536780
O O12 0.725038 0.207990 0.556504
O O13 0.000000 0.500000 0.500000
O O14 0.500000 0.000000 0.000000
O O15 0.625230 0.266796 0.982986
O O16 0.500000 0.000000 0.500000
#
# Coordination Sequence:
#
# PCOD8005070 Si02
#       7
#     2   2   2   2   2   2   2
#     4  10  22  40  64  94 134 171 218 271 323 390
#     4  10  22  40  62  92 136 164 224 264 333 382
#     4  11  21  40  66  91 130 172 219 262 336 386
#     4  11  22  38  64  95 125 174 217 276 315 400
#     4  11  22  40  65  95 133 165 227 277 324 391
#     4  10  20  38  64  92 123 172 217 260 331 395
#     4  11  24  42  69  95 132 177 221 271 335 396
#
# _framework density 21.871879
#
# number of rings (size 3 to 8) (size 9 to 14) (size 15 to 20)
#    0.000    1.429    1.429    5.571    2.000    1.714 
#    0.000    4.286    0.000    0.000    0.000    0.000 
#    0.000    0.000    0.000    0.000    0.000    0.000 
#
# Total GULP energy -173444.814634 kJ/mol
# GULP energy per Si atom -12388.915331 kJ/mol
# Density = 2.182210 g / cm^3
# Si number density = 21.871879 Si / 1000 Ang^3
#
#
#
# Elastic Constant Matrix: (Units=GPa)
#
#
# Indices 1 2 3 4 5 6 
#
# 1 156.6702 51.8655 42.5885 4.6072 -9.9136 7.9669
# 2 51.8655 109.3097 26.3721 23.1632 3.1399 7.9531
# 3 42.5885 26.3721 70.1883 2.7227 -4.5065 9.8236
# 4 4.6072 23.1632 2.7227 46.7726 3.7759 2.7155
# 5 -9.9136 3.1399 -4.5065 3.7759 32.9203 -2.9571
# 6 7.9669 7.9531 9.8236 2.7155 -2.9571 40.6794
#
#
#
# Elastic Compliance Matrix: (Units=1/GPa)
#
#
# Indices 1 2 3 4 5 6 
#
# 1 0.008696 -0.003449 -0.003868 0.000889 0.002317 0.000014
# 2 -0.003449 0.012689 -0.002451 -0.005580 -0.002033 -0.000989
# 3 -0.003868 -0.002451 0.017996 0.000629 0.001185 -0.003065
# 4 0.000889 -0.005580 0.000629 0.024237 -0.001984 -0.000997
# 5 0.002317 -0.002033 0.001185 -0.001984 0.031847 0.002105
# 6 0.000014 -0.000989 -0.003065 -0.000997 0.002105 0.025733
#
#
# Mechanical properties :
#
#
# Convention : Reuss Voigt Hill
#
# Bulk Modulus (GPa) = 50.39012 64.20228 57.29620
# Shear Modulus (GPa) = 33.93332 38.43061 36.18197
#
# Velocity S-wave (km/s) = 3.94313 4.19630 4.07168
# Velocity P-wave (km/s) = 6.61965 7.27297 6.95399
#
# Compressibility (1/GPa) = 0.01984516
#
# Stress axis : x y z
#
# Youngs Moduli (GPa) = 114.99762 78.81063 55.56780
#
# Poissons Ratio (x) = 0.27179 0.21495
# Poissons Ratio (y) = 0.39659 0.13618
# Poissons Ratio (z) = 0.44485 0.19314
#
# Static dielectric constant tensor:
#      x y z
#    x 3.619790 0.386160 0.295020 
#    y 0.386160 4.110520 -0.220420 
#    z 0.295020 -0.220420 3.793560 
# 
# 
# High freq. dielectric constant tensor:
#      x y z
#    x 1.871220 0.002690 0.006870 
#    y 0.002690 1.863810 0.000990 
#    z 0.006870 0.000990 1.843720 
# 
# From -- ./inp_files/314675.got.cif
#   From: 2010.06.25/outbox.cif.g09.slc.cpg/sg2_158_cif.got.tgz:314675.got - 2010.06.27 13:26:56.
