data_PCOD8005180
_publ_section_title
;
Structure prediction by ZEFSAII (Michael W. Deem and Ramdas Pophale) SiO2 
 PCOD8005180
Probable space group: P -1
;
_chemical_formula_sum "Si O2"
_cell_formula_units_Z 16
_cell_length_a 12.782987
_cell_length_b 15.821481
_cell_length_c 9.269400
_cell_angle_alpha 25.969191
_cell_angle_beta 110.204353
_cell_angle_gamma 112.080660
_cell_volume 760.571019
_symmetry_space_group_name_H-M "P -1"
_symmetry_group_IT_number 2
_symmetry_cell_setting 'triclinic'
loop_
_space_group_symop_operation_xyz
x,y,z
-x,-y,-z
loop_
_atom_site_type_symbol
_atom_site_label
_atom_site_fract_x
_atom_site_fract_y
_atom_site_fract_z
Si Si1 0.076978 0.834155 0.279013
Si Si2 0.814539 0.703106 0.795619
Si Si3 0.190300 0.875843 0.980798
Si Si4 0.799537 0.344961 0.135054
Si Si5 0.433644 0.941729 0.912199
Si Si6 0.581058 0.664735 0.868082
Si Si7 0.540770 0.208641 0.134479
Si Si8 0.959360 0.411372 0.837263
O O1 0.149756 0.798512 0.509281
O O2 0.990171 0.643530 0.482979
O O3 0.171977 0.901435 0.101808
O O4 0.000000 0.000000 0.000000
O O5 0.711377 0.635412 0.962380
O O6 0.825752 0.926920 0.411146
O O7 0.799242 0.560217 0.869395
O O8 0.927979 0.684167 0.960607
O O9 0.314413 0.830704 0.080024
O O10 0.106411 0.683298 0.187383
O O11 0.673625 0.262039 0.151337
O O12 0.884002 0.355779 0.026472
O O13 0.481059 0.794115 0.046359
O O14 0.426674 0.132772 0.523791
O O15 0.500000 0.000000 0.000000
O O16 0.536613 0.653904 0.030236
O O17 0.500000 0.500000 0.000000
O O18 0.500000 0.000000 0.500000
#
# Coordination Sequence:
#
# PCOD8005180 Si02
#       8
#     2   2   2   2   2   2   2   2
#     4  11  24  40  60  92 128 162 203 255 316 375
#     4  10  21  37  63  95 124 167 208 253 309 375
#     4  11  22  39  60  90 129 160 205 261 312 367
#     4  11  21  40  68  88 124 168 207 256 307 375
#     4  10  23  40  63  87 123 165 205 263 319 360
#     4  10  20  38  65  91 125 159 211 256 299 373
#     4  10  21  39  64  92 121 162 216 250 310 373
#     4  11  22  40  64  91 123 168 210 252 312 369
#
# _framework density 21.036826000000001
#
# number of rings (size 3 to 8) (size 9 to 14) (size 15 to 20)
#    0.000    1.500    2.500    3.750    3.500    0.000 
#    0.000    0.625    0.000    0.000    0.000    0.000 
#    0.000    0.000    0.000    0.000    0.000    0.000 
#
# Total GULP energy -198296.538587 kJ/mol
# GULP energy per Si atom -12393.533662 kJ/mol
# Density = 2.098895 g / cm^3
# Si number density = 21.036826 Si / 1000 Ang^3
#
#
#
# Elastic Constant Matrix: (Units=GPa)
#
#
# Indices 1 2 3 4 5 6 
#
# 1 161.3786 50.8469 18.8714 11.0525 -10.7570 -16.1757
# 2 50.8469 121.0123 6.5223 9.4086 -2.2250 -7.3575
# 3 18.8714 6.5223 44.1990 -2.4879 -6.4820 -1.5622
# 4 11.0525 9.4086 -2.4879 26.9289 -0.7462 -9.3154
# 5 -10.7570 -2.2250 -6.4820 -0.7462 27.8264 -1.9200
# 6 -16.1757 -7.3575 -1.5622 -9.3154 -1.9200 50.6213
#
#
#
# Elastic Compliance Matrix: (Units=1/GPa)
#
#
# Indices 1 2 3 4 5 6 
#
# 1 0.007861 -0.002872 -0.002638 -0.001792 0.002269 0.001770
# 2 -0.002872 0.009659 -0.000394 -0.002230 -0.000487 0.000045
# 3 -0.002638 -0.000394 0.024772 0.003910 0.004877 0.000769
# 4 -0.001792 -0.002230 0.003910 0.041447 0.001628 0.006913
# 5 0.002269 -0.000487 0.004877 0.001628 0.038131 0.002551
# 6 0.001770 0.000045 0.000769 0.006913 0.002551 0.021719
#
#
# Mechanical properties :
#
#
# Convention : Reuss Voigt Hill
#
# Bulk Modulus (GPa) = 32.80552 53.23014 43.01783
# Shear Modulus (GPa) = 30.20044 37.76526 33.98285
#
# Velocity S-wave (km/s) = 3.79304 4.24157 4.02356
# Velocity P-wave (km/s) = 5.90009 7.02468 6.48680
#
# Compressibility (1/GPa) = 0.03048267
#
# Stress axis : x y z
#
# Youngs Moduli (GPa) = 127.20260 103.53054 40.36806
#
# Poissons Ratio (x) = 0.29738 0.10650
# Poissons Ratio (y) = 0.36538 0.01591
# Poissons Ratio (z) = 0.33560 0.04081
#
# Static dielectric constant tensor:
#      x y z
#    x 4.413800 -0.586210 -0.144310 
#    y -0.586210 4.121250 -0.142590 
#    z -0.144310 -0.142590 3.584030 
# 
# 
# High freq. dielectric constant tensor:
#      x y z
#    x 1.849790 -0.010220 -0.016830 
#    y -0.010220 1.832300 -0.015280 
#    z -0.016830 -0.015280 1.803050 
# 
# From -- ./inp_files/203593.got.cif
#   From: 2010.06.25/outbox.cif.g09.slc.cpg/sg2_102_cif.got.tgz:203593.got - 2010.06.27 13:26:56.
