data_PCOD8005959
_publ_section_title
;
Structure prediction by ZEFSAII (Michael W. Deem and Ramdas Pophale) SiO2 
 PCOD8005959
Probable space group: P -1
;
_chemical_formula_sum "Si O2"
_cell_formula_units_Z 16
_cell_length_a 28.281655
_cell_length_b 9.492812
_cell_length_c 9.615145
_cell_angle_alpha 112.887988
_cell_angle_beta 138.145473
_cell_angle_gamma 34.217579
_cell_volume 771.247923
_symmetry_space_group_name_H-M "P -1"
_symmetry_group_IT_number 2
_symmetry_cell_setting 'triclinic'
loop_
_space_group_symop_operation_xyz
x,y,z
-x,-y,-z
loop_
_atom_site_type_symbol
_atom_site_label
_atom_site_fract_x
_atom_site_fract_y
_atom_site_fract_z
Si Si1 0.908943 0.520136 0.802614
Si Si2 0.632405 0.682449 0.581968
Si Si3 0.181494 0.737774 0.708336
Si Si4 0.694160 0.831742 0.222175
Si Si5 0.549927 0.587561 0.904180
Si Si6 0.427661 0.807742 0.172488
Si Si7 0.082945 0.917622 0.860649
Si Si8 0.347882 0.052595 0.398885
O O1 0.816622 0.689743 0.523278
O O2 0.803903 0.716623 0.781083
O O3 0.019787 0.169499 0.916659
O O4 0.000000 0.500000 0.000000
O O5 0.582589 0.603796 0.405202
O O6 0.650968 0.762788 0.522866
O O7 0.500000 0.000000 0.500000
O O8 0.779823 0.413521 0.889238
O O9 0.270136 0.414214 0.802984
O O10 0.129251 0.899374 0.805483
O O11 0.283090 0.671489 0.831911
O O12 0.040860 0.978340 0.394127
O O13 0.538173 0.144928 0.075416
O O14 0.689892 0.910977 0.089205
O O15 0.541658 0.428020 0.872665
O O16 0.483638 0.731923 0.660317
O O17 0.360978 0.963750 0.237973
#
# Coordination Sequence:
#
# PCOD8005959 Si02
#       8
#     2   2   2   2   2   2   2   2
#     4  10  24  42  64  90 133 170 205 265 317 373
#     4  10  21  39  63  90 126 161 209 262 305 374
#     4  10  20  39  64  89 125 167 219 252 312 384
#     4  10  22  42  61  90 128 168 208 263 319 367
#     4  11  22  37  64  95 126 165 215 262 315 371
#     4  11  22  37  65  96 126 162 215 265 315 363
#     4  10  22  38  64  91 124 173 211 256 315 376
#     4  10  22  40  62  92 125 174 216 250 316 378
#
# _framework density 20.7456
#
# number of rings (size 3 to 8) (size 9 to 14) (size 15 to 20)
#    0.000    1.750    0.000    4.875    5.250    2.500 
#    2.250    0.625    0.000    0.000    0.000    0.000 
#    0.000    0.000    0.000    0.000    0.000    0.000 
#
# Total GULP energy -198413.044735 kJ/mol
# GULP energy per Si atom -12400.815296 kJ/mol
# Density = 2.069838 g / cm^3
# Si number density = 20.745600 Si / 1000 Ang^3
#
#
#
# Elastic Constant Matrix: (Units=GPa)
#
#
# Indices 1 2 3 4 5 6 
#
# 1 107.1619 21.3839 56.5753 0.1005 15.0510 10.4620
# 2 21.3839 58.9262 32.4445 -8.4881 5.6893 -3.5911
# 3 56.5753 32.4445 113.9871 -16.4154 8.2805 8.5786
# 4 0.1005 -8.4881 -16.4154 29.5503 -0.5232 -1.0421
# 5 15.0510 5.6893 8.2805 -0.5232 48.5058 2.4939
# 6 10.4620 -3.5911 8.5786 -1.0421 2.4939 40.4074
#
#
#
# Elastic Compliance Matrix: (Units=1/GPa)
#
#
# Indices 1 2 3 4 5 6 
#
# 1 0.013803 -0.001887 -0.006562 -0.004365 -0.002871 -0.002284
# 2 -0.001887 0.021108 -0.004739 0.003540 -0.001225 0.003537
# 3 -0.006562 -0.004739 0.014436 0.006628 0.000283 -0.001633
# 4 -0.004365 0.003540 0.006628 0.038593 0.000172 0.001023
# 5 -0.002871 -0.001225 0.000283 0.000172 0.021643 -0.000757
# 6 -0.002284 0.003537 -0.001633 0.001023 -0.000757 0.026073
#
#
# Mechanical properties :
#
#
# Convention : Reuss Voigt Hill
#
# Bulk Modulus (GPa) = 43.53328 55.65361 49.59345
# Shear Modulus (GPa) = 29.46575 35.00414 32.23494
#
# Velocity S-wave (km/s) = 3.77282 4.11214 3.94613
# Velocity P-wave (km/s) = 6.32525 7.03073 6.68730
#
# Compressibility (1/GPa) = 0.02297093
#
# Stress axis : x y z
#
# Youngs Moduli (GPa) = 72.44910 47.37510 69.27361
#
# Poissons Ratio (x) = 0.08939 0.45457
# Poissons Ratio (y) = 0.13669 0.32829
# Poissons Ratio (z) = 0.47541 0.22451
#
# Static dielectric constant tensor:
#      x y z
#    x 4.088390 0.106220 0.085270 
#    y 0.106220 3.860090 -0.004040 
#    z 0.085270 -0.004040 3.900450 
# 
# 
# High freq. dielectric constant tensor:
#      x y z
#    x 1.805670 -0.004660 0.003030 
#    y -0.004660 1.811280 -0.001430 
#    z 0.003030 -0.001430 1.814540 
# 
# From -- ./inp_files/207700.got.cif
#   From: 2010.06.25/outbox.cif.g09.slc.cpg/sg2_104_cif.got.tgz:207700.got - 2010.06.27 13:26:56.
