data_PCOD8005769
_publ_section_title
;
Structure prediction by ZEFSAII (Michael W. Deem and Ramdas Pophale) SiO2 
 PCOD8005769
Probable space group: P -1
;
_chemical_formula_sum "Si O2"
_cell_formula_units_Z 14
_cell_length_a 12.022291
_cell_length_b 12.699425
_cell_length_c 14.397375
_cell_angle_alpha 142.667214
_cell_angle_beta 39.988496
_cell_angle_gamma 112.125934
_cell_volume 687.415076
_symmetry_space_group_name_H-M "P -1"
_symmetry_group_IT_number 2
_symmetry_cell_setting 'triclinic'
loop_
_space_group_symop_operation_xyz
x,y,z
-x,-y,-z
loop_
_atom_site_type_symbol
_atom_site_label
_atom_site_fract_x
_atom_site_fract_y
_atom_site_fract_z
Si Si1 0.233066 0.065268 0.119368
Si Si2 0.034767 0.529501 0.781567
Si Si3 0.331965 0.024561 0.237038
Si Si4 0.809864 0.432588 0.720870
Si Si5 0.281080 0.066718 0.642588
Si Si6 0.664858 0.195697 0.749639
Si Si7 0.951640 0.104717 0.003878
O O1 0.290141 0.978242 0.128022
O O2 0.997751 0.297267 0.428893
O O3 0.226089 0.903595 0.942821
O O4 0.414489 0.091727 0.987701
O O5 0.861212 0.570816 0.845355
O O6 0.211666 0.278520 0.512473
O O7 0.892841 0.668771 0.061260
O O8 0.143927 0.641220 0.749144
O O9 0.253367 0.923383 0.287090
O O10 0.817195 0.261439 0.665747
O O11 0.578407 0.587608 0.930119
O O12 0.500000 0.000000 0.500000
O O13 0.324219 0.971024 0.445469
O O14 0.176401 0.976360 0.710696
O O15 0.000000 0.000000 0.000000
#
# Coordination Sequence:
#
# PCOD8005769 Si02
#       7
#     2   2   2   2   2   2   2
#     4  10  22  43  59  89 127 157 206 246 295 366
#     4   9  21  39  61  88 122 154 201 249 298 361
#     4  10  24  41  61  87 126 166 193 252 302 359
#     4  10  20  39  63  89 119 154 212 252 282 366
#     4  10  20  39  62  92 122 151 200 259 292 359
#     4  11  21  38  64  91 119 161 200 250 307 345
#     4  10  22  41  66  89 118 162 199 256 296 354
#
# _framework density 20.366150999999999
#
# number of rings (size 3 to 8) (size 9 to 14) (size 15 to 20)
#    0.857    1.143    2.857    0.000    4.000    4.000 
#    5.143    0.000    3.143    0.000    0.000    0.000 
#    0.000    0.000    0.000    0.000    0.000    0.000 
#
# Total GULP energy -173492.914928 kJ/mol
# GULP energy per Si atom -12392.351066 kJ/mol
# Density = 2.031980 g / cm^3
# Si number density = 20.366151 Si / 1000 Ang^3
#
#
#
# Elastic Constant Matrix: (Units=GPa)
#
#
# Indices 1 2 3 4 5 6 
#
# 1 106.0265 31.4004 6.2832 5.1560 12.7194 10.7971
# 2 31.4004 86.8003 20.0446 13.7054 4.5507 -9.7797
# 3 6.2832 20.0446 87.4750 3.4002 0.6463 -0.2363
# 4 5.1560 13.7054 3.4002 28.7630 8.8970 -0.3948
# 5 12.7194 4.5507 0.6463 8.8970 24.9307 -0.8015
# 6 10.7971 -9.7797 -0.2363 -0.3948 -0.8015 32.1983
#
#
#
# Elastic Compliance Matrix: (Units=1/GPa)
#
#
# Indices 1 2 3 4 5 6 
#
# 1 0.012158 -0.005104 0.000246 0.002062 -0.006198 -0.005754
# 2 -0.005104 0.015742 -0.002973 -0.006914 0.002482 0.006448
# 3 0.000246 -0.002973 0.012096 -0.000104 0.000112 -0.000895
# 4 0.002062 -0.006914 -0.000104 0.042297 -0.014967 -0.002646
# 5 -0.006198 0.002482 0.000112 -0.014967 0.048283 0.003852
# 6 -0.005754 0.006448 -0.000895 -0.002646 0.003852 0.035002
#
#
# Mechanical properties :
#
#
# Convention : Reuss Voigt Hill
#
# Bulk Modulus (GPa) = 41.09309 43.97314 42.53311
# Shear Modulus (GPa) = 26.40612 32.01665 29.21138
#
# Velocity S-wave (km/s) = 3.60470 3.96921 3.79134
# Velocity P-wave (km/s) = 6.12748 6.53026 6.33208
#
# Compressibility (1/GPa) = 0.02433499
#
# Stress axis : x y z
#
# Youngs Moduli (GPa) = 82.25112 63.52613 82.67100
#
# Poissons Ratio (x) = 0.32424 -0.02037
# Poissons Ratio (y) = 0.41981 0.24576
# Poissons Ratio (z) = -0.02026 0.18884
#
# Static dielectric constant tensor:
#      x y z
#    x 3.559740 0.237630 0.099310 
#    y 0.237630 3.551950 -0.139680 
#    z 0.099310 -0.139680 3.702500 
# 
# 
# High freq. dielectric constant tensor:
#      x y z
#    x 1.792840 0.020780 0.004450 
#    y 0.020780 1.778200 -0.011570 
#    z 0.004450 -0.011570 1.794220 
# 
# From -- ./inp_files/519226.got.cif
#   From: 2010.06.25/outbox.cif.g09.slc.cpg/sg2_260_cif.got.tgz:519226.got - 2010.06.27 13:26:56.
