data_PCOD8005267
_publ_section_title
;
Structure prediction by ZEFSAII (Michael W. Deem and Ramdas Pophale) SiO2 
 PCOD8005267
Probable space group: P -1
;
_chemical_formula_sum "Si O2"
_cell_formula_units_Z 16
_cell_length_a 23.029089
_cell_length_b 5.295194
_cell_length_c 9.264855
_cell_angle_alpha 78.028019
_cell_angle_beta 47.970072
_cell_angle_gamma 59.983410
_cell_volume 712.228990
_symmetry_space_group_name_H-M "P -1"
_symmetry_group_IT_number 2
_symmetry_cell_setting 'triclinic'
loop_
_space_group_symop_operation_xyz
x,y,z
-x,-y,-z
loop_
_atom_site_type_symbol
_atom_site_label
_atom_site_fract_x
_atom_site_fract_y
_atom_site_fract_z
Si Si1 0.872642 0.695053 0.287151
Si Si2 0.752572 0.316021 0.335063
Si Si3 0.153048 0.660141 0.083145
Si Si4 0.323633 0.424155 0.998866
Si Si5 0.405224 0.751004 0.454056
Si Si6 0.686683 0.726567 0.646642
Si Si7 0.583378 0.186333 0.253965
Si Si8 0.062089 0.365632 0.126480
O O1 0.788028 0.671795 0.487312
O O2 0.953652 0.527985 0.285123
O O3 0.842195 0.043549 0.288538
O O4 0.903672 0.563025 0.089433
O O5 0.692588 0.213303 0.356109
O O6 0.686429 0.514781 0.547204
O O7 0.782889 0.476802 0.148540
O O8 0.088858 0.513183 0.197261
O O9 0.098548 0.017618 0.132180
O O10 0.217751 0.549668 0.127761
O O11 0.351081 0.673039 0.889822
O O12 0.383056 0.121695 0.847633
O O13 0.340307 0.350439 0.148302
O O14 0.485190 0.419329 0.327006
O O15 0.426741 0.870245 0.552657
O O16 0.391992 0.947287 0.309678
#
# Coordination Sequence:
#
# PCOD8005267 Si02
#       8
#     2   2   2   2   2   2   2   2
#     4   9  21  36  60  98 119 165 209 269 313 369
#     4  10  20  38  66  89 127 166 215 257 316 380
#     4  11  21  40  63  91 123 168 210 263 314 377
#     4  12  27  43  64  95 135 173 208 261 328 384
#     4  10  24  43  69  97 122 169 219 271 310 375
#     4  11  24  41  65  92 136 171 210 260 323 388
#     4  11  26  45  69  96 128 167 219 265 317 381
#     4  10  21  37  66  92 124 156 220 268 309 365
#
# _framework density 22.464686
#
# number of rings (size 3 to 8) (size 9 to 14) (size 15 to 20)
#    0.000    1.500    2.500    1.500    8.750    3.500 
#    0.000    1.250    0.000    0.000    0.000    0.000 
#    0.000    0.000    0.000    0.000    0.000    0.000 
#
# Total GULP energy -198309.448326 kJ/mol
# GULP energy per Si atom -12394.340520 kJ/mol
# Density = 2.241356 g / cm^3
# Si number density = 22.464686 Si / 1000 Ang^3
#
#
#
# Elastic Constant Matrix: (Units=GPa)
#
#
# Indices 1 2 3 4 5 6 
#
# 1 87.8380 41.7655 12.3792 2.4154 -2.6299 -20.3787
# 2 41.7655 82.6576 10.4284 8.7145 -4.2802 -12.6312
# 3 12.3792 10.4284 33.2414 -3.6014 0.6681 -10.1975
# 4 2.4154 8.7145 -3.6014 29.7155 -8.3547 -4.9566
# 5 -2.6299 -4.2802 0.6681 -8.3547 24.8717 5.0751
# 6 -20.3787 -12.6312 -10.1975 -4.9566 5.0751 46.8557
#
#
#
# Elastic Compliance Matrix: (Units=1/GPa)
#
#
# Indices 1 2 3 4 5 6 
#
# 1 0.016252 -0.007360 -0.002133 0.001373 -0.000002 0.004766
# 2 -0.007360 0.016712 -0.002962 -0.004458 0.000656 0.000117
# 3 -0.002133 -0.002962 0.034481 0.006038 -0.000964 0.006521
# 4 0.001373 -0.004458 0.006038 0.039484 0.011741 0.003615
# 5 -0.000002 0.000656 -0.000964 0.011741 0.045038 -0.003670
# 6 0.004766 0.000117 0.006521 0.003615 -0.003670 0.025646
#
#
# Mechanical properties :
#
#
# Convention : Reuss Voigt Hill
#
# Bulk Modulus (GPa) = 23.50965 36.98702 30.24834
# Shear Modulus (GPa) = 23.07325 29.56618 26.31971
#
# Velocity S-wave (km/s) = 3.20830 3.63177 3.42658
# Velocity P-wave (km/s) = 4.92058 5.83837 5.39902
#
# Compressibility (1/GPa) = 0.04253572
#
# Stress axis : x y z
#
# Youngs Moduli (GPa) = 61.52930 59.83586 29.00180
#
# Poissons Ratio (x) = 0.44037 0.06185
# Poissons Ratio (y) = 0.45283 0.08592
# Poissons Ratio (z) = 0.13123 0.17726
#
# Static dielectric constant tensor:
#      x y z
#    x 4.111740 -0.146030 -0.086930 
#    y -0.146030 4.063540 0.116680 
#    z -0.086930 0.116680 3.693140 
# 
# 
# High freq. dielectric constant tensor:
#      x y z
#    x 1.893720 -0.010040 -0.013180 
#    y -0.010040 1.890730 0.009580 
#    z -0.013180 0.009580 1.848920 
# 
# From -- ./inp_files/38146.got.cif
#   From: 2010.06.25/outbox.cif.g09.slc.cpg/sg2_20_cif.got.tgz:38146.got - 2010.06.27 13:26:56.
