data_PCOD8005359
_publ_section_title
;
Structure prediction by ZEFSAII (Michael W. Deem and Ramdas Pophale) SiO2 
 PCOD8005359
Probable space group: P -1
;
_chemical_formula_sum "Si O2"
_cell_formula_units_Z 12
_cell_length_a 5.109393
_cell_length_b 13.085714
_cell_length_c 10.148195
_cell_angle_alpha 136.338969
_cell_angle_beta 94.888530
_cell_angle_gamma 77.925249
_cell_volume 455.870222
_symmetry_space_group_name_H-M "P -1"
_symmetry_group_IT_number 2
_symmetry_cell_setting 'triclinic'
loop_
_space_group_symop_operation_xyz
x,y,z
-x,-y,-z
loop_
_atom_site_type_symbol
_atom_site_label
_atom_site_fract_x
_atom_site_fract_y
_atom_site_fract_z
Si Si1 0.236933 0.875833 0.967705
Si Si2 0.894727 0.159869 0.580931
Si Si3 0.153469 0.377348 0.649573
Si Si4 0.280356 0.021609 0.812211
Si Si5 0.121911 0.702412 0.035793
Si Si6 0.367713 0.638400 0.533721
O O1 0.334530 0.799218 0.759490
O O2 0.420779 0.989068 0.131752
O O3 0.286605 0.736062 0.945297
O O4 0.919073 0.965729 0.053691
O O5 0.734395 0.267729 0.790600
O O6 0.137836 0.236285 0.612985
O O7 0.721348 0.129965 0.416887
O O8 0.000000 0.000000 0.500000
O O9 0.449487 0.357105 0.582926
O O10 0.925778 0.388089 0.538431
O O11 0.083294 0.531940 0.874872
O O12 0.167353 0.175052 0.865873
O O13 0.500000 0.500000 0.500000
#
# Coordination Sequence:
#
# PCOD8005359 Si02
#       6
#     2   2   2   2   2   2
#     4  10  20  38  67  95 124 177 208 269 330 387
#     4  10  23  48  67  96 137 180 217 280 322 394
#     4  12  25  42  68 107 127 176 225 266 335 397
#     4   9  20  39  64  94 126 173 218 253 341 378
#     4   9  21  40  68  95 131 166 224 266 337 379
#     4  12  23  43  69 100 140 168 216 281 332 392
#
# _framework density 26.323284000000001
#
# number of rings (size 3 to 8) (size 9 to 14) (size 15 to 20)
#    1.000    0.667    1.667    3.000    0.000    2.000 
#    6.000    6.667    0.000    0.000    0.000    0.000 
#    0.000    0.000    0.000    0.000    0.000    0.000 
#
# Total GULP energy -148757.712158 kJ/mol
# GULP energy per Si atom -12396.476013 kJ/mol
# Density = 2.626337 g / cm^3
# Si number density = 26.323284 Si / 1000 Ang^3
#
#
#
# Elastic Constant Matrix: (Units=GPa)
#
#
# Indices 1 2 3 4 5 6 
#
# 1 100.9891 20.2168 47.7268 5.1384 10.4515 -1.9764
# 2 20.2168 115.0847 49.7984 13.4692 -9.0828 25.6883
# 3 47.7268 49.7984 229.4285 0.3977 14.9616 2.8872
# 4 5.1384 13.4692 0.3977 58.0508 3.7865 -1.8970
# 5 10.4515 -9.0828 14.9616 3.7865 39.9983 0.8505
# 6 -1.9764 25.6883 2.8872 -1.8970 0.8505 39.9536
#
#
#
# Elastic Compliance Matrix: (Units=1/GPa)
#
#
# Indices 1 2 3 4 5 6 
#
# 1 0.011473 -0.001825 -0.001836 -0.000339 -0.002734 0.001916
# 2 -0.001825 0.012785 -0.002600 -0.003378 0.004851 -0.008386
# 3 -0.001836 -0.002600 0.005434 0.000918 -0.002258 0.001280
# 4 -0.000339 -0.003378 0.000918 0.018316 -0.002820 0.003018
# 5 -0.002734 0.004851 -0.002258 -0.002820 0.028010 -0.003821
# 6 0.001916 -0.008386 0.001280 0.003018 -0.003821 0.030648
#
#
# Mechanical properties :
#
#
# Convention : Reuss Voigt Hill
#
# Bulk Modulus (GPa) = 58.23992 75.66517 66.95254
# Shear Modulus (GPa) = 40.02844 49.45123 44.73984
#
# Velocity S-wave (km/s) = 3.90378 4.33900 4.12713
# Velocity P-wave (km/s) = 6.51861 7.34231 6.94268
#
# Compressibility (1/GPa) = 0.01717035
#
# Stress axis : x y z
#
# Youngs Moduli (GPa) = 87.16433 78.21629 184.00981
#
# Poissons Ratio (x) = 0.14273 0.33779
# Poissons Ratio (y) = 0.15905 0.47850
# Poissons Ratio (z) = 0.16001 0.20339
#
# Static dielectric constant tensor:
#      x y z
#    x 4.302130 0.184960 -0.069570 
#    y 0.184960 5.349000 -0.322950 
#    z -0.069570 -0.322950 5.345090 
# 
# 
# High freq. dielectric constant tensor:
#      x y z
#    x 2.021900 0.013390 -0.003970 
#    y 0.013390 2.104090 0.004120 
#    z -0.003970 0.004120 2.073940 
# 
# From -- ./inp_files/36369.got.cif
#   From: 2010.06.25/outbox.cif.g09.slc.cpg/sg2_19_cif.got.tgz:36369.got - 2010.06.27 13:26:56.
