data_PCOD8005979
_publ_section_title
;
Structure prediction by ZEFSAII (Michael W. Deem and Ramdas Pophale) SiO2 
 PCOD8005979
Probable space group: P -1
;
_chemical_formula_sum "Si O2"
_cell_formula_units_Z 10
_cell_length_a 13.164170
_cell_length_b 13.346876
_cell_length_c 5.217976
_cell_angle_alpha 116.984363
_cell_angle_beta 84.299748
_cell_angle_gamma 140.852550
_cell_volume 460.881702
_symmetry_space_group_name_H-M "P -1"
_symmetry_group_IT_number 2
_symmetry_cell_setting 'triclinic'
loop_
_space_group_symop_operation_xyz
x,y,z
-x,-y,-z
loop_
_atom_site_type_symbol
_atom_site_label
_atom_site_fract_x
_atom_site_fract_y
_atom_site_fract_z
Si Si1 0.254829 0.708318 0.358136
Si Si2 0.156621 0.052949 0.542454
Si Si3 0.607312 0.711713 0.746276
Si Si4 0.340079 0.676246 0.806654
Si Si5 0.983097 0.314838 0.717295
O O1 0.361430 0.772717 0.662298
O O2 0.195741 0.785591 0.465544
O O3 0.382051 0.793958 0.180216
O O4 0.068675 0.466325 0.104182
O O5 0.272416 0.159545 0.381510
O O6 0.069075 0.852207 0.356467
O O7 0.274688 0.191566 0.917822
O O8 0.000000 0.000000 0.500000
O O9 0.500000 0.500000 0.500000
O O10 0.474003 0.694560 0.787471
O O11 0.136186 0.442036 0.606039
#
# Coordination Sequence:
#
# PCOD8005979 Si02
#       5
#     2   2   2   2   2
#     4   9  20  36  69  91 125 169 204 249 311 381
#     4  12  27  43  67  96 124 164 219 267 305 373
#     4  12  27  44  64  92 131 170 208 260 328 371
#     4  10  20  39  64  90 125 169 207 245 321 367
#     4   9  22  38  68  92 128 160 221 244 310 370
#
# _framework density 21.69754
#
# number of rings (size 3 to 8) (size 9 to 14) (size 15 to 20)
#    1.200    0.400    0.000    4.200    5.600    0.000 
#    0.000    6.000    0.000    0.000    0.000    0.000 
#    0.000    0.000    0.000    0.000    0.000    0.000 
#
# Total GULP energy -123980.348463 kJ/mol
# GULP energy per Si atom -12398.034846 kJ/mol
# Density = 2.164816 g / cm^3
# Si number density = 21.697540 Si / 1000 Ang^3
#
#
#
# Elastic Constant Matrix: (Units=GPa)
#
#
# Indices 1 2 3 4 5 6 
#
# 1 245.3541 67.2312 52.3903 -22.4706 14.1791 3.9236
# 2 67.2312 86.7676 38.8113 -41.1305 -6.8216 0.1939
# 3 52.3903 38.8113 101.2904 -42.9031 9.0419 -3.5985
# 4 -22.4706 -41.1305 -42.9031 39.8562 -8.1341 -6.6833
# 5 14.1791 -6.8216 9.0419 -8.1341 31.4804 -3.6999
# 6 3.9236 0.1939 -3.5985 -6.6833 -3.6999 46.7043
#
#
#
# Elastic Compliance Matrix: (Units=1/GPa)
#
#
# Indices 1 2 3 4 5 6 
#
# 1 0.007753 -0.012344 -0.005987 -0.017467 -0.009467 -0.004311
# 2 -0.012344 0.049464 0.013816 0.067742 0.031469 0.014083
# 3 -0.005987 0.013816 0.024277 0.040609 0.010261 0.008940
# 4 -0.017467 0.067742 0.040609 0.144259 0.051571 0.029044
# 5 -0.009467 0.031469 0.010261 0.051571 0.054776 0.013174
# 6 -0.004311 0.014083 0.008940 0.029044 0.013174 0.027604
#
#
# Mechanical properties :
#
#
# Convention : Reuss Voigt Hill
#
# Bulk Modulus (GPa) = 13.79963 83.36416 48.58190
# Shear Modulus (GPa) = 14.64913 41.94013 28.29463
#
# Velocity S-wave (km/s) = 2.60119 4.40130 3.61508
# Velocity P-wave (km/s) = 3.92369 8.02078 6.31381
#
# Compressibility (1/GPa) = 0.07246569
#
# Stress axis : x y z
#
# Youngs Moduli (GPa) = 128.98516 20.21667 41.19043
#
# Poissons Ratio (x) = 0.24955 0.24659
# Poissons Ratio (y) = 1.59217 -0.56909
# Poissons Ratio (z) = 0.77217 -0.27931
#
# Static dielectric constant tensor:
#      x y z
#    x 3.992530 0.056960 0.020120 
#    y 0.056960 3.872630 -0.100990 
#    z 0.020120 -0.100990 3.827780 
# 
# 
# High freq. dielectric constant tensor:
#      x y z
#    x 1.872240 -0.000430 0.003620 
#    y -0.000430 1.853660 -0.009460 
#    z 0.003620 -0.009460 1.844590 
# 
# From -- ./inp_files/2333.got.cif
#   From: 2010.06.25/outbox.cif.g09.slc.cpg/sg2_2_cif.got.tgz:2333.got - 2010.06.27 13:26:56.
