data_PCOD8005383
_publ_section_title
;
Structure prediction by ZEFSAII (Michael W. Deem and Ramdas Pophale) SiO2 
 PCOD8005383
Probable space group: P -1
;
_chemical_formula_sum "Si O2"
_cell_formula_units_Z 14
_cell_length_a 9.419118
_cell_length_b 9.506390
_cell_length_c 13.536216
_cell_angle_alpha 113.634362
_cell_angle_beta 142.621231
_cell_angle_gamma 71.624953
_cell_volume 674.086788
_symmetry_space_group_name_H-M "P -1"
_symmetry_group_IT_number 2
_symmetry_cell_setting 'triclinic'
loop_
_space_group_symop_operation_xyz
x,y,z
-x,-y,-z
loop_
_atom_site_type_symbol
_atom_site_label
_atom_site_fract_x
_atom_site_fract_y
_atom_site_fract_z
Si Si1 0.577387 0.830097 0.118132
Si Si2 0.163439 0.444687 0.902146
Si Si3 0.663516 0.852756 0.540213
Si Si4 0.111839 0.243023 0.001657
Si Si5 0.615922 0.263559 0.819047
Si Si6 0.177797 0.959141 0.826301
Si Si7 0.708033 0.617636 0.669331
O O1 0.722474 0.673724 0.143623
O O2 0.495420 0.848492 0.190971
O O3 0.740472 0.973857 0.215812
O O4 0.349499 0.822740 0.917624
O O5 0.950616 0.531422 0.755106
O O6 0.058853 0.363560 0.919078
O O7 0.364015 0.565218 0.078608
O O8 0.554375 0.734118 0.368283
O O9 0.684940 0.768549 0.632334
O O10 0.915059 0.903710 0.653756
O O11 0.500000 0.000000 0.500000
O O12 0.293570 0.319937 0.201156
O O13 0.870717 0.200803 0.912075
O O14 0.213975 0.089223 0.967540
O O15 0.500000 0.500000 0.500000
#
# Coordination Sequence:
#
# PCOD8005383 Si02
#       7
#     2   2   2   2   2   2   2
#     4  10  23  40  64  87 126 172 208 255 309 392
#     4  10  21  42  64  92 127 165 210 261 314 378
#     4  12  25  39  62  97 132 160 208 270 306 366
#     4  10  20  38  68  90 124 164 215 265 308 370
#     4  11  21  38  63  90 123 166 209 255 319 360
#     4  10  22  42  62  92 125 165 215 253 319 368
#     4  11  23  38  65  98 124 161 211 265 315 361
#
# _framework density 20.768840999999998
#
# number of rings (size 3 to 8) (size 9 to 14) (size 15 to 20)
#    0.000    1.429    1.429    5.571    4.000    1.714 
#    0.000    7.143    0.000    0.000    0.000    0.000 
#    0.000    0.000    0.000    0.000    0.000    0.000 
#
# Total GULP energy -173615.322352 kJ/mol
# GULP energy per Si atom -12401.094454 kJ/mol
# Density = 2.072157 g / cm^3
# Si number density = 20.768841 Si / 1000 Ang^3
#
#
#
# Elastic Constant Matrix: (Units=GPa)
#
#
# Indices 1 2 3 4 5 6 
#
# 1 110.7599 25.6850 27.4266 -7.3374 4.6033 23.3675
# 2 25.6850 84.3765 33.0944 -22.0037 6.3008 5.3685
# 3 27.4266 33.0944 119.7054 5.1521 13.3321 5.4814
# 4 -7.3374 -22.0037 5.1521 37.9990 4.7040 3.1819
# 5 4.6033 6.3008 13.3321 4.7040 35.3164 -3.5495
# 6 23.3675 5.3685 5.4814 3.1819 -3.5495 29.4556
#
#
#
# Elastic Compliance Matrix: (Units=1/GPa)
#
#
# Indices 1 2 3 4 5 6 
#
# 1 0.012099 -0.001499 -0.001824 0.002753 -0.001944 -0.009517
# 2 -0.001499 0.017291 -0.004458 0.010913 -0.002928 -0.002664
# 3 -0.001824 -0.004458 0.010415 -0.004102 -0.002303 0.000487
# 4 0.002753 0.010913 -0.004102 0.035163 -0.006241 -0.007960
# 5 -0.001944 -0.002928 -0.002303 -0.006241 0.031493 0.006974
# 6 -0.009517 -0.002664 0.000487 -0.007960 0.006974 0.043595
#
#
# Mechanical properties :
#
#
# Convention : Reuss Voigt Hill
#
# Bulk Modulus (GPa) = 41.25044 54.13930 47.69487
# Shear Modulus (GPa) = 28.78557 35.79659 32.29108
#
# Velocity S-wave (km/s) = 3.72694 4.15610 3.94735
# Velocity P-wave (km/s) = 6.19878 7.01106 6.61740
#
# Compressibility (1/GPa) = 0.02424217
#
# Stress axis : x y z
#
# Youngs Moduli (GPa) = 82.65252 57.83461 96.01448
#
# Poissons Ratio (x) = 0.08669 0.17511
# Poissons Ratio (y) = 0.12389 0.42808
# Poissons Ratio (z) = 0.15074 0.25785
#
# Static dielectric constant tensor:
#      x y z
#    x 3.826000 0.103930 0.023930 
#    y 0.103930 3.834220 -0.036870 
#    z 0.023930 -0.036870 3.732290 
# 
# 
# High freq. dielectric constant tensor:
#      x y z
#    x 1.818700 0.009150 0.007040 
#    y 0.009150 1.815990 -0.006520 
#    z 0.007040 -0.006520 1.800460 
# 
# From -- ./inp_files/184122.got.cif
#   From: 2010.06.25/outbox.cif.g09.slc.cpg/sg2_93_cif.got.tgz:184122.got - 2010.06.27 13:26:56.
