data_PCOD8005353
_publ_section_title
;
Structure prediction by ZEFSAII (Michael W. Deem and Ramdas Pophale) SiO2 
 PCOD8005353
Probable space group: P -1
;
_chemical_formula_sum "Si O2"
_cell_formula_units_Z 14
_cell_length_a 11.498541
_cell_length_b 9.187863
_cell_length_c 20.995874
_cell_angle_alpha 150.034466
_cell_angle_beta 139.525545
_cell_angle_gamma 58.040293
_cell_volume 659.120791
_symmetry_space_group_name_H-M "P -1"
_symmetry_group_IT_number 2
_symmetry_cell_setting 'triclinic'
loop_
_space_group_symop_operation_xyz
x,y,z
-x,-y,-z
loop_
_atom_site_type_symbol
_atom_site_label
_atom_site_fract_x
_atom_site_fract_y
_atom_site_fract_z
Si Si1 0.344613 0.816855 0.444966
Si Si2 0.529397 0.860975 0.146325
Si Si3 0.797609 0.906152 0.916486
Si Si4 0.228622 0.878413 0.287239
Si Si5 0.776600 0.933033 0.392639
Si Si6 0.463550 0.231861 0.024165
Si Si7 0.875309 0.812442 0.048967
O O1 0.325091 0.466479 0.286059
O O2 0.278856 0.982730 0.421499
O O3 0.572835 0.015199 0.630228
O O4 0.222728 0.830090 0.460761
O O5 0.690779 0.040891 0.335185
O O6 0.328448 0.907663 0.093936
O O7 0.500000 0.500000 0.000000
O O8 0.600915 0.967488 0.144347
O O9 0.832393 0.998211 0.041487
O O10 0.000000 0.000000 0.000000
O O11 0.084563 0.022392 0.249054
O O12 0.112956 0.498385 0.095487
O O13 0.650927 0.564656 0.219341
O O14 0.000000 0.000000 0.500000
O O15 0.284760 0.296668 0.003244
O O16 0.500000 0.000000 0.000000
#
# Coordination Sequence:
#
# PCOD8005353 Si02
#       7
#     2   2   2   2   2   2   2
#     4  10  22  40  65  90 136 165 218 278 330 393
#     4  10  25  44  65  92 133 181 223 266 338 403
#     4  11  25  41  66  98 132 172 227 277 336 400
#     4   9  20  38  64  96 123 164 209 273 338 384
#     4  11  26  43  66  96 138 181 222 272 346 393
#     4  11  22  43  70  91 131 173 229 270 318 404
#     4  10  20  38  67  94 123 169 221 269 328 393
#
# _framework density 21.240417999999998
#
# number of rings (size 3 to 8) (size 9 to 14) (size 15 to 20)
#    0.000    1.714    2.857    0.000    8.000    2.857 
#    2.571    0.714    0.000    0.000    0.000    0.000 
#    0.000    0.000    0.000    0.000    0.000    0.000 
#
# Total GULP energy -173531.581742 kJ/mol
# GULP energy per Si atom -12395.112982 kJ/mol
# Density = 2.119207 g / cm^3
# Si number density = 21.240418 Si / 1000 Ang^3
#
#
#
# Elastic Constant Matrix: (Units=GPa)
#
#
# Indices 1 2 3 4 5 6 
#
# 1 161.6083 62.0444 45.6428 -33.0200 4.6945 0.6091
# 2 62.0444 146.0656 54.0873 -34.4899 4.4919 -5.2692
# 3 45.6428 54.0873 74.1305 -28.1698 11.2806 -5.5141
# 4 -33.0200 -34.4899 -28.1698 40.4873 -5.6401 3.4820
# 5 4.6945 4.4919 11.2806 -5.6401 37.8256 -4.7407
# 6 0.6091 -5.2692 -5.5141 3.4820 -4.7407 35.6194
#
#
#
# Elastic Compliance Matrix: (Units=1/GPa)
#
#
# Indices 1 2 3 4 5 6 
#
# 1 0.008337 -0.001775 -0.002597 0.003626 0.000351 -0.001115
# 2 -0.001775 0.010426 -0.005143 0.003973 0.001177 0.000545
# 3 -0.002597 -0.005143 0.022933 0.008719 -0.004432 0.001392
# 4 0.003626 0.003973 0.008719 0.037501 0.001877 -0.001541
# 5 0.000351 0.001177 -0.004432 0.001877 0.028238 0.003057
# 6 -0.001115 0.000545 0.001392 -0.001541 0.003057 0.028947
#
#
# Mechanical properties :
#
#
# Convention : Reuss Voigt Hill
#
# Bulk Modulus (GPa) = 44.11905 78.37261 61.24583
# Shear Modulus (GPa) = 30.68074 37.45510 34.06792
#
# Velocity S-wave (km/s) = 3.80472 4.20383 4.00924
# Velocity P-wave (km/s) = 6.33384 7.78080 7.09431
#
# Compressibility (1/GPa) = 0.02266595
#
# Stress axis : x y z
#
# Youngs Moduli (GPa) = 119.94055 95.91234 43.60572
#
# Poissons Ratio (x) = 0.17021 0.11325
# Poissons Ratio (y) = 0.21285 0.22428
# Poissons Ratio (z) = 0.31151 0.49331
#
# Static dielectric constant tensor:
#      x y z
#    x 6.444910 1.066200 -0.686120 
#    y 1.066200 4.498130 -0.580280 
#    z -0.686120 -0.580280 3.899550 
# 
# 
# High freq. dielectric constant tensor:
#      x y z
#    x 1.839540 0.004410 -0.005650 
#    y 0.004410 1.835050 -0.022160 
#    z -0.005650 -0.022160 1.814830 
# 
# From -- ./inp_files/169471.got.cif
#   From: 2010.06.25/outbox.cif.g09.slc.cpg/sg2_85_cif.got.tgz:169471.got - 2010.06.27 13:26:56.
