data_PCOD8005191
_publ_section_title
;
Structure prediction by ZEFSAII (Michael W. Deem and Ramdas Pophale) SiO2 
 PCOD8005191
Probable space group: P -1
;
_chemical_formula_sum "Si O2"
_cell_formula_units_Z 12
_cell_length_a 7.355081
_cell_length_b 12.435939
_cell_length_c 9.947279
_cell_angle_alpha 138.493538
_cell_angle_beta 62.360475
_cell_angle_gamma 123.635047
_cell_volume 500.024251
_symmetry_space_group_name_H-M "P -1"
_symmetry_group_IT_number 2
_symmetry_cell_setting 'triclinic'
loop_
_space_group_symop_operation_xyz
x,y,z
-x,-y,-z
loop_
_atom_site_type_symbol
_atom_site_label
_atom_site_fract_x
_atom_site_fract_y
_atom_site_fract_z
Si Si1 0.569932 0.206500 0.779655
Si Si2 0.894282 0.150409 0.821288
Si Si3 0.796349 0.761606 0.581363
Si Si4 0.209855 0.442243 0.864193
Si Si5 0.258232 0.849951 0.608455
Si Si6 0.382724 0.803825 0.819011
O O1 0.757494 0.148762 0.731344
O O2 0.617893 0.216295 0.612778
O O3 0.337556 0.060558 0.765431
O O4 0.579906 0.396748 0.004924
O O5 0.150227 0.268270 0.815475
O O6 0.866104 0.953395 0.673117
O O7 0.819845 0.256832 0.065004
O O8 0.751964 0.607999 0.346214
O O9 0.565786 0.714697 0.697009
O O10 0.994792 0.765075 0.613002
O O11 0.000000 0.500000 0.000000
O O12 0.315424 0.783176 0.667291
O O13 0.500000 0.000000 0.000000
#
# Coordination Sequence:
#
# PCOD8005191 Si02
#       6
#     2   2   2   2   2   2
#     4  10  21  39  63  91 128 154 204 265 294 355
#     4  10  20  40  64  89 122 164 201 250 303 364
#     4  11  21  38  70  90 117 169 205 243 311 367
#     4  10  20  38  65  92 123 163 201 254 309 354
#     4  11  21  38  66  93 120 158 210 253 301 359
#     4  10  22  40  60  93 127 156 202 257 304 362
#
# _framework density 23.998837999999999
#
# number of rings (size 3 to 8) (size 9 to 14) (size 15 to 20)
#    0.000    1.667    6.667    0.500    0.000    2.667 
#    0.000    7.500    0.000    0.000    0.000    1.167 
#    0.000    0.000    0.000    0.000    0.000    0.000 
#
# Total GULP energy -148685.437879 kJ/mol
# GULP energy per Si atom -12390.453157 kJ/mol
# Density = 2.394422 g / cm^3
# Si number density = 23.998838 Si / 1000 Ang^3
#
#
#
# Elastic Constant Matrix: (Units=GPa)
#
#
# Indices 1 2 3 4 5 6 
#
# 1 66.7602 5.8723 43.9988 -11.9983 8.3858 15.1688
# 2 5.8723 33.2288 24.3855 7.1106 15.0093 9.7164
# 3 43.9988 24.3855 146.7284 8.6725 11.0518 19.8962
# 4 -11.9983 7.1106 8.6725 45.1150 -4.1822 0.2519
# 5 8.3858 15.0093 11.0518 -4.1822 38.4799 -0.1999
# 6 15.1688 9.7164 19.8962 0.2519 -0.1999 23.2187
#
#
#
# Elastic Compliance Matrix: (Units=1/GPa)
#
#
# Indices 1 2 3 4 5 6 
#
# 1 0.022919 0.004492 -0.006060 0.006211 -0.004393 -0.011765
# 2 0.004492 0.048960 -0.004972 -0.007270 -0.019538 -0.019252
# 3 -0.006060 -0.004972 0.009945 -0.002717 0.000096 -0.002452
# 4 0.006211 -0.007270 -0.002717 0.025951 0.005089 0.001075
# 5 -0.004393 -0.019538 0.000096 0.005089 0.035150 0.011211
# 6 -0.011765 -0.019252 -0.002452 0.001075 0.011211 0.060997
#
#
# Mechanical properties :
#
#
# Convention : Reuss Voigt Hill
#
# Bulk Modulus (GPa) = 14.54676 43.91451 29.23064
# Shear Modulus (GPa) = 20.84067 32.86011 26.85039
#
# Velocity S-wave (km/s) = 2.95007 3.70434 3.34851
# Velocity P-wave (km/s) = 4.20457 6.05264 5.21119
#
# Compressibility (1/GPa) = 0.06874382
#
# Stress axis : x y z
#
# Youngs Moduli (GPa) = 43.63208 20.42488 100.55625
#
# Poissons Ratio (x) = -0.09176 0.60938
# Poissons Ratio (y) = -0.19601 0.49997
# Poissons Ratio (z) = 0.26441 0.10155
#
# Static dielectric constant tensor:
#      x y z
#    x 4.170220 -0.218650 0.405970 
#    y -0.218650 1.084310 3.206340 
#    z 0.405970 3.206340 2.692160 
# 
# 
# High freq. dielectric constant tensor:
#      x y z
#    x 1.924500 0.011080 0.003650 
#    y 0.011080 1.941700 0.004590 
#    z 0.003650 0.004590 1.962260 
# 
# From -- ./inp_files/198659.got.cif
#   From: 2010.06.25/outbox.cif.g09.slc.cpg/sg2_100_cif.got.tgz:198659.got - 2010.06.27 13:26:56.
