data_PCOD8005590
_publ_section_title
;
Structure prediction by ZEFSAII (Michael W. Deem and Ramdas Pophale) SiO2 
 PCOD8005590
Probable space group: P -1
;
_chemical_formula_sum "Si O2"
_cell_formula_units_Z 14
_cell_length_a 19.088002
_cell_length_b 10.893851
_cell_length_c 13.113659
_cell_angle_alpha 148.388487
_cell_angle_beta 145.168314
_cell_angle_gamma 27.336641
_cell_volume 632.499341
_symmetry_space_group_name_H-M "P -1"
_symmetry_group_IT_number 2
_symmetry_cell_setting 'triclinic'
loop_
_space_group_symop_operation_xyz
x,y,z
-x,-y,-z
loop_
_atom_site_type_symbol
_atom_site_label
_atom_site_fract_x
_atom_site_fract_y
_atom_site_fract_z
Si Si1 0.791669 0.704929 0.036737
Si Si2 0.448183 0.855640 0.262683
Si Si3 0.403644 0.649619 0.771991
Si Si4 0.037227 0.683050 0.736819
Si Si5 0.630018 0.795718 0.109609
Si Si6 0.901909 0.888276 0.928061
Si Si7 0.419724 0.233535 0.326689
O O1 0.645257 0.846437 0.043793
O O2 0.967535 0.442450 0.099368
O O3 0.766006 0.009916 0.189547
O O4 0.750173 0.592396 0.809911
O O5 0.566300 0.501348 0.186098
O O6 0.500000 0.000000 0.500000
O O7 0.266780 0.996779 0.156735
O O8 0.467959 0.927755 0.222780
O O9 0.407066 0.457881 0.549097
O O10 0.548597 0.645446 0.921486
O O11 0.190560 0.451677 0.821279
O O12 0.000000 0.500000 0.500000
O O13 0.899383 0.883964 0.798442
O O14 0.056552 0.891509 0.835965
O O15 0.554055 0.095377 0.301362
#
# Coordination Sequence:
#
# PCOD8005590 Si02
#       7
#     2   2   2   2   2   2   2
#     4  10  23  38  59  91 122 162 200 251 312 356
#     4  10  22  40  65  89 120 168 209 247 300 358
#     4  10  20  39  60  88 123 158 203 250 302 355
#     4  10  22  37  64  91 119 163 205 246 315 357
#     4  10  21  37  58  93 118 156 205 253 302 360
#     4  10  22  43  59  88 133 152 200 269 288 362
#     4  10  22  37  62  87 123 160 207 246 300 367
#
# _framework density 22.134409999999999
#
# number of rings (size 3 to 8) (size 9 to 14) (size 15 to 20)
#    0.000    2.000    1.429    1.714    4.000    7.429 
#    0.000    2.857    0.000    0.000    0.000    0.000 
#    0.000    0.000    0.000    0.000    0.000    0.000 
#
# Total GULP energy -173458.797689 kJ/mol
# GULP energy per Si atom -12389.914121 kJ/mol
# Density = 2.208403 g / cm^3
# Si number density = 22.134410 Si / 1000 Ang^3
#
#
#
# Elastic Constant Matrix: (Units=GPa)
#
#
# Indices 1 2 3 4 5 6 
#
# 1 53.7566 22.5868 19.9992 -14.1170 1.0451 9.3295
# 2 22.5868 90.2272 37.9210 3.5297 6.1160 16.6244
# 3 19.9992 37.9210 112.7298 6.8254 2.2361 0.6065
# 4 -14.1170 3.5297 6.8254 22.2487 6.8355 -4.6129
# 5 1.0451 6.1160 2.2361 6.8355 24.7178 2.8768
# 6 9.3295 16.6244 0.6065 -4.6129 2.8768 31.8031
#
#
#
# Elastic Compliance Matrix: (Units=1/GPa)
#
#
# Indices 1 2 3 4 5 6 
#
# 1 0.028651 -0.005454 -0.004444 0.021628 -0.005224 -0.001860
# 2 -0.005454 0.015734 -0.003904 -0.006044 -0.000782 -0.007356
# 3 -0.004444 -0.003904 0.011274 -0.005651 0.001443 0.002179
# 4 0.021628 -0.006044 -0.005651 0.068990 -0.018993 0.008647
# 5 -0.005224 -0.000782 0.001443 -0.018993 0.046581 -0.005055
# 6 -0.001860 -0.007356 0.002179 0.008647 -0.005055 0.037504
#
#
# Mechanical properties :
#
#
# Convention : Reuss Voigt Hill
#
# Bulk Modulus (GPa) = 35.64397 46.41417 41.02907
# Shear Modulus (GPa) = 20.35079 27.50103 23.92591
#
# Velocity S-wave (km/s) = 3.03548 3.52867 3.29133
# Velocity P-wave (km/s) = 5.33141 6.13325 5.74633
#
# Compressibility (1/GPa) = 0.02805524
#
# Stress axis : x y z
#
# Youngs Moduli (GPa) = 34.90255 63.55631 88.69724
#
# Poissons Ratio (x) = 0.34662 0.39419
# Poissons Ratio (y) = 0.19035 0.34629
# Poissons Ratio (z) = 0.15511 0.24814
#
# Static dielectric constant tensor:
#      x y z
#    x 4.201270 0.450910 -0.011910 
#    y 0.450910 4.246960 0.122200 
#    z -0.011910 0.122200 3.884040 
# 
# 
# High freq. dielectric constant tensor:
#      x y z
#    x 1.862460 0.022620 -0.010000 
#    y 0.022620 1.882790 -0.000290 
#    z -0.010000 -0.000290 1.869770 
# 
# From -- ./inp_files/428926.got.cif
#   From: 2010.06.25/outbox.cif.g09.slc.cpg/sg2_215_cif.got.tgz:428926.got - 2010.06.27 13:26:56.
