data_PCOD8005499
_publ_section_title
;
Structure prediction by ZEFSAII (Michael W. Deem and Ramdas Pophale) SiO2 
 PCOD8005499
Probable space group: P -1
;
_chemical_formula_sum "Si O2"
_cell_formula_units_Z 16
_cell_length_a 7.810465
_cell_length_b 19.868375
_cell_length_c 11.907230
_cell_angle_alpha 43.701011
_cell_angle_beta 36.880520
_cell_angle_gamma 42.288987
_cell_volume 705.675354
_symmetry_space_group_name_H-M "P -1"
_symmetry_group_IT_number 2
_symmetry_cell_setting 'triclinic'
loop_
_space_group_symop_operation_xyz
x,y,z
-x,-y,-z
loop_
_atom_site_type_symbol
_atom_site_label
_atom_site_fract_x
_atom_site_fract_y
_atom_site_fract_z
Si Si1 0.438657 0.946540 0.299887
Si Si2 0.627753 0.585725 0.286615
Si Si3 0.114879 0.044609 0.557973
Si Si4 0.066492 0.932643 0.933619
Si Si5 0.195616 0.399025 0.215686
Si Si6 0.303073 0.690227 0.108128
Si Si7 0.226683 0.710238 0.528334
Si Si8 0.657880 0.706849 0.494197
O O1 0.135797 0.991447 0.327391
O O2 0.495156 0.830594 0.458114
O O3 0.716974 0.943069 0.076821
O O4 0.394290 0.018195 0.351201
O O5 0.500000 0.500000 0.500000
O O6 0.517163 0.622201 0.176468
O O7 0.485806 0.686259 0.322820
O O8 0.003397 0.526750 0.163366
O O9 0.980105 0.166215 0.514884
O O10 0.216250 0.976926 0.701242
O O11 0.284551 0.809938 0.985010
O O12 0.000000 0.000000 0.000000
O O13 0.240455 0.358549 0.367262
O O14 0.000988 0.349415 0.300566
O O15 0.533553 0.365336 0.025579
O O16 0.969203 0.684111 0.287271
O O17 0.415940 0.673415 0.590247
#
# Coordination Sequence:
#
# PCOD8005499 Si02
#       8
#     2   2   2   2   2   2   2   2
#     4   9  21  37  58  83 120 155 196 242 286 349
#     4  10  20  42  65  86 119 162 196 254 309 351
#     4  10  20  39  58  84 119 159 195 238 291 350
#     4  11  23  33  57  90 118 154 194 239 292 355
#     4  11  23  41  65  88 122 160 200 255 301 354
#     4  11  22  41  62  89 123 159 199 251 304 354
#     4  10  22  40  65  89 122 164 200 246 300 359
#     4  10  21  42  61  90 126 157 199 249 301 354
#
# _framework density 22.673317000000001
#
# number of rings (size 3 to 8) (size 9 to 14) (size 15 to 20)
#    0.000    1.750    2.500    2.250    3.500    1.000 
#    2.250    0.625    0.000    0.000    0.000    0.000 
#    0.000    0.000    0.000    0.000    0.000    0.000 
#
# Total GULP energy -198342.277050 kJ/mol
# GULP energy per Si atom -12396.392316 kJ/mol
# Density = 2.262171 g / cm^3
# Si number density = 22.673317 Si / 1000 Ang^3
#
#
#
# Elastic Constant Matrix: (Units=GPa)
#
#
# Indices 1 2 3 4 5 6 
#
# 1 79.4657 3.8748 7.4775 -8.6293 11.6236 -5.8515
# 2 3.8748 98.4754 35.0531 20.7199 8.1281 -8.4411
# 3 7.4775 35.0531 80.1525 14.3528 16.3620 -3.9113
# 4 -8.6293 20.7199 14.3528 35.6464 -3.5472 9.7134
# 5 11.6236 8.1281 16.3620 -3.5472 15.0268 -2.3558
# 6 -5.8515 -8.4411 -3.9113 9.7134 -2.3558 32.0676
#
#
#
# Elastic Compliance Matrix: (Units=1/GPa)
#
#
# Indices 1 2 3 4 5 6 
#
# 1 0.014467 -0.000182 0.000777 0.001815 -0.011304 0.001306
# 2 -0.000182 0.014114 -0.003189 -0.009025 -0.005267 0.005640
# 3 0.000777 -0.003189 0.020168 -0.009102 -0.022536 0.002864
# 4 0.001815 -0.009025 -0.009102 0.043556 0.021353 -0.014779
# 5 -0.011304 -0.005267 -0.022536 0.021353 0.106965 -0.004808
# 6 0.001306 0.005640 0.002864 -0.014779 -0.004808 0.037380
#
#
# Mechanical properties :
#
#
# Convention : Reuss Voigt Hill
#
# Bulk Modulus (GPa) = 22.95715 38.98937 30.97326
# Shear Modulus (GPa) = 19.50384 30.66071 25.08227
#
# Velocity S-wave (km/s) = 2.93612 3.68133 3.32964
# Velocity P-wave (km/s) = 4.65205 5.94164 5.33594
#
# Compressibility (1/GPa) = 0.04355941
#
# Stress axis : x y z
#
# Youngs Moduli (GPa) = 69.12486 70.85001 49.58258
#
# Poissons Ratio (x) = 0.01293 -0.03850
# Poissons Ratio (y) = 0.01261 0.15812
# Poissons Ratio (z) = -0.05368 0.22594
#
# Static dielectric constant tensor:
#      x y z
#    x 4.040750 -0.114060 -0.072780 
#    y -0.114060 4.683920 0.394400 
#    z -0.072780 0.394400 4.108780 
# 
# 
# High freq. dielectric constant tensor:
#      x y z
#    x 1.891170 -0.012560 0.008370 
#    y -0.012560 1.913070 0.019420 
#    z 0.008370 0.019420 1.875950 
# 
# From -- ./inp_files/405362.got.cif
#   From: 2010.06.25/outbox.cif.g09.slc.cpg/sg2_203_cif.got.tgz:405362.got - 2010.06.27 13:26:56.
