data_PCOD8005876
_publ_section_title
;
Structure prediction by ZEFSAII (Michael W. Deem and Ramdas Pophale) SiO2 
 PCOD8005876
Probable space group: P -1
;
_chemical_formula_sum "Si O2"
_cell_formula_units_Z 16
_cell_length_a 8.509784
_cell_length_b 9.424506
_cell_length_c 17.207524
_cell_angle_alpha 141.362312
_cell_angle_beta 111.113061
_cell_angle_gamma 82.924884
_cell_volume 773.638030
_symmetry_space_group_name_H-M "P -1"
_symmetry_group_IT_number 2
_symmetry_cell_setting 'triclinic'
loop_
_space_group_symop_operation_xyz
x,y,z
-x,-y,-z
loop_
_atom_site_type_symbol
_atom_site_label
_atom_site_fract_x
_atom_site_fract_y
_atom_site_fract_z
Si Si1 0.959435 0.381685 0.636781
Si Si2 0.404531 0.261985 0.154160
Si Si3 0.699362 0.288888 0.094711
Si Si4 0.598878 0.443171 0.567853
Si Si5 0.794773 0.521144 0.897918
Si Si6 0.062320 0.999199 0.400580
Si Si7 0.163006 0.412263 0.893251
Si Si8 0.595726 0.020011 0.606283
O O1 0.809595 0.492047 0.622205
O O2 0.105056 0.606426 0.792304
O O3 0.890056 0.175681 0.600612
O O4 0.041162 0.250580 0.529628
O O5 0.566763 0.341315 0.157256
O O6 0.449691 0.422755 0.308086
O O7 0.235210 0.296555 0.093752
O O8 0.353526 0.988595 0.051746
O O9 0.694361 0.416847 0.064979
O O10 0.500000 0.500000 0.500000
O O11 0.532731 0.160146 0.437160
O O12 0.987934 0.500647 0.906849
O O13 0.639553 0.282444 0.758947
O O14 0.764615 0.604314 0.014899
O O15 0.885709 0.852617 0.263335
O O16 0.226722 0.063099 0.400165
O O17 0.500000 0.000000 0.500000
#
# Coordination Sequence:
#
# PCOD8005876 Si02
#       8
#     2   2   2   2   2   2   2   2
#     4  10  20  39  63  92 116 162 203 256 309 363
#     4  11  23  43  60  88 125 167 204 251 309 372
#     4  10  23  40  64  88 124 163 205 248 315 371
#     4  12  26  41  60  92 125 163 210 256 308 370
#     4  10  21  37  65  90 125 156 207 254 301 368
#     4   9  18  36  65  90 121 151 207 254 302 367
#     4   9  20  39  60  98 118 157 206 254 304 360
#     4  11  19  37  62  88 118 161 200 252 310 364
#
# _framework density 20.681505999999999
#
# number of rings (size 3 to 8) (size 9 to 14) (size 15 to 20)
#    0.000    1.750    2.500    2.250    1.750    3.500 
#    9.000    1.250    0.000    0.000    0.000    0.000 
#    0.000    0.000    0.000    0.000    0.000    0.000 
#
# Total GULP energy -198291.142467 kJ/mol
# GULP energy per Si atom -12393.196404 kJ/mol
# Density = 2.063443 g / cm^3
# Si number density = 20.681506 Si / 1000 Ang^3
#
#
#
# Elastic Constant Matrix: (Units=GPa)
#
#
# Indices 1 2 3 4 5 6 
#
# 1 55.1661 13.7339 13.5507 -1.1691 0.0704 1.8314
# 2 13.7339 83.5149 32.2086 -22.9840 -2.1157 4.8420
# 3 13.5507 32.2086 87.0798 -10.7783 -8.1626 5.1325
# 4 -1.1691 -22.9840 -10.7783 36.5710 5.8980 2.0274
# 5 0.0704 -2.1157 -8.1626 5.8980 31.2615 1.1534
# 6 1.8314 4.8420 5.1325 2.0274 1.1534 27.4652
#
#
#
# Elastic Compliance Matrix: (Units=1/GPa)
#
#
# Indices 1 2 3 4 5 6 
#
# 1 0.019339 -0.002791 -0.002219 -0.001698 -0.000483 -0.000237
# 2 -0.002791 0.016993 -0.004673 0.009644 -0.001789 -0.002573
# 3 -0.002219 -0.004673 0.014063 0.000708 0.003295 -0.001847
# 4 -0.001698 0.009644 0.000708 0.034679 -0.005552 -0.004046
# 5 -0.000483 -0.001789 0.003295 -0.005552 0.033823 -0.001279
# 6 -0.000237 -0.002573 -0.001847 -0.004046 -0.001279 0.037577
#
#
# Mechanical properties :
#
#
# Convention : Reuss Voigt Hill
#
# Bulk Modulus (GPa) = 32.22677 38.30523 35.26600
# Shear Modulus (GPa) = 26.85521 30.14402 28.49962
#
# Velocity S-wave (km/s) = 3.60740 3.82191 3.71620
# Velocity P-wave (km/s) = 5.74172 6.16747 5.95840
#
# Compressibility (1/GPa) = 0.03103010
#
# Stress axis : x y z
#
# Youngs Moduli (GPa) = 51.70818 58.84680 71.10925
#
# Poissons Ratio (x) = 0.16421 0.15778
# Poissons Ratio (y) = 0.14429 0.33232
# Poissons Ratio (z) = 0.11473 0.27501
#
# Static dielectric constant tensor:
#      x y z
#    x 3.764280 0.281300 -0.012130 
#    y 0.281300 2.711320 -0.132460 
#    z -0.012130 -0.132460 3.879330 
# 
# 
# High freq. dielectric constant tensor:
#      x y z
#    x 1.808400 0.005020 0.000890 
#    y 0.005020 1.781010 -0.002790 
#    z 0.000890 -0.002790 1.822440 
# 
# From -- ./inp_files/256295.got.cif
#   From: 2010.06.25/outbox.cif.g09.slc.cpg/sg2_129_cif.got.tgz:256295.got - 2010.06.27 13:26:56.
