data_PCOD8005517
_publ_section_title
;
Structure prediction by ZEFSAII (Michael W. Deem and Ramdas Pophale) SiO2 
 PCOD8005517
Probable space group: P -1
;
_chemical_formula_sum "Si O2"
_cell_formula_units_Z 16
_cell_length_a 20.508709
_cell_length_b 8.345664
_cell_length_c 23.072879
_cell_angle_alpha 146.819037
_cell_angle_beta 159.224051
_cell_angle_gamma 35.986461
_cell_volume 759.395212
_symmetry_space_group_name_H-M "P -1"
_symmetry_group_IT_number 2
_symmetry_cell_setting 'triclinic'
loop_
_space_group_symop_operation_xyz
x,y,z
-x,-y,-z
loop_
_atom_site_type_symbol
_atom_site_label
_atom_site_fract_x
_atom_site_fract_y
_atom_site_fract_z
Si Si1 0.009611 0.419544 0.854736
Si Si2 0.257398 0.421927 0.890594
Si Si3 0.588585 0.984200 0.205297
Si Si4 0.681453 0.504076 0.691275
Si Si5 0.118055 0.671129 0.403085
Si Si6 0.374418 0.084069 0.476324
Si Si7 0.367001 0.559796 0.145682
Si Si8 0.723832 0.988102 0.967504
O O1 0.855951 0.572184 0.818029
O O2 0.900092 0.313729 0.676819
O O3 0.154224 0.635996 0.016373
O O4 0.125731 0.144619 0.900544
O O5 0.081292 0.264524 0.712778
O O6 0.384739 0.223447 0.890961
O O7 0.381080 0.452784 0.059156
O O8 0.185347 0.751673 0.908654
O O9 0.783993 0.047886 0.412598
O O10 0.469342 0.299696 0.190643
O O11 0.464529 0.846950 0.108758
O O12 0.500000 0.500000 0.500000
O O13 0.660134 0.753328 0.798138
O O14 0.723547 0.188514 0.663860
O O15 0.219267 0.355126 0.413270
O O16 0.519333 0.163476 0.670110
O O17 0.500000 0.000000 0.500000
#
# Coordination Sequence:
#
# PCOD8005517 Si02
#       8
#     2   2   2   2   2   2   2   2
#     4  10  21  39  57  82 117 148 180 230 281 332
#     4  11  21  37  59  84 111 148 189 233 277 325
#     4  10  20  39  59  81 112 148 186 234 280 323
#     4  12  23  38  59  84 116 151 181 226 285 336
#     4  10  22  38  59  84 112 145 190 231 275 333
#     4  11  21  38  59  84 114 150 186 228 277 334
#     4   9  21  37  59  85 112 144 189 231 275 333
#     4  11  23  38  56  84 115 148 188 229 275 336
#
# _framework density 21.069399000000001
#
# number of rings (size 3 to 8) (size 9 to 14) (size 15 to 20)
#    0.000    1.500    0.000    6.750    0.000    1.000 
#    0.000    5.625    0.000    0.000    0.000    0.000 
#    0.000    0.000    0.000    0.000    0.000    0.000 
#
# Total GULP energy -198368.328429 kJ/mol
# GULP energy per Si atom -12398.020527 kJ/mol
# Density = 2.102144 g / cm^3
# Si number density = 21.069399 Si / 1000 Ang^3
#
#
#
# Elastic Constant Matrix: (Units=GPa)
#
#
# Indices 1 2 3 4 5 6 
#
# 1 124.5469 20.9123 55.0032 0.6714 -8.2474 -23.4253
# 2 20.9123 36.0662 17.0037 -1.3228 1.2615 -12.9047
# 3 55.0032 17.0037 97.6584 -5.8404 -12.1769 -16.1582
# 4 0.6714 -1.3228 -5.8404 22.5101 2.9386 -1.6044
# 5 -8.2474 1.2615 -12.1769 2.9386 31.9235 -1.2437
# 6 -23.4253 -12.9047 -16.1582 -1.6044 -1.2437 40.1591
#
#
#
# Elastic Compliance Matrix: (Units=1/GPa)
#
#
# Indices 1 2 3 4 5 6 
#
# 1 0.011716 -0.003060 -0.005398 -0.001853 0.001401 0.003648
# 2 -0.003060 0.034001 -0.003167 0.002251 -0.003243 0.007856
# 3 -0.005398 -0.003167 0.014906 0.003446 0.004181 0.002098
# 4 -0.001853 0.002251 0.003446 0.046146 -0.003393 0.002768
# 5 0.001401 -0.003243 0.004181 -0.003393 0.033814 0.002369
# 6 0.003648 0.007856 0.002098 0.002768 0.002369 0.030582
#
#
# Mechanical properties :
#
#
# Convention : Reuss Voigt Hill
#
# Bulk Modulus (GPa) = 26.75687 49.34554 38.05120
# Shear Modulus (GPa) = 24.16945 29.94203 27.05574
#
# Velocity S-wave (km/s) = 3.39061 3.77386 3.58736
# Velocity P-wave (km/s) = 5.29673 6.51618 5.93784
#
# Compressibility (1/GPa) = 0.03737359
#
# Stress axis : x y z
#
# Youngs Moduli (GPa) = 85.35468 29.41091 67.08653
#
# Poissons Ratio (x) = 0.08999 0.36216
# Poissons Ratio (y) = 0.26117 0.21243
# Poissons Ratio (z) = 0.46077 0.09313
#
# Static dielectric constant tensor:
#      x y z
#    x 4.019800 0.079360 0.144290 
#    y 0.079360 3.508110 -0.074140 
#    z 0.144290 -0.074140 4.141960 
# 
# 
# High freq. dielectric constant tensor:
#      x y z
#    x 1.842980 -0.000160 0.000640 
#    y -0.000160 1.801300 -0.005230 
#    z 0.000640 -0.005230 1.836620 
# 
# From -- ./inp_files/208210.got.cif
#   From: 2010.06.25/outbox.cif.g09.slc.cpg/sg2_105_cif.got.tgz:208210.got - 2010.06.27 13:26:56.
