data_PCOD8005707
_publ_section_title
;
Structure prediction by ZEFSAII (Michael W. Deem and Ramdas Pophale) SiO2 
 PCOD8005707
Probable space group: P -1
;
_chemical_formula_sum "Si O2"
_cell_formula_units_Z 16
_cell_length_a 15.009531
_cell_length_b 5.564540
_cell_length_c 8.859116
_cell_angle_alpha 87.565795
_cell_angle_beta 94.834403
_cell_angle_gamma 109.158061
_cell_volume 696.371321
_symmetry_space_group_name_H-M "P -1"
_symmetry_group_IT_number 2
_symmetry_cell_setting 'triclinic'
loop_
_space_group_symop_operation_xyz
x,y,z
-x,-y,-z
loop_
_atom_site_type_symbol
_atom_site_label
_atom_site_fract_x
_atom_site_fract_y
_atom_site_fract_z
Si Si1 0.807366 0.145512 0.155180
Si Si2 0.472535 0.123090 0.638188
Si Si3 0.241267 0.964888 0.176435
Si Si4 0.975049 0.286175 0.376482
Si Si5 0.140578 0.122009 0.407197
Si Si6 0.698497 0.719742 0.369535
Si Si7 0.374222 0.707700 0.847767
Si Si8 0.357225 0.566014 0.178220
O O1 0.908590 0.326972 0.230458
O O2 0.732603 0.293134 0.151736
O O3 0.767473 0.884293 0.247397
O O4 0.818872 0.079520 0.984786
O O5 0.373035 0.149998 0.573139
O O6 0.558138 0.377421 0.688585
O O7 0.500000 0.000000 0.500000
O O8 0.454036 0.964672 0.798142
O O9 0.164910 0.924681 0.301548
O O10 0.301977 0.265667 0.188422
O O11 0.298428 0.762547 0.200984
O O12 0.000000 0.500000 0.500000
O O13 0.072921 0.266094 0.319499
O O14 0.914889 0.025165 0.453113
O O15 0.237864 0.326639 0.481519
O O16 0.628005 0.472100 0.289287
O O17 0.402142 0.618137 0.014638
#
# Coordination Sequence:
#
# PCOD8005707 Si02
#       8
#     2   2   2   2   2   2   2   2
#     4   9  20  40  61  92 121 162 208 256 317 381
#     4  11  25  38  59  93 125 166 216 267 311 370
#     4  11  24  43  66  95 129 169 211 263 315 373
#     4  10  21  40  65  92 127 162 211 257 318 387
#     4  10  23  38  63  94 123 165 209 260 320 375
#     4  10  20  39  62  84 124 164 209 257 318 377
#     4  10  21  39  62  87 121 172 208 258 320 372
#     4  11  25  43  65  92 131 170 214 262 316 376
#
# _framework density 22.976247000000001
#
# number of rings (size 3 to 8) (size 9 to 14) (size 15 to 20)
#    0.000    1.750    1.250    1.875    5.250    1.500 
#    0.000    0.625    0.000    0.000    0.000    0.000 
#    0.000    0.000    0.000    0.000    0.000    0.000 
#
# Total GULP energy -198240.016153 kJ/mol
# GULP energy per Si atom -12390.001010 kJ/mol
# Density = 2.292395 g / cm^3
# Si number density = 22.976247 Si / 1000 Ang^3
#
#
#
# Elastic Constant Matrix: (Units=GPa)
#
#
# Indices 1 2 3 4 5 6 
#
# 1 93.9728 12.4497 50.2449 7.9216 1.6273 7.8645
# 2 12.4497 68.9853 0.8215 19.0142 5.3871 -3.1520
# 3 50.2449 0.8215 106.2729 27.7559 5.2403 6.3565
# 4 7.9216 19.0142 27.7559 35.1797 3.2607 6.4684
# 5 1.6273 5.3871 5.2403 3.2607 43.6559 14.7290
# 6 7.8645 -3.1520 6.3565 6.4684 14.7290 20.8041
#
#
#
# Elastic Compliance Matrix: (Units=1/GPa)
#
#
# Indices 1 2 3 4 5 6 
#
# 1 0.016612 -0.005973 -0.009646 0.008509 0.003892 -0.009639
# 2 -0.005973 0.021406 0.006717 -0.017395 -0.006456 0.013428
# 3 -0.009646 0.006717 0.018025 -0.016615 -0.003745 0.006974
# 4 0.008509 -0.017395 -0.016615 0.052439 0.007449 -0.022354
# 5 0.003892 -0.006456 -0.003745 0.007449 0.032416 -0.026572
# 6 -0.009639 0.013428 0.006974 -0.022354 -0.026572 0.077378
#
#
# Mechanical properties :
#
#
# Convention : Reuss Voigt Hill
#
# Bulk Modulus (GPa) = 26.15107 44.02924 35.09016
# Shear Modulus (GPa) = 20.09436 33.64227 26.86832
#
# Velocity S-wave (km/s) = 2.96052 3.83066 3.42335
# Velocity P-wave (km/s) = 4.80549 6.22654 5.56159
#
# Compressibility (1/GPa) = 0.03823935
#
# Stress axis : x y z
#
# Youngs Moduli (GPa) = 60.19782 46.71609 55.47818
#
# Poissons Ratio (x) = 0.27903 0.53512
# Poissons Ratio (y) = 0.35955 -0.37263
# Poissons Ratio (z) = 0.58064 -0.31378
#
# Static dielectric constant tensor:
#      x y z
#    x 4.442080 0.039220 0.067640 
#    y 0.039220 3.949150 0.090990 
#    z 0.067640 0.090990 4.318710 
# 
# 
# High freq. dielectric constant tensor:
#      x y z
#    x 1.909900 0.002190 0.001860 
#    y 0.002190 1.888170 0.013080 
#    z 0.001860 0.013080 1.915190 
# 
# From -- ./inp_files/44573.got.cif
#   From: 2010.06.25/outbox.cif.g09.slc.cpg/sg2_23_cif.got.tgz:44573.got - 2010.06.27 13:26:56.
