data_PCOD8005794
_publ_section_title
;
Structure prediction by ZEFSAII (Michael W. Deem and Ramdas Pophale) SiO2 
 PCOD8005794
Probable space group: P -1
;
_chemical_formula_sum "Si O2"
_cell_formula_units_Z 16
_cell_length_a 13.846513
_cell_length_b 28.345827
_cell_length_c 11.154734
_cell_angle_alpha 149.656426
_cell_angle_beta 27.880187
_cell_angle_gamma 158.313921
_cell_volume 734.226520
_symmetry_space_group_name_H-M "P -1"
_symmetry_group_IT_number 2
_symmetry_cell_setting 'triclinic'
loop_
_space_group_symop_operation_xyz
x,y,z
-x,-y,-z
loop_
_atom_site_type_symbol
_atom_site_label
_atom_site_fract_x
_atom_site_fract_y
_atom_site_fract_z
Si Si1 0.178364 0.510209 0.158079
Si Si2 0.759627 0.897748 0.447266
Si Si3 0.192362 0.303161 0.060866
Si Si4 0.212917 0.040116 0.707275
Si Si5 0.130179 0.191649 0.259041
Si Si6 0.865811 0.269313 0.573340
Si Si7 0.864658 0.314091 0.268503
Si Si8 0.702484 0.473083 0.213111
O O1 0.115549 0.594784 0.457866
O O2 0.936795 0.366363 0.167533
O O3 0.474984 0.559788 0.992209
O O4 0.184101 0.511396 0.011382
O O5 0.760609 0.962066 0.468827
O O6 0.463006 0.825725 0.683691
O O7 0.807743 0.806805 0.158161
O O8 0.000000 0.000000 0.500000
O O9 0.997462 0.288363 0.342628
O O10 0.073483 0.297271 0.048822
O O11 0.520875 0.149020 0.676987
O O12 0.052865 0.086171 0.016210
O O13 0.017841 0.889447 0.632077
O O14 0.482660 0.320408 0.164684
O O15 0.969633 0.233849 0.486567
O O16 0.004180 0.415977 0.782651
O O17 0.500000 0.500000 0.500000
#
# Coordination Sequence:
#
# PCOD8005794 Si02
#       8
#     2   2   2   2   2   2   2   2
#     4  10  20  41  64  94 131 160 212 264 317 394
#     4  11  24  44  62  89 127 166 218 274 309 378
#     4  11  20  40  67  86 128 167 212 258 337 379
#     4  11  22  41  65  87 124 171 212 253 327 380
#     4  10  21  41  61  91 127 166 206 261 311 386
#     4  11  21  39  66  92 124 171 205 261 323 387
#     4  10  22  40  66  93 121 174 212 261 327 376
#     4  10  20  39  62  96 132 160 204 271 319 371
#
# _framework density 21.791640999999998
#
# number of rings (size 3 to 8) (size 9 to 14) (size 15 to 20)
#    0.000    1.500    5.000    1.500    0.000    1.000 
#    9.000    1.250    0.000    0.000    0.000    0.000 
#    0.000    0.000    0.000    0.000    0.000    0.000 
#
# Total GULP energy -198325.452975 kJ/mol
# GULP energy per Si atom -12395.340811 kJ/mol
# Density = 2.174204 g / cm^3
# Si number density = 21.791641 Si / 1000 Ang^3
#
#
#
# Elastic Constant Matrix: (Units=GPa)
#
#
# Indices 1 2 3 4 5 6 
#
# 1 117.1252 90.9467 10.1435 -9.9033 1.5429 0.9592
# 2 90.9467 166.1637 18.8643 -17.9717 16.0011 -16.3639
# 3 10.1435 18.8643 32.1491 -10.5619 10.7415 -8.7431
# 4 -9.9033 -17.9717 -10.5619 28.1409 -2.4045 1.7037
# 5 1.5429 16.0011 10.7415 -2.4045 26.6612 -0.8120
# 6 0.9592 -16.3639 -8.7431 1.7037 -0.8120 41.6241
#
#
#
# Elastic Compliance Matrix: (Units=1/GPa)
#
#
# Indices 1 2 3 4 5 6 
#
# 1 0.016138 -0.009598 -0.002897 -0.000764 0.005784 -0.004610
# 2 -0.009598 0.012812 0.000515 0.004109 -0.006817 0.005065
# 3 -0.002897 0.000515 0.044131 0.013948 -0.016400 0.008648
# 4 -0.000764 0.004109 0.013948 0.042608 -0.004115 0.002739
# 5 0.005784 -0.006817 -0.016400 -0.004115 0.047343 -0.005166
# 6 -0.004610 0.005065 0.008648 0.002739 -0.005166 0.027726
#
#
# Mechanical properties :
#
#
# Convention : Reuss Voigt Hill
#
# Bulk Modulus (GPa) = 20.35761 61.70523 41.03142
# Shear Modulus (GPa) = 21.63640 32.31747 26.97694
#
# Velocity S-wave (km/s) = 3.15441 3.85518 3.52227
# Velocity P-wave (km/s) = 4.75703 6.94219 5.95077
#
# Compressibility (1/GPa) = 0.04912169
#
# Stress axis : x y z
#
# Youngs Moduli (GPa) = 61.96468 78.04890 22.66002
#
# Poissons Ratio (x) = 0.74909 0.06566
# Poissons Ratio (y) = 0.59472 -0.01168
# Poissons Ratio (z) = 0.17954 -0.04022
#
# Static dielectric constant tensor:
#      x y z
#    x 3.912660 -0.087490 0.028610 
#    y -0.087490 4.239700 -0.106120 
#    z 0.028610 -0.106120 4.291950 
# 
# 
# High freq. dielectric constant tensor:
#      x y z
#    x 1.848810 -0.007860 -0.015600 
#    y -0.007860 1.864590 -0.010820 
#    z -0.015600 -0.010820 1.852980 
# 
# From -- ./inp_files/458396.got.cif
#   From: 2010.06.25/outbox.cif.g09.slc.cpg/sg2_230_cif.got.tgz:458396.got - 2010.06.27 13:26:56.
