data_PCOD8005311
_publ_section_title
;
Structure prediction by ZEFSAII (Michael W. Deem and Ramdas Pophale) SiO2 
 PCOD8005311
Probable space group: P -1
;
_chemical_formula_sum "Si O2"
_cell_formula_units_Z 16
_cell_length_a 12.772813
_cell_length_b 6.475192
_cell_length_c 13.882062
_cell_angle_alpha 96.887628
_cell_angle_beta 40.809925
_cell_angle_gamma 81.853340
_cell_volume 695.492279
_symmetry_space_group_name_H-M "P -1"
_symmetry_group_IT_number 2
_symmetry_cell_setting 'triclinic'
loop_
_space_group_symop_operation_xyz
x,y,z
-x,-y,-z
loop_
_atom_site_type_symbol
_atom_site_label
_atom_site_fract_x
_atom_site_fract_y
_atom_site_fract_z
Si Si1 0.339212 0.932518 0.084222
Si Si2 0.186540 0.205575 0.041807
Si Si3 0.134895 0.164686 0.576677
Si Si4 0.361843 0.327274 0.548159
Si Si5 0.822420 0.188613 0.322151
Si Si6 0.748071 0.459272 0.841694
Si Si7 0.174537 0.292159 0.354948
Si Si8 0.684337 0.934698 0.263933
O O1 0.288078 0.968834 0.009322
O O2 0.174272 0.095768 0.270482
O O3 0.383575 0.672363 0.063397
O O4 0.500000 0.000000 0.000000
O O5 0.252260 0.385228 0.058205
O O6 0.984885 0.260763 0.197694
O O7 0.230862 0.192256 0.898307
O O8 0.186267 0.319209 0.624651
O O9 0.238795 0.170261 0.405404
O O10 0.934696 0.264453 0.698646
O O11 0.183651 0.914854 0.573143
O O12 0.347179 0.586133 0.563677
O O13 0.521099 0.158182 0.367675
O O14 0.376440 0.240297 0.643444
O O15 0.822331 0.006139 0.232128
O O16 0.703036 0.596362 0.779535
O O17 0.000000 0.500000 0.500000
#
# Coordination Sequence:
#
# PCOD8005311 Si02
#       8
#     2   2   2   2   2   2   2   2
#     4  11  25  43  66  95 136 167 219 275 328 393
#     4  11  23  41  66  95 132 175 220 270 327 395
#     4  10  20  38  66  96 128 169 223 271 319 387
#     4  10  22  41  64  93 130 170 221 277 329 390
#     4  11  21  40  68  96 129 175 221 275 323 384
#     4  10  21  43  65  94 132 171 219 271 323 388
#     4   9  22  39  67  96 126 172 219 266 324 389
#     4  10  24  41  64  96 134 167 223 274 331 391
#
# _framework density 23.005289000000001
#
# number of rings (size 3 to 8) (size 9 to 14) (size 15 to 20)
#    0.000    1.750    2.500    0.750    1.750    6.500 
#    0.000    0.000    5.500    0.000    0.000    0.000 
#    0.000    0.000    0.000    0.000    0.000    0.000 
#
# Total GULP energy -198235.390078 kJ/mol
# GULP energy per Si atom -12389.711880 kJ/mol
# Density = 2.295293 g / cm^3
# Si number density = 23.005289 Si / 1000 Ang^3
#
#
#
# Elastic Constant Matrix: (Units=GPa)
#
#
# Indices 1 2 3 4 5 6 
#
# 1 65.7978 41.0347 44.5498 -10.5334 21.6319 -12.1530
# 2 41.0347 178.9557 64.7615 -13.2858 21.8383 -10.2298
# 3 44.5498 64.7615 95.2778 -13.1116 23.0896 -4.7697
# 4 -10.5334 -13.2858 -13.1116 26.2993 -5.8041 -2.0723
# 5 21.6319 21.8383 23.0896 -5.8041 32.1767 -3.5113
# 6 -12.1530 -10.2298 -4.7697 -2.0723 -3.5113 45.2165
#
#
#
# Elastic Compliance Matrix: (Units=1/GPa)
#
#
# Indices 1 2 3 4 5 6 
#
# 1 0.026443 -0.001258 -0.008348 0.004098 -0.009607 0.005384
# 2 -0.001258 0.007644 -0.004149 0.001128 -0.001061 0.000923
# 3 -0.008348 -0.004149 0.018639 0.002721 -0.004615 -0.001450
# 4 0.004098 0.001128 0.002721 0.042464 0.002601 0.003792
# 5 -0.009607 -0.001061 -0.004615 0.002601 0.042046 0.000075
# 6 0.005384 0.000923 -0.001450 0.003792 0.000075 0.023798
#
#
# Mechanical properties :
#
#
# Convention : Reuss Voigt Hill
#
# Bulk Modulus (GPa) = 39.65607 71.19147 55.42377
# Shear Modulus (GPa) = 25.38731 33.38421 29.38576
#
# Velocity S-wave (km/s) = 3.32556 3.81353 3.57788
# Velocity P-wave (km/s) = 5.65872 7.09955 6.41968
#
# Compressibility (1/GPa) = 0.02521682
#
# Stress axis : x y z
#
# Youngs Moduli (GPa) = 37.81657 130.82484 53.65130
#
# Poissons Ratio (x) = 0.16462 0.44786
# Poissons Ratio (y) = 0.04759 0.22259
# Poissons Ratio (z) = 0.31567 0.54276
#
# Static dielectric constant tensor:
#      x y z
#    x 4.124070 -0.279300 0.038920 
#    y -0.279300 4.461870 -0.057600 
#    z 0.038920 -0.057600 4.147370 
# 
# 
# High freq. dielectric constant tensor:
#      x y z
#    x 1.905620 -0.012600 -0.006840 
#    y -0.012600 1.924070 -0.004270 
#    z -0.006840 -0.004270 1.888280 
# 
# From -- ./inp_files/525848.got.cif
#   From: 2010.06.25/outbox.cif.g09.slc.cpg/sg2_263_cif.got.tgz:525848.got - 2010.06.27 13:26:56.
