data_PCOD8005773
_publ_section_title
;
Structure prediction by ZEFSAII (Michael W. Deem and Ramdas Pophale) SiO2 
 PCOD8005773
Probable space group: P -1
;
_chemical_formula_sum "Si O2"
_cell_formula_units_Z 16
_cell_length_a 15.437170
_cell_length_b 11.349186
_cell_length_c 11.008005
_cell_angle_alpha 57.168422
_cell_angle_beta 54.278962
_cell_angle_gamma 28.990512
_cell_volume 756.438449
_symmetry_space_group_name_H-M "P -1"
_symmetry_group_IT_number 2
_symmetry_cell_setting 'triclinic'
loop_
_space_group_symop_operation_xyz
x,y,z
-x,-y,-z
loop_
_atom_site_type_symbol
_atom_site_label
_atom_site_fract_x
_atom_site_fract_y
_atom_site_fract_z
Si Si1 0.496749 0.004873 0.696505
Si Si2 0.969707 0.244264 0.449240
Si Si3 0.014216 0.068913 0.266632
Si Si4 0.420185 0.299191 0.395629
Si Si5 0.789128 0.697131 0.036261
Si Si6 0.322767 0.021455 0.252485
Si Si7 0.559934 0.411266 0.863765
Si Si8 0.672352 0.526725 0.153463
O O1 0.530690 0.097673 0.522762
O O2 0.296285 0.216777 0.806557
O O3 0.532541 0.817137 0.709120
O O4 0.640973 0.874780 0.760519
O O5 0.148715 0.140811 0.394568
O O6 0.956908 0.250871 0.308785
O O7 0.793092 0.506281 0.507690
O O8 0.997076 0.063885 0.582595
O O9 0.851209 0.241214 0.203325
O O10 0.223663 0.870682 0.156797
O O11 0.461723 0.420892 0.290415
O O12 0.753853 0.596969 0.037719
O O13 0.705642 0.913449 0.903114
O O14 0.000000 0.500000 0.000000
O O15 0.500770 0.723510 0.280931
O O16 0.419250 0.445376 0.906713
O O17 0.500000 0.500000 0.000000
#
# Coordination Sequence:
#
# PCOD8005773 Si02
#       8
#     2   2   2   2   2   2   2   2
#     4  10  22  40  64  92 129 166 216 262 317 391
#     4  10  20  39  62  92 130 160 213 263 317 380
#     4  10  22  41  63  95 128 166 210 268 316 384
#     4  10  23  41  61  92 129 173 207 263 326 374
#     4  11  24  41  68  97 127 169 219 269 321 380
#     4  11  22  38  68  94 123 165 218 267 318 375
#     4  11  26  42  67  92 135 170 214 269 325 385
#     4  11  23  40  66  95 124 167 218 258 329 375
#
# _framework density 21.151752999999999
#
# number of rings (size 3 to 8) (size 9 to 14) (size 15 to 20)
#    0.000    1.500    1.250    4.500    5.250    1.500 
#    0.000    0.000    0.000    0.000    0.000    0.000 
#    0.000    0.000    0.000    0.000    0.000    0.000 
#
# Total GULP energy -198251.291271 kJ/mol
# GULP energy per Si atom -12390.705704 kJ/mol
# Density = 2.110361 g / cm^3
# Si number density = 21.151753 Si / 1000 Ang^3
#
#
#
# Elastic Constant Matrix: (Units=GPa)
#
#
# Indices 1 2 3 4 5 6 
#
# 1 138.0517 60.5881 35.1618 24.9133 10.0078 -19.9749
# 2 60.5881 103.8988 42.6176 8.3721 12.2627 -13.4449
# 3 35.1618 42.6176 80.7416 23.2762 12.3997 -7.8731
# 4 24.9133 8.3721 23.2762 28.4207 -2.2757 2.2794
# 5 10.0078 12.2627 12.3997 -2.2757 31.3708 5.9580
# 6 -19.9749 -13.4449 -7.8731 2.2794 5.9580 38.9882
#
#
#
# Elastic Compliance Matrix: (Units=1/GPa)
#
#
# Indices 1 2 3 4 5 6 
#
# 1 0.012801 -0.006132 0.002634 -0.012478 -0.004857 0.006447
# 2 -0.006132 0.015905 -0.007441 0.006660 -0.000950 0.000597
# 3 0.002634 -0.007441 0.023106 -0.020308 -0.009700 0.006119
# 4 -0.012478 0.006660 -0.020308 0.063294 0.016741 -0.014456
# 5 -0.004857 -0.000950 -0.009700 0.016741 0.041133 -0.012040
# 6 0.006447 0.000597 0.006119 -0.014456 -0.012040 0.033078
#
#
# Mechanical properties :
#
#
# Convention : Reuss Voigt Hill
#
# Bulk Modulus (GPa) = 33.40584 66.60301 50.00442
# Shear Modulus (GPa) = 22.60666 32.04425 27.32546
#
# Velocity S-wave (km/s) = 3.27277 3.89648 3.59817
# Velocity P-wave (km/s) = 5.48718 7.19722 6.39957
#
# Compressibility (1/GPa) = 0.02993488
#
# Stress axis : x y z
#
# Youngs Moduli (GPa) = 78.11980 62.87188 43.27803
#
# Poissons Ratio (x) = 0.38553 -0.11399
# Poissons Ratio (y) = 0.47903 0.32202
# Poissons Ratio (z) = -0.20575 0.46781
#
# Static dielectric constant tensor:
#      x y z
#    x 3.974340 -0.046450 -0.022540 
#    y -0.046450 3.928950 0.005190 
#    z -0.022540 0.005190 3.854780 
# 
# 
# High freq. dielectric constant tensor:
#      x y z
#    x 1.831520 -0.003470 -0.008530 
#    y -0.003470 1.829660 -0.000010 
#    z -0.008530 -0.000010 1.818430 
# 
# From -- ./inp_files/306962.got.cif
#   From: 2010.06.25/outbox.cif.g09.slc.cpg/sg2_154_cif.got.tgz:306962.got - 2010.06.27 13:26:56.
