data_PCOD8005522
_publ_section_title
;
Structure prediction by ZEFSAII (Michael W. Deem and Ramdas Pophale) SiO2 
 PCOD8005522
Probable space group: P -1
;
_chemical_formula_sum "Si O2"
_cell_formula_units_Z 16
_cell_length_a 14.777843
_cell_length_b 8.571303
_cell_length_c 14.689016
_cell_angle_alpha 105.403372
_cell_angle_beta 151.868627
_cell_angle_gamma 90.291175
_cell_volume 719.041750
_symmetry_space_group_name_H-M "P -1"
_symmetry_group_IT_number 2
_symmetry_cell_setting 'triclinic'
loop_
_space_group_symop_operation_xyz
x,y,z
-x,-y,-z
loop_
_atom_site_type_symbol
_atom_site_label
_atom_site_fract_x
_atom_site_fract_y
_atom_site_fract_z
Si Si1 0.832172 0.569354 0.253885
Si Si2 0.995530 0.820691 0.720651
Si Si3 0.134910 0.085922 0.042520
Si Si4 0.723193 0.437780 0.338499
Si Si5 0.050690 0.326543 0.893382
Si Si6 0.214410 0.168878 0.857685
Si Si7 0.455101 0.952915 0.559242
Si Si8 0.704932 0.314027 0.940960
O O1 0.720671 0.471686 0.234282
O O2 0.835284 0.767607 0.274664
O O3 0.663209 0.429194 0.001174
O O4 0.084506 0.608548 0.473740
O O5 0.766355 0.625634 0.460227
O O6 0.164174 0.767056 0.903622
O O7 0.100722 0.942965 0.738846
O O8 0.966855 0.945307 0.791449
O O9 0.373222 0.104294 0.258443
O O10 0.167693 0.291152 0.079761
O O11 0.000000 0.000000 0.000000
O O12 0.481847 0.262341 0.127313
O O13 0.097155 0.239590 0.833539
O O14 0.153718 0.548992 0.998053
O O15 0.787278 0.230070 0.665616
O O16 0.500000 0.000000 0.500000
O O17 0.484990 0.134443 0.671309
#
# Coordination Sequence:
#
# PCOD8005522 Si02
#       8
#     2   2   2   2   2   2   2   2
#     4   9  20  38  61  89 119 154 196 239 286 352
#     4   9  21  37  60  85 116 158 193 239 291 346
#     4  10  20  39  59  85 119 145 196 244 283 347
#     4  10  20  40  61  85 123 155 192 241 292 340
#     4  10  22  39  62  88 115 157 195 238 293 350
#     4  10  21  37  60  88 121 152 197 242 285 344
#     4  11  22  40  63  82 118 155 189 245 293 341
#     4   9  21  40  60  86 119 154 195 239 290 346
#
# _framework density 22.251837999999999
#
# number of rings (size 3 to 8) (size 9 to 14) (size 15 to 20)
#    0.000    2.250    1.250    0.375    0.000   14.000 
#    0.000   11.250    0.000    0.000    0.000    0.000 
#    0.000    0.000    0.000    0.000    0.000    0.000 
#
# Total GULP energy -198224.145243 kJ/mol
# GULP energy per Si atom -12389.009078 kJ/mol
# Density = 2.220119 g / cm^3
# Si number density = 22.251838 Si / 1000 Ang^3
#
#
#
# Elastic Constant Matrix: (Units=GPa)
#
#
# Indices 1 2 3 4 5 6 
#
# 1 63.9792 6.2885 16.4750 -2.2333 -2.6621 10.4186
# 2 6.2885 137.7326 26.1728 -3.1784 -2.8326 25.4716
# 3 16.4750 26.1728 82.6750 -4.7112 7.1168 6.6363
# 4 -2.2333 -3.1784 -4.7112 29.4458 3.5044 0.8305
# 5 -2.6621 -2.8326 7.1168 3.5044 35.8348 -2.7392
# 6 10.4186 25.4716 6.6363 0.8305 -2.7392 22.0969
#
#
#
# Elastic Compliance Matrix: (Units=1/GPa)
#
#
# Indices 1 2 3 4 5 6 
#
# 1 0.017926 0.001563 -0.003388 0.001086 0.001325 -0.009113
# 2 0.001563 0.009772 -0.002479 0.001044 0.000419 -0.011244
# 3 -0.003388 -0.002479 0.013995 0.002133 -0.003455 -0.000257
# 4 0.001086 0.001044 0.002133 0.035092 -0.004011 -0.004172
# 5 0.001325 0.000419 -0.003455 -0.004011 0.029401 0.003725
# 6 -0.009113 -0.011244 -0.000257 -0.004172 0.003725 0.063209
#
#
# Mechanical properties :
#
#
# Convention : Reuss Voigt Hill
#
# Bulk Modulus (GPa) = 30.22496 42.47328 36.34912
# Shear Modulus (GPa) = 26.45065 33.17220 29.81142
#
# Velocity S-wave (km/s) = 3.45149 3.86523 3.66420
# Velocity P-wave (km/s) = 5.43105 6.24892 5.85428
#
# Compressibility (1/GPa) = 0.03308524
#
# Stress axis : x y z
#
# Youngs Moduli (GPa) = 55.78566 102.32905 71.45386
#
# Poissons Ratio (x) = -0.15992 0.24206
# Poissons Ratio (y) = -0.08718 0.17714
# Poissons Ratio (z) = 0.18898 0.25369
#
# Static dielectric constant tensor:
#      x y z
#    x 4.056460 0.073440 -0.249700 
#    y 0.073440 5.159320 -0.016250 
#    z -0.249700 -0.016250 4.145690 
# 
# 
# High freq. dielectric constant tensor:
#      x y z
#    x 1.861930 0.016030 0.000580 
#    y 0.016030 1.899410 -0.013610 
#    z 0.000580 -0.013610 1.857430 
# 
# From -- ./inp_files/117300.got.cif
#   From: 2010.06.25/outbox.cif.g09.slc.cpg/sg2_59_cif.got.tgz:117300.got - 2010.06.27 13:26:56.
