data_PCOD8005160
_publ_section_title
;
Structure prediction by ZEFSAII (Michael W. Deem and Ramdas Pophale) SiO2 
 PCOD8005160
Probable space group: P -1
;
_chemical_formula_sum "Si O2"
_cell_formula_units_Z 16
_cell_length_a 15.337584
_cell_length_b 9.056630
_cell_length_c 16.259262
_cell_angle_alpha 140.061283
_cell_angle_beta 138.777206
_cell_angle_gamma 35.797900
_cell_volume 795.417420
_symmetry_space_group_name_H-M "P -1"
_symmetry_group_IT_number 2
_symmetry_cell_setting 'triclinic'
loop_
_space_group_symop_operation_xyz
x,y,z
-x,-y,-z
loop_
_atom_site_type_symbol
_atom_site_label
_atom_site_fract_x
_atom_site_fract_y
_atom_site_fract_z
Si Si1 0.627770 0.646477 0.079403
Si Si2 0.381983 0.911347 0.635741
Si Si3 0.347301 0.219307 0.588307
Si Si4 0.690341 0.296237 0.134603
Si Si5 0.026985 0.741754 0.133001
Si Si6 0.709856 0.838063 0.650195
Si Si7 0.730901 0.466687 0.638437
Si Si8 0.846903 0.198964 0.923053
O O1 0.685748 0.420757 0.095922
O O2 0.646078 0.896032 0.223814
O O3 0.443987 0.770391 0.981930
O O4 0.739120 0.499373 0.016712
O O5 0.571140 0.711058 0.672681
O O6 0.303327 0.739405 0.521710
O O7 0.293930 0.108438 0.578389
O O8 0.337869 0.494391 0.723380
O O9 0.237773 0.277299 0.455218
O O10 0.524331 0.971918 0.586425
O O11 0.859387 0.019914 0.149457
O O12 0.136367 0.694518 0.267752
O O13 0.109987 0.763498 0.120948
O O14 0.000000 0.500000 0.000000
O O15 0.797064 0.586025 0.669535
O O16 0.745201 0.066001 0.791899
O O17 0.000000 0.000000 0.000000
#
# Coordination Sequence:
#
# PCOD8005160 Si02
#       8
#     2   2   2   2   2   2   2   2
#     4  10  20  39  67  92 118 157 209 256 290 359
#     4   9  19  38  63  89 123 164 200 244 304 365
#     4   9  18  37  65  91 112 155 213 253 286 354
#     4  10  20  39  64  91 121 158 206 250 305 354
#     4  12  25  41  60  90 129 164 195 250 318 365
#     4  10  20  38  65  89 118 156 204 256 297 351
#     4  10  21  39  60  89 128 164 196 243 317 366
#     4  12  23  40  62  94 121 156 208 250 302 359
#
# _framework density 20.115224000000001
#
# number of rings (size 3 to 8) (size 9 to 14) (size 15 to 20)
#    0.000    1.750    2.500    2.250    1.750    1.000 
#    4.500    3.750    0.000    0.000    0.000    0.000 
#    0.000    0.000    0.000    0.000    0.000    0.000 
#
# Total GULP energy -198427.706695 kJ/mol
# GULP energy per Si atom -12401.731668 kJ/mol
# Density = 2.006944 g / cm^3
# Si number density = 20.115224 Si / 1000 Ang^3
#
#
#
# Elastic Constant Matrix: (Units=GPa)
#
#
# Indices 1 2 3 4 5 6 
#
# 1 72.0373 43.6214 36.4651 4.5974 -8.0071 5.0727
# 2 43.6214 109.9488 52.1355 -3.9374 -11.2278 0.6702
# 3 36.4651 52.1355 126.4639 15.8841 -13.4965 0.8293
# 4 4.5974 -3.9374 15.8841 38.7766 4.8903 3.8028
# 5 -8.0071 -11.2278 -13.4965 4.8903 31.7677 4.3039
# 6 5.0727 0.6702 0.8293 3.8028 4.3039 24.1070
#
#
#
# Elastic Compliance Matrix: (Units=1/GPa)
#
#
# Indices 1 2 3 4 5 6 
#
# 1 0.019721 -0.006423 -0.002513 -0.001877 0.002468 -0.004029
# 2 -0.006423 0.013881 -0.004256 0.003772 0.000849 0.000366
# 3 -0.002513 -0.004256 0.011418 -0.005295 0.003465 0.000471
# 4 -0.001877 0.003772 -0.005295 0.029572 -0.005507 -0.003210
# 5 0.002468 0.000849 0.003465 -0.005507 0.035552 -0.006141
# 6 -0.004029 0.000366 0.000471 -0.003210 -0.006141 0.043906
#
#
# Mechanical properties :
#
#
# Convention : Reuss Voigt Hill
#
# Bulk Modulus (GPa) = 53.65921 63.65488 58.65704
# Shear Modulus (GPa) = 26.78851 30.67879 28.73365
#
# Velocity S-wave (km/s) = 3.65328 3.90956 3.78359
# Velocity P-wave (km/s) = 6.67301 7.21757 6.95063
#
# Compressibility (1/GPa) = 0.01863613
#
# Stress axis : x y z
#
# Youngs Moduli (GPa) = 50.70717 72.04013 87.57941
#
# Poissons Ratio (x) = 0.46274 0.22008
# Poissons Ratio (y) = 0.32571 0.37274
# Poissons Ratio (z) = 0.12742 0.30660
#
# Static dielectric constant tensor:
#      x y z
#    x 3.138110 -0.267280 -0.767420 
#    y -0.267280 3.357960 -0.547040 
#    z -0.767420 -0.547040 2.900670 
# 
# 
# High freq. dielectric constant tensor:
#      x y z
#    x 1.768370 0.006450 -0.003880 
#    y 0.006450 1.778510 0.004590 
#    z -0.003880 0.004590 1.800360 
# 
# From -- ./inp_files/273476.got.cif
#   From: 2010.06.25/outbox.cif.g09.slc.cpg/sg2_137_cif.got.tgz:273476.got - 2010.06.27 13:26:56.
