data_PCOD8005887
_publ_section_title
;
Structure prediction by ZEFSAII (Michael W. Deem and Ramdas Pophale) SiO2 
 PCOD8005887
Probable space group: P -1
;
_chemical_formula_sum "Si O2"
_cell_formula_units_Z 16
_cell_length_a 8.903715
_cell_length_b 7.822246
_cell_length_c 15.237838
_cell_angle_alpha 42.946768
_cell_angle_beta 97.924118
_cell_angle_gamma 107.285926
_cell_volume 685.212107
_symmetry_space_group_name_H-M "P -1"
_symmetry_group_IT_number 2
_symmetry_cell_setting 'triclinic'
loop_
_space_group_symop_operation_xyz
x,y,z
-x,-y,-z
loop_
_atom_site_type_symbol
_atom_site_label
_atom_site_fract_x
_atom_site_fract_y
_atom_site_fract_z
Si Si1 0.140378 0.881471 0.718638
Si Si2 0.031341 0.928022 0.882950
Si Si3 0.284403 0.185738 0.168142
Si Si4 0.148632 0.973206 0.415708
Si Si5 0.543972 0.940612 0.229780
Si Si6 0.286488 0.735544 0.033002
Si Si7 0.072512 0.500219 0.705924
Si Si8 0.279065 0.528216 0.292741
O O1 0.052799 0.821715 0.826992
O O2 0.323516 0.046332 0.689082
O O3 0.129067 0.613513 0.765214
O O4 0.038380 0.031769 0.595612
O O5 0.842811 0.878740 0.898502
O O6 0.121276 0.236455 0.790980
O O7 0.104061 0.751639 0.019461
O O8 0.213161 0.985196 0.317694
O O9 0.450367 0.151095 0.164966
O O10 0.307603 0.483951 0.081159
O O11 0.258614 0.226483 0.381382
O O12 0.164724 0.713373 0.561121
O O13 0.420757 0.646291 0.329465
O O14 0.623674 0.013419 0.112748
O O15 0.340663 0.724025 0.141049
O O16 0.884955 0.438869 0.698036
#
# Coordination Sequence:
#
# PCOD8005887 Si02
#       8
#     2   2   2   2   2   2   2   2
#     4   9  21  39  62  90 123 161 202 254 307 360
#     4  10  21  40  65  91 123 162 216 255 298 369
#     4  10  20  39  63  93 121 164 207 252 312 371
#     4   9  21  42  67  87 122 164 207 262 302 359
#     4  11  21  40  59  95 129 161 198 254 319 373
#     4  10  22  39  60  90 129 164 198 260 311 360
#     4  11  21  43  67  91 121 166 214 255 304 363
#     4  10  20  39  64  92 120 162 210 248 309 375
#
# _framework density 23.350432999999999
#
# number of rings (size 3 to 8) (size 9 to 14) (size 15 to 20)
#    0.000    2.000    1.250    3.375    0.000    4.500 
#   18.000    3.125    2.750    0.000    0.000    0.000 
#    0.000    0.000    0.000    0.000    0.000    0.000 
#
# Total GULP energy -198260.470398 kJ/mol
# GULP energy per Si atom -12391.279400 kJ/mol
# Density = 2.329729 g / cm^3
# Si number density = 23.350433 Si / 1000 Ang^3
#
#
#
# Elastic Constant Matrix: (Units=GPa)
#
#
# Indices 1 2 3 4 5 6 
#
# 1 89.3509 28.5146 8.0776 -1.0886 0.2509 21.3894
# 2 28.5146 85.6949 13.6905 0.9321 -1.2068 27.6708
# 3 8.0776 13.6905 48.6971 -2.1626 -2.8189 1.7559
# 4 -1.0886 0.9321 -2.1626 11.3006 -1.2293 -2.2033
# 5 0.2509 -1.2068 -2.8189 -1.2293 24.9182 -1.6069
# 6 21.3894 27.6708 1.7559 -2.2033 -1.6069 44.8428
#
#
#
# Elastic Compliance Matrix: (Units=1/GPa)
#
#
# Indices 1 2 3 4 5 6 
#
# 1 0.013292 -0.002740 -0.001296 0.000284 -0.000696 -0.004610
# 2 -0.002740 0.016045 -0.003948 -0.004074 -0.000401 -0.008653
# 3 -0.001296 -0.003948 0.022160 0.005237 0.002751 0.002543
# 4 0.000284 -0.004074 0.005237 0.091780 0.005363 0.006875
# 5 -0.000696 -0.000401 0.002751 0.005363 0.040836 0.002199
# 6 -0.004610 -0.008653 0.002543 0.006875 0.002199 0.030156
#
#
# Mechanical properties :
#
#
# Convention : Reuss Voigt Hill
#
# Bulk Modulus (GPa) = 28.14674 36.03425 32.09050
# Shear Modulus (GPa) = 20.65417 27.77633 24.21525
#
# Velocity S-wave (km/s) = 2.97733 3.45272 3.22380
# Velocity P-wave (km/s) = 4.88872 5.60004 5.25642
#
# Compressibility (1/GPa) = 0.03552809
#
# Stress axis : x y z
#
# Youngs Moduli (GPa) = 75.23078 62.32545 45.12599
#
# Poissons Ratio (x) = 0.17080 0.05848
# Poissons Ratio (y) = 0.20617 0.17817
# Poissons Ratio (z) = 0.09749 0.24608
#
# Static dielectric constant tensor:
#      x y z
#    x 4.222920 0.108490 0.047800 
#    y 0.108490 4.218310 0.072840 
#    z 0.047800 0.072840 3.902070 
# 
# 
# High freq. dielectric constant tensor:
#      x y z
#    x 1.909130 0.002230 -0.002400 
#    y 0.002230 1.928980 -0.003760 
#    z -0.002400 -0.003760 1.899680 
# 
# From -- ./inp_files/245475.got.cif
#   From: 2010.06.25/outbox.cif.g09.slc.cpg/sg2_123_cif.got.tgz:245475.got - 2010.06.27 13:26:56.
