data_PCOD8005310
_publ_section_title
;
Structure prediction by ZEFSAII (Michael W. Deem and Ramdas Pophale) SiO2 
 PCOD8005310
Probable space group: P -1
;
_chemical_formula_sum "Si O2"
_cell_formula_units_Z 14
_cell_length_a 8.445787
_cell_length_b 14.787931
_cell_length_c 9.807129
_cell_angle_alpha 33.194373
_cell_angle_beta 91.962612
_cell_angle_gamma 86.379928
_cell_volume 660.699157
_symmetry_space_group_name_H-M "P -1"
_symmetry_group_IT_number 2
_symmetry_cell_setting 'triclinic'
loop_
_space_group_symop_operation_xyz
x,y,z
-x,-y,-z
loop_
_atom_site_type_symbol
_atom_site_label
_atom_site_fract_x
_atom_site_fract_y
_atom_site_fract_z
Si Si1 0.919778 0.740509 0.313807
Si Si2 0.998034 0.469390 0.877096
Si Si3 0.770097 0.121067 0.856599
Si Si4 0.245077 0.293898 0.913807
Si Si5 0.850020 0.146385 0.283565
Si Si6 0.421746 0.875783 0.899756
Si Si7 0.318890 0.923011 0.379928
O O1 0.917501 0.635438 0.585901
O O2 0.097778 0.766214 0.238737
O O3 0.837642 0.644775 0.311770
O O4 0.824980 0.922178 0.119541
O O5 0.901507 0.321003 0.028820
O O6 0.000000 0.500000 0.000000
O O7 0.175400 0.411222 0.889749
O O8 0.720648 0.173102 0.635167
O O9 0.614454 0.158755 0.900345
O O10 0.439757 0.282599 0.936571
O O11 0.204090 0.105113 0.163287
O O12 0.746348 0.097764 0.216442
O O13 0.725350 0.183303 0.359711
O O14 0.000000 0.000000 0.500000
O O15 0.495683 0.046863 0.659915
#
# Coordination Sequence:
#
# PCOD8005310 Si02
#       7
#     2   2   2   2   2   2   2
#     4  10  22  38  65  93 129 160 214 261 301 375
#     4  12  25  41  63  94 127 166 212 259 312 367
#     4  10  20  38  66  96 120 164 213 258 311 362
#     4   9  21  41  61  89 127 161 206 262 309 364
#     4  12  23  41  66  90 124 172 210 250 316 380
#     4  10  22  38  67  92 123 166 211 254 318 374
#     4   9  20  37  61  95 123 157 208 256 300 370
#
# _framework density 21.189675000000001
#
# number of rings (size 3 to 8) (size 9 to 14) (size 15 to 20)
#    0.857    0.857    1.429    3.000    6.000    0.000 
#    0.000    3.571    0.000    0.000    0.000    0.000 
#    0.000    0.000    0.000    0.000    0.000    0.000 
#
# Total GULP energy -173475.435686 kJ/mol
# GULP energy per Si atom -12391.102549 kJ/mol
# Density = 2.114145 g / cm^3
# Si number density = 21.189675 Si / 1000 Ang^3
#
#
#
# Elastic Constant Matrix: (Units=GPa)
#
#
# Indices 1 2 3 4 5 6 
#
# 1 99.6464 41.7231 23.9304 2.1172 0.7882 4.5920
# 2 41.7231 100.0497 32.0082 24.2466 8.3151 -11.2507
# 3 23.9304 32.0082 85.5742 12.4903 -10.9952 -0.7304
# 4 2.1172 24.2466 12.4903 29.4947 1.0817 -6.8533
# 5 0.7882 8.3151 -10.9952 1.0817 28.7290 13.2408
# 6 4.5920 -11.2507 -0.7304 -6.8533 13.2408 30.3977
#
#
#
# Elastic Compliance Matrix: (Units=1/GPa)
#
#
# Indices 1 2 3 4 5 6 
#
# 1 0.013423 -0.007027 -0.001318 0.004026 0.003427 -0.005245
# 2 -0.007027 0.019313 -0.005244 -0.010131 -0.012131 0.011083
# 3 -0.001318 -0.005244 0.016048 -0.004486 0.011206 -0.007249
# 4 0.004026 -0.010131 -0.004486 0.045776 -0.004150 0.007662
# 5 0.003427 -0.012131 0.011206 -0.004150 0.056660 -0.030354
# 6 -0.005245 0.011083 -0.007249 0.007662 -0.030354 0.052567
#
#
# Mechanical properties :
#
#
# Convention : Reuss Voigt Hill
#
# Bulk Modulus (GPa) = 46.28007 53.39931 49.83969
# Shear Modulus (GPa) = 20.99375 30.23150 25.61262
#
# Velocity S-wave (km/s) = 3.15104 3.78128 3.48045
# Velocity P-wave (km/s) = 5.92680 6.65728 6.30264
#
# Compressibility (1/GPa) = 0.02160757
#
# Stress axis : x y z
#
# Youngs Moduli (GPa) = 74.49845 51.77932 62.31148
#
# Poissons Ratio (x) = 0.36383 0.08210
# Poissons Ratio (y) = 0.52347 0.32677
# Poissons Ratio (z) = 0.09816 0.27154
#
# Static dielectric constant tensor:
#      x y z
#    x 3.754170 -0.057640 -0.140680 
#    y -0.057640 3.704020 0.195730 
#    z -0.140680 0.195730 3.710550 
# 
# 
# High freq. dielectric constant tensor:
#      x y z
#    x 1.828130 -0.004690 -0.011910 
#    y -0.004690 1.819100 0.022620 
#    z -0.011910 0.022620 1.816580 
# 
# From -- ./inp_files/191300.got.cif
#   From: 2010.06.25/outbox.cif.g09.slc.cpg/sg2_96_cif.got.tgz:191300.got - 2010.06.27 13:26:56.
