data_PCOD8005137
_publ_section_title
;
Structure prediction by ZEFSAII (Michael W. Deem and Ramdas Pophale) SiO2 
 PCOD8005137
Probable space group: P -1
;
_chemical_formula_sum "Si O2"
_cell_formula_units_Z 16
_cell_length_a 14.858910
_cell_length_b 20.695387
_cell_length_c 7.867912
_cell_angle_alpha 116.909098
_cell_angle_beta 60.671499
_cell_angle_gamma 159.869615
_cell_volume 725.734751
_symmetry_space_group_name_H-M "P -1"
_symmetry_group_IT_number 2
_symmetry_cell_setting 'triclinic'
loop_
_space_group_symop_operation_xyz
x,y,z
-x,-y,-z
loop_
_atom_site_type_symbol
_atom_site_label
_atom_site_fract_x
_atom_site_fract_y
_atom_site_fract_z
Si Si1 0.653054 0.953483 0.605335
Si Si2 0.072436 0.015381 0.626586
Si Si3 0.530576 0.685152 0.922495
Si Si4 0.973754 0.281911 0.864830
Si Si5 0.065116 0.249105 0.067364
Si Si6 0.257697 0.715590 0.990106
Si Si7 0.552395 0.628287 0.173917
Si Si8 0.463599 0.148298 0.778733
O O1 0.878627 0.037764 0.485894
O O2 0.460510 0.812773 0.778146
O O3 0.480065 0.841706 0.456044
O O4 0.832464 0.141849 0.684591
O O5 0.354110 0.234136 0.678597
O O6 0.000000 0.000000 0.500000
O O7 0.825527 0.879693 0.807415
O O8 0.288342 0.504951 0.803201
O O9 0.543646 0.629349 0.979019
O O10 0.459328 0.717472 0.107601
O O11 0.809045 0.249489 0.982370
O O12 0.938083 0.219303 0.006055
O O13 0.240630 0.406977 0.235279
O O14 0.252033 0.309646 0.874505
O O15 0.849520 0.065410 0.154569
O O16 0.385767 0.803816 0.164964
O O17 0.000000 0.500000 0.000000
#
# Coordination Sequence:
#
# PCOD8005137 Si02
#       8
#     2   2   2   2   2   2   2   2
#     4  12  27  44  72 110 136 180 241 288 340 424
#     4  12  23  37  68 102 146 178 229 280 346 421
#     4  11  22  43  71  99 143 189 222 280 355 409
#     4  11  25  47  70  98 140 186 234 291 346 409
#     4  10  21  39  69  97 139 184 226 273 350 404
#     4  12  27  51  75  94 140 187 234 299 351 402
#     4  10  20  38  64  99 138 186 221 272 338 421
#     4  12  23  45  74 105 136 188 233 284 351 411
#
# _framework density 22.046621999999999
#
# number of rings (size 3 to 8) (size 9 to 14) (size 15 to 20)
#    0.000    0.750    5.000    3.000    0.000    2.500 
#    0.000    0.000    0.000    0.000    0.000    0.000 
#    0.000    0.000    0.000    0.000    0.000    0.000 
#
# Total GULP energy -198261.572361 kJ/mol
# GULP energy per Si atom -12391.348273 kJ/mol
# Density = 2.199644 g / cm^3
# Si number density = 22.046622 Si / 1000 Ang^3
#
#
#
# Elastic Constant Matrix: (Units=GPa)
#
#
# Indices 1 2 3 4 5 6 
#
# 1 122.7602 12.5657 33.9367 3.1532 3.1501 5.4508
# 2 12.5657 131.7349 46.7945 27.1074 1.0280 -7.5008
# 3 33.9367 46.7945 95.4754 20.4673 6.4023 4.8552
# 4 3.1532 27.1074 20.4673 22.1238 -3.3698 -2.2036
# 5 3.1501 1.0280 6.4023 -3.3698 38.8024 9.8112
# 6 5.4508 -7.5008 4.8552 -2.2036 9.8112 33.5023
#
#
#
# Elastic Compliance Matrix: (Units=1/GPa)
#
#
# Indices 1 2 3 4 5 6 
#
# 1 0.009138 -0.000065 -0.003636 0.002091 0.000273 -0.000917
# 2 -0.000065 0.011057 -0.003182 -0.010536 -0.001347 0.002649
# 3 -0.003636 -0.003182 0.015982 -0.011004 -0.002607 -0.002397
# 4 0.002091 -0.010536 -0.011004 0.069275 0.007634 0.001217
# 5 0.000273 -0.001347 -0.002607 0.007634 0.028882 -0.007924
# 6 -0.000917 0.002649 -0.002397 0.001217 -0.007924 0.033339
#
#
# Mechanical properties :
#
#
# Convention : Reuss Voigt Hill
#
# Bulk Modulus (GPa) = 44.62200 59.61828 52.12014
# Shear Modulus (GPa) = 26.46786 35.99726 31.23256
#
# Velocity S-wave (km/s) = 3.46864 4.04515 3.76794
# Velocity P-wave (km/s) = 6.02708 6.99416 6.52855
#
# Compressibility (1/GPa) = 0.02241047
#
# Stress axis : x y z
#
# Youngs Moduli (GPa) = 109.43531 90.44219 62.57179
#
# Poissons Ratio (x) = 0.00584 0.22754
# Poissons Ratio (y) = 0.00706 0.19910
# Poissons Ratio (z) = 0.39795 0.28778
#
# Static dielectric constant tensor:
#      x y z
#    x 4.120110 -0.014480 0.108120 
#    y -0.014480 4.177060 0.288680 
#    z 0.108120 0.288680 3.715530 
# 
# 
# High freq. dielectric constant tensor:
#      x y z
#    x 1.884150 -0.005480 0.005970 
#    y -0.005480 1.888120 0.023930 
#    z 0.005970 0.023930 1.828330 
# 
# From -- ./inp_files/263057.got.cif
#   From: 2010.06.25/outbox.cif.g09.slc.cpg/sg2_132_cif.got.tgz:263057.got - 2010.06.27 13:26:56.
