data_PCOD8005711
_publ_section_title
;
Structure prediction by ZEFSAII (Michael W. Deem and Ramdas Pophale) SiO2 
 PCOD8005711
Probable space group: P -1
;
_chemical_formula_sum "Si O2"
_cell_formula_units_Z 14
_cell_length_a 22.504019
_cell_length_b 6.937860
_cell_length_c 13.510195
_cell_angle_alpha 82.244803
_cell_angle_beta 22.877190
_cell_angle_gamma 95.574457
_cell_volume 664.805155
_symmetry_space_group_name_H-M "P -1"
_symmetry_group_IT_number 2
_symmetry_cell_setting 'triclinic'
loop_
_space_group_symop_operation_xyz
x,y,z
-x,-y,-z
loop_
_atom_site_type_symbol
_atom_site_label
_atom_site_fract_x
_atom_site_fract_y
_atom_site_fract_z
Si Si1 0.479419 0.167551 0.796211
Si Si2 0.400157 0.445313 0.259572
Si Si3 0.777893 0.758734 0.126737
Si Si4 0.122980 0.545908 0.903730
Si Si5 0.364459 0.455784 0.842471
Si Si6 0.670505 0.355587 0.928467
Si Si7 0.942136 0.698745 0.315483
O O1 0.536393 0.307988 0.802848
O O2 0.665650 0.225198 0.452740
O O3 0.368353 0.239028 0.893951
O O4 0.344235 0.886545 0.043155
O O5 0.179434 0.290065 0.586898
O O6 0.500000 0.500000 0.000000
O O7 0.465040 0.306642 0.233781
O O8 0.868277 0.679842 0.074562
O O9 0.574152 0.680343 0.480024
O O10 0.762221 0.635167 0.054649
O O11 0.907542 0.039560 0.893885
O O12 0.000000 0.500000 0.000000
O O13 0.043522 0.587800 0.120811
O O14 0.268183 0.535031 0.062469
O O15 0.817200 0.540449 0.610532
#
# Coordination Sequence:
#
# PCOD8005711 Si02
#       7
#     2   2   2   2   2   2   2
#     4  10  20  39  62  85 120 159 195 246 288 355
#     4   9  20  35  54  86 120 157 195 229 297 351
#     4  10  23  41  65  84 123 155 199 252 287 355
#     4  11  23  38  59  92 119 152 200 244 300 346
#     4   9  21  44  62  87 113 164 204 236 298 347
#     4  10  22  38  63  87 121 161 198 241 295 354
#     4  11  23  37  58  94 121 158 195 242 306 350
#
# _framework density 21.058800999999999
#
# number of rings (size 3 to 8) (size 9 to 14) (size 15 to 20)
#    0.000    2.000    1.429    0.857    2.000    8.000 
#    0.000    5.714    0.000    0.000    0.000    0.000 
#    0.000    0.000    0.000    0.000    0.000    0.000 
#
# Total GULP energy -173583.289877 kJ/mol
# GULP energy per Si atom -12398.806420 kJ/mol
# Density = 2.101087 g / cm^3
# Si number density = 21.058801 Si / 1000 Ang^3
#
#
#
# Elastic Constant Matrix: (Units=GPa)
#
#
# Indices 1 2 3 4 5 6 
#
# 1 103.7984 37.8427 30.9750 -7.3802 8.1917 16.9210
# 2 37.8427 110.0495 52.3576 -20.2182 6.0843 8.7946
# 3 30.9750 52.3576 80.0910 -11.5233 12.7198 4.7351
# 4 -7.3802 -20.2182 -11.5233 38.3906 2.4127 11.3893
# 5 8.1917 6.0843 12.7198 2.4127 30.9849 7.3005
# 6 16.9210 8.7946 4.7351 11.3893 7.3005 32.0143
#
#
#
# Elastic Compliance Matrix: (Units=1/GPa)
#
#
# Indices 1 2 3 4 5 6 
#
# 1 0.012418 -0.002007 -0.002687 0.002446 -0.000474 -0.006377
# 2 -0.002007 0.015098 -0.008148 0.006356 0.001471 -0.004478
# 3 -0.002687 -0.008148 0.019905 0.001034 -0.006365 0.001798
# 4 0.002446 0.006356 0.001034 0.034787 -0.001437 -0.015239
# 5 -0.000474 0.001471 -0.006365 -0.001437 0.036490 -0.007022
# 6 -0.006377 -0.004478 0.001798 -0.015239 -0.007022 0.042594
#
#
# Mechanical properties :
#
#
# Convention : Reuss Voigt Hill
#
# Bulk Modulus (GPa) = 46.00332 59.58771 52.79551
# Shear Modulus (GPa) = 25.74404 31.79552 28.76978
#
# Velocity S-wave (km/s) = 3.50020 3.88989 3.70018
# Velocity P-wave (km/s) = 6.18286 6.96651 6.58635
#
# Compressibility (1/GPa) = 0.02173756
#
# Stress axis : x y z
#
# Youngs Moduli (GPa) = 80.52619 66.23536 50.23946
#
# Poissons Ratio (x) = 0.13293 0.13497
# Poissons Ratio (y) = 0.16162 0.40935
# Poissons Ratio (z) = 0.21634 0.53969
#
# Static dielectric constant tensor:
#      x y z
#    x 4.329830 0.053460 -0.074990 
#    y 0.053460 3.708510 0.293120 
#    z -0.074990 0.293120 3.860140 
# 
# 
# High freq. dielectric constant tensor:
#      x y z
#    x 1.835020 0.008000 0.008220 
#    y 0.008000 1.816180 0.013110 
#    z 0.008220 0.013110 1.813660 
# 
# From -- ./inp_files/26975.got.cif
#   From: 2010.06.25/outbox.cif.g09.slc.cpg/sg2_14_cif.got.tgz:26975.got - 2010.06.27 13:26:56.
