data_PCOD8005654
_publ_section_title
;
Structure prediction by ZEFSAII (Michael W. Deem and Ramdas Pophale) SiO2 
 PCOD8005654
Probable space group: P -1
;
_chemical_formula_sum "Si O2"
_cell_formula_units_Z 14
_cell_length_a 9.931471
_cell_length_b 10.450143
_cell_length_c 11.257401
_cell_angle_alpha 88.659984
_cell_angle_beta 107.642024
_cell_angle_gamma 42.477568
_cell_volume 694.339601
_symmetry_space_group_name_H-M "P -1"
_symmetry_group_IT_number 2
_symmetry_cell_setting 'triclinic'
loop_
_space_group_symop_operation_xyz
x,y,z
-x,-y,-z
loop_
_atom_site_type_symbol
_atom_site_label
_atom_site_fract_x
_atom_site_fract_y
_atom_site_fract_z
Si Si1 0.745251 0.671555 0.601728
Si Si2 0.620536 0.373204 0.714176
Si Si3 0.835635 0.963840 0.782472
Si Si4 0.757494 0.936824 0.501122
Si Si5 0.171827 0.663395 0.457654
Si Si6 0.283417 0.607561 0.005749
Si Si7 0.014780 0.399394 0.116918
O O1 0.749941 0.787808 0.510490
O O2 0.794271 0.511948 0.542142
O O3 0.939976 0.547327 0.756152
O O4 0.498010 0.832347 0.594669
O O5 0.363663 0.581579 0.600354
O O6 0.800648 0.283691 0.661653
O O7 0.645826 0.203771 0.755790
O O8 0.678444 0.417913 0.842280
O O9 0.855488 0.929494 0.647312
O O10 0.791450 0.852422 0.831410
O O11 0.073769 0.846767 0.903287
O O12 0.922266 0.865688 0.440111
O O13 0.227183 0.502957 0.947346
O O14 0.500000 0.500000 0.000000
O O15 0.000000 0.500000 0.000000
#
# Coordination Sequence:
#
# PCOD8005654 Si02
#       7
#     2   2   2   2   2   2   2
#     4  10  20  39  61  88 122 156 203 256 294 365
#     4  11  22  39  58  90 125 157 205 247 305 360
#     4   9  20  38  60  84 119 161 194 253 295 363
#     4  10  20  39  61  91 118 159 205 242 314 352
#     4  11  23  37  62  91 125 160 197 256 298 366
#     4  10  21  39  63  85 117 164 204 243 302 369
#     4   9  20  38  62  85 117 158 199 251 304 348
#
# _framework density 20.163042000000001
#
# number of rings (size 3 to 8) (size 9 to 14) (size 15 to 20)
#    0.857    1.143    1.429    2.571    0.000    0.571 
#    5.143    0.000    0.000    2.571    0.000    0.000 
#    0.000    0.000    0.000    0.000    0.000    0.000 
#
# Total GULP energy -173459.757494 kJ/mol
# GULP energy per Si atom -12389.982678 kJ/mol
# Density = 2.011715 g / cm^3
# Si number density = 20.163042 Si / 1000 Ang^3
#
#
#
# Elastic Constant Matrix: (Units=GPa)
#
#
# Indices 1 2 3 4 5 6 
#
# 1 85.0455 25.1973 42.3486 4.9822 7.4343 -20.0877
# 2 25.1973 56.3211 24.5208 6.0379 1.1904 -18.7434
# 3 42.3486 24.5208 127.5412 7.4191 18.6435 -12.3980
# 4 4.9822 6.0379 7.4191 17.6882 3.7256 -2.8013
# 5 7.4343 1.1904 18.6435 3.7256 37.3786 1.6029
# 6 -20.0877 -18.7434 -12.3980 -2.8013 1.6029 34.2239
#
#
#
# Elastic Compliance Matrix: (Units=1/GPa)
#
#
# Indices 1 2 3 4 5 6 
#
# 1 0.016379 -0.003424 -0.003929 -0.000495 -0.001412 0.006341
# 2 -0.003424 0.024134 -0.002431 -0.004943 0.001195 0.009866
# 3 -0.003929 -0.002431 0.010323 -0.001492 -0.004149 0.000174
# 4 -0.000495 -0.004943 -0.001492 0.060317 -0.005082 0.001637
# 5 -0.001412 0.001195 -0.004149 -0.005082 0.029721 -0.003485
# 6 0.006341 0.009866 0.000174 0.001637 -0.003485 0.038705
#
#
# Mechanical properties :
#
#
# Convention : Reuss Voigt Hill
#
# Bulk Modulus (GPa) = 31.98163 50.33791 41.15977
# Shear Modulus (GPa) = 23.85841 29.64753 26.75297
#
# Velocity S-wave (km/s) = 3.44361 3.83873 3.64652
# Velocity P-wave (km/s) = 5.63091 6.68337 6.17959
#
# Compressibility (1/GPa) = 0.03126795
#
# Stress axis : x y z
#
# Youngs Moduli (GPa) = 61.05227 41.43567 96.87473
#
# Poissons Ratio (x) = 0.14189 0.38059
# Poissons Ratio (y) = 0.20906 0.23549
# Poissons Ratio (z) = 0.23986 0.10073
#
# Static dielectric constant tensor:
#      x y z
#    x 3.658930 0.058740 0.184590 
#    y 0.058740 3.319690 -0.107150 
#    z 0.184590 -0.107150 3.905070 
# 
# 
# High freq. dielectric constant tensor:
#      x y z
#    x 1.788750 0.013220 0.017150 
#    y 0.013220 1.750830 -0.008570 
#    z 0.017150 -0.008570 1.792290 
# 
# From -- ./inp_files/384855.got.cif
#   From: 2010.06.25/outbox.cif.g09.slc.cpg/sg2_193_cif.got.tgz:384855.got - 2010.06.27 13:26:56.
