data_PCOD8005338
_publ_section_title
;
Structure prediction by ZEFSAII (Michael W. Deem and Ramdas Pophale) SiO2 
 PCOD8005338
Probable space group: P -1
;
_chemical_formula_sum "Si O2"
_cell_formula_units_Z 16
_cell_length_a 8.499832
_cell_length_b 14.038228
_cell_length_c 9.505659
_cell_angle_alpha 120.048029
_cell_angle_beta 72.052155
_cell_angle_gamma 70.962164
_cell_volume 758.544872
_symmetry_space_group_name_H-M "P -1"
_symmetry_group_IT_number 2
_symmetry_cell_setting 'triclinic'
loop_
_space_group_symop_operation_xyz
x,y,z
-x,-y,-z
loop_
_atom_site_type_symbol
_atom_site_label
_atom_site_fract_x
_atom_site_fract_y
_atom_site_fract_z
Si Si1 0.840823 0.793270 0.429054
Si Si2 0.180663 0.524805 0.630728
Si Si3 0.821465 0.042190 0.684003
Si Si4 0.891430 0.771050 0.075705
Si Si5 0.530800 0.720975 0.451834
Si Si6 0.903610 0.015136 0.185400
Si Si7 0.417714 0.302870 0.902660
Si Si8 0.863525 0.449981 0.655668
O O1 0.745450 0.948439 0.605091
O O2 0.934809 0.749975 0.214705
O O3 0.652683 0.785055 0.496976
O O4 0.026589 0.697914 0.414763
O O5 0.392577 0.402771 0.552363
O O6 0.214654 0.551497 0.480280
O O7 0.024035 0.485792 0.639878
O O8 0.091377 0.657057 0.849540
O O9 0.641442 0.197523 0.823051
O O10 0.000000 0.000000 0.500000
O O11 0.905547 0.024598 0.802547
O O12 0.832847 0.916942 0.154406
O O13 0.706738 0.761109 0.083294
O O14 0.577153 0.665256 0.238697
O O15 0.291386 0.832090 0.621049
O O16 0.000000 0.000000 0.000000
O O17 0.326793 0.440554 0.115441
#
# Coordination Sequence:
#
# PCOD8005338 Si02
#       8
#     2   2   2   2   2   2   2   2
#     4  10  20  38  67  89 114 152 202 245 284 344
#     4   9  19  35  59  89 125 148 189 244 296 348
#     4  12  23  41  59  87 120 156 197 244 290 345
#     4  10  20  40  63  90 116 155 197 241 292 346
#     4  10  20  40  63  90 116 155 197 241 292 346
#     4  12  27  41  57  85 126 159 191 240 301 352
#     4  10  20  38  67  89 114 152 202 245 284 344
#     4   9  19  35  59  93 117 149 195 247 290 339
#
# _framework density 21.093015999999999
#
# number of rings (size 3 to 8) (size 9 to 14) (size 15 to 20)
#    0.000    1.750    2.500    1.500    3.500    5.000 
#    0.000    3.750    0.000    0.000    0.000    0.000 
#    0.000    0.000    0.000    0.000    0.000    0.000 
#
# Total GULP energy -198413.578850 kJ/mol
# GULP energy per Si atom -12400.848678 kJ/mol
# Density = 2.104501 g / cm^3
# Si number density = 21.093016 Si / 1000 Ang^3
#
#
#
# Elastic Constant Matrix: (Units=GPa)
#
#
# Indices 1 2 3 4 5 6 
#
# 1 40.8655 17.0335 9.3820 -6.7778 -1.8299 -19.3969
# 2 17.0335 107.8868 33.1216 -13.2808 -8.1416 -32.8188
# 3 9.3820 33.1216 81.1746 -14.8376 -4.8751 -12.0099
# 4 -6.7778 -13.2808 -14.8376 42.8474 -6.7040 -1.2084
# 5 -1.8299 -8.1416 -4.8751 -6.7040 27.5786 1.1904
# 6 -19.3969 -32.8188 -12.0099 -1.2084 1.1904 32.8550
#
#
#
# Elastic Compliance Matrix: (Units=1/GPa)
#
#
# Indices 1 2 3 4 5 6 
#
# 1 0.036465 0.003108 -0.000097 0.008054 0.004210 0.024741
# 2 0.003108 0.015805 -0.003042 0.005582 0.004977 0.016535
# 3 -0.000097 -0.003042 0.014965 0.004729 0.002785 0.002447
# 4 0.008054 0.005582 0.004729 0.029863 0.009725 0.012805
# 5 0.004210 0.004977 0.002785 0.009725 0.040547 0.007364
# 6 0.024741 0.016535 0.002447 0.012805 0.007364 0.062659
#
#
# Mechanical properties :
#
#
# Convention : Reuss Voigt Hill
#
# Bulk Modulus (GPa) = 14.88715 38.77788 26.83251
# Shear Modulus (GPa) = 22.44577 32.01552 27.23065
#
# Velocity S-wave (km/s) = 3.26564 3.90015 3.59692
# Velocity P-wave (km/s) = 4.61437 6.22139 5.47714
#
# Compressibility (1/GPa) = 0.06717204
#
# Stress axis : x y z
#
# Youngs Moduli (GPa) = 27.42348 63.27061 66.82092
#
# Poissons Ratio (x) = -0.19664 0.00650
# Poissons Ratio (y) = -0.08523 0.20330
# Poissons Ratio (z) = 0.00267 0.19250
#
# Static dielectric constant tensor:
#      x y z
#    x 3.348910 -0.014290 0.106380 
#    y -0.014290 3.651090 -0.400760 
#    z 0.106380 -0.400760 3.498880 
# 
# 
# High freq. dielectric constant tensor:
#      x y z
#    x 1.809180 -0.009990 0.004200 
#    y -0.009990 1.834270 -0.000440 
#    z 0.004200 -0.000440 1.830940 
# 
# From -- ./inp_files/184393.got.cif
#   From: 2010.06.25/outbox.cif.g09.slc.cpg/sg2_93_cif.got.tgz:184393.got - 2010.06.27 13:26:56.
