data_PCOD8005741
_publ_section_title
;
Structure prediction by ZEFSAII (Michael W. Deem and Ramdas Pophale) SiO2 
 PCOD8005741
Probable space group: P -1
;
_chemical_formula_sum "Si O2"
_cell_formula_units_Z 16
_cell_length_a 12.996350
_cell_length_b 8.842494
_cell_length_c 16.454382
_cell_angle_alpha 98.416671
_cell_angle_beta 38.341005
_cell_angle_gamma 126.100889
_cell_volume 736.052428
_symmetry_space_group_name_H-M "P -1"
_symmetry_group_IT_number 2
_symmetry_cell_setting 'triclinic'
loop_
_space_group_symop_operation_xyz
x,y,z
-x,-y,-z
loop_
_atom_site_type_symbol
_atom_site_label
_atom_site_fract_x
_atom_site_fract_y
_atom_site_fract_z
Si Si1 0.630580 0.209484 0.570066
Si Si2 0.868121 0.821697 0.366936
Si Si3 0.720212 0.611695 0.606993
Si Si4 0.161195 0.236878 0.972977
Si Si5 0.578765 0.316092 0.445147
Si Si6 0.894812 0.556472 0.630177
Si Si7 0.150495 0.690931 0.850752
Si Si8 0.381175 0.276102 0.004131
O O1 0.677831 0.404423 0.596684
O O2 0.529131 0.160484 0.536797
O O3 0.891876 0.289413 0.417370
O O4 0.417838 0.964031 0.735286
O O5 0.875512 0.821569 0.461109
O O6 0.720139 0.565033 0.411072
O O7 0.699677 0.843950 0.437800
O O8 0.171816 0.037078 0.170478
O O9 0.432582 0.477705 0.781172
O O10 0.874919 0.706129 0.605321
O O11 0.208148 0.202787 0.029497
O O12 0.020861 0.296328 0.079355
O O13 0.000000 0.000000 0.000000
O O14 0.784121 0.390289 0.262073
O O15 0.000000 0.500000 0.500000
O O16 0.613366 0.330339 0.831452
O O17 0.000000 0.500000 0.000000
O O18 0.500000 0.500000 0.000000
#
# Coordination Sequence:
#
# PCOD8005741 Si02
#       8
#     2   2   2   2   2   2   2   2
#     4  10  20  39  62  88 130 168 215 268 341 395
#     4  10  22  42  67  94 131 170 229 277 344 402
#     4   9  19  41  65  91 123 179 219 265 335 408
#     4  11  23  43  70  95 139 181 226 274 345 413
#     4  10  23  38  66  96 127 174 216 284 340 394
#     4   9  21  41  64  88 126 178 219 260 337 412
#     4  12  25  36  62 102 130 164 229 289 328 388
#     4  11  26  43  69 100 132 180 228 281 335 411
#
# _framework density 21.737580999999999
#
# number of rings (size 3 to 8) (size 9 to 14) (size 15 to 20)
#    0.000    1.750    1.250    1.875    8.750    0.000 
#    2.250    6.875    0.000    0.000    0.000    0.000 
#    0.000    0.000    0.000    0.000    0.000    0.000 
#
# Total GULP energy -198218.372864 kJ/mol
# GULP energy per Si atom -12388.648304 kJ/mol
# Density = 2.168810 g / cm^3
# Si number density = 21.737581 Si / 1000 Ang^3
#
#
#
# Elastic Constant Matrix: (Units=GPa)
#
#
# Indices 1 2 3 4 5 6 
#
# 1 133.0498 16.6898 65.9198 -6.9146 -7.9908 -17.4095
# 2 16.6898 45.7208 20.1968 3.1957 -2.3391 -2.0654
# 3 65.9198 20.1968 191.1901 -0.8230 2.1063 -24.1412
# 4 -6.9146 3.1957 -0.8230 40.5596 -9.2043 0.9547
# 5 -7.9908 -2.3391 2.1063 -9.2043 43.2119 6.8389
# 6 -17.4095 -2.0654 -24.1412 0.9547 6.8389 14.3570
#
#
#
# Elastic Compliance Matrix: (Units=1/GPa)
#
#
# Indices 1 2 3 4 5 6 
#
# 1 0.010088 -0.002415 -0.002295 0.001938 0.001092 0.007377
# 2 -0.002415 0.023733 -0.002134 -0.002001 0.001066 -0.003477
# 3 -0.002295 -0.002134 0.007705 -0.000996 -0.002919 0.011322
# 4 0.001938 -0.002001 -0.000996 0.026757 0.006725 -0.004596
# 5 0.001092 0.001066 -0.002919 0.006725 0.027677 -0.017062
# 6 0.007377 -0.003477 0.011322 -0.004596 -0.017062 0.105568
#
#
# Mechanical properties :
#
#
# Convention : Reuss Voigt Hill
#
# Bulk Modulus (GPa) = 35.92251 63.95263 49.93757
# Shear Modulus (GPa) = 22.27227 37.43599 29.85413
#
# Velocity S-wave (km/s) = 3.20441 4.15442 3.70995
# Velocity P-wave (km/s) = 5.50022 7.24544 6.43229
#
# Compressibility (1/GPa) = 0.02783769
#
# Stress axis : x y z
#
# Youngs Moduli (GPa) = 99.13195 42.13483 129.79156
#
# Poissons Ratio (x) = 0.10175 0.29790
# Poissons Ratio (y) = 0.23938 0.27697
# Poissons Ratio (z) = 0.22753 0.08991
#
# Static dielectric constant tensor:
#      x y z
#    x 5.218910 0.160940 -0.011340 
#    y 0.160940 3.821350 0.175110 
#    z -0.011340 0.175110 4.290970 
# 
# 
# High freq. dielectric constant tensor:
#      x y z
#    x 1.864510 -0.001200 -0.004570 
#    y -0.001200 1.835780 0.011280 
#    z -0.004570 0.011280 1.867020 
# 
# From -- ./inp_files/565911.got.cif
#   From: 2010.06.25/outbox.cif.g09.slc.cpg/sg2_283_cif.got.tgz:565911.got - 2010.06.27 13:26:56.
