data_PCOD8005217
_publ_section_title
;
Structure prediction by ZEFSAII (Michael W. Deem and Ramdas Pophale) SiO2 
 PCOD8005217
Probable space group: P -1
;
_chemical_formula_sum "Si O2"
_cell_formula_units_Z 12
_cell_length_a 11.478577
_cell_length_b 12.109965
_cell_length_c 18.414571
_cell_angle_alpha 150.980913
_cell_angle_beta 141.265162
_cell_angle_gamma 25.584637
_cell_volume 535.771453
_symmetry_space_group_name_H-M "P -1"
_symmetry_group_IT_number 2
_symmetry_cell_setting 'triclinic'
loop_
_space_group_symop_operation_xyz
x,y,z
-x,-y,-z
loop_
_atom_site_type_symbol
_atom_site_label
_atom_site_fract_x
_atom_site_fract_y
_atom_site_fract_z
Si Si1 0.658536 0.283451 0.633869
Si Si2 0.167468 0.566456 0.779656
Si Si3 0.207793 0.335746 0.074234
Si Si4 0.310210 0.848836 0.270706
Si Si5 0.018997 0.798525 0.995656
Si Si6 0.905765 0.401484 0.494984
O O1 0.769675 0.430001 0.747585
O O2 0.572740 0.379162 0.731808
O O3 0.394422 0.432862 0.547927
O O4 0.906649 0.886136 0.517572
O O5 0.449459 0.207539 0.679307
O O6 0.917956 0.659312 0.670310
O O7 0.173133 0.829220 0.913468
O O8 0.147208 0.551879 0.847808
O O9 0.132588 0.245872 0.053569
O O10 0.000000 0.500000 0.000000
O O11 0.500000 0.000000 0.000000
O O12 0.255256 0.701455 0.101308
O O13 0.043254 0.231959 0.384597
#
# Coordination Sequence:
#
# PCOD8005217 Si02
#       6
#     2   2   2   2   2   2
#     4  10  22  40  66  98 122 168 229 264 316 370
#     4  11  24  42  60 100 140 171 212 263 342 394
#     4  12  22  43  69  96 129 166 227 272 317 381
#     4  10  20  38  65  94 127 167 219 262 318 378
#     4  11  25  40  66  98 134 173 212 278 329 384
#     4  10  23  41  67  95 132 173 216 267 319 391
#
# _framework density 22.397608999999999
#
# number of rings (size 3 to 8) (size 9 to 14) (size 15 to 20)
#    1.000    0.333    1.667    5.000    2.333    1.333 
#    0.000    1.667    0.000    0.000    0.000    0.000 
#    0.000    0.000    0.000    0.000    0.000    0.000 
#
# Total GULP energy -148708.846937 kJ/mol
# GULP energy per Si atom -12392.403911 kJ/mol
# Density = 2.234663 g / cm^3
# Si number density = 22.397609 Si / 1000 Ang^3
#
#
#
# Elastic Constant Matrix: (Units=GPa)
#
#
# Indices 1 2 3 4 5 6 
#
# 1 136.6507 40.8217 45.5410 -7.2147 19.8512 11.2963
# 2 40.8217 111.2017 23.4680 -14.7426 10.5670 -15.6831
# 3 45.5410 23.4680 103.7148 -23.5800 17.5558 1.2585
# 4 -7.2147 -14.7426 -23.5800 36.3707 -4.2934 6.9277
# 5 19.8512 10.5670 17.5558 -4.2934 25.0920 -8.3125
# 6 11.2963 -15.6831 1.2585 6.9277 -8.3125 26.3846
#
#
#
# Elastic Compliance Matrix: (Units=1/GPa)
#
#
# Indices 1 2 3 4 5 6 
#
# 1 0.011589 -0.004336 -0.002506 -0.000203 -0.009004 -0.010203
# 2 -0.004336 0.012128 -0.000912 0.001967 0.002393 0.009346
# 3 -0.002506 -0.000912 0.014212 0.008344 -0.007731 -0.004773
# 4 -0.000203 0.001967 0.008344 0.035038 -0.003656 -0.009493
# 5 -0.009004 0.002393 -0.007731 -0.003656 0.059110 0.025229
# 6 -0.010203 0.009346 -0.004773 -0.009493 0.025229 0.058493
#
#
# Mechanical properties :
#
#
# Convention : Reuss Voigt Hill
#
# Bulk Modulus (GPa) = 44.59777 63.46984 54.03381
# Shear Modulus (GPa) = 23.41359 33.68524 28.54941
#
# Velocity S-wave (km/s) = 3.23671 3.88231 3.57412
# Velocity P-wave (km/s) = 5.82439 6.96389 6.41947
#
# Compressibility (1/GPa) = 0.02242264
#
# Stress axis : x y z
#
# Youngs Moduli (GPa) = 86.28923 82.45251 70.36317
#
# Poissons Ratio (x) = 0.35748 0.17632
# Poissons Ratio (y) = 0.37412 0.06416
# Poissons Ratio (z) = 0.21622 0.07518
#
# Static dielectric constant tensor:
#      x y z
#    x 3.974400 0.040900 0.285970 
#    y 0.040900 3.902910 -0.005820 
#    z 0.285970 -0.005820 3.999050 
# 
# 
# High freq. dielectric constant tensor:
#      x y z
#    x 1.860050 -0.004230 0.016800 
#    y -0.004230 1.886710 -0.007430 
#    z 0.016800 -0.007430 1.877880 
# 
# From -- ./inp_files/481504.got.cif
#   From: 2010.06.25/outbox.cif.g09.slc.cpg/sg2_241_cif.got.tgz:481504.got - 2010.06.27 13:26:56.
