data_PCOD8005410
_publ_section_title
;
Structure prediction by ZEFSAII (Michael W. Deem and Ramdas Pophale) SiO2 
 PCOD8005410
Probable space group: P -1
;
_chemical_formula_sum "Si O2"
_cell_formula_units_Z 16
_cell_length_a 20.080165
_cell_length_b 10.300176
_cell_length_c 8.605188
_cell_angle_alpha 82.160696
_cell_angle_beta 60.500917
_cell_angle_gamma 34.109511
_cell_volume 722.117571
_symmetry_space_group_name_H-M "P -1"
_symmetry_group_IT_number 2
_symmetry_cell_setting 'triclinic'
loop_
_space_group_symop_operation_xyz
x,y,z
-x,-y,-z
loop_
_atom_site_type_symbol
_atom_site_label
_atom_site_fract_x
_atom_site_fract_y
_atom_site_fract_z
Si Si1 0.249822 0.163734 0.323926
Si Si2 0.429835 0.249785 0.075782
Si Si3 0.816841 0.002410 0.442115
Si Si4 0.220546 0.065536 0.838288
Si Si5 0.437702 0.397035 0.352273
Si Si6 0.116042 0.481425 0.734593
Si Si7 0.660998 0.677368 0.330881
Si Si8 0.821485 0.493775 0.856097
O O1 0.181230 0.355645 0.509729
O O2 0.203595 0.314888 0.196168
O O3 0.171810 0.137011 0.427578
O O4 0.447158 0.845264 0.152982
O O5 0.440117 0.282165 0.235550
O O6 0.241023 0.521616 0.194801
O O7 0.500000 0.000000 0.000000
O O8 0.682819 0.305354 0.608816
O O9 0.767640 0.028191 0.323331
O O10 0.990156 0.813424 0.271463
O O11 0.179955 0.278572 0.819183
O O12 0.386473 0.804297 0.787073
O O13 0.079822 0.216362 0.083931
O O14 0.374837 0.422143 0.578682
O O15 0.189800 0.507764 0.698518
O O16 0.500000 0.000000 0.500000
O O17 0.708230 0.632685 0.108482
#
# Coordination Sequence:
#
# PCOD8005410 Si02
#       8
#     2   2   2   2   2   2   2   2
#     4  10  22  41  69  95 132 171 212 271 324 391
#     4  10  23  42  66  98 128 168 220 270 323 388
#     4  11  25  44  64  98 134 176 215 265 336 386
#     4  10  22  41  65  99 131 161 225 275 315 389
#     4  12  26  43  68  93 136 177 215 267 330 393
#     4  10  20  38  69 100 122 167 223 274 326 370
#     4  12  21  38  70  96 123 170 219 277 319 373
#     4  11  23  42  67  96 134 165 223 275 316 388
#
# _framework density 22.157056999999998
#
# number of rings (size 3 to 8) (size 9 to 14) (size 15 to 20)
#    0.000    1.250    2.500    4.500    1.750    2.500 
#    0.000    0.000    0.000    0.000    0.000    0.000 
#    0.000    0.000    0.000    0.000    0.000    0.000 
#
# Total GULP energy -198330.543358 kJ/mol
# GULP energy per Si atom -12395.658960 kJ/mol
# Density = 2.210663 g / cm^3
# Si number density = 22.157057 Si / 1000 Ang^3
#
#
#
# Elastic Constant Matrix: (Units=GPa)
#
#
# Indices 1 2 3 4 5 6 
#
# 1 107.9298 39.1077 41.4333 14.9942 -9.0067 -31.4303
# 2 39.1077 78.8562 46.3016 15.0885 -1.7532 -15.3944
# 3 41.4333 46.3016 128.8612 -1.5649 -12.5418 -16.0435
# 4 14.9942 15.0885 -1.5649 36.0394 -10.5298 -10.3446
# 5 -9.0067 -1.7532 -12.5418 -10.5298 35.9742 10.0507
# 6 -31.4303 -15.3944 -16.0435 -10.3446 10.0507 30.8983
#
#
#
# Elastic Compliance Matrix: (Units=1/GPa)
#
#
# Indices 1 2 3 4 5 6 
#
# 1 0.015090 -0.003501 -0.002195 -0.001708 -0.001079 0.012244
# 2 -0.003501 0.020010 -0.006404 -0.008100 -0.005069 0.002019
# 3 -0.002195 -0.006404 0.011390 0.005672 0.004512 0.000922
# 4 -0.001708 -0.008100 0.005672 0.036856 0.010214 0.006189
# 5 -0.001079 -0.005069 0.004512 0.010214 0.034369 -0.009040
# 6 0.012244 0.002019 0.000922 0.006189 -0.009040 0.051317
#
#
# Mechanical properties :
#
#
# Convention : Reuss Voigt Hill
#
# Bulk Modulus (GPa) = 44.86780 63.25916 54.06348
# Shear Modulus (GPa) = 24.91762 33.16936 29.04349
#
# Velocity S-wave (km/s) = 3.35713 3.87332 3.62443
# Velocity P-wave (km/s) = 5.94314 6.97250 6.47830
#
# Compressibility (1/GPa) = 0.02228770
#
# Stress axis : x y z
#
# Youngs Moduli (GPa) = 66.27104 49.97615 87.79676
#
# Poissons Ratio (x) = 0.17499 0.19271
# Poissons Ratio (y) = 0.23205 0.56227
# Poissons Ratio (z) = 0.14546 0.32006
#
# Static dielectric constant tensor:
#      x y z
#    x 4.302930 -0.282690 -0.469530 
#    y -0.282690 3.694180 0.064130 
#    z -0.469530 0.064130 4.436220 
# 
# 
# High freq. dielectric constant tensor:
#      x y z
#    x 1.872640 -0.021840 -0.019800 
#    y -0.021840 1.829420 0.003230 
#    z -0.019800 0.003230 1.892310 
# 
# From -- ./inp_files/353465.got.cif
#   From: 2010.06.25/outbox.cif.g09.slc.cpg/sg2_177_cif.got.tgz:353465.got - 2010.06.27 13:26:56.
