data_PCOD8005774
_publ_section_title
;
Structure prediction by ZEFSAII (Michael W. Deem and Ramdas Pophale) SiO2 
 PCOD8005774
Probable space group: P -1
;
_chemical_formula_sum "Si O2"
_cell_formula_units_Z 10
_cell_length_a 15.189910
_cell_length_b 7.799891
_cell_length_c 10.822826
_cell_angle_alpha 56.255022
_cell_angle_beta 23.661923
_cell_angle_gamma 63.265376
_cell_volume 421.198700
_symmetry_space_group_name_H-M "P -1"
_symmetry_group_IT_number 2
_symmetry_cell_setting 'triclinic'
loop_
_space_group_symop_operation_xyz
x,y,z
-x,-y,-z
loop_
_atom_site_type_symbol
_atom_site_label
_atom_site_fract_x
_atom_site_fract_y
_atom_site_fract_z
Si Si1 0.593413 0.796173 0.669353
Si Si2 0.735988 0.663820 0.289598
Si Si3 0.011357 0.180635 0.315189
Si Si4 0.141680 0.522691 0.432238
Si Si5 0.232004 0.776392 0.615578
O O1 0.584931 0.754096 0.548956
O O2 0.783431 0.693092 0.536086
O O3 0.642332 0.045611 0.526911
O O4 0.355118 0.704894 0.068563
O O5 0.635232 0.418881 0.489138
O O6 0.765297 0.793120 0.069697
O O7 0.983992 0.682770 0.024284
O O8 0.010112 0.401025 0.297030
O O9 0.793690 0.128023 0.527052
O O10 0.000000 0.000000 0.500000
O O11 0.000000 0.500000 0.500000
#
# Coordination Sequence:
#
# PCOD8005774 Si02
#       5
#     2   2   2   2   2
#     4  11  21  41  71  91 125 177 210 260 327 377
#     4   9  19  39  64  95 123 170 216 253 316 391
#     4  10  20  39  62  92 132 166 205 268 317 368
#     4  11  24  41  61 100 133 160 219 271 313 380
#     4   9  18  36  68  90 125 165 216 255 317 383
#
# _framework density 23.741764
#
# number of rings (size 3 to 8) (size 9 to 14) (size 15 to 20)
#    1.200    0.800    2.000    1.800    0.000    0.800 
#    3.600    2.000    0.000    0.000    0.000    0.000 
#    0.000    0.000    0.000    0.000    0.000    0.000 
#
# Total GULP energy -123910.991729 kJ/mol
# GULP energy per Si atom -12391.099173 kJ/mol
# Density = 2.368773 g / cm^3
# Si number density = 23.741764 Si / 1000 Ang^3
#
#
#
# Elastic Constant Matrix: (Units=GPa)
#
#
# Indices 1 2 3 4 5 6 
#
# 1 92.6238 48.1110 32.5352 1.7038 33.2801 0.6382
# 2 48.1110 137.0765 29.2508 -30.1749 11.5318 32.4125
# 3 32.5352 29.2508 45.9328 -10.1902 23.1694 7.2153
# 4 1.7038 -30.1749 -10.1902 34.5910 1.8288 7.6257
# 5 33.2801 11.5318 23.1694 1.8288 43.4917 -1.1099
# 6 0.6382 32.4125 7.2153 7.6257 -1.1099 43.9948
#
#
#
# Elastic Compliance Matrix: (Units=1/GPa)
#
#
# Indices 1 2 3 4 5 6 
#
# 1 0.024781 -0.012983 -0.011446 -0.018588 -0.008281 0.014096
# 2 -0.012983 0.021220 0.004124 0.024837 0.000546 -0.020413
# 3 -0.011446 0.004124 0.041928 0.020368 -0.015877 -0.013680
# 4 -0.018588 0.024837 0.020368 0.065085 -0.006787 -0.032822
# 5 -0.008281 0.000546 -0.015877 -0.006787 0.038043 0.004458
# 6 0.014096 -0.020413 -0.013680 -0.032822 0.004458 0.045610
#
#
# Mechanical properties :
#
#
# Convention : Reuss Voigt Hill
#
# Bulk Modulus (GPa) = 21.13281 55.04747 38.09014
# Shear Modulus (GPa) = 17.06196 35.46457 26.26327
#
# Velocity S-wave (km/s) = 2.68367 3.86912 3.32957
# Velocity P-wave (km/s) = 4.30386 6.57239 5.55516
#
# Compressibility (1/GPa) = 0.04731978
#
# Stress axis : x y z
#
# Youngs Moduli (GPa) = 40.35371 47.12486 23.85032
#
# Poissons Ratio (x) = 0.61184 0.27298
# Poissons Ratio (y) = 0.52393 -0.09836
# Poissons Ratio (z) = 0.46187 -0.19435
#
# Static dielectric constant tensor:
#      x y z
#    x 4.091380 0.096500 0.269920 
#    y 0.096500 4.243870 0.111990 
#    z 0.269920 0.111990 3.958540 
# 
# 
# High freq. dielectric constant tensor:
#      x y z
#    x 1.931900 0.010900 0.024870 
#    y 0.010900 1.939610 -0.001120 
#    z 0.024870 -0.001120 1.916210 
# 
# From -- ./inp_files/174240.got.cif
#   From: 2010.06.25/outbox.cif.g09.slc.cpg/sg2_88_cif.got.tgz:174240.got - 2010.06.27 13:26:56.
