data_PCOD8005197
_publ_section_title
;
Structure prediction by ZEFSAII (Michael W. Deem and Ramdas Pophale) SiO2 
 PCOD8005197
Probable space group: P -1
;
_chemical_formula_sum "Si O2"
_cell_formula_units_Z 16
_cell_length_a 13.408793
_cell_length_b 7.843586
_cell_length_c 8.999205
_cell_angle_alpha 50.003545
_cell_angle_beta 87.588693
_cell_angle_gamma 97.189028
_cell_volume 709.972438
_symmetry_space_group_name_H-M "P -1"
_symmetry_group_IT_number 2
_symmetry_cell_setting 'triclinic'
loop_
_space_group_symop_operation_xyz
x,y,z
-x,-y,-z
loop_
_atom_site_type_symbol
_atom_site_label
_atom_site_fract_x
_atom_site_fract_y
_atom_site_fract_z
Si Si1 0.265767 0.066880 0.939707
Si Si2 0.766560 0.345682 0.047850
Si Si3 0.333133 0.862090 0.323829
Si Si4 0.178830 0.439217 0.592128
Si Si5 0.544237 0.758711 0.332889
Si Si6 0.866571 0.739865 0.631340
Si Si7 0.384409 0.951234 0.586079
Si Si8 0.906270 0.263125 0.341812
O O1 0.191607 0.242149 0.818709
O O2 0.384697 0.186272 0.844937
O O3 0.227658 0.848506 0.963453
O O4 0.264852 0.993329 0.152727
O O5 0.659323 0.279923 0.185030
O O6 0.859397 0.367329 0.144863
O O7 0.777547 0.580004 0.823533
O O8 0.290171 0.591732 0.466419
O O9 0.452814 0.899639 0.251888
O O10 0.316278 0.943354 0.447538
O O11 0.132656 0.329262 0.503329
O O12 0.110470 0.600680 0.582629
O O13 0.500000 0.500000 0.500000
O O14 0.621865 0.838456 0.422838
O O15 0.974133 0.710007 0.708604
O O16 0.852446 0.997396 0.505448
O O17 0.500000 0.000000 0.500000
#
# Coordination Sequence:
#
# PCOD8005197 Si02
#       8
#     2   2   2   2   2   2   2   2
#     4  11  23  39  66  96 134 179 226 275 332 405
#     4  11  21  43  69  97 135 179 223 279 339 402
#     4  11  21  41  63  93 134 177 222 271 337 398
#     4  12  23  43  68  98 138 175 225 283 343 401
#     4  10  20  38  65  92 132 177 218 274 333 397
#     4  11  25  46  71  98 137 178 227 283 350 406
#     4   9  21  40  65  95 135 167 222 279 320 399
#     4  11  25  45  69 101 137 177 227 287 342 411
#
# _framework density 22.536086000000001
#
# number of rings (size 3 to 8) (size 9 to 14) (size 15 to 20)
#    0.000    1.250    5.000    1.125    0.000    1.000 
#    0.000    1.250    0.000    0.000    0.000    0.000 
#    0.000    0.000    0.000    0.000    0.000    0.000 
#
# Total GULP energy -198273.476534 kJ/mol
# GULP energy per Si atom -12392.092283 kJ/mol
# Density = 2.248479 g / cm^3
# Si number density = 22.536086 Si / 1000 Ang^3
#
#
#
# Elastic Constant Matrix: (Units=GPa)
#
#
# Indices 1 2 3 4 5 6 
#
# 1 47.9335 22.5536 16.4734 1.6140 -2.5798 2.0060
# 2 22.5536 107.3083 63.7184 1.8733 5.6702 9.4788
# 3 16.4734 63.7184 142.2246 3.7187 5.0467 4.0937
# 4 1.6140 1.8733 3.7187 34.5369 5.2996 1.8525
# 5 -2.5798 5.6702 5.0467 5.2996 34.7104 2.0319
# 6 2.0060 9.4788 4.0937 1.8525 2.0319 32.7060
#
#
#
# Elastic Compliance Matrix: (Units=1/GPa)
#
#
# Indices 1 2 3 4 5 6 
#
# 1 0.023480 -0.004630 -0.000710 -0.001192 0.002793 -0.000115
# 2 -0.004630 0.013951 -0.005580 0.000483 -0.001711 -0.002982
# 3 -0.000710 -0.005580 0.009632 -0.000657 -0.000472 0.000522
# 4 -0.001192 0.000483 -0.000657 0.029827 -0.004545 -0.001392
# 5 0.002793 -0.001711 -0.000472 -0.004545 0.030131 -0.001231
# 6 -0.000115 -0.002982 0.000522 -0.001392 -0.001231 0.031537
#
#
# Mechanical properties :
#
#
# Convention : Reuss Voigt Hill
#
# Bulk Modulus (GPa) = 39.64604 55.88413 47.76508
# Shear Modulus (GPa) = 29.61993 33.37206 31.49600
#
# Velocity S-wave (km/s) = 3.62931 3.85233 3.74248
# Velocity P-wave (km/s) = 5.93236 6.68122 6.31790
#
# Compressibility (1/GPa) = 0.02522320
#
# Stress axis : x y z
#
# Youngs Moduli (GPa) = 42.58943 71.68095 103.81908
#
# Poissons Ratio (x) = 0.33188 0.07371
# Poissons Ratio (y) = 0.19719 0.57930
# Poissons Ratio (z) = 0.03024 0.39997
#
# Static dielectric constant tensor:
#      x y z
#    x 4.046710 0.249510 -0.105460 
#    y 0.249510 4.419000 0.259720 
#    z -0.105460 0.259720 4.224130 
# 
# 
# High freq. dielectric constant tensor:
#      x y z
#    x 1.877680 0.017490 -0.010220 
#    y 0.017490 1.898060 0.006930 
#    z -0.010220 0.006930 1.883040 
# 
# From -- ./inp_files/297291.got.cif
#   From: 2010.06.25/outbox.cif.g09.slc.cpg/sg2_149_cif.got.tgz:297291.got - 2010.06.27 13:26:56.
