data_PCOD8005996
_publ_section_title
;
Structure prediction by ZEFSAII (Michael W. Deem and Ramdas Pophale) SiO2 
 PCOD8005996
Probable space group: P -1
;
_chemical_formula_sum "Si O2"
_cell_formula_units_Z 16
_cell_length_a 7.161253
_cell_length_b 11.275298
_cell_length_c 9.405427
_cell_angle_alpha 124.464803
_cell_angle_beta 90.392587
_cell_angle_gamma 99.309897
_cell_volume 613.358280
_symmetry_space_group_name_H-M "P -1"
_symmetry_group_IT_number 2
_symmetry_cell_setting 'triclinic'
loop_
_space_group_symop_operation_xyz
x,y,z
-x,-y,-z
loop_
_atom_site_type_symbol
_atom_site_label
_atom_site_fract_x
_atom_site_fract_y
_atom_site_fract_z
Si Si1 0.649550 0.954071 0.618325
Si Si2 0.238048 0.308899 0.672853
Si Si3 0.091398 0.262926 0.927540
Si Si4 0.986006 0.067534 0.265142
Si Si5 0.923897 0.306884 0.227775
Si Si6 0.383324 0.511741 0.231261
Si Si7 0.277051 0.474896 0.504337
Si Si8 0.743023 0.189511 0.558972
O O1 0.696338 0.846255 0.420153
O O2 0.424168 0.899339 0.608813
O O3 0.787430 0.938026 0.740671
O O4 0.710694 0.119440 0.669336
O O5 0.067033 0.304425 0.787039
O O6 0.416384 0.434383 0.811028
O O7 0.209035 0.344236 0.529638
O O8 0.128364 0.098794 0.835269
O O9 0.916708 0.292593 0.045022
O O10 0.285302 0.363161 0.055017
O O11 0.940726 0.162275 0.469610
O O12 0.927205 0.143833 0.175435
O O13 0.114268 0.426187 0.347625
O O14 0.741140 0.366229 0.323877
O O15 0.448785 0.490761 0.389369
O O16 0.256683 0.638105 0.318163
#
# Coordination Sequence:
#
# PCOD8005996 Si02
#       8
#     2   2   2   2   2   2   2   2
#     4  10  22  38  66 101 119 169 219 268 310 379
#     4  11  21  39  65  95 128 163 218 267 318 380
#     4  11  25  39  61  96 129 173 203 261 339 377
#     4  12  21  43  68  90 131 169 217 261 319 381
#     4  10  22  40  61  90 128 169 212 262 318 381
#     4  10  22  42  64  91 131 169 208 267 322 376
#     4  10  20  39  64  92 119 167 223 261 307 382
#     4  10  21  40  67  94 128 163 221 266 313 375
#
# _framework density 26.085896000000002
#
# number of rings (size 3 to 8) (size 9 to 14) (size 15 to 20)
#    0.000    1.500    3.750    1.500    0.000    0.500 
#    2.250    0.000    0.000    2.250    0.000    0.000 
#    0.000    0.000    0.000    0.000    0.000    0.000 
#
# Total GULP energy -198232.693351 kJ/mol
# GULP energy per Si atom -12389.543334 kJ/mol
# Density = 2.602652 g / cm^3
# Si number density = 26.085896 Si / 1000 Ang^3
#
#
#
# Elastic Constant Matrix: (Units=GPa)
#
#
# Indices 1 2 3 4 5 6 
#
# 1 57.6882 27.9786 -1.3155 -0.6778 -20.1841 -4.2702
# 2 27.9786 163.6364 52.8304 -2.2528 -10.6224 -0.0360
# 3 -1.3155 52.8304 99.5359 -19.0525 -15.5309 4.0479
# 4 -0.6778 -2.2528 -19.0525 53.5422 10.7331 -0.9935
# 5 -20.1841 -10.6224 -15.5309 10.7331 29.4155 -1.9515
# 6 -4.2702 -0.0360 4.0479 -0.9935 -1.9515 37.9009
#
#
#
# Elastic Compliance Matrix: (Units=1/GPa)
#
#
# Indices 1 2 3 4 5 6 
#
# 1 0.027698 -0.005318 0.005982 -0.001925 0.021179 0.003517
# 2 -0.005318 0.008500 -0.005227 -0.000973 -0.002999 -0.000213
# 3 0.005982 -0.005227 0.014945 0.003394 0.008844 -0.000383
# 4 -0.001925 -0.000973 0.003394 0.021355 -0.007700 -0.000417
# 5 0.021179 -0.002999 0.008844 -0.007700 0.055195 0.004079
# 6 0.003517 -0.000213 -0.000383 -0.000417 0.004079 0.027021
#
#
# Mechanical properties :
#
#
# Convention : Reuss Voigt Hill
#
# Bulk Modulus (GPa) = 23.80001 53.31639 38.55820
# Shear Modulus (GPa) = 28.11422 40.26285 34.18854
#
# Velocity S-wave (km/s) = 3.28648 3.93297 3.62417
# Velocity P-wave (km/s) = 4.85230 6.41151 5.68561
#
# Compressibility (1/GPa) = 0.04201678
#
# Stress axis : x y z
#
# Youngs Moduli (GPa) = 36.10352 117.64872 66.91081
#
# Poissons Ratio (x) = 0.62565 -0.40025
# Poissons Ratio (y) = 0.19200 0.34975
# Poissons Ratio (z) = -0.21597 0.61497
#
# Static dielectric constant tensor:
#      x y z
#    x 4.943360 0.140260 0.086250 
#    y 0.140260 4.887540 -0.071910 
#    z 0.086250 -0.071910 4.550100 
# 
# 
# High freq. dielectric constant tensor:
#      x y z
#    x 2.049110 0.018190 0.013300 
#    y 0.018190 2.066100 0.001730 
#    z 0.013300 0.001730 2.024950 
# 
# From -- ./inp_files/190714.got.cif
#   From: 2010.06.25/outbox.cif.g09.slc.cpg/sg2_96_cif.got.tgz:190714.got - 2010.06.27 13:26:56.
