data_PCOD8005108
_publ_section_title
;
Structure prediction by ZEFSAII (Michael W. Deem and Ramdas Pophale) SiO2 
 PCOD8005108
Probable space group: P -1
;
_chemical_formula_sum "Si O2"
_cell_formula_units_Z 14
_cell_length_a 11.693828
_cell_length_b 8.992303
_cell_length_c 12.169102
_cell_angle_alpha 93.275137
_cell_angle_beta 107.965135
_cell_angle_gamma 140.567092
_cell_volume 674.487820
_symmetry_space_group_name_H-M "P -1"
_symmetry_group_IT_number 2
_symmetry_cell_setting 'triclinic'
loop_
_space_group_symop_operation_xyz
x,y,z
-x,-y,-z
loop_
_atom_site_type_symbol
_atom_site_label
_atom_site_fract_x
_atom_site_fract_y
_atom_site_fract_z
Si Si1 0.648544 0.950261 0.681732
Si Si2 0.447853 0.322126 0.155476
Si Si3 0.764234 0.925579 0.492173
Si Si4 0.631820 0.989290 0.069869
Si Si5 0.216850 0.383078 0.566442
Si Si6 0.084968 0.511123 0.135703
Si Si7 0.572308 0.367378 0.803340
O O1 0.766631 0.007182 0.613305
O O2 0.731001 0.201353 0.737879
O O3 0.705490 0.907739 0.804090
O O4 0.384758 0.676084 0.575163
O O5 0.696616 0.572436 0.283518
O O6 0.381414 0.424459 0.119236
O O7 0.431021 0.212707 0.034821
O O8 0.975662 0.199662 0.498240
O O9 0.781426 0.765873 0.512337
O O10 0.548632 0.742284 0.353452
O O11 0.887279 0.284217 0.151280
O O12 0.573976 0.886070 0.172123
O O13 0.500000 0.000000 0.000000
O O14 0.193408 0.464997 0.138215
O O15 0.000000 0.500000 0.000000
#
# Coordination Sequence:
#
# PCOD8005108 Si02
#       7
#     2   2   2   2   2   2   2
#     4  10  21  39  67  89 127 163 201 252 311 379
#     4   9  21  42  65  97 119 162 210 258 308 362
#     4  10  20  38  64  95 124 162 201 256 312 365
#     4  12  24  44  67  86 129 168 208 260 312 373
#     4   8  19  37  62  94 123 158 201 248 313 371
#     4  12  24  44  62  91 123 174 209 251 323 367
#     4  11  25  41  62  95 130 155 216 262 300 376
#
# _framework density 20.756488999999998
#
# number of rings (size 3 to 8) (size 9 to 14) (size 15 to 20)
#    0.857    0.857    2.857    0.857    2.000    2.286 
#    5.143    1.429    0.000    0.000    0.000    0.000 
#    0.000    0.000    0.000    0.000    0.000    0.000 
#
# Total GULP energy -173553.983492 kJ/mol
# GULP energy per Si atom -12396.713107 kJ/mol
# Density = 2.070925 g / cm^3
# Si number density = 20.756489 Si / 1000 Ang^3
#
#
#
# Elastic Constant Matrix: (Units=GPa)
#
#
# Indices 1 2 3 4 5 6 
#
# 1 128.3893 43.6888 32.4064 11.3095 3.7584 6.6734
# 2 43.6888 91.9363 3.7132 13.1066 -2.7378 6.1417
# 3 32.4064 3.7132 53.3374 8.2915 -14.9733 -1.0059
# 4 11.3095 13.1066 8.2915 42.1428 -2.3321 -2.8740
# 5 3.7584 -2.7378 -14.9733 -2.3321 31.1311 3.6306
# 6 6.6734 6.1417 -1.0059 -2.8740 3.6306 33.3882
#
#
#
# Elastic Compliance Matrix: (Units=1/GPa)
#
#
# Indices 1 2 3 4 5 6 
#
# 1 0.012073 -0.005462 -0.008614 -0.000248 -0.005979 -0.001039
# 2 -0.005462 0.014083 0.003916 -0.003620 0.003755 -0.002101
# 3 -0.008614 0.003916 0.028434 -0.003686 0.014792 -0.000068
# 4 -0.000248 -0.003620 -0.003686 0.025817 -0.000463 0.002877
# 5 -0.005979 0.003755 0.014792 -0.000463 0.040664 -0.003512
# 6 -0.001039 -0.002101 -0.000068 0.002877 -0.003512 0.031172
#
#
# Mechanical properties :
#
#
# Convention : Reuss Voigt Hill
#
# Bulk Modulus (GPa) = 29.18179 48.14220 38.66200
# Shear Modulus (GPa) = 27.17576 34.25606 30.71591
#
# Velocity S-wave (km/s) = 3.62230 4.06689 3.85102
# Velocity P-wave (km/s) = 5.62000 6.73030 6.20006
#
# Compressibility (1/GPa) = 0.03426795
#
# Stress axis : x y z
#
# Youngs Moduli (GPa) = 82.83133 71.00796 35.16897
#
# Poissons Ratio (x) = 0.38788 0.30295
# Poissons Ratio (y) = 0.45246 -0.13771
# Poissons Ratio (z) = 0.71353 -0.27805
#
# Static dielectric constant tensor:
#      x y z
#    x 3.629710 0.022150 -0.086730 
#    y 0.022150 3.792040 0.159960 
#    z -0.086730 0.159960 3.541210 
# 
# 
# High freq. dielectric constant tensor:
#      x y z
#    x 1.805220 0.003890 -0.014550 
#    y 0.003890 1.809870 0.013200 
#    z -0.014550 0.013200 1.799970 
# 
# From -- ./inp_files/417605.got.cif
#   From: 2010.06.25/outbox.cif.g09.slc.cpg/sg2_209_cif.got.tgz:417605.got - 2010.06.27 13:26:56.
