data_PCOD8005847
_publ_section_title
;
Structure prediction by ZEFSAII (Michael W. Deem and Ramdas Pophale) SiO2 
 PCOD8005847
Probable space group: P -1
;
_chemical_formula_sum "Si O2"
_cell_formula_units_Z 14
_cell_length_a 20.666118
_cell_length_b 12.456560
_cell_length_c 8.899839
_cell_angle_alpha 138.200774
_cell_angle_beta 28.493442
_cell_angle_gamma 139.202044
_cell_volume 690.123153
_symmetry_space_group_name_H-M "P -1"
_symmetry_group_IT_number 2
_symmetry_cell_setting 'triclinic'
loop_
_space_group_symop_operation_xyz
x,y,z
-x,-y,-z
loop_
_atom_site_type_symbol
_atom_site_label
_atom_site_fract_x
_atom_site_fract_y
_atom_site_fract_z
Si Si1 0.930786 0.317089 0.019974
Si Si2 0.472595 0.515042 0.397296
Si Si3 0.279164 0.604936 0.240787
Si Si4 0.587697 0.172473 0.082202
Si Si5 0.813988 0.107183 0.749856
Si Si6 0.957805 0.660411 0.693778
Si Si7 0.831780 0.742211 0.322893
O O1 0.803258 0.307325 0.386932
O O2 0.856629 0.182243 0.904923
O O3 0.000000 0.500000 0.000000
O O4 0.065774 0.275638 0.770982
O O5 0.500000 0.500000 0.500000
O O6 0.502986 0.719343 0.536247
O O7 0.312075 0.419975 0.566187
O O8 0.581450 0.430278 0.004862
O O9 0.179678 0.414355 0.208609
O O10 0.310149 0.713048 0.135586
O O11 0.665982 0.124685 0.014481
O O12 0.500000 0.000000 0.000000
O O13 0.926526 0.203300 0.496427
O O14 0.789391 0.908972 0.606669
O O15 0.000000 0.500000 0.500000
O O16 0.923637 0.764880 0.008555
#
# Coordination Sequence:
#
# PCOD8005847 Si02
#       7
#     2   2   2   2   2   2   2
#     4  12  24  43  65  90 132 173 209 255 321 385
#     4  10  20  39  63  89 124 160 209 262 314 364
#     4  11  22  40  66  95 126 166 213 260 316 374
#     4  11  22  41  67  96 126 165 214 265 316 372
#     4  12  24  39  63  98 129 168 212 260 317 378
#     4  12  19  39  66  94 124 164 215 268 312 366
#     4  12  23  41  64  95 127 165 214 267 314 375
#
# _framework density 20.286235000000001
#
# number of rings (size 3 to 8) (size 9 to 14) (size 15 to 20)
#    0.000    0.571    7.143    3.429    0.000    0.000 
#    0.000    5.714    0.000    0.000    0.000    0.000 
#    0.000    0.000    0.000    0.000    0.000    0.000 
#
# Total GULP energy -173482.630140 kJ/mol
# GULP energy per Si atom -12391.616439 kJ/mol
# Density = 2.024006 g / cm^3
# Si number density = 20.286235 Si / 1000 Ang^3
#
#
#
# Elastic Constant Matrix: (Units=GPa)
#
#
# Indices 1 2 3 4 5 6 
#
# 1 137.5450 29.1131 49.1679 18.0261 -22.9413 19.7279
# 2 29.1131 85.7052 24.4612 28.5691 -12.0873 12.7735
# 3 49.1679 24.4612 95.5737 23.3238 -23.0005 -2.8921
# 4 18.0261 28.5691 23.3238 38.0597 0.2988 -0.9593
# 5 -22.9413 -12.0873 -23.0005 0.2988 38.3083 4.8591
# 6 19.7279 12.7735 -2.8921 -0.9593 4.8591 34.6101
#
#
#
# Elastic Compliance Matrix: (Units=1/GPa)
#
#
# Indices 1 2 3 4 5 6 
#
# 1 0.010996 0.000371 -0.003874 -0.003345 0.005363 -0.007574
# 2 0.000371 0.018663 0.000086 -0.014510 0.007357 -0.008527
# 3 -0.003874 0.000086 0.016240 -0.008181 0.007231 0.002291
# 4 -0.003345 -0.014510 -0.008181 0.044110 -0.013060 0.009634
# 5 0.005363 0.007357 0.007231 -0.013060 0.037449 -0.010787
# 6 -0.007574 -0.008527 0.002291 0.009634 -0.010787 0.038330
#
#
# Mechanical properties :
#
#
# Convention : Reuss Voigt Hill
#
# Bulk Modulus (GPa) = 25.59855 58.25647 41.92751
# Shear Modulus (GPa) = 26.93346 36.60107 31.76726
#
# Velocity S-wave (km/s) = 3.64768 4.25223 3.96150
# Velocity P-wave (km/s) = 5.51242 7.27243 6.45271
#
# Compressibility (1/GPa) = 0.03906471
#
# Stress axis : x y z
#
# Youngs Moduli (GPa) = 90.94311 53.58322 61.57601
#
# Poissons Ratio (x) = -0.01986 0.23854
# Poissons Ratio (y) = -0.03371 -0.00531
# Poissons Ratio (z) = 0.35231 -0.00462
#
# Static dielectric constant tensor:
#      x y z
#    x -0.719740 -1.312850 -1.341780 
#    y -1.312850 3.405120 -0.043440 
#    z -1.341780 -0.043440 4.030520 
# 
# 
# High freq. dielectric constant tensor:
#      x y z
#    x 1.797100 0.012920 -0.017030 
#    y 0.012920 1.786060 0.016190 
#    z -0.017030 0.016190 1.795890 
# 
# From -- ./inp_files/183051.got.cif
#   From: 2010.06.25/outbox.cif.g09.slc.cpg/sg2_92_cif.got.tgz:183051.got - 2010.06.27 13:26:56.
