data_PCOD8005114
_publ_section_title
;
Structure prediction by ZEFSAII (Michael W. Deem and Ramdas Pophale) SiO2 
 PCOD8005114
Probable space group: P -1
;
_chemical_formula_sum "Si O2"
_cell_formula_units_Z 16
_cell_length_a 9.334077
_cell_length_b 12.219202
_cell_length_c 11.545612
_cell_angle_alpha 118.884201
_cell_angle_beta 132.989138
_cell_angle_gamma 45.457873
_cell_volume 686.507559
_symmetry_space_group_name_H-M "P -1"
_symmetry_group_IT_number 2
_symmetry_cell_setting 'triclinic'
loop_
_space_group_symop_operation_xyz
x,y,z
-x,-y,-z
loop_
_atom_site_type_symbol
_atom_site_label
_atom_site_fract_x
_atom_site_fract_y
_atom_site_fract_z
Si Si1 0.852176 0.309564 0.617551
Si Si2 0.476511 0.802714 0.919812
Si Si3 0.420217 0.411728 0.835522
Si Si4 0.355964 0.013937 0.759268
Si Si5 0.608978 0.571085 0.440931
Si Si6 0.788107 0.753244 0.740660
Si Si7 0.857545 0.162321 0.058835
Si Si8 0.089460 0.467134 0.877574
O O1 0.731050 0.402690 0.479132
O O2 0.660037 0.311767 0.595476
O O3 0.078645 0.132534 0.625945
O O4 0.937026 0.399500 0.780974
O O5 0.243753 0.831511 0.867404
O O6 0.389992 0.873650 0.780921
O O7 0.568116 0.891216 0.082260
O O8 0.693356 0.617375 0.950681
O O9 0.375422 0.460276 0.702646
O O10 0.194681 0.428830 0.783553
O O11 0.500000 0.500000 0.000000
O O12 0.651172 0.239101 0.886207
O O13 0.543393 0.922888 0.711048
O O14 0.745150 0.650654 0.581570
O O15 0.989470 0.767745 0.802902
O O16 0.908661 0.654693 0.878501
O O17 0.000000 0.000000 0.000000
#
# Coordination Sequence:
#
# PCOD8005114 Si02
#       8
#     2   2   2   2   2   2   2   2
#     4   9  21  44  66  92 131 178 217 262 327 394
#     4   9  20  36  61  96 134 174 211 274 320 376
#     4  11  23  44  69  97 128 171 220 270 326 387
#     4  10  20  38  64  95 131 173 220 265 324 382
#     4  10  24  45  68  94 133 174 217 273 326 388
#     4  11  22  40  64  96 135 171 217 268 324 391
#     4  11  22  40  65  96 134 168 218 269 325 389
#     4   9  20  41  62  99 127 169 224 265 323 387
#
# _framework density 23.306372
#
# number of rings (size 3 to 8) (size 9 to 14) (size 15 to 20)
#    0.000    2.000    2.500    0.000    1.750    4.000 
#   13.500    1.875    0.000    0.000    0.000    0.000 
#    0.000    0.000    0.000    0.000    0.000    0.000 
#
# Total GULP energy -198224.775799 kJ/mol
# GULP energy per Si atom -12389.048487 kJ/mol
# Density = 2.325333 g / cm^3
# Si number density = 23.306372 Si / 1000 Ang^3
#
#
#
# Elastic Constant Matrix: (Units=GPa)
#
#
# Indices 1 2 3 4 5 6 
#
# 1 104.4518 6.3052 53.4548 -16.0929 12.2383 15.0445
# 2 6.3052 107.0475 22.0656 -31.2667 9.5731 -8.7475
# 3 53.4548 22.0656 69.2643 -12.1998 -1.9330 -3.9592
# 4 -16.0929 -31.2667 -12.1998 37.8633 2.0087 12.8996
# 5 12.2383 9.5731 -1.9330 2.0087 42.3675 -2.8958
# 6 15.0445 -8.7475 -3.9592 12.8996 -2.8958 35.1944
#
#
#
# Elastic Compliance Matrix: (Units=1/GPa)
#
#
# Indices 1 2 3 4 5 6 
#
# 1 0.027918 0.007995 -0.022291 0.018966 -0.013188 -0.020491
# 2 0.007995 0.015509 -0.008879 0.016159 -0.007470 -0.007099
# 3 -0.022291 -0.008879 0.033585 -0.012243 0.011689 0.016549
# 4 0.018966 0.016159 -0.012243 0.053559 -0.014022 -0.026253
# 5 -0.013188 -0.007470 0.011689 -0.014022 0.031173 0.012800
# 6 -0.020491 -0.007099 0.016549 -0.026253 0.012800 0.047946
#
#
# Mechanical properties :
#
#
# Convention : Reuss Voigt Hill
#
# Bulk Modulus (GPa) = 32.61461 49.37941 40.99701
# Shear Modulus (GPa) = 18.77868 36.34757 27.56312
#
# Velocity S-wave (km/s) = 2.84162 3.95340 3.44269
# Velocity P-wave (km/s) = 4.97902 6.48632 5.78200
#
# Compressibility (1/GPa) = 0.03066111
#
# Stress axis : x y z
#
# Youngs Moduli (GPa) = 35.81947 64.48054 29.77516
#
# Poissons Ratio (x) = -0.51553 0.66373
# Poissons Ratio (y) = -0.28638 0.26437
# Poissons Ratio (z) = 0.79846 0.57252
#
# Static dielectric constant tensor:
#      x y z
#    x 4.176230 0.091530 0.369600 
#    y 0.091530 4.566790 -0.317880 
#    z 0.369600 -0.317880 3.432650 
# 
# 
# High freq. dielectric constant tensor:
#      x y z
#    x 1.931110 0.001340 0.026880 
#    y 0.001340 1.934960 -0.022890 
#    z 0.026880 -0.022890 1.886890 
# 
# From -- ./inp_files/382212.got.cif
#   From: 2010.06.25/outbox.cif.g09.slc.cpg/sg2_192_cif.got.tgz:382212.got - 2010.06.27 13:26:56.
