data_PCOD8005494
_publ_section_title
;
Structure prediction by ZEFSAII (Michael W. Deem and Ramdas Pophale) SiO2 
 PCOD8005494
Probable space group: P -1
;
_chemical_formula_sum "Si O2"
_cell_formula_units_Z 14
_cell_length_a 19.224758
_cell_length_b 9.291932
_cell_length_c 22.152394
_cell_angle_alpha 140.635284
_cell_angle_beta 162.642002
_cell_angle_gamma 48.990121
_cell_volume 675.355419
_symmetry_space_group_name_H-M "P -1"
_symmetry_group_IT_number 2
_symmetry_cell_setting 'triclinic'
loop_
_space_group_symop_operation_xyz
x,y,z
-x,-y,-z
loop_
_atom_site_type_symbol
_atom_site_label
_atom_site_fract_x
_atom_site_fract_y
_atom_site_fract_z
Si Si1 0.713803 0.127131 0.336821
Si Si2 0.853453 0.086875 0.193735
Si Si3 0.413074 0.635187 0.420604
Si Si4 0.117042 0.396101 0.985904
Si Si5 0.807577 0.887087 0.216376
Si Si6 0.572906 0.134641 0.668171
Si Si7 0.316327 0.436502 0.613881
O O1 0.740247 0.405321 0.434228
O O2 0.933415 0.152073 0.574056
O O3 0.738151 0.996659 0.253487
O O4 0.433361 0.956392 0.079309
O O5 0.856842 0.094806 0.272211
O O6 0.905725 0.849575 0.145042
O O7 0.073275 0.332828 0.425053
O O8 0.500000 0.500000 0.500000
O O9 0.353976 0.482073 0.258837
O O10 0.621260 0.929980 0.683230
O O11 0.150663 0.656165 0.223191
O O12 0.172898 0.606480 0.047915
O O13 0.574004 0.616458 0.921435
O O14 0.351855 0.205127 0.536981
O O15 0.500000 0.000000 0.500000
#
# Coordination Sequence:
#
# PCOD8005494 Si02
#       7
#     2   2   2   2   2   2   2
#     4  10  23  42  63  90 122 161 198 253 309 364
#     4  11  21  38  64  90 121 160 199 250 304 357
#     4  10  22  38  58  86 117 157 201 250 303 349
#     4  10  20  39  58  82 122 154 199 251 292 358
#     4  10  23  42  62  91 126 154 202 253 306 368
#     4  10  20  39  61  84 123 161 199 246 294 353
#     4  11  21  40  63  92 120 164 202 248 304 359
#
# _framework density 20.729825000000002
#
# number of rings (size 3 to 8) (size 9 to 14) (size 15 to 20)
#    0.000    1.714    4.286    1.714    0.000    5.143 
#    2.571    2.857    0.000    0.000    0.000    0.000 
#    0.000    0.000    0.000    0.000    0.000    0.000 
#
# Total GULP energy -173496.874209 kJ/mol
# GULP energy per Si atom -12392.633872 kJ/mol
# Density = 2.068264 g / cm^3
# Si number density = 20.729825 Si / 1000 Ang^3
#
#
#
# Elastic Constant Matrix: (Units=GPa)
#
#
# Indices 1 2 3 4 5 6 
#
# 1 62.2508 14.3201 34.5990 1.9753 20.2947 5.7617
# 2 14.3201 85.5730 23.9770 -2.3560 -10.3357 11.3388
# 3 34.5990 23.9770 94.3789 -7.6460 16.9507 12.7700
# 4 1.9753 -2.3560 -7.6460 26.8565 3.9383 2.0534
# 5 20.2947 -10.3357 16.9507 3.9383 25.4818 3.6974
# 6 5.7617 11.3388 12.7700 2.0534 3.6974 36.7514
#
#
#
# Elastic Compliance Matrix: (Units=1/GPa)
#
#
# Indices 1 2 3 4 5 6 
#
# 1 0.026658 -0.005749 -0.004931 -0.000995 -0.020334 0.001409
# 2 -0.005749 0.016081 -0.004158 -0.001189 0.014635 -0.004021
# 3 -0.004931 -0.004158 0.015941 0.006062 -0.008875 -0.002929
# 4 -0.000995 -0.001189 0.006062 0.040554 -0.009571 -0.002886
# 5 -0.020334 0.014635 -0.008875 -0.009571 0.069439 -0.004695
# 6 0.001409 -0.004021 -0.002929 -0.002886 -0.004695 0.029881
#
#
# Mechanical properties :
#
#
# Convention : Reuss Voigt Hill
#
# Bulk Modulus (GPa) = 34.48079 43.11056 38.79567
# Shear Modulus (GPa) = 21.01738 29.10505 25.06122
#
# Velocity S-wave (km/s) = 3.18759 3.75109 3.48076
# Velocity P-wave (km/s) = 5.49701 6.29305 5.90845
#
# Compressibility (1/GPa) = 0.02900166
#
# Stress axis : x y z
#
# Youngs Moduli (GPa) = 37.51270 62.18552 62.73036
#
# Poissons Ratio (x) = 0.35753 0.30934
# Poissons Ratio (y) = 0.21567 0.26086
# Poissons Ratio (z) = 0.18499 0.25859
#
# Static dielectric constant tensor:
#      x y z
#    x 4.204720 0.053730 0.365530 
#    y 0.053730 3.932810 0.206480 
#    z 0.365530 0.206480 3.934820 
# 
# 
# High freq. dielectric constant tensor:
#      x y z
#    x 1.822210 -0.012690 0.015890 
#    y -0.012690 1.808920 0.014130 
#    z 0.015890 0.014130 1.796380 
# 
# From -- ./inp_files/315197.got.cif
#   From: 2010.06.25/outbox.cif.g09.slc.cpg/sg2_158_cif.got.tgz:315197.got - 2010.06.27 13:26:56.
