data_PCOD8005416
_publ_section_title
;
Structure prediction by ZEFSAII (Michael W. Deem and Ramdas Pophale) SiO2 
 PCOD8005416
Probable space group: P -1
;
_chemical_formula_sum "Si O2"
_cell_formula_units_Z 16
_cell_length_a 21.647834
_cell_length_b 6.718211
_cell_length_c 11.815283
_cell_angle_alpha 129.819668
_cell_angle_beta 147.491868
_cell_angle_gamma 62.530591
_cell_volume 696.256272
_symmetry_space_group_name_H-M "P -1"
_symmetry_group_IT_number 2
_symmetry_cell_setting 'triclinic'
loop_
_space_group_symop_operation_xyz
x,y,z
-x,-y,-z
loop_
_atom_site_type_symbol
_atom_site_label
_atom_site_fract_x
_atom_site_fract_y
_atom_site_fract_z
Si Si1 0.793276 0.995095 0.926744
Si Si2 0.499922 0.323825 0.261369
Si Si3 0.711255 0.496292 0.493311
Si Si4 0.753960 0.957753 0.301419
Si Si5 0.182212 0.164020 0.404439
Si Si6 0.613177 0.291196 0.648096
Si Si7 0.821723 0.768516 0.111939
Si Si8 0.939252 0.313049 0.088459
O O1 0.786106 0.687350 0.771441
O O2 0.673032 0.082793 0.733032
O O3 0.810875 0.003153 0.092243
O O4 0.905226 0.179924 0.110398
O O5 0.583338 0.370239 0.297603
O O6 0.554403 0.178383 0.397115
O O7 0.480941 0.612482 0.379304
O O8 0.381434 0.132556 0.972575
O O9 0.708979 0.678507 0.443942
O O10 0.780150 0.265593 0.483656
O O11 0.783045 0.799105 0.398198
O O12 0.838993 0.901359 0.310969
O O13 0.071061 0.299210 0.255851
O O14 0.151270 0.856796 0.204181
O O15 0.704706 0.551244 0.850563
O O16 0.927983 0.620405 0.188812
#
# Coordination Sequence:
#
# PCOD8005416 Si02
#       8
#     2   2   2   2   2   2   2   2
#     4  10  20  38  69  91 113 158 210 257 295 362
#     4  10  21  41  60  89 127 166 196 255 300 349
#     4  11  23  39  60  89 124 163 205 245 297 370
#     4  11  25  40  58  90 136 160 196 251 307 364
#     4  10  23  43  63  92 121 162 203 254 308 363
#     4   9  20  39  62  92 123 154 211 253 294 353
#     4  10  20  40  64  92 122 159 203 255 301 361
#     4   9  21  42  69  89 117 158 208 260 303 353
#
# _framework density 22.980046000000002
#
# number of rings (size 3 to 8) (size 9 to 14) (size 15 to 20)
#    0.000    2.000    1.250    1.125    3.500    5.500 
#    2.250    5.000    0.000    0.000    0.000    0.000 
#    0.000    0.000    0.000    0.000    0.000    0.000 
#
# Total GULP energy -198357.937673 kJ/mol
# GULP energy per Si atom -12397.371105 kJ/mol
# Density = 2.292774 g / cm^3
# Si number density = 22.980046 Si / 1000 Ang^3
#
#
#
# Elastic Constant Matrix: (Units=GPa)
#
#
# Indices 1 2 3 4 5 6 
#
# 1 128.9728 59.0034 24.6407 -16.1817 -29.2038 1.1497
# 2 59.0034 104.0864 24.3421 -8.4951 -12.5859 -0.5433
# 3 24.6407 24.3421 44.8631 -9.0856 -13.1554 8.8539
# 4 -16.1817 -8.4951 -9.0856 19.9095 7.1777 -8.7368
# 5 -29.2038 -12.5859 -13.1554 7.1777 29.8425 -8.6957
# 6 1.1497 -0.5433 8.8539 -8.7368 -8.6957 42.7957
#
#
#
# Elastic Compliance Matrix: (Units=1/GPa)
#
#
# Indices 1 2 3 4 5 6 
#
# 1 0.013489 -0.005779 -0.000768 0.005875 0.009864 0.002927
# 2 -0.005779 0.013861 -0.005062 -0.000018 -0.001739 0.001021
# 3 -0.000768 -0.005062 0.029682 0.006555 0.007663 -0.003289
# 4 0.005875 -0.000018 0.006555 0.064040 -0.003617 0.010825
# 5 0.009864 -0.001739 0.007663 -0.003617 0.048805 0.007306
# 6 0.002927 0.001021 -0.003289 0.010825 0.007306 0.027676
#
#
# Mechanical properties :
#
#
# Convention : Reuss Voigt Hill
#
# Bulk Modulus (GPa) = 29.57408 54.87719 42.22564
# Shear Modulus (GPa) = 21.54777 29.83863 25.69320
#
# Velocity S-wave (km/s) = 3.06547 3.60732 3.34738
# Velocity P-wave (km/s) = 5.04250 6.42515 5.77535
#
# Compressibility (1/GPa) = 0.03381339
#
# Stress axis : x y z
#
# Youngs Moduli (GPa) = 74.13553 72.14596 33.69036
#
# Poissons Ratio (x) = 0.41695 0.02588
# Poissons Ratio (y) = 0.42845 0.17053
# Poissons Ratio (z) = 0.05696 0.36517
#
# Static dielectric constant tensor:
#      x y z
#    x 4.538630 -0.158880 -0.155250 
#    y -0.158880 3.986700 0.006150 
#    z -0.155250 0.006150 3.730070 
# 
# 
# High freq. dielectric constant tensor:
#      x y z
#    x 1.925450 -0.002270 -0.005870 
#    y -0.002270 1.896060 -0.001260 
#    z -0.005870 -0.001260 1.876440 
# 
# From -- ./inp_files/473509.got.cif
#   From: 2010.06.25/outbox.cif.g09.slc.cpg/sg2_237_cif.got.tgz:473509.got - 2010.06.27 13:26:56.
