data_PCOD8005655
_publ_section_title
;
Structure prediction by ZEFSAII (Michael W. Deem and Ramdas Pophale) SiO2 
 PCOD8005655
Probable space group: P -1
;
_chemical_formula_sum "Si O2"
_cell_formula_units_Z 16
_cell_length_a 28.700078
_cell_length_b 13.743362
_cell_length_c 8.435906
_cell_angle_alpha 127.255173
_cell_angle_beta 44.215106
_cell_angle_gamma 159.546550
_cell_volume 780.381302
_symmetry_space_group_name_H-M "P -1"
_symmetry_group_IT_number 2
_symmetry_cell_setting 'triclinic'
loop_
_space_group_symop_operation_xyz
x,y,z
-x,-y,-z
loop_
_atom_site_type_symbol
_atom_site_label
_atom_site_fract_x
_atom_site_fract_y
_atom_site_fract_z
Si Si1 0.285124 0.803092 0.766939
Si Si2 0.824368 0.643747 0.397479
Si Si3 0.231242 0.074014 0.133811
Si Si4 0.759557 0.119435 0.323264
Si Si5 0.944257 0.407263 0.722887
Si Si6 0.446312 0.546729 0.631437
Si Si7 0.164371 0.165620 0.161828
Si Si8 0.385680 0.516166 0.400208
O O1 0.282406 0.654300 0.653932
O O2 0.202631 0.697951 0.693760
O O3 0.462181 0.148830 0.676866
O O4 0.185721 0.702586 0.050251
O O5 0.803669 0.658294 0.642524
O O6 0.765431 0.645292 0.415102
O O7 0.010379 0.925227 0.188535
O O8 0.125598 0.990714 0.204603
O O9 0.375820 0.388604 0.171526
O O10 0.123350 0.836836 0.302020
O O11 0.299185 0.079915 0.860256
O O12 0.908518 0.317512 0.250665
O O13 0.610034 0.896359 0.582949
O O14 0.000000 0.500000 0.500000
O O15 0.500000 0.500000 0.500000
O O16 0.372813 0.436729 0.527151
O O17 0.321734 0.395414 0.907527
#
# Coordination Sequence:
#
# PCOD8005655 Si02
#       8
#     2   2   2   2   2   2   2   2
#     4  10  21  40  62  84 128 169 205 254 307 373
#     4  10  21  41  63  84 126 168 219 243 301 383
#     4  10  20  39  61  88 125 160 210 255 304 382
#     4  10  21  39  59  90 125 164 200 250 325 368
#     4  11  24  36  60  95 126 160 202 258 320 365
#     4  11  23  38  63  94 130 154 204 267 314 361
#     4  10  21  39  65  92 116 173 208 256 311 364
#     4  10  24  39  62  96 118 168 212 254 311 360
#
# _framework density 20.502799
#
# number of rings (size 3 to 8) (size 9 to 14) (size 15 to 20)
#    0.000    1.750    1.250    3.375    1.750    7.000 
#    0.000    6.250    0.000    0.000    0.000    0.000 
#    0.000    0.000    0.000    0.000    0.000    0.000 
#
# Total GULP energy -198326.352458 kJ/mol
# GULP energy per Si atom -12395.397029 kJ/mol
# Density = 2.045613 g / cm^3
# Si number density = 20.502799 Si / 1000 Ang^3
#
#
#
# Elastic Constant Matrix: (Units=GPa)
#
#
# Indices 1 2 3 4 5 6 
#
# 1 120.0727 34.4007 43.0153 -1.7599 -1.9350 -1.3910
# 2 34.4007 99.1266 38.6702 1.9949 1.7654 -5.4150
# 3 43.0153 38.6702 112.9860 -19.5294 0.9076 -11.3753
# 4 -1.7599 1.9949 -19.5294 30.6077 -3.0712 -3.3277
# 5 -1.9350 1.7654 0.9076 -3.0712 31.7528 -3.7689
# 6 -1.3910 -5.4150 -11.3753 -3.3277 -3.7689 31.2282
#
#
#
# Elastic Compliance Matrix: (Units=1/GPa)
#
#
# Indices 1 2 3 4 5 6 
#
# 1 0.010200 -0.002205 -0.003548 -0.001625 0.000531 -0.001329
# 2 -0.002205 0.012534 -0.004062 -0.003632 -0.001057 0.000081
# 3 -0.003548 -0.004062 0.013765 0.009538 0.001169 0.005309
# 4 -0.001625 -0.003632 0.009538 0.040192 0.004621 0.007613
# 5 0.000531 -0.001057 0.001169 0.004621 0.032554 0.004688
# 6 -0.001329 0.000081 0.005309 0.007613 0.004688 0.035288
#
#
# Mechanical properties :
#
#
# Convention : Reuss Voigt Hill
#
# Bulk Modulus (GPa) = 59.27356 62.70640 60.98998
# Shear Modulus (GPa) = 29.44868 33.12433 31.28650
#
# Velocity S-wave (km/s) = 3.79400 4.02381 3.91059
# Velocity P-wave (km/s) = 6.94012 7.22764 7.08534
#
# Compressibility (1/GPa) = 0.01687093
#
# Stress axis : x y z
#
# Youngs Moduli (GPa) = 98.03594 79.78137 72.64736
#
# Poissons Ratio (x) = 0.17595 0.25772
# Poissons Ratio (y) = 0.21621 0.29506
# Poissons Ratio (z) = 0.34778 0.32403
#
# Static dielectric constant tensor:
#      x y z
#    x 3.978250 -0.010920 -0.131730 
#    y -0.010920 3.716980 -0.095910 
#    z -0.131730 -0.095910 3.650520 
# 
# 
# High freq. dielectric constant tensor:
#      x y z
#    x 1.808230 0.003470 -0.012890 
#    y 0.003470 1.801330 -0.011420 
#    z -0.012890 -0.011420 1.786630 
# 
# From -- ./inp_files/358868.got.cif
#   From: 2010.06.25/outbox.cif.g09.slc.cpg/sg2_180_cif.got.tgz:358868.got - 2010.06.27 13:26:56.
