data_PCOD8005095
_publ_section_title
;
Structure prediction by ZEFSAII (Michael W. Deem and Ramdas Pophale) SiO2 
 PCOD8005095
Probable space group: P -1
;
_chemical_formula_sum "Si O2"
_cell_formula_units_Z 16
_cell_length_a 19.786086
_cell_length_b 8.056414
_cell_length_c 19.838439
_cell_angle_alpha 105.721513
_cell_angle_beta 165.784841
_cell_angle_gamma 73.882524
_cell_volume 746.011508
_symmetry_space_group_name_H-M "P -1"
_symmetry_group_IT_number 2
_symmetry_cell_setting 'triclinic'
loop_
_space_group_symop_operation_xyz
x,y,z
-x,-y,-z
loop_
_atom_site_type_symbol
_atom_site_label
_atom_site_fract_x
_atom_site_fract_y
_atom_site_fract_z
Si Si1 0.358835 0.491586 0.116669
Si Si2 0.409894 0.378669 0.779977
Si Si3 0.847567 0.248831 0.408099
Si Si4 0.622720 0.813127 0.619631
Si Si5 0.100142 0.812387 0.700630
Si Si6 0.922265 0.327010 0.870806
Si Si7 0.818155 0.538582 0.670329
Si Si8 0.317672 0.166806 0.954638
O O1 0.491613 0.605039 0.199788
O O2 0.545515 0.490294 0.363056
O O3 0.330412 0.295264 0.043981
O O4 0.058064 0.577840 0.853771
O O5 0.270200 0.555262 0.693447
O O6 0.195265 0.228795 0.559309
O O7 0.672545 0.337544 0.076743
O O8 0.921568 0.164759 0.398372
O O9 0.123047 0.255339 0.718846
O O10 0.624957 0.133638 0.217073
O O11 0.384419 0.707293 0.408496
O O12 0.754358 0.711128 0.671539
O O13 0.500000 0.000000 0.500000
O O14 0.857250 0.825396 0.906540
O O15 0.196540 0.991057 0.844586
O O16 0.922579 0.368083 0.795848
O O17 0.000000 0.500000 0.000000
#
# Coordination Sequence:
#
# PCOD8005095 Si02
#       8
#     2   2   2   2   2   2   2   2
#     4  11  23  41  60  84 117 169 208 231 287 364
#     4  11  23  38  59  86 121 156 197 249 301 365
#     4  11  21  39  61  87 115 156 200 247 313 373
#     4  11  22  39  65 101 129 147 185 254 306 331
#     4  12  22  38  61  90 116 150 198 264 316 344
#     4  10  20  38  64  94 121 156 197 236 283 346
#     4  11  21  40  67  86 117 166 205 233 280 364
#     4  11  23  39  60  86 119 154 201 256 295 353
#
# _framework density 21.447389000000001
#
# number of rings (size 3 to 8) (size 9 to 14) (size 15 to 20)
#    0.000    1.000    0.000   10.875    0.000    0.000 
#    0.000    5.000    0.000    3.000    0.000    0.000 
#    0.000    0.000    0.000    0.000    0.000    0.000 
#
# Total GULP energy -198452.372459 kJ/mol
# GULP energy per Si atom -12403.273279 kJ/mol
# Density = 2.139857 g / cm^3
# Si number density = 21.447389 Si / 1000 Ang^3
#
#
#
# Elastic Constant Matrix: (Units=GPa)
#
#
# Indices 1 2 3 4 5 6 
#
# 1 77.7776 35.7068 19.7424 9.7233 19.6195 -8.3511
# 2 35.7068 78.8582 7.5091 4.6911 6.3948 -0.9277
# 3 19.7424 7.5091 88.7918 3.7420 10.6453 -11.6953
# 4 9.7233 4.6911 3.7420 39.5313 10.6039 1.5140
# 5 19.6195 6.3948 10.6453 10.6039 52.1817 1.7137
# 6 -8.3511 -0.9277 -11.6953 1.5140 1.7137 24.0211
#
#
#
# Elastic Compliance Matrix: (Units=1/GPa)
#
#
# Indices 1 2 3 4 5 6 
#
# 1 0.019362 -0.007904 -0.002080 -0.002352 -0.005604 0.005961
# 2 -0.007904 0.016158 -0.000024 -0.000183 0.001106 -0.002203
# 3 -0.002080 -0.000024 0.012714 -0.000391 -0.001914 0.005627
# 4 -0.002352 -0.000183 -0.000391 0.027224 -0.004466 -0.002413
# 5 -0.005604 0.001106 -0.001914 -0.004466 0.022570 -0.004166
# 6 0.005961 -0.002203 0.005627 -0.002413 -0.004166 0.046806
#
#
# Mechanical properties :
#
#
# Convention : Reuss Voigt Hill
#
# Bulk Modulus (GPa) = 35.44076 41.26049 38.35063
# Shear Modulus (GPa) = 28.69321 35.31146 32.00233
#
# Velocity S-wave (km/s) = 3.66162 4.06201 3.86700
# Velocity P-wave (km/s) = 5.86830 6.42493 6.15291
#
# Compressibility (1/GPa) = 0.02821610
#
# Stress axis : x y z
#
# Youngs Moduli (GPa) = 51.64780 61.89025 78.65341
#
# Poissons Ratio (x) = 0.48920 0.16362
# Poissons Ratio (y) = 0.40824 0.00189
# Poissons Ratio (z) = 0.10744 0.00149
#
# Static dielectric constant tensor:
#      x y z
#    x 3.847200 0.203710 -0.112740 
#    y 0.203710 3.723780 -0.137130 
#    z -0.112740 -0.137130 4.446120 
# 
# 
# High freq. dielectric constant tensor:
#      x y z
#    x 1.831160 0.013590 0.001100 
#    y 0.013590 1.826290 -0.001690 
#    z 0.001100 -0.001690 1.873020 
# 
# From -- ./inp_files/614040.got.cif
#   From: 2010.06.25/outbox.cif.g09.slc.cpg/sg2_308_cif.got.tgz:614040.got - 2010.06.27 13:26:56.
