data_PCOD8005118
_publ_section_title
;
Structure prediction by ZEFSAII (Michael W. Deem and Ramdas Pophale) SiO2 
 PCOD8005118
Probable space group: P -1
;
_chemical_formula_sum "Si O2"
_cell_formula_units_Z 10
_cell_length_a 6.990807
_cell_length_b 10.866149
_cell_length_c 9.340977
_cell_angle_alpha 40.378488
_cell_angle_beta 56.098667
_cell_angle_gamma 81.399154
_cell_volume 327.717224
_symmetry_space_group_name_H-M "P -1"
_symmetry_group_IT_number 2
_symmetry_cell_setting 'triclinic'
loop_
_space_group_symop_operation_xyz
x,y,z
-x,-y,-z
loop_
_atom_site_type_symbol
_atom_site_label
_atom_site_fract_x
_atom_site_fract_y
_atom_site_fract_z
Si Si1 0.680263 0.518249 0.238582
Si Si2 0.287315 0.190286 0.482181
Si Si3 0.061342 0.815853 0.589820
Si Si4 0.626429 0.154794 0.137544
Si Si5 0.622002 0.255176 0.753259
O O1 0.396875 0.333228 0.452890
O O2 0.795494 0.411259 0.405153
O O3 0.627156 0.699968 0.172356
O O4 0.900954 0.605954 0.945184
O O5 0.042415 0.222151 0.500546
O O6 0.189923 0.927919 0.786887
O O7 0.516396 0.270351 0.189357
O O8 0.378845 0.919177 0.386850
O O9 0.000000 0.000000 0.500000
O O10 0.767304 0.309985 0.801382
O O11 0.500000 0.000000 0.000000
#
# Coordination Sequence:
#
# PCOD8005118 Si02
#       5
#     2   2   2   2   2
#     4  11  22  38  68  90 122 172 204 253 319 363
#     4  10  20  38  66  94 120 161 212 256 303 367
#     4  10  20  38  64  96 122 156 211 263 299 362
#     4  10  21  40  67  90 125 164 203 259 313 355
#     4  11  22  40  62  90 130 168 200 253 322 373
#
# _framework density 30.514111
#
# number of rings (size 3 to 8) (size 9 to 14) (size 15 to 20)
#    0.000    1.600    6.000    0.600    0.000    0.800 
#    0.000    1.000    0.000   12.000    0.000    0.000 
#    0.000    0.000    0.000    0.000    0.000    0.000 
#
# Total GULP energy -123898.709517 kJ/mol
# GULP energy per Si atom -12389.870952 kJ/mol
# Density = 3.044466 g / cm^3
# Si number density = 30.514111 Si / 1000 Ang^3
#
#
#
# Elastic Constant Matrix: (Units=GPa)
#
#
# Indices 1 2 3 4 5 6 
#
# 1 114.9781 15.0770 27.7122 -1.1567 49.5823 -2.3158
# 2 15.0770 111.1385 32.5294 9.7531 33.4567 7.2574
# 3 27.7122 32.5294 173.0529 51.5976 49.9711 -2.6903
# 4 -1.1567 9.7531 51.5976 64.5570 2.0287 27.3053
# 5 49.5823 33.4567 49.9711 2.0287 52.9739 -0.1262
# 6 -2.3158 7.2574 -2.6903 27.3053 -0.1262 28.7962
#
#
#
# Elastic Compliance Matrix: (Units=1/GPa)
#
#
# Indices 1 2 3 4 5 6 
#
# 1 0.016743 0.002999 0.005459 -0.007072 -0.022426 0.007708
# 2 0.002999 0.011891 0.001064 -0.001829 -0.011253 -0.000972
# 3 0.005459 0.001064 0.019876 -0.026758 -0.023441 0.027298
# 4 -0.007072 -0.001829 -0.026758 0.061968 0.030497 -0.061234
# 5 -0.022426 -0.011253 -0.023441 0.030497 0.067848 -0.029778
# 6 0.007708 -0.000972 0.027298 -0.061234 -0.029778 0.096075
#
#
# Mechanical properties :
#
#
# Convention : Reuss Voigt Hill
#
# Bulk Modulus (GPa) = 14.80284 61.08963 37.94623
# Shear Modulus (GPa) = 17.99375 50.85548 34.42462
#
# Velocity S-wave (km/s) = 2.43098 4.08686 3.36244
# Velocity P-wave (km/s) = 3.56949 6.50642 5.24760
#
# Compressibility (1/GPa) = 0.06755461
#
# Stress axis : x y z
#
# Youngs Moduli (GPa) = 59.72628 84.09736 50.31205
#
# Poissons Ratio (x) = -0.25221 -0.27466
# Poissons Ratio (y) = -0.17912 -0.05354
# Poissons Ratio (z) = -0.32606 -0.08949
#
# Static dielectric constant tensor:
#      x y z
#    x 8.756940 0.925630 0.669770 
#    y 0.925630 6.401040 0.531020 
#    z 0.669770 0.531020 6.253050 
# 
# 
# High freq. dielectric constant tensor:
#      x y z
#    x 2.236930 -0.008500 0.053820 
#    y -0.008500 2.274790 0.001450 
#    z 0.053820 0.001450 2.244150 
# 
# From -- ./inp_files/166887.got.cif
#   From: 2010.06.25/outbox.cif.g09.slc.cpg/sg2_84_cif.got.tgz:166887.got - 2010.06.27 13:26:56.
