data_PCOD8005099
_publ_section_title
;
Structure prediction by ZEFSAII (Michael W. Deem and Ramdas Pophale) SiO2 
 PCOD8005099
Probable space group: P -1
;
_chemical_formula_sum "Si O2"
_cell_formula_units_Z 14
_cell_length_a 16.893598
_cell_length_b 19.557461
_cell_length_c 7.649637
_cell_angle_alpha 108.553943
_cell_angle_beta 59.091088
_cell_angle_gamma 159.106653
_cell_volume 656.533991
_symmetry_space_group_name_H-M "P -1"
_symmetry_group_IT_number 2
_symmetry_cell_setting 'triclinic'
loop_
_space_group_symop_operation_xyz
x,y,z
-x,-y,-z
loop_
_atom_site_type_symbol
_atom_site_label
_atom_site_fract_x
_atom_site_fract_y
_atom_site_fract_z
Si Si1 0.819233 0.050437 0.743308
Si Si2 0.392115 0.270811 0.852318
Si Si3 0.328811 0.650666 0.237725
Si Si4 0.607245 0.153892 0.078497
Si Si5 0.873508 0.381589 0.313505
Si Si6 0.433419 0.526130 0.507892
Si Si7 0.098578 0.019821 0.650363
O O1 0.948507 0.084737 0.498394
O O2 0.091834 0.289718 0.726704
O O3 0.652120 0.982041 0.754282
O O4 0.611396 0.863332 0.971162
O O5 0.655982 0.415479 0.736446
O O6 0.508720 0.425006 0.729401
O O7 0.192940 0.072906 0.788282
O O8 0.203755 0.160037 0.140022
O O9 0.339123 0.727046 0.417661
O O10 0.030975 0.435265 0.289925
O O11 0.687985 0.204901 0.231547
O O12 0.886775 0.386506 0.845231
O O13 0.500000 0.000000 0.000000
O O14 0.500000 0.500000 0.500000
O O15 0.643678 0.740906 0.536061
#
# Coordination Sequence:
#
# PCOD8005099 Si02
#       7
#     2   2   2   2   2   2   2
#     4  11  23  37  63  92 123 164 207 255 309 373
#     4   9  20  39  64  84 127 168 206 254 306 370
#     4  10  20  38  64  94 124 171 208 246 320 371
#     4  10  22  40  66  93 120 161 213 259 312 368
#     4   9  21  41  65  86 130 165 202 262 310 370
#     4  10  22  38  60  90 123 159 208 262 302 363
#     4   9  21  41  59  87 124 170 202 252 307 367
#
# _framework density 21.324106
#
# number of rings (size 3 to 8) (size 9 to 14) (size 15 to 20)
#    0.857    1.429    0.000    1.714    2.000    5.143 
#    0.000    7.857    6.286    0.000    0.000    0.000 
#    0.000    0.000    0.000    0.000    0.000    0.000 
#
# Total GULP energy -173480.855894 kJ/mol
# GULP energy per Si atom -12391.489707 kJ/mol
# Density = 2.127557 g / cm^3
# Si number density = 21.324106 Si / 1000 Ang^3
#
#
#
# Elastic Constant Matrix: (Units=GPa)
#
#
# Indices 1 2 3 4 5 6 
#
# 1 150.8058 49.9727 46.0311 0.5536 -13.1458 19.4798
# 2 49.9727 85.8725 30.8887 4.4698 -6.2581 2.8873
# 3 46.0311 30.8887 110.6097 6.0449 -15.2507 7.9008
# 4 0.5536 4.4698 6.0449 31.6364 5.8227 -0.7407
# 5 -13.1458 -6.2581 -15.2507 5.8227 22.8855 -0.8964
# 6 19.4798 2.8873 7.9008 -0.7407 -0.8964 28.8592
#
#
#
# Elastic Compliance Matrix: (Units=1/GPa)
#
#
# Indices 1 2 3 4 5 6 
#
# 1 0.009691 -0.004547 -0.002013 0.000231 0.002709 -0.005445
# 2 -0.004547 0.015183 -0.002345 -0.001656 0.000483 0.002165
# 3 -0.002013 -0.002345 0.011747 -0.003160 0.006776 -0.001493
# 4 0.000231 -0.001656 -0.003160 0.034529 -0.011155 0.001414
# 5 0.002709 0.000483 0.006776 -0.011155 0.052645 -0.002383
# 6 -0.005445 0.002165 -0.001493 0.001414 -0.002383 0.038481
#
#
# Mechanical properties :
#
#
# Convention : Reuss Voigt Hill
#
# Bulk Modulus (GPa) = 53.16193 66.78589 59.97391
# Shear Modulus (GPa) = 26.83013 31.36926 29.09970
#
# Velocity S-wave (km/s) = 3.55097 3.83961 3.69811
# Velocity P-wave (km/s) = 6.46507 7.14453 6.81327
#
# Compressibility (1/GPa) = 0.01881045
#
# Stress axis : x y z
#
# Youngs Moduli (GPa) = 103.18863 65.86115 85.12638
#
# Poissons Ratio (x) = 0.29946 0.17139
# Poissons Ratio (y) = 0.46919 0.19965
# Poissons Ratio (z) = 0.20775 0.15447
#
# Static dielectric constant tensor:
#      x y z
#    x 4.334890 0.254430 -0.075040 
#    y 0.254430 3.713860 -0.150830 
#    z -0.075040 -0.150830 3.762410 
# 
# 
# High freq. dielectric constant tensor:
#      x y z
#    x 1.836760 0.019630 -0.000740 
#    y 0.019630 1.817680 -0.010960 
#    z -0.000740 -0.010960 1.831790 
# 
# From -- ./inp_files/337269.got.cif
#   From: 2010.06.25/outbox.cif.g09.slc.cpg/sg2_169_cif.got.tgz:337269.got - 2010.06.27 13:26:56.
