data_PCOD8005165
_publ_section_title
;
Structure prediction by ZEFSAII (Michael W. Deem and Ramdas Pophale) SiO2 
 PCOD8005165
Probable space group: P -1
;
_chemical_formula_sum "Si O2"
_cell_formula_units_Z 16
_cell_length_a 12.128880
_cell_length_b 9.038664
_cell_length_c 11.977456
_cell_angle_alpha 55.516103
_cell_angle_beta 89.351711
_cell_angle_gamma 123.563536
_cell_volume 795.011733
_symmetry_space_group_name_H-M "P -1"
_symmetry_group_IT_number 2
_symmetry_cell_setting 'triclinic'
loop_
_space_group_symop_operation_xyz
x,y,z
-x,-y,-z
loop_
_atom_site_type_symbol
_atom_site_label
_atom_site_fract_x
_atom_site_fract_y
_atom_site_fract_z
Si Si1 0.671591 0.799506 0.146469
Si Si2 0.405536 0.531832 0.914339
Si Si3 0.102857 0.350317 0.082341
Si Si4 0.085373 0.515167 0.597224
Si Si5 0.433000 0.944782 0.401613
Si Si6 0.563695 0.394890 0.601130
Si Si7 0.856852 0.806944 0.329900
Si Si8 0.073763 0.655219 0.103990
O O1 0.644353 0.617516 0.134474
O O2 0.512935 0.707517 0.231970
O O3 0.755521 0.803811 0.246849
O O4 0.775373 0.071926 0.979723
O O5 0.504586 0.813090 0.764793
O O6 0.500000 0.500000 0.000000
O O7 0.261239 0.430793 0.029243
O O8 0.124791 0.538817 0.084543
O O9 0.989018 0.081263 0.255262
O O10 0.039483 0.346526 0.965534
O O11 0.255185 0.770656 0.486215
O O12 0.071718 0.284687 0.693937
O O13 0.000000 0.500000 0.500000
O O14 0.008704 0.500807 0.717017
O O15 0.479885 0.823695 0.380707
O O16 0.500000 0.000000 0.500000
O O17 0.500000 0.500000 0.500000
O O18 0.746079 0.616499 0.512760
#
# Coordination Sequence:
#
# PCOD8005165 Si02
#       8
#     2   2   2   2   2   2   2   2
#     4  10  20  38  65  89 123 163 209 252 310 373
#     4  12  26  40  59  93 133 167 208 265 323 380
#     4  10  21  40  65  95 122 158 218 260 313 374
#     4  11  24  39  60  89 128 165 206 255 324 379
#     4  11  23  41  66  92 126 172 220 263 308 383
#     4   9  18  36  63  98 121 157 210 261 308 369
#     4   9  19  37  65  89 120 162 202 256 302 378
#     4  10  21  39  68  93 119 165 211 266 307 379
#
# _framework density 20.125491
#
# number of rings (size 3 to 8) (size 9 to 14) (size 15 to 20)
#    0.000    1.750    0.000    5.250    3.500    7.000 
#    4.500    1.875    0.000    0.000    0.000    0.000 
#    0.000    0.000    0.000    0.000    0.000    0.000 
#
# Total GULP energy -198413.990383 kJ/mol
# GULP energy per Si atom -12400.874399 kJ/mol
# Density = 2.007968 g / cm^3
# Si number density = 20.125491 Si / 1000 Ang^3
#
#
#
# Elastic Constant Matrix: (Units=GPa)
#
#
# Indices 1 2 3 4 5 6 
#
# 1 111.8182 51.4893 65.3028 -7.5486 -20.2244 -5.5474
# 2 51.4893 88.3036 55.7474 -28.1034 -6.7617 -12.1837
# 3 65.3028 55.7474 115.8560 -22.3018 -14.2269 -4.1493
# 4 -7.5486 -28.1034 -22.3018 35.8975 -6.6521 2.3602
# 5 -20.2244 -6.7617 -14.2269 -6.6521 32.4148 -0.2943
# 6 -5.5474 -12.1837 -4.1493 2.3602 -0.2943 34.6925
#
#
#
# Elastic Compliance Matrix: (Units=1/GPa)
#
#
# Indices 1 2 3 4 5 6 
#
# 1 0.016247 -0.006673 -0.006248 -0.004750 0.005027 -0.000127
# 2 -0.006673 0.023382 -0.004345 0.014157 0.001764 0.005677
# 3 -0.006248 -0.004345 0.015707 0.005711 0.003252 -0.001007
# 4 -0.004750 0.014157 0.005711 0.043475 0.011437 0.002035
# 5 0.005027 0.001764 0.003252 0.011437 0.038141 0.001358
# 6 -0.000127 0.005677 -0.001007 0.002035 0.001358 0.030551
#
#
# Mechanical properties :
#
#
# Convention : Reuss Voigt Hill
#
# Bulk Modulus (GPa) = 48.06889 73.45076 60.75982
# Shear Modulus (GPa) = 23.92683 30.16350 27.04516
#
# Velocity S-wave (km/s) = 3.45176 3.87560 3.66980
# Velocity P-wave (km/s) = 6.31052 7.52347 6.94353
#
# Compressibility (1/GPa) = 0.02080348
#
# Stress axis : x y z
#
# Youngs Moduli (GPa) = 61.54855 42.76709 63.66757
#
# Poissons Ratio (x) = 0.28540 0.39782
# Poissons Ratio (y) = 0.41073 0.27661
# Poissons Ratio (z) = 0.38458 0.18581
#
# Static dielectric constant tensor:
#      x y z
#    x 3.755770 -0.016710 -0.339360 
#    y -0.016710 3.345520 -0.335020 
#    z -0.339360 -0.335020 4.054840 
# 
# 
# High freq. dielectric constant tensor:
#      x y z
#    x 1.788160 -0.016350 -0.016940 
#    y -0.016350 1.778750 -0.021240 
#    z -0.016940 -0.021240 1.792880 
# 
# From -- ./inp_files/256792.got.cif
#   From: 2010.06.25/outbox.cif.g09.slc.cpg/sg2_129_cif.got.tgz:256792.got - 2010.06.27 13:26:56.
