data_PCOD8005652
_publ_section_title
;
Structure prediction by ZEFSAII (Michael W. Deem and Ramdas Pophale) SiO2 
 PCOD8005652
Probable space group: P -1
;
_chemical_formula_sum "Si O2"
_cell_formula_units_Z 10
_cell_length_a 15.442493
_cell_length_b 8.853469
_cell_length_c 9.237477
_cell_angle_alpha 60.021863
_cell_angle_beta 151.379333
_cell_angle_gamma 128.189217
_cell_volume 472.365177
_symmetry_space_group_name_H-M "P -1"
_symmetry_group_IT_number 2
_symmetry_cell_setting 'triclinic'
loop_
_space_group_symop_operation_xyz
x,y,z
-x,-y,-z
loop_
_atom_site_type_symbol
_atom_site_label
_atom_site_fract_x
_atom_site_fract_y
_atom_site_fract_z
Si Si1 0.126372 0.464624 0.537516
Si Si2 0.434504 0.901268 0.794693
Si Si3 0.674440 0.781437 0.523576
Si Si4 0.231278 0.462735 0.001475
Si Si5 0.193643 0.155488 0.631374
O O1 0.248619 0.693880 0.623133
O O2 0.137695 0.368967 0.754095
O O3 0.212204 0.370086 0.588137
O O4 0.896821 0.424104 0.182163
O O5 0.367018 0.048718 0.540079
O O6 0.621482 0.875364 0.012805
O O7 0.500000 0.000000 0.000000
O O8 0.808991 0.862710 0.537828
O O9 0.793994 0.710180 0.844579
O O10 0.463320 0.607590 0.251194
O O11 0.000000 0.000000 0.500000
#
# Coordination Sequence:
#
# PCOD8005652 Si02
#       5
#     2   2   2   2   2
#     4  11  22  39  65  92 116 160 203 244 298 357
#     4  10  20  39  61  88 120 160 198 242 298 355
#     4  10  22  42  62  88 122 159 196 250 298 352
#     4  10  22  39  66  87 120 157 204 241 302 353
#     4  11  23  38  63  89 122 158 201 245 300 352
#
# _framework density 21.170061
#
# number of rings (size 3 to 8) (size 9 to 14) (size 15 to 20)
#    0.000    1.600    4.000    1.800    8.400    1.600 
#    0.000    1.000    0.000    0.000    0.000    0.000 
#    0.000    0.000    0.000    0.000    0.000    0.000 
#
# Total GULP energy -123943.962384 kJ/mol
# GULP energy per Si atom -12394.396238 kJ/mol
# Density = 2.112188 g / cm^3
# Si number density = 21.170061 Si / 1000 Ang^3
#
#
#
# Elastic Constant Matrix: (Units=GPa)
#
#
# Indices 1 2 3 4 5 6 
#
# 1 85.0925 43.6626 44.5430 -21.3955 24.7939 6.0945
# 2 43.6626 109.2516 41.1415 -24.0727 -1.9359 -0.2584
# 3 44.5430 41.1415 117.1010 -36.9669 10.0924 7.6727
# 4 -21.3955 -24.0727 -36.9669 46.2278 2.1526 5.7637
# 5 24.7939 -1.9359 10.0924 2.1526 28.3679 -6.0194
# 6 6.0945 -0.2584 7.6727 5.7637 -6.0194 43.9448
#
#
#
# Elastic Compliance Matrix: (Units=1/GPa)
#
#
# Indices 1 2 3 4 5 6 
#
# 1 0.028156 -0.009071 -0.001682 0.009299 -0.027160 -0.008604
# 2 -0.009071 0.013954 -0.002501 0.000186 0.010431 0.003181
# 3 -0.001682 -0.002501 0.013878 0.009788 -0.005274 -0.004211
# 4 0.009299 0.000186 0.009788 0.035866 -0.016431 -0.009952
# 5 -0.027160 0.010431 -0.005274 -0.016431 0.066214 0.015974
# 6 -0.008604 0.003181 -0.004211 -0.009952 0.015974 0.028196
#
#
# Mechanical properties :
#
#
# Convention : Reuss Voigt Hill
#
# Bulk Modulus (GPa) = 33.92287 63.34881 48.63584
# Shear Modulus (GPa) = 22.46190 35.84798 29.15494
#
# Velocity S-wave (km/s) = 3.26087 4.11948 3.71506
# Velocity P-wave (km/s) = 5.49877 7.25366 6.43630
#
# Compressibility (1/GPa) = 0.02947864
#
# Stress axis : x y z
#
# Youngs Moduli (GPa) = 35.51667 71.66640 72.05404
#
# Poissons Ratio (x) = 0.65012 0.12123
# Poissons Ratio (y) = 0.32219 0.18018
# Poissons Ratio (z) = 0.05976 0.17921
#
# Static dielectric constant tensor:
#      x y z
#    x 3.790950 -0.206930 0.342070 
#    y -0.206930 4.199070 -0.522460 
#    z 0.342070 -0.522460 4.106440 
# 
# 
# High freq. dielectric constant tensor:
#      x y z
#    x 1.805090 -0.001920 0.032010 
#    y -0.001920 1.839030 -0.013120 
#    z 0.032010 -0.013120 1.829480 
# 
# From -- ./inp_files/143966.got.cif
#   From: 2010.06.25/outbox.cif.g09.slc.cpg/sg2_72_cif.got.tgz:143966.got - 2010.06.27 13:26:56.
