data_PCOD8005948
_publ_section_title
;
Structure prediction by ZEFSAII (Michael W. Deem and Ramdas Pophale) SiO2 
 PCOD8005948
Probable space group: P -1
;
_chemical_formula_sum "Si O2"
_cell_formula_units_Z 16
_cell_length_a 18.663922
_cell_length_b 19.447952
_cell_length_c 8.537435
_cell_angle_alpha 140.489175
_cell_angle_beta 131.233825
_cell_angle_gamma 22.048363
_cell_volume 719.515048
_symmetry_space_group_name_H-M "P -1"
_symmetry_group_IT_number 2
_symmetry_cell_setting 'triclinic'
loop_
_space_group_symop_operation_xyz
x,y,z
-x,-y,-z
loop_
_atom_site_type_symbol
_atom_site_label
_atom_site_fract_x
_atom_site_fract_y
_atom_site_fract_z
Si Si1 0.704951 0.277224 0.649376
Si Si2 0.116945 0.865384 0.671099
Si Si3 0.688838 0.712550 0.805450
Si Si4 0.676018 0.083385 0.414287
Si Si5 0.481132 0.192143 0.843413
Si Si6 0.640281 0.223245 0.942283
Si Si7 0.105736 0.627647 0.264048
Si Si8 0.577332 0.912727 0.700429
O O1 0.729567 0.270716 0.488451
O O2 0.637797 0.220964 0.483308
O O3 0.544472 0.518171 0.907850
O O4 0.901231 0.111026 0.735024
O O5 0.128534 0.731792 0.514201
O O6 0.175275 0.886023 0.933958
O O7 0.496425 0.829024 0.708208
O O8 0.866871 0.465061 0.695403
O O9 0.744275 0.713037 0.718699
O O10 0.627072 0.868107 0.112128
O O11 0.692860 0.106309 0.657423
O O12 0.889039 0.818392 0.217883
O O13 0.595072 0.188055 0.959970
O O14 0.445144 0.163608 0.582404
O O15 0.618167 0.984785 0.793791
O O16 0.268816 0.426554 0.022912
#
# Coordination Sequence:
#
# PCOD8005948 Si02
#       8
#     2   2   2   2   2   2   2   2
#     4  10  22  38  59  89 125 158 194 238 288 351
#     4  10  22  38  59  91 124 157 195 240 284 351
#     4  10  20  40  66  85 117 158 193 244 306 350
#     4  11  24  38  59  94 121 153 199 243 286 358
#     4  10  20  39  64  88 116 155 199 248 294 349
#     4  12  22  37  63  88 121 160 198 235 293 350
#     4  10  22  40  61  87 123 157 190 242 298 348
#     4   9  20  39  64  86 115 154 198 249 302 345
#
# _framework density 22.237200999999999
#
# number of rings (size 3 to 8) (size 9 to 14) (size 15 to 20)
#    0.000    1.750    2.500    1.500    3.500    3.000 
#    0.000    6.250    0.000    0.000    0.000    0.000 
#    0.000    0.000    0.000    0.000    0.000    0.000 
#
# Total GULP energy -198361.908722 kJ/mol
# GULP energy per Si atom -12397.619295 kJ/mol
# Density = 2.218659 g / cm^3
# Si number density = 22.237201 Si / 1000 Ang^3
#
#
#
# Elastic Constant Matrix: (Units=GPa)
#
#
# Indices 1 2 3 4 5 6 
#
# 1 73.1254 24.0650 4.1619 21.2438 8.8016 29.0433
# 2 24.0650 68.9333 29.0690 11.3906 12.6109 10.6620
# 3 4.1619 29.0690 76.5788 -0.6783 5.2059 -2.0386
# 4 21.2438 11.3906 -0.6783 21.4013 10.5484 5.5135
# 5 8.8016 12.6109 5.2059 10.5484 28.5895 1.2018
# 6 29.0433 10.6620 -2.0386 5.5135 1.2018 46.7614
#
#
#
# Elastic Compliance Matrix: (Units=1/GPa)
#
#
# Indices 1 2 3 4 5 6 
#
# 1 0.026088 -0.003618 -0.000736 -0.021796 0.002282 -0.012899
# 2 -0.003618 0.020977 -0.007534 -0.004844 -0.004889 -0.002168
# 3 -0.000736 -0.007534 0.016168 0.005395 -0.001480 0.002282
# 4 -0.021796 -0.004844 0.005395 0.080454 -0.022070 0.005958
# 5 0.002282 -0.004889 -0.001480 -0.022070 0.044799 0.001083
# 6 -0.012899 -0.002168 0.002282 0.005958 0.001083 0.029260
#
#
# Mechanical properties :
#
#
# Convention : Reuss Voigt Hill
#
# Bulk Modulus (GPa) = 25.34476 37.02546 31.18511
# Shear Modulus (GPa) = 19.63287 30.10655 24.86971
#
# Velocity S-wave (km/s) = 2.97456 3.68351 3.34785
# Velocity P-wave (km/s) = 4.81867 5.89723 5.38502
#
# Compressibility (1/GPa) = 0.03945588
#
# Stress axis : x y z
#
# Youngs Moduli (GPa) = 38.33179 47.67077 61.85178
#
# Poissons Ratio (x) = 0.17247 0.04553
# Poissons Ratio (y) = 0.13868 0.46602
# Poissons Ratio (z) = 0.02821 0.35918
#
# Static dielectric constant tensor:
#      x y z
#    x 4.385700 0.380470 0.081950 
#    y 0.380470 3.930940 0.077670 
#    z 0.081950 0.077670 3.982760 
# 
# 
# High freq. dielectric constant tensor:
#      x y z
#    x 1.886430 0.028200 0.009740 
#    y 0.028200 1.859390 0.000680 
#    z 0.009740 0.000680 1.875980 
# 
# From -- ./inp_files/203361.got.cif
#   From: 2010.06.25/outbox.cif.g09.slc.cpg/sg2_102_cif.got.tgz:203361.got - 2010.06.27 13:26:56.
