data_PCOD8005143
_publ_section_title
;
Structure prediction by ZEFSAII (Michael W. Deem and Ramdas Pophale) SiO2 
 PCOD8005143
Probable space group: P -1
;
_chemical_formula_sum "Si O2"
_cell_formula_units_Z 16
_cell_length_a 15.823015
_cell_length_b 13.286595
_cell_length_c 13.671735
_cell_angle_alpha 120.541361
_cell_angle_beta 137.052502
_cell_angle_gamma 25.337759
_cell_volume 712.705552
_symmetry_space_group_name_H-M "P -1"
_symmetry_group_IT_number 2
_symmetry_cell_setting 'triclinic'
loop_
_space_group_symop_operation_xyz
x,y,z
-x,-y,-z
loop_
_atom_site_type_symbol
_atom_site_label
_atom_site_fract_x
_atom_site_fract_y
_atom_site_fract_z
Si Si1 0.160765 0.331936 0.712670
Si Si2 0.245418 0.700183 0.097471
Si Si3 0.856652 0.869728 0.528076
Si Si4 0.924836 0.111637 0.385974
Si Si5 0.276077 0.496350 0.856708
Si Si6 0.794089 0.782472 0.942759
Si Si7 0.636531 0.827900 0.630635
Si Si8 0.058702 0.089729 0.862075
O O1 0.053103 0.333363 0.539468
O O2 0.140043 0.482780 0.732340
O O3 0.946190 0.501896 0.707353
O O4 0.497960 0.017451 0.872280
O O5 0.587691 0.446654 0.255607
O O6 0.213724 0.607460 0.963601
O O7 0.182665 0.730058 0.172032
O O8 0.000000 0.000000 0.000000
O O9 0.848039 0.975981 0.488892
O O10 0.103631 0.711437 0.731875
O O11 0.559504 0.108337 0.457172
O O12 0.002249 0.936610 0.296113
O O13 0.000000 0.000000 0.500000
O O14 0.613243 0.214246 0.971002
O O15 0.696890 0.872063 0.789295
O O16 0.000000 0.500000 0.000000
O O17 0.960718 0.756583 0.105134
O O18 0.500000 0.000000 0.500000
#
# Coordination Sequence:
#
# PCOD8005143 Si02
#       8
#     2   2   2   2   2   2   2   2
#     4  10  22  39  65 100 139 172 213 278 341 400
#     4  11  23  41  68  99 128 172 226 279 337 396
#     4  11  23  38  67  98 137 173 223 276 332 405
#     4  11  27  48  65  94 134 186 231 274 333 405
#     4  10  20  38  65 101 135 166 214 278 341 401
#     4  10  24  43  66  99 136 178 225 276 339 410
#     4  11  23  39  68 104 133 172 223 273 344 407
#     4  10  23  42  70  92 132 175 224 282 329 396
#
# _framework density 22.449665
#
# number of rings (size 3 to 8) (size 9 to 14) (size 15 to 20)
#    0.000    1.500    1.250    2.625    3.500    8.000 
#    0.000    1.250    0.000    0.000    0.000    0.000 
#    0.000    0.000    0.000    0.000    0.000    0.000 
#
# Total GULP energy -198316.790439 kJ/mol
# GULP energy per Si atom -12394.799402 kJ/mol
# Density = 2.239857 g / cm^3
# Si number density = 22.449665 Si / 1000 Ang^3
#
#
#
# Elastic Constant Matrix: (Units=GPa)
#
#
# Indices 1 2 3 4 5 6 
#
# 1 148.6471 65.1357 55.9991 1.2770 17.9488 -16.4809
# 2 65.1357 135.9749 41.6301 -0.1660 10.1100 -13.8773
# 3 55.9991 41.6301 78.1800 18.0445 8.3541 0.0577
# 4 1.2770 -0.1660 18.0445 38.6175 -4.4602 -1.5356
# 5 17.9488 10.1100 8.3541 -4.4602 32.5783 -7.0832
# 6 -16.4809 -13.8773 0.0577 -1.5356 -7.0832 37.7086
#
#
#
# Elastic Compliance Matrix: (Units=1/GPa)
#
#
# Indices 1 2 3 4 5 6 
#
# 1 0.011188 -0.002681 -0.006965 0.002739 -0.002393 0.003576
# 2 -0.002681 0.010118 -0.003986 0.002129 0.000235 0.002689
# 3 -0.006965 -0.003986 0.022846 -0.011095 -0.003534 -0.005662
# 4 0.002739 0.002129 -0.011095 0.031867 0.006000 0.004422
# 5 -0.002393 0.000235 -0.003534 0.006000 0.034941 0.005854
# 6 0.003576 0.002689 -0.005662 0.004422 0.005854 0.030360
#
#
# Mechanical properties :
#
#
# Convention : Reuss Voigt Hill
#
# Bulk Modulus (GPa) = 59.21685 76.48128 67.84906
# Shear Modulus (GPa) = 28.70045 35.11669 31.90857
#
# Velocity S-wave (km/s) = 3.57940 3.95934 3.77415
# Velocity P-wave (km/s) = 6.59679 7.41914 7.02002
#
# Compressibility (1/GPa) = 0.01688709
#
# Stress axis : x y z
#
# Youngs Moduli (GPa) = 89.38213 98.82995 43.77230
#
# Poissons Ratio (x) = 0.26492 0.30489
# Poissons Ratio (y) = 0.23959 0.17449
# Poissons Ratio (z) = 0.62258 0.39398
#
# Static dielectric constant tensor:
#      x y z
#    x 3.980200 -0.323620 0.206630 
#    y -0.323620 4.213920 0.000530 
#    z 0.206630 0.000530 4.204510 
# 
# 
# High freq. dielectric constant tensor:
#      x y z
#    x 1.877170 -0.021360 0.012610 
#    y -0.021360 1.889220 0.005860 
#    z 0.012610 0.005860 1.883290 
# 
# From -- ./inp_files/532613.got.cif
#   From: 2010.06.25/outbox.cif.g09.slc.cpg/sg2_267_cif.got.tgz:532613.got - 2010.06.27 13:26:56.
