data_PCOD8005187
_publ_section_title
;
Structure prediction by ZEFSAII (Michael W. Deem and Ramdas Pophale) SiO2 
 PCOD8005187
Probable space group: P -1
;
_chemical_formula_sum "Si O2"
_cell_formula_units_Z 16
_cell_length_a 21.434165
_cell_length_b 24.363477
_cell_length_c 9.303562
_cell_angle_alpha 139.906514
_cell_angle_beta 152.908228
_cell_angle_gamma 22.818081
_cell_volume 814.416716
_symmetry_space_group_name_H-M "P -1"
_symmetry_group_IT_number 2
_symmetry_cell_setting 'triclinic'
loop_
_space_group_symop_operation_xyz
x,y,z
-x,-y,-z
loop_
_atom_site_type_symbol
_atom_site_label
_atom_site_fract_x
_atom_site_fract_y
_atom_site_fract_z
Si Si1 0.257248 0.012251 0.840715
Si Si2 0.133252 0.651615 0.330326
Si Si3 0.804751 0.931463 0.847144
Si Si4 0.514631 0.602390 0.003602
Si Si5 0.761487 0.399406 0.861470
Si Si6 0.640789 0.881720 0.180027
Si Si7 0.077099 0.558877 0.286865
Si Si8 0.105232 0.934422 0.741726
O O1 0.106267 0.003380 0.478765
O O2 0.484469 0.888904 0.953825
O O3 0.104884 0.170561 0.790649
O O4 0.325250 0.987287 0.100980
O O5 0.146951 0.602949 0.101555
O O6 0.104426 0.585425 0.239625
O O7 0.368717 0.590715 0.724031
O O8 0.674033 0.930966 0.477695
O O9 0.820673 0.009625 0.940502
O O10 0.075040 0.765590 0.102023
O O11 0.651439 0.574176 0.361928
O O12 0.742549 0.471244 0.101939
O O13 0.339939 0.756301 0.872780
O O14 0.500000 0.500000 0.500000
O O15 0.885007 0.713537 0.291017
O O16 0.500000 0.000000 0.000000
O O17 0.000000 0.500000 0.000000
O O18 0.000000 0.000000 0.500000
#
# Coordination Sequence:
#
# PCOD8005187 Si02
#       8
#     2   2   2   2   2   2   2   2
#     4   9  19  39  64  90 118 153 195 244 300 349
#     4   9  19  39  64  84 117 156 196 245 297 352
#     4  10  20  38  65  92 115 152 200 246 294 349
#     4  10  20  39  65  87 118 155 198 243 301 351
#     4   9  17  35  64  91 111 147 197 248 296 351
#     4  12  24  41  61  80 123 169 201 233 289 367
#     4  12  26  43  55  86 125 162 200 245 293 345
#     4   9  19  37  64  96 120 141 192 258 299 336
#
# _framework density 19.645962000000001
#
# number of rings (size 3 to 8) (size 9 to 14) (size 15 to 20)
#    0.000    2.000    2.500    3.000    1.750    0.000 
#    9.000    1.250    0.000    0.000    0.000    0.000 
#    0.000    0.000    0.000    0.000    0.000    0.000 
#
# Total GULP energy -198211.216584 kJ/mol
# GULP energy per Si atom -12388.201037 kJ/mol
# Density = 1.960125 g / cm^3
# Si number density = 19.645962 Si / 1000 Ang^3
#
#
#
# Elastic Constant Matrix: (Units=GPa)
#
#
# Indices 1 2 3 4 5 6 
#
# 1 131.1038 52.3872 35.8309 4.4447 15.5636 11.9843
# 2 52.3872 63.8381 16.8413 -2.4440 9.8938 9.0399
# 3 35.8309 16.8413 63.3751 2.8933 6.1060 10.4244
# 4 4.4447 -2.4440 2.8933 30.0818 4.5800 4.0499
# 5 15.5636 9.8938 6.1060 4.5800 27.7840 -0.3407
# 6 11.9843 9.0399 10.4244 4.0499 -0.3407 34.3704
#
#
#
# Elastic Compliance Matrix: (Units=1/GPa)
#
#
# Indices 1 2 3 4 5 6 
#
# 1 0.012850 -0.008920 -0.004450 -0.001691 -0.002773 -0.000613
# 2 -0.008920 0.024538 -0.000649 0.004544 -0.004394 -0.003726
# 3 -0.004450 -0.000649 0.019306 -0.000474 -0.001491 -0.004092
# 4 -0.001691 0.004544 -0.000474 0.035529 -0.006481 -0.004713
# 5 -0.002773 -0.004394 -0.001491 -0.006481 0.040552 0.003740
# 6 -0.000613 -0.003726 -0.004092 -0.004713 0.003740 0.032122
#
#
# Mechanical properties :
#
#
# Convention : Reuss Voigt Hill
#
# Bulk Modulus (GPa) = 34.89518 52.04841 43.47179
# Shear Modulus (GPa) = 24.69307 28.66440 26.67874
#
# Velocity S-wave (km/s) = 3.54913 3.82389 3.68907
# Velocity P-wave (km/s) = 5.88181 6.78579 6.34990
#
# Compressibility (1/GPa) = 0.02865725
#
# Stress axis : x y z
#
# Youngs Moduli (GPa) = 77.81875 40.75313 51.79800
#
# Poissons Ratio (x) = 0.36350 0.23049
# Poissons Ratio (y) = 0.69411 0.03362
# Poissons Ratio (z) = 0.34628 0.02645
#
# Static dielectric constant tensor:
#      x y z
#    x 4.062820 -0.452420 -0.169960 
#    y -0.452420 5.455420 0.906890 
#    z -0.169960 0.906890 4.097890 
# 
# 
# High freq. dielectric constant tensor:
#      x y z
#    x 1.766820 0.002100 -0.000490 
#    y 0.002100 1.752670 -0.013860 
#    z -0.000490 -0.013860 1.764060 
# 
# From -- ./inp_files/187658.got.cif
#   From: 2010.06.25/outbox.cif.g09.slc.cpg/sg2_94_cif.got.tgz:187658.got - 2010.06.27 13:26:56.
