data_PCOD8005632
_publ_section_title
;
Structure prediction by ZEFSAII (Michael W. Deem and Ramdas Pophale) SiO2 
 PCOD8005632
Probable space group: P -1
;
_chemical_formula_sum "Si O2"
_cell_formula_units_Z 16
_cell_length_a 8.461062
_cell_length_b 16.684661
_cell_length_c 14.445374
_cell_angle_alpha 147.935094
_cell_angle_beta 64.464229
_cell_angle_gamma 129.529266
_cell_volume 805.270024
_symmetry_space_group_name_H-M "P -1"
_symmetry_group_IT_number 2
_symmetry_cell_setting 'triclinic'
loop_
_space_group_symop_operation_xyz
x,y,z
-x,-y,-z
loop_
_atom_site_type_symbol
_atom_site_label
_atom_site_fract_x
_atom_site_fract_y
_atom_site_fract_z
Si Si1 0.120646 0.928912 0.287625
Si Si2 0.929589 0.754544 0.346844
Si Si3 0.285394 0.839820 0.855432
Si Si4 0.078886 0.166389 0.946546
Si Si5 0.648570 0.450657 0.367893
Si Si6 0.523575 0.358585 0.103952
Si Si7 0.923802 0.182026 0.431616
Si Si8 0.562773 0.020746 0.242064
O O1 0.952258 0.812678 0.134326
O O2 0.354756 0.017366 0.274814
O O3 0.054283 0.788269 0.252075
O O4 0.144922 0.109909 0.495379
O O5 0.727893 0.544961 0.194958
O O6 0.091238 0.811896 0.447616
O O7 0.296543 0.664570 0.693359
O O8 0.282988 0.890825 0.799314
O O9 0.087983 0.821497 0.938398
O O10 0.500000 0.000000 0.000000
O O11 0.048509 0.971206 0.770319
O O12 0.310692 0.329864 0.085793
O O13 0.500000 0.500000 0.500000
O O14 0.524411 0.351973 0.208443
O O15 0.875308 0.628505 0.465035
O O16 0.523550 0.184376 0.905538
O O17 0.707719 0.151450 0.418074
#
# Coordination Sequence:
#
# PCOD8005632 Si02
#       8
#     2   2   2   2   2   2   2   2
#     4  10  20  39  61  84 110 153 191 235 287 330
#     4   9  21  40  61  81 115 148 190 241 285 331
#     4  12  22  37  57  85 118 151 187 233 277 336
#     4  10  21  38  60  83 118 151 189 230 279 340
#     4  11  23  37  56  81 116 154 188 228 282 333
#     4  10  22  38  57  85 114 150 192 233 281 335
#     4   9  22  39  56  85 115 150 191 230 282 337
#     4  11  23  37  59  85 115 151 193 230 280 339
#
# _framework density 19.869111
#
# number of rings (size 3 to 8) (size 9 to 14) (size 15 to 20)
#    0.000    1.750    2.500    0.750    5.250    4.000 
#    0.000    0.000    0.000    0.000    0.000    0.000 
#    0.000    0.000    0.000    0.000    0.000    0.000 
#
# Total GULP energy -198278.485980 kJ/mol
# GULP energy per Si atom -12392.405374 kJ/mol
# Density = 1.982389 g / cm^3
# Si number density = 19.869111 Si / 1000 Ang^3
#
#
#
# Elastic Constant Matrix: (Units=GPa)
#
#
# Indices 1 2 3 4 5 6 
#
# 1 95.4445 28.5763 38.1929 -4.7524 27.2403 -6.5548
# 2 28.5763 104.7190 35.7004 -10.0631 11.6726 -19.0114
# 3 38.1929 35.7004 69.4335 0.8215 23.6159 -2.6650
# 4 -4.7524 -10.0631 0.8215 19.2493 2.3976 -5.5275
# 5 27.2403 11.6726 23.6159 2.3976 38.3027 -0.9691
# 6 -6.5548 -19.0114 -2.6650 -5.5275 -0.9691 23.6819
#
#
#
# Elastic Compliance Matrix: (Units=1/GPa)
#
#
# Indices 1 2 3 4 5 6 
#
# 1 0.015729 0.000169 -0.005951 0.006655 -0.007857 0.005051
# 2 0.000169 0.016328 -0.007807 0.013418 -0.000733 0.015378
# 3 -0.005951 -0.007807 0.024233 -0.007683 -0.008033 -0.007310
# 4 0.006655 0.013418 -0.007683 0.069866 -0.007756 0.027738
# 5 -0.007857 -0.000733 -0.008033 -0.007756 0.037258 -0.003953
# 6 0.005051 0.015378 -0.007310 0.027738 -0.003953 0.061459
#
#
# Mechanical properties :
#
#
# Convention : Reuss Voigt Hill
#
# Bulk Modulus (GPa) = 34.35225 52.72625 43.53925
# Shear Modulus (GPa) = 19.10184 27.38861 23.24523
#
# Velocity S-wave (km/s) = 3.10398 3.71678 3.42412
# Velocity P-wave (km/s) = 5.49300 6.70922 6.13134
#
# Compressibility (1/GPa) = 0.02911018
#
# Stress axis : x y z
#
# Youngs Moduli (GPa) = 63.57754 61.24554 41.26643
#
# Poissons Ratio (x) = -0.01035 0.24559
# Poissons Ratio (y) = -0.01075 0.32218
# Poissons Ratio (z) = 0.37837 0.47816
#
# Static dielectric constant tensor:
#      x y z
#    x 3.635730 0.426650 0.127280 
#    y 0.426650 7.025010 -1.080680 
#    z 0.127280 -1.080680 4.059110 
# 
# 
# High freq. dielectric constant tensor:
#      x y z
#    x 1.778640 -0.009280 0.013750 
#    y -0.009280 1.773310 0.002400 
#    z 0.013750 0.002400 1.775240 
# 
# From -- ./inp_files/179502.got.cif
#   From: 2010.06.25/outbox.cif.g09.slc.cpg/sg2_90_cif.got.tgz:179502.got - 2010.06.27 13:26:56.
