data_PCOD8005429
_publ_section_title
;
Structure prediction by ZEFSAII (Michael W. Deem and Ramdas Pophale) SiO2 
 PCOD8005429
Probable space group: P -1
;
_chemical_formula_sum "Si O2"
_cell_formula_units_Z 16
_cell_length_a 8.260563
_cell_length_b 8.504846
_cell_length_c 15.226239
_cell_angle_alpha 65.317741
_cell_angle_beta 76.612790
_cell_angle_gamma 119.597261
_cell_volume 703.556208
_symmetry_space_group_name_H-M "P -1"
_symmetry_group_IT_number 2
_symmetry_cell_setting 'triclinic'
loop_
_space_group_symop_operation_xyz
x,y,z
-x,-y,-z
loop_
_atom_site_type_symbol
_atom_site_label
_atom_site_fract_x
_atom_site_fract_y
_atom_site_fract_z
Si Si1 0.445372 0.662205 0.705404
Si Si2 0.595722 0.419991 0.071590
Si Si3 0.635436 0.013640 0.899785
Si Si4 0.958327 0.921169 0.924571
Si Si5 0.792381 0.544924 0.475181
Si Si6 0.957365 0.471054 0.306710
Si Si7 0.101852 0.882497 0.504578
Si Si8 0.363857 0.297774 0.675023
O O1 0.498545 0.640075 0.803381
O O2 0.195094 0.570798 0.746365
O O3 0.468138 0.511354 0.677032
O O4 0.631796 0.926603 0.587891
O O5 0.554160 0.195316 0.093701
O O6 0.500000 0.500000 0.000000
O O7 0.855802 0.656829 0.991071
O O8 0.796279 0.961708 0.904185
O O9 0.791927 0.277499 0.784026
O O10 0.500000 0.000000 0.000000
O O11 0.183247 0.062122 0.806560
O O12 0.000000 0.000000 0.000000
O O13 0.836450 0.435629 0.420962
O O14 0.574116 0.330338 0.608076
O O15 0.750967 0.700745 0.396983
O O16 0.002626 0.712693 0.472887
O O17 0.961120 0.264992 0.362671
O O18 0.000000 0.000000 0.500000
#
# Coordination Sequence:
#
# PCOD8005429 Si02
#       8
#     2   2   2   2   2   2   2   2
#     4  11  21  43  66  97 141 179 232 286 343 412
#     4  10  23  39  70 101 130 180 232 282 338 404
#     4  11  24  44  65  97 139 178 230 284 341 412
#     4  11  20  42  70  99 133 182 225 281 346 406
#     4  10  21  41  65  97 135 180 224 276 344 417
#     4  11  24  46  66  93 142 191 222 289 356 407
#     4  12  25  39  67 100 133 175 239 287 343 413
#     4  10  20  38  69  96 139 178 222 278 344 413
#
# _framework density 22.741609
#
# number of rings (size 3 to 8) (size 9 to 14) (size 15 to 20)
#    0.000    1.250    5.000    1.500    1.750    3.000 
#    0.000    2.500    0.000    0.000    0.000    0.000 
#    0.000    0.000    0.000    0.000    0.000    0.000 
#
# Total GULP energy -198257.992629 kJ/mol
# GULP energy per Si atom -12391.124539 kJ/mol
# Density = 2.268985 g / cm^3
# Si number density = 22.741609 Si / 1000 Ang^3
#
#
#
# Elastic Constant Matrix: (Units=GPa)
#
#
# Indices 1 2 3 4 5 6 
#
# 1 52.7592 35.3077 42.1386 -5.9953 -4.7496 0.5955
# 2 35.3077 102.7145 67.1309 -17.7190 -10.6685 22.0538
# 3 42.1386 67.1309 178.2962 -25.4402 -20.1698 6.5551
# 4 -5.9953 -17.7190 -25.4402 52.9383 7.5532 -2.1824
# 5 -4.7496 -10.6685 -20.1698 7.5532 45.7712 0.4099
# 6 0.5955 22.0538 6.5551 -2.1824 0.4099 31.4415
#
#
#
# Elastic Compliance Matrix: (Units=1/GPa)
#
#
# Indices 1 2 3 4 5 6 
#
# 1 0.027414 -0.008608 -0.003713 -0.001212 -0.000654 0.006218
# 2 -0.008608 0.018372 -0.003927 0.002613 0.001332 -0.011740
# 3 -0.003713 -0.003927 0.008453 0.002080 0.002070 0.001180
# 4 -0.001212 0.002613 0.002080 0.020886 -0.002040 -0.000767
# 5 -0.000654 0.001332 0.002070 -0.002040 0.023355 -0.001800
# 6 0.006218 -0.011740 0.001180 -0.000767 -0.001800 0.039647
#
#
# Mechanical properties :
#
#
# Convention : Reuss Voigt Hill
#
# Bulk Modulus (GPa) = 45.99854 69.21382 57.60618
# Shear Modulus (GPa) = 28.11014 38.64303 33.37659
#
# Velocity S-wave (km/s) = 3.51959 4.12663 3.83514
# Velocity P-wave (km/s) = 6.06524 7.29427 6.70797
#
# Compressibility (1/GPa) = 0.02173982
#
# Stress axis : x y z
#
# Youngs Moduli (GPa) = 36.47752 54.43187 118.30679
#
# Poissons Ratio (x) = 0.46858 0.43931
# Poissons Ratio (y) = 0.31402 0.46465
# Poissons Ratio (z) = 0.13545 0.21378
#
# Static dielectric constant tensor:
#      x y z
#    x 4.058260 0.344140 0.034860 
#    y 0.344140 4.513620 -0.214060 
#    z 0.034860 -0.214060 4.300770 
# 
# 
# High freq. dielectric constant tensor:
#      x y z
#    x 1.876220 0.020750 0.000550 
#    y 0.020750 1.902950 -0.009330 
#    z 0.000550 -0.009330 1.905850 
# 
# From -- ./inp_files/494491.got.cif
#   From: 2010.06.25/outbox.cif.g09.slc.cpg/sg2_248_cif.got.tgz:494491.got - 2010.06.27 13:26:56.
