data_PCOD8005646
_publ_section_title
;
Structure prediction by ZEFSAII (Michael W. Deem and Ramdas Pophale) SiO2 
 PCOD8005646
Probable space group: P -1
;
_chemical_formula_sum "Si O2"
_cell_formula_units_Z 14
_cell_length_a 11.218448
_cell_length_b 8.754421
_cell_length_c 12.241529
_cell_angle_alpha 62.501126
_cell_angle_beta 120.357367
_cell_angle_gamma 140.331155
_cell_volume 656.436845
_symmetry_space_group_name_H-M "P -1"
_symmetry_group_IT_number 2
_symmetry_cell_setting 'triclinic'
loop_
_space_group_symop_operation_xyz
x,y,z
-x,-y,-z
loop_
_atom_site_type_symbol
_atom_site_label
_atom_site_fract_x
_atom_site_fract_y
_atom_site_fract_z
Si Si1 0.756294 0.181208 0.886908
Si Si2 0.080658 0.121155 0.166365
Si Si3 0.907236 0.284005 0.144557
Si Si4 0.248807 0.956824 0.424219
Si Si5 0.981046 0.188839 0.424336
Si Si6 0.659491 0.272507 0.609984
Si Si7 0.715936 0.753614 0.994402
O O1 0.617671 0.179447 0.748123
O O2 0.977281 0.435616 0.877200
O O3 0.716823 0.956183 0.899348
O O4 0.731430 0.163081 0.015018
O O5 0.197497 0.269228 0.061811
O O6 0.061175 0.285118 0.163498
O O7 0.202947 0.098047 0.302267
O O8 0.864433 0.853016 0.131392
O O9 0.842721 0.141042 0.276977
O O10 0.236275 0.791505 0.386638
O O11 0.099777 0.798508 0.506474
O O12 0.463831 0.162454 0.501564
O O13 0.198130 0.441781 0.420420
O O14 0.000000 0.000000 0.500000
O O15 0.500000 0.500000 0.000000
#
# Coordination Sequence:
#
# PCOD8005646 Si02
#       7
#     2   2   2   2   2   2   2
#     4   9  18  40  60  83 119 158 194 248 304 350
#     4  10  20  39  61  87 122 161 195 253 311 346
#     4   9  19  38  64  85 122 159 198 248 303 361
#     4  11  22  41  61  90 123 165 204 247 305 361
#     4  11  22  40  61  93 121 161 207 250 302 365
#     4  10  23  41  62  87 125 162 206 254 297 363
#     4  10  21  38  62  90 118 156 207 254 296 361
#
# _framework density 21.327261
#
# number of rings (size 3 to 8) (size 9 to 14) (size 15 to 20)
#    0.000    2.000    2.857    0.429    0.000    1.714 
#    2.571    1.429    0.000    0.000    0.000    0.000 
#    0.000    0.000    0.000    0.000    0.000    0.000 
#
# Total GULP energy -173453.250281 kJ/mol
# GULP energy per Si atom -12389.517877 kJ/mol
# Density = 2.127872 g / cm^3
# Si number density = 21.327261 Si / 1000 Ang^3
#
#
#
# Elastic Constant Matrix: (Units=GPa)
#
#
# Indices 1 2 3 4 5 6 
#
# 1 53.8785 40.4349 26.1085 0.3489 8.5499 6.3682
# 2 40.4349 106.1826 44.7678 -3.7888 12.1377 -5.4251
# 3 26.1085 44.7678 159.3338 4.0733 9.0166 1.4106
# 4 0.3489 -3.7888 4.0733 29.9141 -5.3561 4.9605
# 5 8.5499 12.1377 9.0166 -5.3561 24.5928 1.4831
# 6 6.3682 -5.4251 1.4106 4.9605 1.4831 23.3699
#
#
#
# Elastic Compliance Matrix: (Units=1/GPa)
#
#
# Indices 1 2 3 4 5 6 
#
# 1 0.028915 -0.010469 -0.001477 -0.000518 -0.003862 -0.009866
# 2 -0.010469 0.015159 -0.002440 0.000714 -0.003188 0.006570
# 3 -0.001477 -0.002440 0.007316 -0.001481 -0.001274 -0.000210
# 4 -0.000518 0.000714 -0.001481 0.036624 0.008826 -0.007938
# 5 -0.003862 -0.003188 -0.001274 0.008826 0.046234 -0.004418
# 6 -0.009866 0.006570 -0.000210 -0.007938 -0.004418 0.048981
#
#
# Mechanical properties :
#
#
# Convention : Reuss Voigt Hill
#
# Bulk Modulus (GPa) = 44.21483 60.22415 52.21949
# Shear Modulus (GPa) = 22.77483 29.44762 26.11123
#
# Velocity S-wave (km/s) = 3.27138 3.71988 3.50281
# Velocity P-wave (km/s) = 5.91995 6.83735 6.39512
#
# Compressibility (1/GPa) = 0.02261684
#
# Stress axis : x y z
#
# Youngs Moduli (GPa) = 34.58355 65.96888 136.69572
#
# Poissons Ratio (x) = 0.69065 0.20196
# Poissons Ratio (y) = 0.36207 0.33348
# Poissons Ratio (z) = 0.05109 0.16094
#
# Static dielectric constant tensor:
#      x y z
#    x 3.664880 -0.229580 -0.106110 
#    y -0.229580 3.630020 0.169500 
#    z -0.106110 0.169500 4.333920 
# 
# 
# High freq. dielectric constant tensor:
#      x y z
#    x 1.809080 -0.025360 -0.001360 
#    y -0.025360 1.823020 0.007640 
#    z -0.001360 0.007640 1.863000 
# 
# From -- ./inp_files/65525.got.cif
#   From: 2010.06.25/outbox.cif.g09.slc.cpg/sg2_33_cif.got.tgz:65525.got - 2010.06.27 13:26:56.
