data_PCOD8005110
_publ_section_title
;
Structure prediction by ZEFSAII (Michael W. Deem and Ramdas Pophale) SiO2 
 PCOD8005110
Probable space group: P -1
;
_chemical_formula_sum "Si O2"
_cell_formula_units_Z 16
_cell_length_a 9.131430
_cell_length_b 12.009428
_cell_length_c 16.309101
_cell_angle_alpha 145.382866
_cell_angle_beta 117.615799
_cell_angle_gamma 83.111316
_cell_volume 769.225677
_symmetry_space_group_name_H-M "P -1"
_symmetry_group_IT_number 2
_symmetry_cell_setting 'triclinic'
loop_
_space_group_symop_operation_xyz
x,y,z
-x,-y,-z
loop_
_atom_site_type_symbol
_atom_site_label
_atom_site_fract_x
_atom_site_fract_y
_atom_site_fract_z
Si Si1 0.553411 0.752831 0.180972
Si Si2 0.214828 0.635417 0.475396
Si Si3 0.451914 0.917920 0.102611
Si Si4 0.083846 0.871795 0.895164
Si Si5 0.312040 0.048610 0.499579
Si Si6 0.737908 0.822645 0.030475
Si Si7 0.345248 0.668574 0.342955
Si Si8 0.056629 0.942067 0.615597
O O1 0.526527 0.802509 0.297954
O O2 0.780787 0.910323 0.318826
O O3 0.429978 0.816126 0.126809
O O4 0.500000 0.500000 0.000000
O O5 0.393643 0.805734 0.684985
O O6 0.300203 0.652588 0.417515
O O7 0.102562 0.377591 0.324233
O O8 0.051365 0.703742 0.476974
O O9 0.537162 0.799550 0.993909
O O10 0.242714 0.857429 0.982510
O O11 0.184793 0.002721 0.918548
O O12 0.000000 0.000000 0.000000
O O13 0.426017 0.149107 0.504274
O O14 0.235298 0.778070 0.331371
O O15 0.144268 0.102652 0.495905
O O16 0.896290 0.926794 0.206175
O O17 0.712429 0.580792 0.854572
#
# Coordination Sequence:
#
# PCOD8005110 Si02
#       8
#     2   2   2   2   2   2   2   2
#     4  10  20  38  64  95 127 168 217 259 321 387
#     4  10  23  45  64  96 132 165 221 270 315 391
#     4  10  24  44  67  94 133 169 217 269 318 391
#     4  12  25  43  71  97 125 173 219 271 334 372
#     4  11  22  38  65  95 128 177 208 258 334 382
#     4  10  23  46  59  96 129 165 219 266 320 393
#     4  11  22  40  61  90 140 161 209 270 321 380
#     4  10  23  40  65  94 127 167 224 262 312 397
#
# _framework density 20.800138
#
# number of rings (size 3 to 8) (size 9 to 14) (size 15 to 20)
#    0.000    1.750    3.750    2.250    3.500    4.000 
#    2.250    0.000    0.000    0.000    0.000    0.000 
#    0.000    0.000    0.000    0.000    0.000    0.000 
#
# Total GULP energy -198298.051716 kJ/mol
# GULP energy per Si atom -12393.628232 kJ/mol
# Density = 2.075280 g / cm^3
# Si number density = 20.800138 Si / 1000 Ang^3
#
#
#
# Elastic Constant Matrix: (Units=GPa)
#
#
# Indices 1 2 3 4 5 6 
#
# 1 58.0439 19.7798 11.6844 -2.2785 -18.4836 -0.3278
# 2 19.7798 55.1722 24.0627 4.5471 2.3495 5.2901
# 3 11.6844 24.0627 117.4164 25.2650 -20.2405 -3.0084
# 4 -2.2785 4.5471 25.2650 36.7907 1.8975 -0.4422
# 5 -18.4836 2.3495 -20.2405 1.8975 34.4919 3.2682
# 6 -0.3278 5.2901 -3.0084 -0.4422 3.2682 24.9371
#
#
#
# Elastic Compliance Matrix: (Units=1/GPa)
#
#
# Indices 1 2 3 4 5 6 
#
# 1 0.025506 -0.010949 0.002308 0.000551 0.015654 0.000895
# 2 -0.010949 0.025704 -0.006426 0.001066 -0.010982 -0.004914
# 3 0.002308 -0.006426 0.013169 -0.008589 0.009728 0.001555
# 4 0.000551 0.001066 -0.008589 0.033328 -0.006671 0.000210
# 5 0.015654 -0.010982 0.009728 -0.006671 0.044415 -0.002230
# 6 0.000895 -0.004914 0.001555 0.000210 -0.002230 0.041639
#
#
# Mechanical properties :
#
#
# Convention : Reuss Voigt Hill
#
# Bulk Modulus (GPa) = 29.20102 37.96514 33.58308
# Shear Modulus (GPa) = 22.19162 30.91767 26.55465
#
# Velocity S-wave (km/s) = 3.26988 3.85959 3.57691
# Velocity P-wave (km/s) = 5.32217 6.17688 5.76539
#
# Compressibility (1/GPa) = 0.03424538
#
# Stress axis : x y z
#
# Youngs Moduli (GPa) = 39.20623 38.90426 75.93663
#
# Poissons Ratio (x) = 0.42595 -0.17529
# Poissons Ratio (y) = 0.42926 0.48800
# Poissons Ratio (z) = -0.09050 0.25002
#
# Static dielectric constant tensor:
#      x y z
#    x 4.450960 0.740420 -0.245920 
#    y 0.740420 4.367650 0.109980 
#    z -0.245920 0.109980 3.871500 
# 
# 
# High freq. dielectric constant tensor:
#      x y z
#    x 1.818520 0.010310 -0.020760 
#    y 0.010310 1.807160 0.016630 
#    z -0.020760 0.016630 1.816470 
# 
# From -- ./inp_files/559438.got.cif
#   From: 2010.06.25/outbox.cif.g09.slc.cpg/sg2_280_cif.got.tgz:559438.got - 2010.06.27 13:26:56.
