data_PCOD8005619
_publ_section_title
;
Structure prediction by ZEFSAII (Michael W. Deem and Ramdas Pophale) SiO2 
 PCOD8005619
Probable space group: P -1
;
_chemical_formula_sum "Si O2"
_cell_formula_units_Z 16
_cell_length_a 12.452027
_cell_length_b 12.956324
_cell_length_c 8.877372
_cell_angle_alpha 129.043594
_cell_angle_beta 112.379209
_cell_angle_gamma 42.648713
_cell_volume 744.279970
_symmetry_space_group_name_H-M "P -1"
_symmetry_group_IT_number 2
_symmetry_cell_setting 'triclinic'
loop_
_space_group_symop_operation_xyz
x,y,z
-x,-y,-z
loop_
_atom_site_type_symbol
_atom_site_label
_atom_site_fract_x
_atom_site_fract_y
_atom_site_fract_z
Si Si1 0.671411 0.852279 0.802050
Si Si2 0.834972 0.261071 0.575399
Si Si3 0.495373 0.359201 0.800721
Si Si4 0.200829 0.969131 0.485581
Si Si5 0.212943 0.486362 0.964717
Si Si6 0.675503 0.862091 0.157342
Si Si7 0.002054 0.639227 0.707304
Si Si8 0.279338 0.495739 0.536132
O O1 0.710111 0.665497 0.653301
O O2 0.814262 0.828324 0.783007
O O3 0.509057 0.007532 0.763606
O O4 0.659377 0.911699 0.020388
O O5 0.775406 0.159703 0.488556
O O6 0.718370 0.413967 0.527142
O O7 0.824145 0.354874 0.809694
O O8 0.015260 0.113392 0.468171
O O9 0.676920 0.158271 0.704537
O O10 0.379229 0.362742 0.846309
O O11 0.429404 0.416911 0.647448
O O12 0.500000 0.500000 0.000000
O O13 0.234959 0.089367 0.670011
O O14 0.224364 0.350177 0.954189
O O15 0.065874 0.579634 0.858034
O O16 0.113236 0.652194 0.684016
O O17 0.000000 0.500000 0.500000
#
# Coordination Sequence:
#
# PCOD8005619 Si02
#       8
#     2   2   2   2   2   2   2   2
#     4  10  20  39  60  97 135 157 208 269 323 371
#     4  11  24  44  68  95 125 173 218 263 320 380
#     4  11  23  46  66  92 132 174 211 263 320 386
#     4  11  25  42  65  94 136 164 215 269 317 377
#     4  11  23  41  71  94 127 174 216 254 328 385
#     4  11  23  38  65  99 130 164 212 270 317 377
#     4   9  21  37  60  94 129 164 205 264 314 380
#     4  10  21  42  67  92 124 170 216 259 318 383
#
# _framework density 21.497287
#
# number of rings (size 3 to 8) (size 9 to 14) (size 15 to 20)
#    0.000    1.500    3.750    0.750    3.500    3.000 
#    4.500    0.625    0.000    0.000    0.000    0.000 
#    0.000    0.000    0.000    0.000    0.000    0.000 
#
# Total GULP energy -198351.258929 kJ/mol
# GULP energy per Si atom -12396.953683 kJ/mol
# Density = 2.144836 g / cm^3
# Si number density = 21.497287 Si / 1000 Ang^3
#
#
#
# Elastic Constant Matrix: (Units=GPa)
#
#
# Indices 1 2 3 4 5 6 
#
# 1 70.9451 9.1534 14.5191 8.7357 -4.7306 -25.6381
# 2 9.1534 58.1590 13.6512 1.2510 -2.3559 1.5343
# 3 14.5191 13.6512 78.4353 0.5326 -0.8469 -3.4595
# 4 8.7357 1.2510 0.5326 30.9942 -0.3445 -4.2154
# 5 -4.7306 -2.3559 -0.8469 -0.3445 31.1043 9.4315
# 6 -25.6381 1.5343 -3.4595 -4.2154 9.4315 32.8877
#
#
#
# Elastic Compliance Matrix: (Units=1/GPa)
#
#
# Indices 1 2 3 4 5 6 
#
# 1 0.021387 -0.003191 -0.002666 -0.003606 -0.002165 0.016700
# 2 -0.003191 0.018563 -0.002805 -0.000364 0.002148 -0.004311
# 3 -0.002666 -0.002805 0.013708 0.000574 -0.000118 -0.000398
# 4 -0.003606 -0.000364 0.000574 0.033518 -0.000726 0.001770
# 5 -0.002165 0.002148 -0.000118 -0.000726 0.035646 -0.012116
# 6 0.016700 -0.004311 -0.000398 0.001770 -0.012116 0.047286
#
#
# Mechanical properties :
#
#
# Convention : Reuss Voigt Hill
#
# Bulk Modulus (GPa) = 27.52107 31.35410 29.43759
# Shear Modulus (GPa) = 25.05709 30.34496 27.70102
#
# Velocity S-wave (km/s) = 3.41778 3.76116 3.59358
# Velocity P-wave (km/s) = 5.32962 5.78607 5.56253
#
# Compressibility (1/GPa) = 0.03633579
#
# Stress axis : x y z
#
# Youngs Moduli (GPa) = 46.75633 53.86962 72.94878
#
# Poissons Ratio (x) = 0.17190 0.19448
# Poissons Ratio (y) = 0.14920 0.20460
# Poissons Ratio (z) = 0.12465 0.15109
#
# Static dielectric constant tensor:
#      x y z
#    x 4.207510 -0.411180 -0.173720 
#    y -0.411180 3.722090 0.074970 
#    z -0.173720 0.074970 3.793200 
# 
# 
# High freq. dielectric constant tensor:
#      x y z
#    x 1.854050 -0.021900 -0.007580 
#    y -0.021900 1.823600 0.001860 
#    z -0.007580 0.001860 1.843600 
# 
# From -- ./inp_files/209257.got.cif
#   From: 2010.06.25/outbox.cif.g09.slc.cpg/sg2_105_cif.got.tgz:209257.got - 2010.06.27 13:26:56.
