data_PCOD8005436
_publ_section_title
;
Structure prediction by ZEFSAII (Michael W. Deem and Ramdas Pophale) SiO2 
 PCOD8005436
Probable space group: P -1
;
_chemical_formula_sum "Si O2"
_cell_formula_units_Z 14
_cell_length_a 8.664440
_cell_length_b 14.305240
_cell_length_c 8.984390
_cell_angle_alpha 90.477060
_cell_angle_beta 135.274952
_cell_angle_gamma 117.732977
_cell_volume 581.921642
_symmetry_space_group_name_H-M "P -1"
_symmetry_group_IT_number 2
_symmetry_cell_setting 'triclinic'
loop_
_space_group_symop_operation_xyz
x,y,z
-x,-y,-z
loop_
_atom_site_type_symbol
_atom_site_label
_atom_site_fract_x
_atom_site_fract_y
_atom_site_fract_z
Si Si1 0.901933 0.345117 0.523588
Si Si2 0.157215 0.980327 0.397932
Si Si3 0.866121 0.562423 0.864196
Si Si4 0.783262 0.194047 0.705836
Si Si5 0.690997 0.661012 0.383730
Si Si6 0.169121 0.937335 0.747444
Si Si7 0.781902 0.388035 0.144109
O O1 0.188436 0.380184 0.648636
O O2 0.029154 0.463545 0.713320
O O3 0.717618 0.221686 0.499198
O O4 0.693759 0.322375 0.245053
O O5 0.486425 0.114129 0.598285
O O6 0.915019 0.994088 0.213623
O O7 0.103239 0.880041 0.243429
O O8 0.126504 0.936550 0.543312
O O9 0.512013 0.448549 0.632432
O O10 0.990681 0.619212 0.783777
O O11 0.000000 0.500000 0.000000
O O12 0.959999 0.674587 0.036396
O O13 0.947564 0.791768 0.645197
O O14 0.506832 0.681420 0.154717
O O15 0.500000 0.000000 0.000000
#
# Coordination Sequence:
#
# PCOD8005436 Si02
#       7
#     2   2   2   2   2   2   2
#     4  11  22  39  66 104 141 173 227 275 344 424
#     4  10  24  45  72  96 143 188 229 285 351 403
#     4  10  20  38  70 100 138 179 225 281 358 405
#     4  11  21  44  70 105 144 184 229 283 347 425
#     4  11  22  41  69  94 139 179 223 291 350 401
#     4  11  25  46  72 103 133 186 244 289 338 420
#     4  10  23  40  66 104 139 180 218 284 350 419
#
# _framework density 24.058221
#
# number of rings (size 3 to 8) (size 9 to 14) (size 15 to 20)
#    0.000    1.429    4.286    2.143    0.000    4.000 
#    0.000    4.286    0.000    0.000    0.000    0.000 
#    0.000    0.000    0.000    0.000    0.000    0.000 
#
# Total GULP energy -173568.451255 kJ/mol
# GULP energy per Si atom -12397.746518 kJ/mol
# Density = 2.400346 g / cm^3
# Si number density = 24.058221 Si / 1000 Ang^3
#
#
#
# Elastic Constant Matrix: (Units=GPa)
#
#
# Indices 1 2 3 4 5 6 
#
# 1 139.8715 36.0290 32.4527 16.1229 4.5579 -23.3031
# 2 36.0290 100.9122 28.6650 27.2263 -4.3760 -1.3662
# 3 32.4527 28.6650 77.5113 31.7408 10.1413 -15.4980
# 4 16.1229 27.2263 31.7408 27.4088 0.7839 -2.5327
# 5 4.5579 -4.3760 10.1413 0.7839 35.6850 -2.8587
# 6 -23.3031 -1.3662 -15.4980 -2.5327 -2.8587 46.1827
#
#
#
# Elastic Compliance Matrix: (Units=1/GPa)
#
#
# Indices 1 2 3 4 5 6 
#
# 1 0.008913 -0.002590 -0.001905 -0.000102 -0.000613 0.003738
# 2 -0.002590 0.014440 0.001072 -0.014228 0.002015 -0.001175
# 3 -0.001905 0.001072 0.028759 -0.032456 -0.006562 0.006535
# 4 -0.000102 -0.014228 -0.032456 0.087541 0.005068 -0.006249
# 5 -0.000613 0.002015 -0.006562 0.005068 0.030077 -0.000312
# 6 0.003738 -0.001175 0.006535 -0.006249 -0.000312 0.025336
#
#
# Mechanical properties :
#
#
# Convention : Reuss Voigt Hill
#
# Bulk Modulus (GPa) = 22.09169 56.95428 39.52298
# Shear Modulus (GPa) = 23.04159 36.59851 29.82005
#
# Velocity S-wave (km/s) = 3.09810 3.90455 3.52447
# Velocity P-wave (km/s) = 4.69043 6.63719 5.74684
#
# Compressibility (1/GPa) = 0.04526589
#
# Stress axis : x y z
#
# Youngs Moduli (GPa) = 112.19724 69.25240 34.77231
#
# Poissons Ratio (x) = 0.17934 0.06623
# Poissons Ratio (y) = 0.29055 -0.03726
# Poissons Ratio (z) = 0.21370 -0.07421
#
# Static dielectric constant tensor:
#      x y z
#    x 4.830150 0.107390 -0.034940 
#    y 0.107390 4.572660 -0.092900 
#    z -0.034940 -0.092900 3.957730 
# 
# 
# High freq. dielectric constant tensor:
#      x y z
#    x 1.974260 0.000360 -0.002540 
#    y 0.000360 1.966080 0.001780 
#    z -0.002540 0.001780 1.923610 
# 
# From -- ./inp_files/202318.got.cif
#   From: 2010.06.25/outbox.cif.g09.slc.cpg/sg2_102_cif.got.tgz:202318.got - 2010.06.27 13:26:56.
