data_PCOD8005875
_publ_section_title
;
Structure prediction by ZEFSAII (Michael W. Deem and Ramdas Pophale) SiO2 
 PCOD8005875
Probable space group: P -1
;
_chemical_formula_sum "Si O2"
_cell_formula_units_Z 16
_cell_length_a 11.220644
_cell_length_b 7.046797
_cell_length_c 10.892943
_cell_angle_alpha 79.994590
_cell_angle_beta 79.835098
_cell_angle_gamma 50.872626
_cell_volume 655.464497
_symmetry_space_group_name_H-M "P -1"
_symmetry_group_IT_number 2
_symmetry_cell_setting 'triclinic'
loop_
_space_group_symop_operation_xyz
x,y,z
-x,-y,-z
loop_
_atom_site_type_symbol
_atom_site_label
_atom_site_fract_x
_atom_site_fract_y
_atom_site_fract_z
Si Si1 0.202405 0.100741 0.422309
Si Si2 0.340443 0.264213 0.539957
Si Si3 0.586255 0.295095 0.408778
Si Si4 0.765217 0.099410 0.996331
Si Si5 0.098472 0.727988 0.877105
Si Si6 0.323836 0.190278 0.824078
Si Si7 0.437394 0.725953 0.215743
Si Si8 0.912904 0.215365 0.394355
O O1 0.238006 0.276744 0.447911
O O2 0.032586 0.280533 0.375063
O O3 0.232488 0.918295 0.557472
O O4 0.323259 0.908737 0.321546
O O5 0.509656 0.153807 0.461510
O O6 0.342969 0.137686 0.680024
O O7 0.258739 0.547192 0.562704
O O8 0.500000 0.500000 0.500000
O O9 0.552800 0.435654 0.270038
O O10 0.675121 0.022004 0.094563
O O11 0.785746 0.271190 0.054127
O O12 0.932829 0.857886 0.953643
O O13 0.659818 0.260413 0.881548
O O14 0.165311 0.453054 0.860281
O O15 0.084032 0.863412 0.737688
O O16 0.462702 0.186512 0.850298
O O17 0.000000 0.000000 0.500000
#
# Coordination Sequence:
#
# PCOD8005875 Si02
#       8
#     2   2   2   2   2   2   2   2
#     4  11  22  40  63  98 136 168 208 274 337 391
#     4  11  23  39  62 103 129 170 213 267 340 390
#     4  10  20  39  63  91 132 169 210 266 327 393
#     4  11  24  48  68  92 131 178 227 269 328 390
#     4  10  25  46  68  95 128 178 223 272 335 384
#     4  11  24  42  67  97 135 169 224 275 320 397
#     4  11  23  43  66  98 131 177 218 267 329 395
#     4  11  23  40  67  96 129 165 216 274 328 393
#
# _framework density 24.410169
#
# number of rings (size 3 to 8) (size 9 to 14) (size 15 to 20)
#    0.000    1.250    3.750    3.000    3.500    0.500 
#    2.250    0.000    0.000    0.000    0.000    0.000 
#    0.000    0.000    0.000    0.000    0.000    0.000 
#
# Total GULP energy -198295.881119 kJ/mol
# GULP energy per Si atom -12393.492570 kJ/mol
# Density = 2.435461 g / cm^3
# Si number density = 24.410169 Si / 1000 Ang^3
#
#
#
# Elastic Constant Matrix: (Units=GPa)
#
#
# Indices 1 2 3 4 5 6 
#
# 1 118.9448 12.3306 60.6927 -11.4875 18.2672 -19.0435
# 2 12.3306 58.9725 38.9344 -0.8103 -2.7648 -11.8252
# 3 60.6927 38.9344 133.5110 -5.6834 21.3763 1.6543
# 4 -11.4875 -0.8103 -5.6834 41.4782 -0.6535 -0.1638
# 5 18.2672 -2.7648 21.3763 -0.6535 51.5148 -6.0183
# 6 -19.0435 -11.8252 1.6543 -0.1638 -6.0183 39.6171
#
#
#
# Elastic Compliance Matrix: (Units=1/GPa)
#
#
# Indices 1 2 3 4 5 6 
#
# 1 0.013085 0.003197 -0.006731 0.002781 -0.000774 0.007419
# 2 0.003197 0.025037 -0.009748 0.000165 0.005454 0.010246
# 3 -0.006731 -0.009748 0.014266 -0.000207 -0.004934 -0.007491
# 4 0.002781 0.000165 -0.000207 0.024853 -0.000409 0.001436
# 5 -0.000774 0.005454 -0.004934 -0.000409 0.022593 0.004893
# 6 0.007419 0.010246 -0.007491 0.001436 0.004893 0.032928
#
#
# Mechanical properties :
#
#
# Convention : Reuss Voigt Hill
#
# Bulk Modulus (GPa) = 38.72024 59.48263 49.10144
# Shear Modulus (GPa) = 29.77356 39.82005 34.79681
#
# Velocity S-wave (km/s) = 3.49624 4.04330 3.77968
# Velocity P-wave (km/s) = 5.67406 6.79843 6.26153
#
# Compressibility (1/GPa) = 0.02582629
#
# Stress axis : x y z
#
# Youngs Moduli (GPa) = 76.42076 39.94129 70.09501
#
# Poissons Ratio (x) = -0.12770 0.47178
# Poissons Ratio (y) = -0.24434 0.68327
# Poissons Ratio (z) = 0.51436 0.38934
#
# Static dielectric constant tensor:
#      x y z
#    x 2.142460 -2.087670 1.958680 
#    y -2.087670 3.864180 0.610700 
#    z 1.958680 0.610700 3.886310 
# 
# 
# High freq. dielectric constant tensor:
#      x y z
#    x 2.002870 -0.004450 0.004650 
#    y -0.004450 1.970380 0.012930 
#    z 0.004650 0.012930 1.965510 
# 
# From -- ./inp_files/243510.got.cif
#   From: 2010.06.25/outbox.cif.g09.slc.cpg/sg2_122_cif.got.tgz:243510.got - 2010.06.27 13:26:56.
