data_PCOD8005414
_publ_section_title
;
Structure prediction by ZEFSAII (Michael W. Deem and Ramdas Pophale) SiO2 
 PCOD8005414
Probable space group: P -1
;
_chemical_formula_sum "Si O2"
_cell_formula_units_Z 16
_cell_length_a 10.984868
_cell_length_b 10.806038
_cell_length_c 14.496856
_cell_angle_alpha 43.663683
_cell_angle_beta 62.357574
_cell_angle_gamma 41.936756
_cell_volume 783.688364
_symmetry_space_group_name_H-M "P -1"
_symmetry_group_IT_number 2
_symmetry_cell_setting 'triclinic'
loop_
_space_group_symop_operation_xyz
x,y,z
-x,-y,-z
loop_
_atom_site_type_symbol
_atom_site_label
_atom_site_fract_x
_atom_site_fract_y
_atom_site_fract_z
Si Si1 0.652494 0.611852 0.911187
Si Si2 0.226783 0.451442 0.716470
Si Si3 0.441641 0.292516 0.538892
Si Si4 0.190365 0.246354 0.544077
Si Si5 0.331852 0.765083 0.807758
Si Si6 0.484436 0.458875 0.743671
Si Si7 0.415749 0.956994 0.972697
Si Si8 0.810666 0.784687 0.654782
O O1 0.494647 0.694826 0.851607
O O2 0.564479 0.801723 0.923030
O O3 0.800406 0.606174 0.810184
O O4 0.751878 0.344909 0.059429
O O5 0.342818 0.395540 0.615234
O O6 0.313035 0.492384 0.746713
O O7 0.013579 0.690271 0.650797
O O8 0.241618 0.222461 0.852797
O O9 0.356997 0.209440 0.551222
O O10 0.414231 0.512668 0.384967
O O11 0.659213 0.056733 0.600281
O O12 0.222708 0.221215 0.437610
O O13 0.000000 0.500000 0.500000
O O14 0.181400 0.053001 0.693789
O O15 0.407347 0.665657 0.732820
O O16 0.632137 0.196549 0.883740
O O17 0.500000 0.000000 0.000000
#
# Coordination Sequence:
#
# PCOD8005414 Si02
#       8
#     2   2   2   2   2   2   2   2
#     4  10  20  38  69  89 121 168 205 256 318 364
#     4  11  23  41  62  96 126 162 216 257 301 382
#     4  12  22  42  66  88 128 167 206 258 319 371
#     4  12  23  41  64  92 129 161 207 264 313 368
#     4  10  20  40  64  93 121 163 214 254 309 376
#     4  10  22  39  65  90 127 168 205 259 315 364
#     4   9  19  40  64  88 125 163 205 258 307 365
#     4  12  23  39  65  94 125 168 206 257 317 369
#
# _framework density 20.416277999999998
#
# number of rings (size 3 to 8) (size 9 to 14) (size 15 to 20)
#    0.000    1.250    5.000    1.500    0.000    0.500 
#    2.250    6.250    0.000    0.000    0.000    0.000 
#    0.000    0.000    0.000    0.000    0.000    0.000 
#
# Total GULP energy -198343.380018 kJ/mol
# GULP energy per Si atom -12396.461251 kJ/mol
# Density = 2.036981 g / cm^3
# Si number density = 20.416278 Si / 1000 Ang^3
#
#
#
# Elastic Constant Matrix: (Units=GPa)
#
#
# Indices 1 2 3 4 5 6 
#
# 1 50.2656 40.3771 23.6892 7.1708 7.7033 21.2417
# 2 40.3771 107.0738 57.4115 -1.9066 2.4479 -4.3248
# 3 23.6892 57.4115 152.7082 -6.3531 -15.2225 -0.5277
# 4 7.1708 -1.9066 -6.3531 32.8547 6.7254 1.7405
# 5 7.7033 2.4479 -15.2225 6.7254 30.7018 1.2798
# 6 21.2417 -4.3248 -0.5277 1.7405 1.2798 26.5459
#
#
#
# Elastic Compliance Matrix: (Units=1/GPa)
#
#
# Indices 1 2 3 4 5 6 
#
# 1 0.075886 -0.029771 -0.002577 -0.012839 -0.012457 -0.064182
# 2 -0.029771 0.023813 -0.003883 0.005416 0.001325 0.027206
# 3 -0.002577 -0.003883 0.008964 0.000950 0.005139 0.001298
# 4 -0.012839 0.005416 0.000950 0.034196 -0.004612 0.009155
# 5 -0.012457 0.001325 0.005139 -0.004612 0.038786 0.008718
# 6 -0.064182 0.027206 0.001298 0.009155 0.008718 0.092466
#
#
# Mechanical properties :
#
#
# Convention : Reuss Voigt Hill
#
# Bulk Modulus (GPa) = 27.62303 61.44481 44.53392
# Shear Modulus (GPa) = 13.94156 30.59181 22.26668
#
# Velocity S-wave (km/s) = 2.61600 3.87512 3.30606
# Velocity P-wave (km/s) = 4.76276 7.08402 6.03603
#
# Compressibility (1/GPa) = 0.03620168
#
# Stress axis : x y z
#
# Youngs Moduli (GPa) = 13.17761 41.99441 111.55451
#
# Poissons Ratio (x) = 1.25021 0.28750
# Poissons Ratio (y) = 0.39231 0.43314
# Poissons Ratio (z) = 0.03396 0.16306
#
# Static dielectric constant tensor:
#      x y z
#    x 3.621720 0.345630 -0.055120 
#    y 0.345630 3.693890 -0.076250 
#    z -0.055120 -0.076250 4.792710 
# 
# 
# High freq. dielectric constant tensor:
#      x y z
#    x 1.780090 0.030620 0.002140 
#    y 0.030620 1.780770 0.001410 
#    z 0.002140 0.001410 1.830320 
# 
# From -- ./inp_files/424462.got.cif
#   From: 2010.06.25/outbox.cif.g09.slc.cpg/sg2_213_cif.got.tgz:424462.got - 2010.06.27 13:26:56.
