data_PCOD8005284
_publ_section_title
;
Structure prediction by ZEFSAII (Michael W. Deem and Ramdas Pophale) SiO2 
 PCOD8005284
Probable space group: P -1
;
_chemical_formula_sum "Si O2"
_cell_formula_units_Z 14
_cell_length_a 21.995079
_cell_length_b 8.957921
_cell_length_c 9.350287
_cell_angle_alpha 132.658534
_cell_angle_beta 141.262057
_cell_angle_gamma 38.736348
_cell_volume 710.017838
_symmetry_space_group_name_H-M "P -1"
_symmetry_group_IT_number 2
_symmetry_cell_setting 'triclinic'
loop_
_space_group_symop_operation_xyz
x,y,z
-x,-y,-z
loop_
_atom_site_type_symbol
_atom_site_label
_atom_site_fract_x
_atom_site_fract_y
_atom_site_fract_z
Si Si1 0.446566 0.118021 0.329610
Si Si2 0.039419 0.622041 0.038455
Si Si3 0.331484 0.945317 0.801126
Si Si4 0.111494 0.461862 0.753009
Si Si5 0.835432 0.144071 0.899163
Si Si6 0.596571 0.222980 0.490998
Si Si7 0.242613 0.639545 0.397701
O O1 0.554254 0.085670 0.419778
O O2 0.337302 0.393707 0.328283
O O3 0.500000 0.000000 0.500000
O O4 0.409117 0.957724 0.073875
O O5 0.149376 0.619523 0.307750
O O6 0.092966 0.464831 0.891291
O O7 0.000000 0.500000 0.000000
O O8 0.934108 0.887140 0.975640
O O9 0.216417 0.202768 0.730563
O O10 0.394483 0.864580 0.711738
O O11 0.303773 0.744938 0.672316
O O12 0.000000 0.500000 0.500000
O O13 0.140565 0.654357 0.871988
O O14 0.712987 0.186474 0.749693
O O15 0.834231 0.155565 0.731481
O O16 0.500000 0.500000 0.500000
#
# Coordination Sequence:
#
# PCOD8005284 Si02
#       7
#     2   2   2   2   2   2   2
#     4  12  25  41  66  95 134 172 212 275 328 379
#     4  11  23  40  66  95 134 167 207 275 331 379
#     4  11  21  41  71  92 128 174 222 267 316 388
#     4  11  20  39  67  98 125 169 224 259 323 392
#     4  10  20  38  66  92 125 173 210 265 315 386
#     4  11  21  42  66  94 128 170 225 261 313 390
#     4  10  21  44  63  92 131 170 217 263 323 385
#
# _framework density 19.717814000000001
#
# number of rings (size 3 to 8) (size 9 to 14) (size 15 to 20)
#    0.000    1.143    5.714    4.714    2.000    0.571 
#    0.000    4.286    0.000    0.000    0.000    0.000 
#    0.000    0.000    0.000    0.000    0.000    0.000 
#
# Total GULP energy -173519.026551 kJ/mol
# GULP energy per Si atom -12394.216182 kJ/mol
# Density = 1.967293 g / cm^3
# Si number density = 19.717814 Si / 1000 Ang^3
#
#
#
# Elastic Constant Matrix: (Units=GPa)
#
#
# Indices 1 2 3 4 5 6 
#
# 1 142.8333 60.9528 77.3773 2.7978 27.0012 4.6441
# 2 60.9528 102.9902 52.4131 10.9984 -2.8457 -12.6275
# 3 77.3773 52.4131 171.8435 15.6886 29.5220 2.8444
# 4 2.7978 10.9984 15.6886 32.9452 1.2774 3.5411
# 5 27.0012 -2.8457 29.5220 1.2774 43.2326 1.1784
# 6 4.6441 -12.6275 2.8444 3.5411 1.1784 33.1398
#
#
#
# Elastic Compliance Matrix: (Units=1/GPa)
#
#
# Indices 1 2 3 4 5 6 
#
# 1 0.012964 -0.007433 -0.002644 0.003390 -0.006757 -0.004544
# 2 -0.007433 0.017355 -0.002959 -0.004930 0.007729 0.008161
# 3 -0.002644 -0.002959 0.008965 -0.002765 -0.004555 -0.001069
# 4 0.003390 -0.004930 -0.002765 0.033691 -0.001394 -0.005667
# 5 -0.006757 0.007729 -0.004555 -0.001394 0.030920 0.003332
# 6 -0.004544 0.008161 -0.001069 -0.005667 0.003332 0.034500
#
#
# Mechanical properties :
#
#
# Convention : Reuss Voigt Hill
#
# Bulk Modulus (GPa) = 75.68733 88.79482 82.24107
# Shear Modulus (GPa) = 29.60827 36.99177 33.30002
#
# Velocity S-wave (km/s) = 3.87925 4.33605 4.11399
# Velocity P-wave (km/s) = 7.65071 8.37848 8.02285
#
# Compressibility (1/GPa) = 0.01321225
#
# Stress axis : x y z
#
# Youngs Moduli (GPa) = 77.13698 57.61932 111.54623
#
# Poissons Ratio (x) = 0.42827 0.29490
# Poissons Ratio (y) = 0.57335 0.33010
# Poissons Ratio (z) = 0.20393 0.17051
#
# Static dielectric constant tensor:
#      x y z
#    x 4.921960 -0.204640 0.711100 
#    y -0.204640 3.695600 0.049700 
#    z 0.711100 0.049700 3.912070 
# 
# 
# High freq. dielectric constant tensor:
#      x y z
#    x 1.758180 -0.011770 0.033410 
#    y -0.011770 1.773020 0.005900 
#    z 0.033410 0.005900 1.776850 
# 
# From -- ./inp_files/188188.got.cif
#   From: 2010.06.25/outbox.cif.g09.slc.cpg/sg2_95_cif.got.tgz:188188.got - 2010.06.27 13:26:56.
