data_PCOD8005350
_publ_section_title
;
Structure prediction by ZEFSAII (Michael W. Deem and Ramdas Pophale) SiO2 
 PCOD8005350
Probable space group: P -1
;
_chemical_formula_sum "Si O2"
_cell_formula_units_Z 12
_cell_length_a 16.783020
_cell_length_b 9.559939
_cell_length_c 4.811018
_cell_angle_alpha 119.000101
_cell_angle_beta 81.019176
_cell_angle_gamma 119.867893
_cell_volume 581.730688
_symmetry_space_group_name_H-M "P -1"
_symmetry_group_IT_number 2
_symmetry_cell_setting 'triclinic'
loop_
_space_group_symop_operation_xyz
x,y,z
-x,-y,-z
loop_
_atom_site_type_symbol
_atom_site_label
_atom_site_fract_x
_atom_site_fract_y
_atom_site_fract_z
Si Si1 0.286702 0.674416 0.343265
Si Si2 0.850473 0.015128 0.503408
Si Si3 0.129146 0.328751 0.854829
Si Si4 0.023940 0.346170 0.435452
Si Si5 0.241049 0.934850 0.870223
Si Si6 0.391208 0.881561 0.956576
O O1 0.051133 0.270972 0.076654
O O2 0.358082 0.815533 0.219187
O O3 0.211677 0.737969 0.542873
O O4 0.229956 0.470398 0.060122
O O5 0.869031 0.851502 0.423771
O O6 0.766886 0.938910 0.246435
O O7 0.827739 0.093097 0.867030
O O8 0.937669 0.177541 0.462684
O O9 0.107165 0.420544 0.689462
O O10 0.352336 0.700907 0.601069
O O11 0.000000 0.500000 0.500000
O O12 0.345907 0.007324 0.995336
O O13 0.500000 0.000000 0.000000
#
# Coordination Sequence:
#
# PCOD8005350 Si02
#       6
#     2   2   2   2   2   2
#     4  10  21  37  63  90 121 154 211 245 311 352
#     4  12  23  41  61  89 129 168 205 250 308 361
#     4  12  25  42  60  91 128 166 205 257 309 356
#     4  12  26  39  63  89 125 168 219 255 289 352
#     4  10  21  38  63  90 119 160 211 245 305 363
#     4  10  20  38  67  94 118 150 207 257 302 368
#
# _framework density 20.628101999999998
#
# number of rings (size 3 to 8) (size 9 to 14) (size 15 to 20)
#    1.000    0.000    1.667    6.000    2.333    0.000 
#    0.000    0.000    0.000    6.000    0.000    0.000 
#    0.000    0.000    0.000    0.000    0.000    0.000 
#
# Total GULP energy -148677.156621 kJ/mol
# GULP energy per Si atom -12389.763052 kJ/mol
# Density = 2.058115 g / cm^3
# Si number density = 20.628102 Si / 1000 Ang^3
#
#
#
# Elastic Constant Matrix: (Units=GPa)
#
#
# Indices 1 2 3 4 5 6 
#
# 1 71.4467 36.9501 16.7129 10.1971 3.7514 3.9998
# 2 36.9501 84.6691 36.3865 1.8175 -10.4358 -1.6596
# 3 16.7129 36.3865 97.2465 -10.9510 -6.7105 -0.7004
# 4 10.1971 1.8175 -10.9510 35.8339 1.3451 4.3629
# 5 3.7514 -10.4358 -6.7105 1.3451 33.8031 -8.6154
# 6 3.9998 -1.6596 -0.7004 4.3629 -8.6154 26.9423
#
#
#
# Elastic Compliance Matrix: (Units=1/GPa)
#
#
# Indices 1 2 3 4 5 6 
#
# 1 0.020274 -0.009161 -0.001070 -0.004803 -0.006336 -0.004850
# 2 -0.009161 0.018983 -0.005089 -0.000762 0.007120 0.004797
# 3 -0.001070 -0.005089 0.012937 0.004517 0.000867 -0.000273
# 4 -0.004803 -0.000762 0.004517 0.031310 -0.001246 -0.004685
# 5 -0.006336 0.007120 0.000867 -0.001246 0.036053 0.013132
# 6 -0.004850 0.004797 -0.000273 -0.004685 0.013132 0.043083
#
#
# Mechanical properties :
#
#
# Convention : Reuss Voigt Hill
#
# Bulk Modulus (GPa) = 46.38916 48.16238 47.27577
# Shear Modulus (GPa) = 24.94213 30.20337 27.57275
#
# Velocity S-wave (km/s) = 3.48103 3.83062 3.66000
# Velocity P-wave (km/s) = 6.22044 6.55465 6.38973
#
# Compressibility (1/GPa) = 0.02155676
#
# Stress axis : x y z
#
# Youngs Moduli (GPa) = 49.32396 52.67772 77.29506
#
# Poissons Ratio (x) = 0.48258 0.08268
# Poissons Ratio (y) = 0.45185 0.39332
# Poissons Ratio (z) = 0.05276 0.26805
#
# Static dielectric constant tensor:
#      x y z
#    x 3.868250 -0.193180 0.206120 
#    y -0.193180 3.402090 -0.401450 
#    z 0.206120 -0.401450 4.029130 
# 
# 
# High freq. dielectric constant tensor:
#      x y z
#    x 1.798600 -0.003970 0.009910 
#    y -0.003970 1.773790 -0.031710 
#    z 0.009910 -0.031710 1.828260 
# 
# From -- ./inp_files/105598.got.cif
#   From: 2010.06.25/outbox.cif.g09.slc.cpg/sg2_53_cif.got.tgz:105598.got - 2010.06.27 13:26:56.
