data_PCOD8005018
_publ_section_title
;
Structure prediction by ZEFSAII (Michael W. Deem and Ramdas Pophale) SiO2 
 PCOD8005018
Probable space group: P -1
;
_chemical_formula_sum "Si O2"
_cell_formula_units_Z 12
_cell_length_a 8.735763
_cell_length_b 9.011563
_cell_length_c 15.311259
_cell_angle_alpha 150.294787
_cell_angle_beta 80.218833
_cell_angle_gamma 99.230908
_cell_volume 588.408249
_symmetry_space_group_name_H-M "P -1"
_symmetry_group_IT_number 2
_symmetry_cell_setting 'triclinic'
loop_
_space_group_symop_operation_xyz
x,y,z
-x,-y,-z
loop_
_atom_site_type_symbol
_atom_site_label
_atom_site_fract_x
_atom_site_fract_y
_atom_site_fract_z
Si Si1 0.119167 0.774232 0.131092
Si Si2 0.683545 0.694695 0.045151
Si Si3 0.743543 0.914667 0.455085
Si Si4 0.015528 0.951223 0.870590
Si Si5 0.987847 0.729570 0.469014
Si Si6 0.485457 0.262950 0.752506
O O1 0.062102 0.035673 0.333523
O O2 0.274228 0.628103 0.078431
O O3 0.125198 0.903812 0.097252
O O4 0.000000 0.500000 0.000000
O O5 0.589951 0.869808 0.218170
O O6 0.822696 0.897024 0.098534
O O7 0.568166 0.591207 0.925060
O O8 0.868014 0.720986 0.395189
O O9 0.655734 0.704010 0.285267
O O10 0.612880 0.031379 0.591869
O O11 0.838048 0.189471 0.540001
O O12 0.014178 0.605491 0.665781
O O13 0.000000 0.000000 0.000000
#
# Coordination Sequence:
#
# PCOD8005018 Si02
#       6
#     2   2   2   2   2   2
#     4  10  21  38  62  90 121 160 203 251 306 358
#     4  10  21  40  63  88 123 166 204 243 310 370
#     4  10  21  36  65  95 116 162 207 252 303 364
#     4  11  24  37  63  96 126 155 206 264 306 351
#     4  11  22  39  64  94 126 154 210 259 306 355
#     4  10  20  38  64  85 125 163 206 243 301 380
#
# _framework density 20.394003000000001
#
# number of rings (size 3 to 8) (size 9 to 14) (size 15 to 20)
#    0.000    1.667    1.667    3.500    9.333    0.000 
#    0.000    1.667   14.667    0.000    0.000    0.000 
#    0.000    0.000    0.000    0.000    0.000    0.000 
#
# Total GULP energy -148703.483324 kJ/mol
# GULP energy per Si atom -12391.956944 kJ/mol
# Density = 2.034759 g / cm^3
# Si number density = 20.394003 Si / 1000 Ang^3
#
#
#
# Elastic Constant Matrix: (Units=GPa)
#
#
# Indices 1 2 3 4 5 6 
#
# 1 111.2065 47.7864 40.5286 -2.7542 15.9782 4.1774
# 2 47.7864 119.0823 51.9805 1.7456 5.4259 2.1517
# 3 40.5286 51.9805 114.7156 -3.5838 15.3084 -4.9906
# 4 -2.7542 1.7456 -3.5838 38.0045 -1.9319 0.3451
# 5 15.9782 5.4259 15.3084 -1.9319 31.8478 -9.2590
# 6 4.1774 2.1517 -4.9906 0.3451 -9.2590 31.5990
#
#
#
# Elastic Compliance Matrix: (Units=1/GPa)
#
#
# Indices 1 2 3 4 5 6 
#
# 1 0.012261 -0.003732 -0.002036 0.000621 -0.005457 -0.003294
# 2 -0.003732 0.011706 -0.004271 -0.001119 0.001730 -0.000459
# 3 -0.002036 -0.004271 0.011933 0.000982 -0.003519 0.001403
# 4 0.000621 -0.001119 0.000982 0.026554 0.001068 0.000172
# 5 -0.005457 0.001730 -0.003519 0.001068 0.038925 0.011442
# 6 -0.003294 -0.000459 0.001403 0.000172 0.011442 0.035686
#
#
# Mechanical properties :
#
#
# Convention : Reuss Voigt Hill
#
# Bulk Modulus (GPa) = 63.20952 69.51058 66.36005
# Shear Modulus (GPa) = 30.78452 33.93752 32.36102
#
# Velocity S-wave (km/s) = 3.88943 4.08376 3.98778
# Velocity P-wave (km/s) = 7.15763 7.50959 7.33572
#
# Compressibility (1/GPa) = 0.01582040
#
# Stress axis : x y z
#
# Youngs Moduli (GPa) = 81.55644 85.42891 83.79822
#
# Poissons Ratio (x) = 0.31886 0.17065
# Poissons Ratio (y) = 0.30440 0.35792
# Poissons Ratio (z) = 0.16608 0.36489
#
# Static dielectric constant tensor:
#      x y z
#    x 4.500390 -0.596750 -0.094890 
#    y -0.596750 4.074790 0.005800 
#    z -0.094890 0.005800 3.921140 
# 
# 
# High freq. dielectric constant tensor:
#      x y z
#    x 1.806870 -0.001690 0.014570 
#    y -0.001690 1.777180 -0.027690 
#    z 0.014570 -0.027690 1.804350 
# 
# From -- ./inp_files/144864.got.cif
#   From: 2010.06.25/outbox.cif.g09.slc.cpg/sg2_73_cif.got.tgz:144864.got - 2010.06.27 13:26:56.
