data_PCOD8005837
_publ_section_title
;
Structure prediction by ZEFSAII (Michael W. Deem and Ramdas Pophale) SiO2 
 PCOD8005837
Probable space group: P -1
;
_chemical_formula_sum "Si O2"
_cell_formula_units_Z 16
_cell_length_a 13.110419
_cell_length_b 19.511269
_cell_length_c 8.166379
_cell_angle_alpha 88.724224
_cell_angle_beta 75.956325
_cell_angle_gamma 26.150198
_cell_volume 794.242874
_symmetry_space_group_name_H-M "P -1"
_symmetry_group_IT_number 2
_symmetry_cell_setting 'triclinic'
loop_
_space_group_symop_operation_xyz
x,y,z
-x,-y,-z
loop_
_atom_site_type_symbol
_atom_site_label
_atom_site_fract_x
_atom_site_fract_y
_atom_site_fract_z
Si Si1 0.234893 0.984142 0.679024
Si Si2 0.202800 0.251611 0.065678
Si Si3 0.801511 0.843747 0.387049
Si Si4 0.247241 0.806595 0.223873
Si Si5 0.206212 0.115335 0.252956
Si Si6 0.750407 0.657150 0.707907
Si Si7 0.819353 0.489083 0.922576
Si Si8 0.091710 0.042024 0.383746
O O1 0.481386 0.810015 0.699150
O O2 0.179544 0.097619 0.728503
O O3 0.296080 0.936632 0.462171
O O4 0.966394 0.101199 0.821644
O O5 0.121616 0.222316 0.146661
O O6 0.241252 0.273912 0.211976
O O7 0.963935 0.424457 0.038292
O O8 0.472937 0.087235 0.862664
O O9 0.900797 0.795374 0.535134
O O10 0.989495 0.674160 0.245806
O O11 0.500000 0.000000 0.500000
O O12 0.192502 0.810730 0.430859
O O13 0.208031 0.912250 0.232300
O O14 0.547635 0.610144 0.061165
O O15 0.066536 0.124803 0.274504
O O16 0.751174 0.598528 0.846879
O O17 0.000000 0.500000 0.500000
#
# Coordination Sequence:
#
# PCOD8005837 Si02
#       8
#     2   2   2   2   2   2   2   2
#     4   9  21  39  65  84 123 169 202 246 311 379
#     4  11  24  37  62  93 129 155 212 262 311 380
#     4  11  20  40  64  89 125 167 201 259 320 373
#     4   9  20  40  64  92 124 168 211 255 309 371
#     4  10  20  39  63  89 117 173 209 248 318 377
#     4  12  26  39  63  98 126 163 205 268 322 371
#     4  12  25  38  62  95 132 160 211 267 309 364
#     4   8  18  39  67  86 122 167 211 250 311 374
#
# _framework density 20.144971000000002
#
# number of rings (size 3 to 8) (size 9 to 14) (size 15 to 20)
#    0.750    1.000    1.250    3.375    5.250    1.000 
#    0.000    0.625    2.750    0.000    0.000    0.000 
#    0.000    0.000    0.000    0.000    0.000    0.000 
#
# Total GULP energy -198337.065455 kJ/mol
# GULP energy per Si atom -12396.066591 kJ/mol
# Density = 2.009912 g / cm^3
# Si number density = 20.144971 Si / 1000 Ang^3
#
#
#
# Elastic Constant Matrix: (Units=GPa)
#
#
# Indices 1 2 3 4 5 6 
#
# 1 126.2609 38.3806 33.8174 4.9653 -6.2368 16.7730
# 2 38.3806 88.1654 29.4054 -0.0208 -11.1779 -0.1876
# 3 33.8174 29.4054 89.9416 16.9755 -8.7994 -0.7360
# 4 4.9653 -0.0208 16.9755 29.5410 1.2495 -4.8782
# 5 -6.2368 -11.1779 -8.7994 1.2495 33.1444 -3.2214
# 6 16.7730 -0.1876 -0.7360 -4.8782 -3.2214 38.4894
#
#
#
# Elastic Compliance Matrix: (Units=1/GPa)
#
#
# Indices 1 2 3 4 5 6 
#
# 1 0.010397 -0.003730 -0.002572 -0.001042 -0.000408 -0.004764
# 2 -0.003730 0.014591 -0.003570 0.002922 0.003383 0.002282
# 3 -0.002572 -0.003570 0.015077 -0.008254 0.002681 0.000570
# 4 -0.001042 0.002922 -0.008254 0.039722 -0.002399 0.005144
# 5 -0.000408 0.003383 0.002681 -0.002399 0.032294 0.002644
# 6 -0.004764 0.002282 0.000570 0.005144 0.002644 0.028953
#
#
# Mechanical properties :
#
#
# Convention : Reuss Voigt Hill
#
# Bulk Modulus (GPa) = 49.20962 56.39719 52.80341
# Shear Modulus (GPa) = 29.84155 33.75259 31.79707
#
# Velocity S-wave (km/s) = 3.85299 4.09771 3.97723
# Velocity P-wave (km/s) = 6.65393 7.10245 6.88185
#
# Compressibility (1/GPa) = 0.02032123
#
# Stress axis : x y z
#
# Youngs Moduli (GPa) = 96.18586 68.53418 66.32538
#
# Poissons Ratio (x) = 0.25565 0.17057
# Poissons Ratio (y) = 0.35880 0.23677
# Poissons Ratio (z) = 0.24737 0.24466
#
# Static dielectric constant tensor:
#      x y z
#    x 3.856100 0.133110 -0.066960 
#    y 0.133110 3.443900 0.019600 
#    z -0.066960 0.019600 3.709990 
# 
# 
# High freq. dielectric constant tensor:
#      x y z
#    x 1.797840 0.016080 -0.002650 
#    y 0.016080 1.759860 -0.002940 
#    z -0.002650 -0.002940 1.783020 
# 
# From -- ./inp_files/318983.got.cif
#   From: 2010.06.25/outbox.cif.g09.slc.cpg/sg2_160_cif.got.tgz:318983.got - 2010.06.27 13:26:56.
