data_PCOD8005869
_publ_section_title
;
Structure prediction by ZEFSAII (Michael W. Deem and Ramdas Pophale) SiO2 
 PCOD8005869
Probable space group: P -1
;
_chemical_formula_sum "Si O2"
_cell_formula_units_Z 16
_cell_length_a 19.636218
_cell_length_b 8.922100
_cell_length_c 5.225541
_cell_angle_alpha 99.509653
_cell_angle_beta 105.550717
_cell_angle_gamma 103.140654
_cell_volume 833.557424
_symmetry_space_group_name_H-M "P -1"
_symmetry_group_IT_number 2
_symmetry_cell_setting 'triclinic'
loop_
_space_group_symop_operation_xyz
x,y,z
-x,-y,-z
loop_
_atom_site_type_symbol
_atom_site_label
_atom_site_fract_x
_atom_site_fract_y
_atom_site_fract_z
Si Si1 0.384777 0.671747 0.103290
Si Si2 0.308268 0.586917 0.495374
Si Si3 0.156262 0.319760 0.249552
Si Si4 0.821764 0.024659 0.825649
Si Si5 0.906835 0.100009 0.432516
Si Si6 0.520911 0.920607 0.250378
Si Si7 0.672889 0.092172 0.609477
Si Si8 0.071106 0.244874 0.642758
O O1 0.362911 0.567557 0.311865
O O2 0.473508 0.733759 0.157991
O O3 0.357864 0.831961 0.154127
O O4 0.345112 0.565394 0.795811
O O5 0.230819 0.458832 0.352198
O O6 0.296954 0.762694 0.520410
O O7 0.175167 0.154389 0.221690
O O8 0.111082 0.339482 0.461985
O O9 0.107707 0.336083 0.959901
O O10 0.862029 0.119526 0.645542
O O11 0.736493 0.018037 0.741171
O O12 0.861001 0.119005 0.141048
O O13 0.984817 0.236112 0.547256
O O14 0.921079 0.930374 0.399295
O O15 0.500000 0.000000 0.500000
O O16 0.609350 0.950689 0.367166
O O17 0.500000 0.000000 0.000000
#
# Coordination Sequence:
#
# PCOD8005869 Si02
#       8
#     2   2   2   2   2   2   2   2
#     4   9  18  31  50  74  91 130 165 200 226 278
#     4  10  19  31  50  71  99 128 161 196 233 286
#     4  10  19  32  51  74  96 128 159 202 233 292
#     4  10  20  31  50  76 101 120 157 200 257 276
#     4   9  18  31  50  73  96 125 158 208 234 286
#     4  10  16  30  49  74  94 121 167 203 226 270
#     4   9  21  30  53  73 100 125 156 204 243 282
#     4   9  17  32  51  71  94 125 170 195 236 274
#
# _framework density 19.194839000000002
#
# number of rings (size 3 to 8) (size 9 to 14) (size 15 to 20)
#    0.750    1.750    1.250    1.500    1.750    3.000 
#    0.000    0.000    0.000    6.000    0.000    0.000 
#    0.000    0.000    0.000    0.000    0.000    0.000 
#
# Total GULP energy -198262.325695 kJ/mol
# GULP energy per Si atom -12391.395356 kJ/mol
# Density = 1.915115 g / cm^3
# Si number density = 19.194839 Si / 1000 Ang^3
#
#
#
# Elastic Constant Matrix: (Units=GPa)
#
#
# Indices 1 2 3 4 5 6 
#
# 1 710.7794 243.3276 504.4291 70.3583 355.0927 306.6866
# 2 243.3276 138.1819 194.9987 30.6125 114.0230 135.0977
# 3 504.4291 194.9987 494.4545 41.0930 247.9926 231.6754
# 4 70.3583 30.6125 41.0930 39.0773 54.3687 36.3802
# 5 355.0927 114.0230 247.9926 54.3687 208.9503 149.5520
# 6 306.6866 135.0977 231.6754 36.3802 149.5520 158.2402
#
#
#
# Elastic Compliance Matrix: (Units=1/GPa)
#
#
# Indices 1 2 3 4 5 6 
#
# 1 0.027232 0.004314 -0.002626 0.018517 -0.029754 -0.028754
# 2 0.004314 0.052579 -0.002930 -0.006680 0.009691 -0.056584
# 3 -0.002626 -0.002930 0.008348 0.005351 -0.003225 -0.002814
# 4 0.018517 -0.006680 0.005351 0.060268 -0.039333 -0.014702
# 5 -0.029754 0.009691 -0.003225 -0.039333 0.058474 0.007894
# 6 -0.028754 -0.056584 -0.002814 -0.014702 0.007894 0.110395
#
#
# Mechanical properties :
#
#
# Convention : Reuss Voigt Hill
#
# Bulk Modulus (GPa) = 11.67197 358.76965 185.22081
# Shear Modulus (GPa) = 14.35399 107.96425 61.15912
#
# Velocity S-wave (km/s) = 2.73757 7.50790 5.65079
# Velocity P-wave (km/s) = 4.01078 16.20103 11.80169
#
# Compressibility (1/GPa) = 0.08567536
#
# Stress axis : x y z
#
# Youngs Moduli (GPa) = 36.72187 19.01915 119.79508
#
# Poissons Ratio (x) = -0.08205 0.31457
# Poissons Ratio (y) = -0.15842 0.35094
# Poissons Ratio (z) = 0.09643 0.05572
#
# Static dielectric constant tensor:
#      x y z
#    x 3.326290 0.504760 0.099240 
#    y 0.504760 3.254810 0.011130 
#    z 0.099240 0.011130 3.763170 
# 
# 
# High freq. dielectric constant tensor:
#      x y z
#    x 1.715970 0.049290 0.006880 
#    y 0.049290 1.716080 -0.002430 
#    z 0.006880 -0.002430 1.766770 
# 
# From -- ./inp_files/117681.got.cif
#   From: 2010.06.25/outbox.cif.g09.slc.cpg/sg2_59_cif.got.tgz:117681.got - 2010.06.27 13:26:56.
