data_PCOD8005848
_publ_section_title
;
Structure prediction by ZEFSAII (Michael W. Deem and Ramdas Pophale) SiO2 
 PCOD8005848
Probable space group: P -1
;
_chemical_formula_sum "Si O2"
_cell_formula_units_Z 14
_cell_length_a 5.468057
_cell_length_b 21.936714
_cell_length_c 8.619299
_cell_angle_alpha 131.801024
_cell_angle_beta 124.204813
_cell_angle_gamma 82.641821
_cell_volume 584.197146
_symmetry_space_group_name_H-M "P -1"
_symmetry_group_IT_number 2
_symmetry_cell_setting 'triclinic'
loop_
_space_group_symop_operation_xyz
x,y,z
-x,-y,-z
loop_
_atom_site_type_symbol
_atom_site_label
_atom_site_fract_x
_atom_site_fract_y
_atom_site_fract_z
Si Si1 0.522498 0.667376 0.511242
Si Si2 0.848470 0.192703 0.958016
Si Si3 0.762037 0.873439 0.577276
Si Si4 0.848430 0.939761 0.062195
Si Si5 0.760556 0.200997 0.283060
Si Si6 0.529796 0.417040 0.947018
Si Si7 0.261086 0.474962 0.231176
O O1 0.302023 0.723561 0.514699
O O2 0.301068 0.567047 0.314808
O O3 0.655197 0.665531 0.377904
O O4 0.821869 0.721515 0.823906
O O5 0.593349 0.178818 0.708085
O O6 0.915257 0.104567 0.863868
O O7 0.743019 0.221560 0.130709
O O8 0.913112 0.800792 0.532576
O O9 0.743155 0.916295 0.806863
O O10 0.972445 0.953572 0.670835
O O11 0.514520 0.899910 0.968562
O O12 0.364129 0.409497 0.044728
O O13 0.903636 0.428205 0.096593
O O14 0.500000 0.500000 0.000000
O O15 0.500000 0.500000 0.500000
#
# Coordination Sequence:
#
# PCOD8005848 Si02
#       7
#     2   2   2   2   2   2   2
#     4  10  23  42  60  87 133 166 208 268 332 391
#     4  10  22  38  59  93 128 166 214 265 330 383
#     4  10  20  39  63  89 124 170 216 265 317 391
#     4   9  20  39  61  88 127 165 218 267 318 384
#     4  10  22  38  58  91 127 167 211 263 330 385
#     4  10  22  43  72  92 128 176 214 267 334 395
#     4  11  24  45  70 103 125 169 230 271 327 399
#
# _framework density 23.964514000000001
#
# number of rings (size 3 to 8) (size 9 to 14) (size 15 to 20)
#    0.000    2.000    0.000    3.000    6.000    2.857 
#   10.286    0.000    0.000    0.000    0.000    0.000 
#    0.000    0.000    0.000    0.000    0.000    0.000 
#
# Total GULP energy -173489.920867 kJ/mol
# GULP energy per Si atom -12392.137205 kJ/mol
# Density = 2.390997 g / cm^3
# Si number density = 23.964514 Si / 1000 Ang^3
#
#
#
# Elastic Constant Matrix: (Units=GPa)
#
#
# Indices 1 2 3 4 5 6 
#
# 1 103.5988 15.2397 35.1751 -11.7508 3.2144 -17.4798
# 2 15.2397 48.3996 29.5149 -1.7364 4.1491 -11.7541
# 3 35.1751 29.5149 137.6830 -19.0110 19.5016 -24.1096
# 4 -11.7508 -1.7364 -19.0110 43.0421 -2.9074 7.1291
# 5 3.2144 4.1491 19.5016 -2.9074 38.2858 4.9713
# 6 -17.4798 -11.7541 -24.1096 7.1291 4.9713 27.9506
#
#
#
# Elastic Compliance Matrix: (Units=1/GPa)
#
#
# Indices 1 2 3 4 5 6 
#
# 1 0.011383 -0.001385 -0.001434 0.001547 -0.000609 0.005014
# 2 -0.001385 0.025311 -0.003855 -0.002405 -0.001805 0.007387
# 3 -0.001434 -0.003855 0.010907 0.002685 -0.005752 0.007229
# 4 0.001547 -0.002405 0.002685 0.025573 0.001287 -0.004480
# 5 -0.000609 -0.001805 -0.005752 0.001287 0.030943 -0.011934
# 6 0.005014 0.007387 0.007229 -0.004480 -0.011934 0.051520
#
#
# Mechanical properties :
#
#
# Convention : Reuss Voigt Hill
#
# Bulk Modulus (GPa) = 29.19311 49.94897 39.57104
# Shear Modulus (GPa) = 27.71584 35.83913 31.77748
#
# Velocity S-wave (km/s) = 3.40448 3.87138 3.64541
# Velocity P-wave (km/s) = 5.25949 6.39308 5.85379
#
# Compressibility (1/GPa) = 0.03425466
#
# Stress axis : x y z
#
# Youngs Moduli (GPa) = 87.84726 39.50909 91.68447
#
# Poissons Ratio (x) = 0.05471 0.13143
# Poissons Ratio (y) = 0.12165 0.35343
# Poissons Ratio (z) = 0.12593 0.15230
#
# Static dielectric constant tensor:
#      x y z
#    x 4.879110 0.151670 -0.050940 
#    y 0.151670 4.886920 0.867690 
#    z -0.050940 0.867690 5.118850 
# 
# 
# High freq. dielectric constant tensor:
#      x y z
#    x 1.954140 -0.003230 0.010170 
#    y -0.003230 1.939470 0.010190 
#    z 0.010170 0.010190 1.951030 
# 
# From -- ./inp_files/112336.got.cif
#   From: 2010.06.25/outbox.cif.g09.slc.cpg/sg2_57_cif.got.tgz:112336.got - 2010.06.27 13:26:56.
