data_PCOD8005535
_publ_section_title
;
Structure prediction by ZEFSAII (Michael W. Deem and Ramdas Pophale) SiO2 
 PCOD8005535
Probable space group: P -1
;
_chemical_formula_sum "Si O2"
_cell_formula_units_Z 16
_cell_length_a 13.818918
_cell_length_b 9.936400
_cell_length_c 18.891027
_cell_angle_alpha 56.311105
_cell_angle_beta 158.766009
_cell_angle_gamma 121.035760
_cell_volume 781.683124
_symmetry_space_group_name_H-M "P -1"
_symmetry_group_IT_number 2
_symmetry_cell_setting 'triclinic'
loop_
_space_group_symop_operation_xyz
x,y,z
-x,-y,-z
loop_
_atom_site_type_symbol
_atom_site_label
_atom_site_fract_x
_atom_site_fract_y
_atom_site_fract_z
Si Si1 0.864365 0.856622 0.221043
Si Si2 0.782635 0.424058 0.627178
Si Si3 0.081007 0.825043 0.529248
Si Si4 0.910214 0.235874 0.008354
Si Si5 0.203898 0.489230 0.771287
Si Si6 0.820741 0.539148 0.774732
Si Si7 0.216678 0.930213 0.308817
Si Si8 0.436266 0.048051 0.788991
O O1 0.788322 0.669190 0.225414
O O2 0.999050 0.894584 0.376759
O O3 0.092039 0.882776 0.311999
O O4 0.605651 0.968115 0.992807
O O5 0.847169 0.524140 0.712929
O O6 0.472986 0.462324 0.389752
O O7 0.794621 0.228077 0.703064
O O8 0.982611 0.483278 0.685012
O O9 0.137535 0.634083 0.629587
O O10 0.832718 0.864567 0.397851
O O11 0.354259 0.910296 0.716785
O O12 0.965465 0.379536 0.949750
O O13 0.602472 0.189178 0.823094
O O14 0.032218 0.295406 0.149852
O O15 0.051311 0.076685 0.118481
O O16 0.500000 0.500000 0.000000
O O17 0.500000 0.000000 0.500000
#
# Coordination Sequence:
#
# PCOD8005535 Si02
#       8
#     2   2   2   2   2   2   2   2
#     4  10  22  40  63  87 120 164 204 249 305 365
#     4  10  22  39  62  88 121 160 207 247 306 363
#     4  11  22  40  62  90 119 165 205 250 307 358
#     4  10  21  39  61  88 123 154 198 253 305 363
#     4  11  22  41  60  87 128 163 203 259 299 363
#     4  10  21  40  62  90 117 160 203 251 306 364
#     4  10  20  39  59  87 123 157 193 251 305 363
#     4  10  22  40  61  90 126 153 204 260 298 364
#
# _framework density 20.468651000000001
#
# number of rings (size 3 to 8) (size 9 to 14) (size 15 to 20)
#    0.000    1.750    2.500    1.500    0.000    2.500 
#   13.500    0.000    0.000    0.000    0.000    0.000 
#    0.000    0.000    0.000    0.000    0.000    0.000 
#
# Total GULP energy -198297.034345 kJ/mol
# GULP energy per Si atom -12393.564647 kJ/mol
# Density = 2.042206 g / cm^3
# Si number density = 20.468651 Si / 1000 Ang^3
#
#
#
# Elastic Constant Matrix: (Units=GPa)
#
#
# Indices 1 2 3 4 5 6 
#
# 1 26.3650 -4.2615 16.8453 3.1431 0.3289 -0.5759
# 2 -4.2615 90.8951 23.5471 -3.4078 -2.6954 3.6145
# 3 16.8453 23.5471 90.3317 13.8308 -5.0253 2.6460
# 4 3.1431 -3.4078 13.8308 36.4097 6.4953 0.1027
# 5 0.3289 -2.6954 -5.0253 6.4953 33.6234 -1.7446
# 6 -0.5759 3.6145 2.6460 0.1027 -1.7446 23.8328
#
#
#
# Elastic Compliance Matrix: (Units=1/GPa)
#
#
# Indices 1 2 3 4 5 6 
#
# 1 0.044892 0.004555 -0.009768 0.000537 -0.001567 0.001362
# 2 0.004555 0.012514 -0.004475 0.002529 -0.000267 -0.001321
# 3 -0.009768 -0.004475 0.015160 -0.005882 0.003088 -0.000989
# 4 0.000537 0.002529 -0.005882 0.031087 -0.006705 -0.000342
# 5 -0.001567 -0.000267 0.003088 -0.006705 0.031596 0.002002
# 6 0.001362 -0.001321 -0.000989 -0.000342 0.002002 0.042450
#
#
# Mechanical properties :
#
#
# Convention : Reuss Voigt Hill
#
# Bulk Modulus (GPa) = 18.80094 31.09483 24.94788
# Shear Modulus (GPa) = 23.27701 30.20393 26.74047
#
# Velocity S-wave (km/s) = 3.37590 3.84555 3.61835
# Velocity P-wave (km/s) = 4.93972 5.91118 5.44715
#
# Compressibility (1/GPa) = 0.05318883
#
# Stress axis : x y z
#
# Youngs Moduli (GPa) = 22.27585 79.91094 65.96407
#
# Poissons Ratio (x) = -0.36397 0.64435
# Poissons Ratio (y) = -0.10146 0.29518
# Poissons Ratio (z) = 0.21759 0.35759
#
# Static dielectric constant tensor:
#      x y z
#    x 3.364040 -0.143370 0.061580 
#    y -0.143370 4.249110 0.101140 
#    z 0.061580 0.101140 3.834410 
# 
# 
# High freq. dielectric constant tensor:
#      x y z
#    x 1.771020 -0.000100 0.007100 
#    y -0.000100 1.821230 0.000560 
#    z 0.007100 0.000560 1.811500 
# 
# From -- ./inp_files/575240.got.cif
#   From: 2010.06.25/outbox.cif.g09.slc.cpg/sg2_288_cif.got.tgz:575240.got - 2010.06.27 13:26:56.
