data_PCOD8005626
_publ_section_title
;
Structure prediction by ZEFSAII (Michael W. Deem and Ramdas Pophale) SiO2 
 PCOD8005626
Probable space group: P -1
;
_chemical_formula_sum "Si O2"
_cell_formula_units_Z 16
_cell_length_a 13.329944
_cell_length_b 9.274226
_cell_length_c 12.860316
_cell_angle_alpha 130.132865
_cell_angle_beta 47.136442
_cell_angle_gamma 100.205806
_cell_volume 788.185910
_symmetry_space_group_name_H-M "P -1"
_symmetry_group_IT_number 2
_symmetry_cell_setting 'triclinic'
loop_
_space_group_symop_operation_xyz
x,y,z
-x,-y,-z
loop_
_atom_site_type_symbol
_atom_site_label
_atom_site_fract_x
_atom_site_fract_y
_atom_site_fract_z
Si Si1 0.084949 0.217411 0.403999
Si Si2 0.578683 0.908819 0.198247
Si Si3 0.090788 0.327249 0.227161
Si Si4 0.121644 0.861249 0.767031
Si Si5 0.817843 0.128140 0.486450
Si Si6 0.491903 0.439929 0.806741
Si Si7 0.456045 0.655263 0.505802
Si Si8 0.656594 0.097406 0.779512
O O1 0.142354 0.287544 0.292682
O O2 0.972268 0.426773 0.646973
O O3 0.978724 0.105449 0.405125
O O4 0.243800 0.064019 0.277218
O O5 0.550616 0.744587 0.213511
O O6 0.497113 0.924065 0.150258
O O7 0.509492 0.144326 0.406915
O O8 0.762824 0.822416 0.016014
O O9 0.941150 0.292084 0.306883
O O10 0.145991 0.985684 0.706938
O O11 0.275967 0.731217 0.660419
O O12 0.000000 0.000000 0.000000
O O13 0.672476 0.364686 0.674564
O O14 0.759431 0.023100 0.566842
O O15 0.462079 0.466830 0.715683
O O16 0.386996 0.661921 0.042587
O O17 0.500000 0.500000 0.500000
#
# Coordination Sequence:
#
# PCOD8005626 Si02
#       8
#     2   2   2   2   2   2   2   2
#     4  10  21  35  58  90 120 152 199 251 299 351
#     4  11  22  40  62  89 123 160 200 245 307 361
#     4  10  21  37  58  84 120 159 198 242 302 364
#     4  10  20  39  61  81 114 162 201 237 302 359
#     4   9  19  37  59  84 116 154 194 244 297 355
#     4  10  22  41  64  88 122 163 200 244 306 363
#     4  11  25  40  63  89 123 157 206 253 296 353
#     4  11  22  36  64  92 121 153 205 252 300 350
#
# _framework density 20.299779000000001
#
# number of rings (size 3 to 8) (size 9 to 14) (size 15 to 20)
#    0.000    1.750    1.250    3.750    3.500    1.500 
#    0.000    0.000    0.000    1.500    0.000    0.000 
#    0.000    0.000    0.000    0.000    0.000    0.000 
#
# Total GULP energy -198218.178368 kJ/mol
# GULP energy per Si atom -12388.636148 kJ/mol
# Density = 2.025358 g / cm^3
# Si number density = 20.299779 Si / 1000 Ang^3
#
#
#
# Elastic Constant Matrix: (Units=GPa)
#
#
# Indices 1 2 3 4 5 6 
#
# 1 112.7801 48.9818 32.4532 5.1152 -5.3015 -14.4148
# 2 48.9818 83.1974 34.8772 4.5167 0.0736 -15.5926
# 3 32.4532 34.8772 92.5307 -9.2235 9.0403 -6.0506
# 4 5.1152 4.5167 -9.2235 28.6930 -0.1644 -2.0166
# 5 -5.3015 0.0736 9.0403 -0.1644 33.9829 -0.9518
# 6 -14.4148 -15.5926 -6.0506 -2.0166 -0.9518 31.3761
#
#
#
# Elastic Compliance Matrix: (Units=1/GPa)
#
#
# Indices 1 2 3 4 5 6 
#
# 1 0.012654 -0.005831 -0.002547 -0.001974 0.002721 0.002380
# 2 -0.005831 0.018761 -0.005032 -0.003143 0.000527 0.005488
# 3 -0.002547 -0.005032 0.014556 0.005858 -0.004248 -0.000616
# 4 -0.001974 -0.003143 0.005858 0.037644 -0.001648 0.001030
# 5 0.002721 0.000527 -0.004248 -0.001648 0.031015 0.001528
# 6 0.002380 0.005488 -0.000616 0.001030 0.001528 0.035686
#
#
# Mechanical properties :
#
#
# Convention : Reuss Voigt Hill
#
# Bulk Modulus (GPa) = 52.22032 57.90364 55.06198
# Shear Modulus (GPa) = 27.24493 30.29013 28.76753
#
# Velocity S-wave (km/s) = 3.66748 3.86701 3.76857
# Velocity P-wave (km/s) = 6.61168 6.96596 6.79113
#
# Compressibility (1/GPa) = 0.01914963
#
# Stress axis : x y z
#
# Youngs Moduli (GPa) = 79.02596 53.30216 68.70063
#
# Poissons Ratio (x) = 0.31082 0.17499
# Poissons Ratio (y) = 0.46083 0.34571
# Poissons Ratio (z) = 0.20129 0.26822
#
# Static dielectric constant tensor:
#      x y z
#    x 3.781650 -0.129960 0.274360 
#    y -0.129960 3.417720 -0.111510 
#    z 0.274360 -0.111510 3.719840 
# 
# 
# High freq. dielectric constant tensor:
#      x y z
#    x 1.804800 -0.006070 -0.003250 
#    y -0.006070 1.769510 -0.018310 
#    z -0.003250 -0.018310 1.792130 
# 
# From -- ./inp_files/216786.got.cif
#   From: 2010.06.25/outbox.cif.g09.slc.cpg/sg2_109_cif.got.tgz:216786.got - 2010.06.27 13:26:56.
