data_PCOD8005532
_publ_section_title
;
Structure prediction by ZEFSAII (Michael W. Deem and Ramdas Pophale) SiO2 
 PCOD8005532
Probable space group: P -1
;
_chemical_formula_sum "Si O2"
_cell_formula_units_Z 16
_cell_length_a 18.810463
_cell_length_b 10.580017
_cell_length_c 4.963650
_cell_angle_alpha 106.991551
_cell_angle_beta 114.564164
_cell_angle_gamma 58.166873
_cell_volume 759.891026
_symmetry_space_group_name_H-M "P -1"
_symmetry_group_IT_number 2
_symmetry_cell_setting 'triclinic'
loop_
_space_group_symop_operation_xyz
x,y,z
-x,-y,-z
loop_
_atom_site_type_symbol
_atom_site_label
_atom_site_fract_x
_atom_site_fract_y
_atom_site_fract_z
Si Si1 0.301237 0.081868 0.433310
Si Si2 0.463069 0.451121 0.662937
Si Si3 0.491571 0.874877 0.585675
Si Si4 0.676926 0.773337 0.959245
Si Si5 0.736080 0.458587 0.613549
Si Si6 0.859224 0.977925 0.938210
Si Si7 0.972376 0.886688 0.528017
Si Si8 0.163424 0.708900 0.832623
O O1 0.315128 0.112025 0.165865
O O2 0.394114 0.948055 0.611305
O O3 0.224696 0.036001 0.304097
O O4 0.277879 0.222323 0.683854
O O5 0.500000 0.500000 0.500000
O O6 0.495345 0.274238 0.641543
O O7 0.357318 0.541765 0.534102
O O8 0.500000 0.500000 0.000000
O O9 0.573788 0.818386 0.890464
O O10 0.500000 0.000000 0.500000
O O11 0.728478 0.613573 0.802574
O O12 0.773078 0.424457 0.347034
O O13 0.806477 0.332124 0.837968
O O14 0.921750 0.954107 0.767313
O O15 0.828081 0.141391 0.118711
O O16 0.911450 0.859820 0.190606
O O17 0.062536 0.736924 0.649033
O O18 0.000000 0.000000 0.500000
#
# Coordination Sequence:
#
# PCOD8005532 Si02
#       8
#     2   2   2   2   2   2   2   2
#     4  11  22  37  64  87 118 153 208 257 288 354
#     4  11  25  41  59  91 134 164 197 272 323 350
#     4   9  22  42  63  88 120 175 219 247 300 378
#     4  10  22  41  58  85 119 164 203 245 294 345
#     4  11  23  38  63  85 121 160 207 236 295 383
#     4  11  22  36  61  94 122 147 192 260 315 347
#     4  10  20  39  59  86 125 155 189 244 313 370
#     4  11  21  38  63  90 115 157 201 239 302 388
#
# _framework density 21.055651000000001
#
# number of rings (size 3 to 8) (size 9 to 14) (size 15 to 20)
#    0.000    1.500    0.000    6.375    3.500    7.000 
#    0.000    0.000    0.000   15.000    0.000    0.000 
#    0.000    0.000    0.000    0.000    0.000    0.000 
#
# Total GULP energy -198320.981313 kJ/mol
# GULP energy per Si atom -12395.061332 kJ/mol
# Density = 2.100773 g / cm^3
# Si number density = 21.055651 Si / 1000 Ang^3
#
#
#
# Elastic Constant Matrix: (Units=GPa)
#
#
# Indices 1 2 3 4 5 6 
#
# 1 86.6469 40.0343 37.3749 7.0550 7.7987 -18.1370
# 2 40.0343 86.3256 36.6980 0.6497 15.4894 -10.0347
# 3 37.3749 36.6980 137.9498 4.4281 9.6154 -6.2519
# 4 7.0550 0.6497 4.4281 27.7271 2.1729 -1.4609
# 5 7.7987 15.4894 9.6154 2.1729 40.6822 -0.5260
# 6 -18.1370 -10.0347 -6.2519 -1.4609 -0.5260 32.2536
#
#
#
# Elastic Compliance Matrix: (Units=1/GPa)
#
#
# Indices 1 2 3 4 5 6 
#
# 1 0.017235 -0.005994 -0.002632 -0.003438 -0.000124 0.007159
# 2 -0.005994 0.016344 -0.002409 0.001953 -0.004592 0.001261
# 3 -0.002632 -0.002409 0.008638 -0.000638 -0.000593 -0.000594
# 4 -0.003438 0.001953 -0.000638 0.037158 -0.001916 0.000203
# 5 -0.000124 -0.004592 -0.000593 -0.001916 0.026579 -0.001267
# 6 0.007159 0.001261 -0.000594 0.000203 -0.001267 0.035296
#
#
# Mechanical properties :
#
#
# Convention : Reuss Voigt Hill
#
# Bulk Modulus (GPa) = 49.63492 59.90407 54.76950
# Shear Modulus (GPa) = 29.40563 33.25358 31.32960
#
# Velocity S-wave (km/s) = 3.74112 3.97838 3.86157
# Velocity P-wave (km/s) = 6.50275 7.04382 6.77868
#
# Compressibility (1/GPa) = 0.02014711
#
# Stress axis : x y z
#
# Youngs Moduli (GPa) = 58.02033 61.18472 115.76907
#
# Poissons Ratio (x) = 0.36674 0.30466
# Poissons Ratio (y) = 0.34778 0.27893
# Poissons Ratio (z) = 0.15269 0.14742
#
# Static dielectric constant tensor:
#      x y z
#    x 3.734340 -0.246520 0.213390 
#    y -0.246520 3.997580 -0.322980 
#    z 0.213390 -0.322980 4.136430 
# 
# 
# High freq. dielectric constant tensor:
#      x y z
#    x 1.813710 -0.018070 0.000690 
#    y -0.018070 1.814860 -0.008730 
#    z 0.000690 -0.008730 1.841360 
# 
# From -- ./inp_files/109397.got.cif
#   From: 2010.06.25/outbox.cif.g09.slc.cpg/sg2_55_cif.got.tgz:109397.got - 2010.06.27 13:26:56.
