data_PCOD8005863
_publ_section_title
;
Structure prediction by ZEFSAII (Michael W. Deem and Ramdas Pophale) SiO2 
 PCOD8005863
Probable space group: P -1
;
_chemical_formula_sum "Si O2"
_cell_formula_units_Z 16
_cell_length_a 8.723592
_cell_length_b 16.153630
_cell_length_c 7.894387
_cell_angle_alpha 131.679037
_cell_angle_beta 84.735279
_cell_angle_gamma 124.484732
_cell_volume 607.219863
_symmetry_space_group_name_H-M "P -1"
_symmetry_group_IT_number 2
_symmetry_cell_setting 'triclinic'
loop_
_space_group_symop_operation_xyz
x,y,z
-x,-y,-z
loop_
_atom_site_type_symbol
_atom_site_label
_atom_site_fract_x
_atom_site_fract_y
_atom_site_fract_z
Si Si1 0.314418 0.733250 0.808432
Si Si2 0.807519 0.059543 0.569837
Si Si3 0.893846 0.604342 0.569107
Si Si4 0.286283 0.513691 0.920502
Si Si5 0.675483 0.792609 0.690419
Si Si6 0.644401 0.551802 0.833361
Si Si7 0.951417 0.933763 0.170121
Si Si8 0.352830 0.795250 0.266179
O O1 0.198268 0.560511 0.608634
O O2 0.515721 0.814371 0.780178
O O3 0.145000 0.734706 0.745471
O O4 0.391352 0.818150 0.092464
O O5 0.811862 0.184727 0.654023
O O6 0.821692 0.972978 0.308096
O O7 0.003177 0.139743 0.791938
O O8 0.580232 0.931069 0.510454
O O9 0.853383 0.609790 0.382665
O O10 0.779028 0.628523 0.751431
O O11 0.531870 0.614117 0.975639
O O12 0.224009 0.425402 0.984842
O O13 0.252952 0.629522 0.109139
O O14 0.551293 0.626745 0.410240
O O15 0.819942 0.910614 0.689769
O O16 0.820843 0.822301 0.873268
#
# Coordination Sequence:
#
# PCOD8005863 Si02
#       8
#     2   2   2   2   2   2   2   2
#     4   9  18  37  60  89 124 170 206 256 321 384
#     4  10  21  39  64  94 123 165 222 258 318 384
#     4   9  19  37  62  90 128 173 211 256 320 380
#     4  10  21  39  65  96 132 170 213 263 320 387
#     4  10  20  39  66  89 130 162 207 272 320 374
#     4  10  21  39  64  98 131 167 218 261 318 386
#     4  10  21  39  66  94 121 167 218 264 315 379
#     4  10  20  39  63  90 131 170 202 268 322 373
#
# _framework density 26.349601
#
# number of rings (size 3 to 8) (size 9 to 14) (size 15 to 20)
#    0.000    2.250    1.250    1.125    0.000    1.000 
#    9.000   11.875   19.250    0.000    0.000    0.000 
#    0.000    0.000    0.000    0.000    0.000    0.000 
#
# Total GULP energy -198332.693616 kJ/mol
# GULP energy per Si atom -12395.793351 kJ/mol
# Density = 2.628963 g / cm^3
# Si number density = 26.349601 Si / 1000 Ang^3
#
#
#
# Elastic Constant Matrix: (Units=GPa)
#
#
# Indices 1 2 3 4 5 6 
#
# 1 145.9460 39.6093 14.7887 -1.8685 8.3019 -11.3899
# 2 39.6093 72.5379 15.6635 -14.1537 -0.4449 -7.7772
# 3 14.7887 15.6635 72.5310 -15.0386 11.9795 -11.8853
# 4 -1.8685 -14.1537 -15.0386 23.9346 -6.3679 12.0140
# 5 8.3019 -0.4449 11.9795 -6.3679 47.2055 4.5846
# 6 -11.3899 -7.7772 -11.8853 12.0140 4.5846 35.0588
#
#
#
# Elastic Compliance Matrix: (Units=1/GPa)
#
#
# Indices 1 2 3 4 5 6 
#
# 1 0.008708 -0.005269 -0.000759 -0.005352 -0.002456 0.003558
# 2 -0.005269 0.019100 -0.001518 0.012127 0.003379 -0.002587
# 3 -0.000759 -0.001518 0.016838 0.007113 -0.003500 0.003145
# 4 -0.005352 0.012127 0.007113 0.066046 0.010161 -0.020599
# 5 -0.002456 0.003379 -0.003500 0.010161 0.024678 -0.007944
# 6 0.003558 -0.002587 0.003145 -0.020599 -0.007944 0.038269
#
#
# Mechanical properties :
#
#
# Convention : Reuss Voigt Hill
#
# Bulk Modulus (GPa) = 33.83531 47.90423 40.86977
# Shear Modulus (GPa) = 25.17855 35.97003 30.57429
#
# Velocity S-wave (km/s) = 3.09456 3.69874 3.41006
# Velocity P-wave (km/s) = 5.06332 6.03827 5.57216
#
# Compressibility (1/GPa) = 0.02955493
#
# Stress axis : x y z
#
# Youngs Moduli (GPa) = 114.84311 52.35494 59.38973
#
# Poissons Ratio (x) = 0.27585 0.04505
# Poissons Ratio (y) = 0.60509 0.09016
# Poissons Ratio (z) = 0.08712 0.07948
#
# Static dielectric constant tensor:
#      x y z
#    x 5.191930 -0.013020 0.042250 
#    y -0.013020 4.122430 -0.201330 
#    z 0.042250 -0.201330 4.881090 
# 
# 
# High freq. dielectric constant tensor:
#      x y z
#    x 2.072420 0.000290 0.006040 
#    y 0.000290 2.016160 -0.002800 
#    z 0.006040 -0.002800 2.068300 
# 
# From -- ./inp_files/215896.got.cif
#   From: 2010.06.25/outbox.cif.g09.slc.cpg/sg2_108_cif.got.tgz:215896.got - 2010.06.27 13:26:56.
