data_PCOD8005691
_publ_section_title
;
Structure prediction by ZEFSAII (Michael W. Deem and Ramdas Pophale) SiO2 
 PCOD8005691
Probable space group: P -1
;
_chemical_formula_sum "Si O2"
_cell_formula_units_Z 14
_cell_length_a 16.598953
_cell_length_b 11.351454
_cell_length_c 8.950461
_cell_angle_alpha 126.146363
_cell_angle_beta 39.120806
_cell_angle_gamma 148.651523
_cell_volume 539.830577
_symmetry_space_group_name_H-M "P -1"
_symmetry_group_IT_number 2
_symmetry_cell_setting 'triclinic'
loop_
_space_group_symop_operation_xyz
x,y,z
-x,-y,-z
loop_
_atom_site_type_symbol
_atom_site_label
_atom_site_fract_x
_atom_site_fract_y
_atom_site_fract_z
Si Si1 0.226989 0.186986 0.257539
Si Si2 0.329312 0.767747 0.203639
Si Si3 0.128678 0.498631 0.983427
Si Si4 0.113577 0.316809 0.306521
Si Si5 0.222340 0.882811 0.127843
Si Si6 0.178731 0.915738 0.698458
Si Si7 0.545151 0.446384 0.542493
O O1 0.248216 0.299643 0.159147
O O2 0.384386 0.381264 0.302077
O O3 0.268999 0.052046 0.066783
O O4 0.000000 0.000000 0.500000
O O5 0.266751 0.588800 0.279673
O O6 0.281409 0.881223 0.427207
O O7 0.196386 0.620672 0.138915
O O8 0.569422 0.972929 0.976366
O O9 0.279685 0.517752 0.707381
O O10 0.129229 0.655192 0.007916
O O11 0.910847 0.227292 0.122259
O O12 0.934822 0.192780 0.585257
O O13 0.011929 0.185271 0.195299
O O14 0.342273 0.186251 0.696892
O O15 0.500000 0.500000 0.500000
#
# Coordination Sequence:
#
# PCOD8005691 Si02
#       7
#     2   2   2   2   2   2   2
#     4  10  24  44  65  90 134 176 205 256 330 383
#     4  11  19  34  69  99 122 165 217 265 309 377
#     4  11  21  37  68  99 123 162 217 268 311 368
#     4  10  20  39  61  95 131 164 210 258 316 384
#     4  11  19  37  66  93 121 170 214 253 309 383
#     4  11  21  39  71  98 124 163 217 270 313 367
#     4  12  25  42  65  99 132 163 213 274 314 372
#
# _framework density 25.934062000000001
#
# number of rings (size 3 to 8) (size 9 to 14) (size 15 to 20)
#    0.000    1.143    4.286    4.714    0.000    1.143 
#    0.000    9.286    0.000    0.000    0.000    0.000 
#    0.000    0.000    0.000    0.000    0.000    0.000 
#
# Total GULP energy -173550.472405 kJ/mol
# GULP energy per Si atom -12396.462315 kJ/mol
# Density = 2.587504 g / cm^3
# Si number density = 25.934062 Si / 1000 Ang^3
#
#
#
# Elastic Constant Matrix: (Units=GPa)
#
#
# Indices 1 2 3 4 5 6 
#
# 1 79.9072 74.6416 22.0428 24.2543 -6.3668 -32.5414
# 2 74.6416 209.2661 34.8861 -8.8872 4.1753 -20.1718
# 3 22.0428 34.8861 63.2268 3.0973 -15.7352 -7.5436
# 4 24.2543 -8.8872 3.0973 33.0950 -5.4401 -5.6554
# 5 -6.3668 4.1753 -15.7352 -5.4401 18.0219 7.3406
# 6 -32.5414 -20.1718 -7.5436 -5.6554 7.3406 55.6705
#
#
#
# Elastic Compliance Matrix: (Units=1/GPa)
#
#
# Indices 1 2 3 4 5 6 
#
# 1 0.044677 -0.015073 -0.003886 -0.033738 -0.001167 0.016854
# 2 -0.015073 0.011037 -0.003217 0.012857 -0.005500 -0.003216
# 3 -0.003886 -0.003217 0.024039 0.002932 0.022402 -0.002836
# 4 -0.033738 0.012857 0.002932 0.057927 0.009220 -0.009996
# 5 -0.001167 -0.005500 0.022402 0.009220 0.082600 -0.009594
# 6 0.016854 -0.003216 -0.002836 -0.009996 -0.009594 0.026515
#
#
# Mechanical properties :
#
#
# Convention : Reuss Voigt Hill
#
# Bulk Modulus (GPa) = 28.24770 68.39346 48.32058
# Shear Modulus (GPa) = 16.50455 36.07945 26.29200
#
# Velocity S-wave (km/s) = 2.52544 3.73392 3.18748
# Velocity P-wave (km/s) = 4.40677 6.70961 5.67620
#
# Compressibility (1/GPa) = 0.03540111
#
# Stress axis : x y z
#
# Youngs Moduli (GPa) = 22.38295 90.60583 41.59891
#
# Poissons Ratio (x) = 1.36566 0.16166
# Poissons Ratio (y) = 0.33737 0.13383
# Poissons Ratio (z) = 0.08698 0.29149
#
# Static dielectric constant tensor:
#      x y z
#    x 5.734710 -0.929650 -0.296000 
#    y -0.929650 5.768430 -0.132500 
#    z -0.296000 -0.132500 4.233700 
# 
# 
# High freq. dielectric constant tensor:
#      x y z
#    x 2.044360 -0.024450 -0.012460 
#    y -0.024450 2.068540 -0.011960 
#    z -0.012460 -0.011960 2.015700 
# 
# From -- ./inp_files/175276.got.cif
#   From: 2010.06.25/outbox.cif.g09.slc.cpg/sg2_88_cif.got.tgz:175276.got - 2010.06.27 13:26:56.
