data_PCOD8005442
_publ_section_title
;
Structure prediction by ZEFSAII (Michael W. Deem and Ramdas Pophale) SiO2 
 PCOD8005442
Probable space group: P -1
;
_chemical_formula_sum "Si O2"
_cell_formula_units_Z 14
_cell_length_a 9.066811
_cell_length_b 9.458453
_cell_length_c 8.078830
_cell_angle_alpha 70.377220
_cell_angle_beta 75.547832
_cell_angle_gamma 84.494737
_cell_volume 631.881777
_symmetry_space_group_name_H-M "P -1"
_symmetry_group_IT_number 2
_symmetry_cell_setting 'triclinic'
loop_
_space_group_symop_operation_xyz
x,y,z
-x,-y,-z
loop_
_atom_site_type_symbol
_atom_site_label
_atom_site_fract_x
_atom_site_fract_y
_atom_site_fract_z
Si Si1 0.557142 0.301269 0.197575
Si Si2 0.431706 0.604975 0.216259
Si Si3 0.365195 0.059117 0.237012
Si Si4 0.181713 0.849369 0.606684
Si Si5 0.357071 0.135393 0.854079
Si Si6 0.896537 0.355100 0.567088
Si Si7 0.057327 0.082276 0.790738
O O1 0.518493 0.445868 0.261093
O O2 0.400768 0.204401 0.282619
O O3 0.699964 0.212961 0.268382
O O4 0.602364 0.344009 0.981356
O O5 0.543955 0.715445 0.236340
O O6 0.275138 0.596357 0.362838
O O7 0.266991 0.936027 0.402264
O O8 0.536309 0.004211 0.169061
O O9 0.283823 0.105491 0.068800
O O10 0.093666 0.711613 0.597494
O O11 0.063278 0.963945 0.682914
O O12 0.224606 0.148695 0.750833
O O13 0.000000 0.500000 0.500000
O O14 0.948484 0.223003 0.728139
O O15 0.000000 0.000000 0.000000
#
# Coordination Sequence:
#
# PCOD8005442 Si02
#       7
#     2   2   2   2   2   2   2
#     4  10  22  39  72 100 128 171 229 281 327 391
#     4  10  23  46  66  96 136 177 222 273 335 405
#     4  10  20  38  70 104 126 163 229 289 322 386
#     4  12  24  43  69  98 133 177 229 283 331 400
#     4  10  21  41  73  94 131 175 226 273 333 396
#     4  12  29  46  64 100 146 178 221 281 346 400
#     4  12  27  47  70 100 138 184 224 275 342 413
#
# _framework density 22.156041999999999
#
# number of rings (size 3 to 8) (size 9 to 14) (size 15 to 20)
#    0.000    1.143    2.857    2.571    6.000    0.571 
#    5.143    1.429    0.000    0.000    0.000    0.000 
#    0.000    0.000    0.000    0.000    0.000    0.000 
#
# Total GULP energy -173645.168506 kJ/mol
# GULP energy per Si atom -12403.226322 kJ/mol
# Density = 2.210561 g / cm^3
# Si number density = 22.156042 Si / 1000 Ang^3
#
#
#
# Elastic Constant Matrix: (Units=GPa)
#
#
# Indices 1 2 3 4 5 6 
#
# 1 56.0485 26.2451 18.2139 8.8787 -4.2642 17.1772
# 2 26.2451 125.1927 32.4021 0.2374 -9.5911 21.0206
# 3 18.2139 32.4021 69.6487 0.9996 -10.3609 11.8293
# 4 8.8787 0.2374 0.9996 29.3315 -0.9024 4.8262
# 5 -4.2642 -9.5911 -10.3609 -0.9024 28.6564 0.7413
# 6 17.1772 21.0206 11.8293 4.8262 0.7413 42.3565
#
#
#
# Elastic Compliance Matrix: (Units=1/GPa)
#
#
# Indices 1 2 3 4 5 6 
#
# 1 0.023253 -0.002801 -0.003410 -0.005800 0.001274 -0.006449
# 2 -0.002801 0.010069 -0.003143 0.001457 0.001945 -0.003184
# 3 -0.003410 -0.003143 0.017816 0.000970 0.004970 -0.002231
# 4 -0.005800 0.001457 0.000970 0.036301 0.001191 -0.002799
# 5 0.001274 0.001945 0.004970 0.001191 0.037666 -0.003665
# 6 -0.006449 -0.003184 -0.002231 -0.002799 -0.003665 0.028811
#
#
# Mechanical properties :
#
#
# Convention : Reuss Voigt Hill
#
# Bulk Modulus (GPa) = 30.83412 44.95692 37.89552
# Shear Modulus (GPa) = 27.25782 31.67081 29.46432
#
# Velocity S-wave (km/s) = 3.51132 3.78490 3.65067
# Velocity P-wave (km/s) = 5.51237 6.27979 5.90855
#
# Compressibility (1/GPa) = 0.03243160
#
# Stress axis : x y z
#
# Youngs Moduli (GPa) = 43.00430 99.31443 56.12954
#
# Poissons Ratio (x) = 0.27816 0.19140
# Poissons Ratio (y) = 0.12044 0.17640
# Poissons Ratio (z) = 0.14664 0.31212
#
# Static dielectric constant tensor:
#      x y z
#    x 4.026200 0.160140 0.164200 
#    y 0.160140 4.300800 0.120940 
#    z 0.164200 0.120940 3.852980 
# 
# 
# High freq. dielectric constant tensor:
#      x y z
#    x 1.871970 0.010160 0.010780 
#    y 0.010160 1.886940 0.004460 
#    z 0.010780 0.004460 1.863610 
# 
# From -- ./inp_files/157206.got.cif
#   From: 2010.06.25/outbox.cif.g09.slc.cpg/sg2_79_cif.got.tgz:157206.got - 2010.06.27 13:26:56.
