data_PCOD8005758
_publ_section_title
;
Structure prediction by ZEFSAII (Michael W. Deem and Ramdas Pophale) SiO2 
 PCOD8005758
Probable space group: P -1
;
_chemical_formula_sum "Si O2"
_cell_formula_units_Z 12
_cell_length_a 9.798032
_cell_length_b 10.141769
_cell_length_c 9.944675
_cell_angle_alpha 113.235683
_cell_angle_beta 122.421977
_cell_angle_gamma 43.834372
_cell_volume 577.667196
_symmetry_space_group_name_H-M "P -1"
_symmetry_group_IT_number 2
_symmetry_cell_setting 'triclinic'
loop_
_space_group_symop_operation_xyz
x,y,z
-x,-y,-z
loop_
_atom_site_type_symbol
_atom_site_label
_atom_site_fract_x
_atom_site_fract_y
_atom_site_fract_z
Si Si1 0.785337 0.293821 0.510508
Si Si2 0.507308 0.944779 0.192253
Si Si3 0.212600 0.013482 0.490728
Si Si4 0.242608 0.306008 0.020824
Si Si5 0.221374 0.883678 0.149191
Si Si6 0.368213 0.534164 0.235660
O O1 0.585921 0.469177 0.389426
O O2 0.807866 0.360134 0.693537
O O3 0.988777 0.213975 0.496724
O O4 0.748234 0.146371 0.457616
O O5 0.600103 0.979994 0.381789
O O6 0.401962 0.857452 0.147015
O O7 0.315751 0.149698 0.108315
O O8 0.707635 0.796124 0.138115
O O9 0.193781 0.986323 0.314101
O O10 0.393944 0.358273 0.125298
O O11 0.000000 0.500000 0.000000
O O12 0.299790 0.676356 0.134661
O O13 0.000000 0.000000 0.000000
#
# Coordination Sequence:
#
# PCOD8005758 Si02
#       6
#     2   2   2   2   2   2
#     4   9  19  36  67  92 115 164 213 256 308 369
#     4  11  24  42  64  95 129 167 207 261 322 367
#     4  10  20  40  65  89 126 163 211 256 314 372
#     4  11  23  40  67  92 127 164 214 260 309 379
#     4  11  25  41  62  91 130 168 206 260 321 371
#     4  10  20  39  62  91 123 160 212 259 302 377
#
# _framework density 20.773205999999998
#
# number of rings (size 3 to 8) (size 9 to 14) (size 15 to 20)
#    0.000    1.667    1.667    2.500    2.333    3.333 
#    3.000    0.833    0.000    0.000    0.000    0.000 
#    0.000    0.000    0.000    0.000    0.000    0.000 
#
# Total GULP energy -148789.382121 kJ/mol
# GULP energy per Si atom -12399.115177 kJ/mol
# Density = 2.072593 g / cm^3
# Si number density = 20.773206 Si / 1000 Ang^3
#
#
#
# Elastic Constant Matrix: (Units=GPa)
#
#
# Indices 1 2 3 4 5 6 
#
# 1 82.5997 21.8715 30.4052 -9.9324 -4.9818 -4.9007
# 2 21.8715 93.8056 29.2411 -9.6152 -14.1896 -5.9953
# 3 30.4052 29.2411 110.7175 -6.7753 0.6246 1.1542
# 4 -9.9324 -9.6152 -6.7753 36.6721 4.6632 -0.3921
# 5 -4.9818 -14.1896 0.6246 4.6632 23.8509 3.7184
# 6 -4.9007 -5.9953 1.1542 -0.3921 3.7184 40.0183
#
#
#
# Elastic Compliance Matrix: (Units=1/GPa)
#
#
# Indices 1 2 3 4 5 6 
#
# 1 0.014273 -0.001730 -0.003323 0.002650 0.001288 0.001491
# 2 -0.001730 0.013318 -0.002999 0.001574 0.007142 0.001222
# 3 -0.003323 -0.002999 0.010801 0.000649 -0.002747 -0.000906
# 4 0.002650 0.001574 0.000649 0.029093 -0.004408 0.001236
# 5 0.001288 0.007142 -0.002747 -0.004408 0.047876 -0.003185
# 6 0.001491 0.001222 -0.000906 0.001236 -0.003185 0.025688
#
#
# Mechanical properties :
#
#
# Convention : Reuss Voigt Hill
#
# Bulk Modulus (GPa) = 44.86767 50.01761 47.44264
# Shear Modulus (GPa) = 30.37969 33.81525 32.09747
#
# Velocity S-wave (km/s) = 3.82834 4.03901 3.93509
# Velocity P-wave (km/s) = 6.41773 6.77361 6.59807
#
# Compressibility (1/GPa) = 0.02228776
#
# Stress axis : x y z
#
# Youngs Moduli (GPa) = 70.06313 75.08387 92.58098
#
# Poissons Ratio (x) = 0.12990 0.30768
# Poissons Ratio (y) = 0.12121 0.27766
# Poissons Ratio (z) = 0.23284 0.22518
#
# Static dielectric constant tensor:
#      x y z
#    x 3.545590 -0.038160 -0.007020 
#    y -0.038160 3.824820 0.111990 
#    z -0.007020 0.111990 3.742380 
# 
# 
# High freq. dielectric constant tensor:
#      x y z
#    x 1.799340 -0.005270 0.006700 
#    y -0.005270 1.815900 0.005420 
#    z 0.006700 0.005420 1.818230 
# 
# From -- ./inp_files/145479.got.cif
#   From: 2010.06.25/outbox.cif.g09.slc.cpg/sg2_73_cif.got.tgz:145479.got - 2010.06.27 13:26:56.
