data_PCOD8005928
_publ_section_title
;
Structure prediction by ZEFSAII (Michael W. Deem and Ramdas Pophale) SiO2 
 PCOD8005928
Probable space group: P -1
;
_chemical_formula_sum "Si O2"
_cell_formula_units_Z 16
_cell_length_a 11.999268
_cell_length_b 4.977596
_cell_length_c 25.059878
_cell_angle_alpha 118.013776
_cell_angle_beta 32.946820
_cell_angle_gamma 108.762977
_cell_volume 710.415991
_symmetry_space_group_name_H-M "P -1"
_symmetry_group_IT_number 2
_symmetry_cell_setting 'triclinic'
loop_
_space_group_symop_operation_xyz
x,y,z
-x,-y,-z
loop_
_atom_site_type_symbol
_atom_site_label
_atom_site_fract_x
_atom_site_fract_y
_atom_site_fract_z
Si Si1 0.722747 0.198330 0.207510
Si Si2 0.253391 0.061316 0.107440
Si Si3 0.528817 0.173342 0.655359
Si Si4 0.550503 0.932336 0.154755
Si Si5 0.693758 0.948000 0.457474
Si Si6 0.846141 0.597836 0.922107
Si Si7 0.031252 0.603554 0.661647
Si Si8 0.297668 0.566172 0.291450
O O1 0.548706 0.495459 0.307547
O O2 0.942635 0.303851 0.134147
O O3 0.665397 0.974415 0.256701
O O4 0.722039 0.033442 0.135134
O O5 0.177230 0.345927 0.125971
O O6 0.157571 0.170889 0.213397
O O7 0.160079 0.759954 0.097244
O O8 0.500000 0.000000 0.000000
O O9 0.695445 0.210226 0.638951
O O10 0.629239 0.969382 0.547398
O O11 0.459454 0.647144 0.190094
O O12 0.364320 0.210253 0.246769
O O13 0.657331 0.816908 0.046116
O O14 0.827110 0.604037 0.370418
O O15 0.500000 0.000000 0.500000
O O16 0.835394 0.195596 0.407763
O O17 0.930657 0.392178 0.639292
#
# Coordination Sequence:
#
# PCOD8005928 Si02
#       8
#     2   2   2   2   2   2   2   2
#     4  10  22  38  65  96 130 171 218 271 327 394
#     4  12  27  43  64  97 132 176 221 270 328 387
#     4  10  23  43  67  96 130 171 216 275 335 382
#     4  10  20  39  63  99 133 171 213 273 331 382
#     4  12  28  45  70  97 135 175 221 281 327 394
#     4  12  23  38  65  91 132 177 220 271 320 401
#     4  12  26  46  68  99 131 178 224 271 332 391
#     4  10  22  42  69  94 132 171 218 273 330 397
#
# _framework density 22.522017999999999
#
# number of rings (size 3 to 8) (size 9 to 14) (size 15 to 20)
#    0.000    1.000    0.000    6.375    5.250    1.000 
#    0.000    5.000    0.000    0.000    0.000    0.000 
#    0.000    0.000    0.000    0.000    0.000    0.000 
#
# Total GULP energy -198420.359256 kJ/mol
# GULP energy per Si atom -12401.272454 kJ/mol
# Density = 2.247076 g / cm^3
# Si number density = 22.522018 Si / 1000 Ang^3
#
#
#
# Elastic Constant Matrix: (Units=GPa)
#
#
# Indices 1 2 3 4 5 6 
#
# 1 108.5850 33.5414 41.2844 -12.9954 -3.0391 4.3367
# 2 33.5414 104.1277 28.0023 -7.3996 -1.1859 2.2802
# 3 41.2844 28.0023 79.1698 -0.4397 9.0597 7.3073
# 4 -12.9954 -7.3996 -0.4397 29.4447 -1.1634 -2.7666
# 5 -3.0391 -1.1859 9.0597 -1.1634 33.6834 -0.8119
# 6 4.3367 2.2802 7.3073 -2.7666 -0.8119 35.7590
#
#
#
# Elastic Compliance Matrix: (Units=1/GPa)
#
#
# Indices 1 2 3 4 5 6 
#
# 1 0.012973 -0.002062 -0.006381 0.005263 0.003004 0.000338
# 2 -0.002062 0.011229 -0.003042 0.001941 0.001103 0.000331
# 3 -0.006381 -0.003042 0.017957 -0.003833 -0.005720 -0.003128
# 4 0.005263 0.001941 -0.003833 0.037109 0.002927 0.002959
# 5 0.003004 0.001103 -0.005720 0.002927 0.031678 0.001680
# 6 0.000338 0.000331 -0.003128 0.002959 0.001680 0.028809
#
#
# Mechanical properties :
#
#
# Convention : Reuss Voigt Hill
#
# Bulk Modulus (GPa) = 52.11723 55.28209 53.69966
# Shear Modulus (GPa) = 29.56431 32.38105 30.97268
#
# Velocity S-wave (km/s) = 3.62703 3.79588 3.71242
# Velocity P-wave (km/s) = 6.38211 6.61897 6.50161
#
# Compressibility (1/GPa) = 0.01918751
#
# Stress axis : x y z
#
# Youngs Moduli (GPa) = 77.08358 89.05328 55.68887
#
# Poissons Ratio (x) = 0.18362 0.35537
# Poissons Ratio (y) = 0.15894 0.16943
# Poissons Ratio (z) = 0.49190 0.27094
#
# Static dielectric constant tensor:
#      x y z
#    x 4.257150 -0.040970 0.051550 
#    y -0.040970 4.197070 -0.041770 
#    z 0.051550 -0.041770 3.834350 
# 
# 
# High freq. dielectric constant tensor:
#      x y z
#    x 1.894890 -0.001300 0.004460 
#    y -0.001300 1.904010 -0.008610 
#    z 0.004460 -0.008610 1.877450 
# 
# From -- ./inp_files/433634.got.cif
#   From: 2010.06.25/outbox.cif.g09.slc.cpg/sg2_217_cif.got.tgz:433634.got - 2010.06.27 13:26:56.
