data_PCOD8005939
_publ_section_title
;
Structure prediction by ZEFSAII (Michael W. Deem and Ramdas Pophale) SiO2 
 PCOD8005939
Probable space group: P -1
;
_chemical_formula_sum "Si O2"
_cell_formula_units_Z 16
_cell_length_a 9.554729
_cell_length_b 12.089227
_cell_length_c 21.951943
_cell_angle_alpha 50.825616
_cell_angle_beta 25.486511
_cell_angle_gamma 61.747566
_cell_volume 809.402649
_symmetry_space_group_name_H-M "P -1"
_symmetry_group_IT_number 2
_symmetry_cell_setting 'triclinic'
loop_
_space_group_symop_operation_xyz
x,y,z
-x,-y,-z
loop_
_atom_site_type_symbol
_atom_site_label
_atom_site_fract_x
_atom_site_fract_y
_atom_site_fract_z
Si Si1 0.417027 0.131368 0.952845
Si Si2 0.839982 0.593199 0.801629
Si Si3 0.885778 0.379795 0.189296
Si Si4 0.012046 0.926998 0.586855
Si Si5 0.234591 0.420119 0.399741
Si Si6 0.900443 0.095301 0.681832
Si Si7 0.627568 0.440586 0.825398
Si Si8 0.756435 0.061536 0.296905
O O1 0.558938 0.129945 0.829219
O O2 0.614033 0.280097 0.860372
O O3 0.012552 0.105711 0.122885
O O4 0.500000 0.000000 0.000000
O O5 0.886455 0.485291 0.765613
O O6 0.122805 0.625135 0.731772
O O7 0.834641 0.749303 0.717827
O O8 0.500000 0.500000 0.000000
O O9 0.640760 0.482869 0.233100
O O10 0.724440 0.211157 0.288328
O O11 0.256749 0.450869 0.989015
O O12 0.399384 0.963191 0.445512
O O13 0.000000 0.000000 0.500000
O O14 0.800981 0.989798 0.698459
O O15 0.202805 0.437658 0.334250
O O16 0.000000 0.500000 0.500000
O O17 0.150276 0.249127 0.508682
O O18 0.093088 0.026888 0.680990
#
# Coordination Sequence:
#
# PCOD8005939 Si02
#       8
#     2   2   2   2   2   2   2   2
#     4   9  20  37  65  88 113 157 207 248 291 355
#     4  10  22  39  61  92 123 156 201 250 305 357
#     4  10  20  39  64  87 114 162 208 244 292 363
#     4  12  23  38  63  94 122 154 202 259 303 348
#     4  12  22  35  56  91 125 154 193 252 307 352
#     4  11  20  38  64  88 118 157 204 248 295 361
#     4  10  21  39  60  90 122 155 199 250 304 357
#     4  10  20  39  67  88 110 157 217 247 282 359
#
# _framework density 19.767665000000001
#
# number of rings (size 3 to 8) (size 9 to 14) (size 15 to 20)
#    0.000    1.500    3.750    2.250    1.750    0.000 
#    2.250    1.250    5.500    0.000    0.000    0.000 
#    0.000    0.000    0.000    0.000    0.000    0.000 
#
# Total GULP energy -198220.432441 kJ/mol
# GULP energy per Si atom -12388.777028 kJ/mol
# Density = 1.972267 g / cm^3
# Si number density = 19.767665 Si / 1000 Ang^3
#
#
#
# Elastic Constant Matrix: (Units=GPa)
#
#
# Indices 1 2 3 4 5 6 
#
# 1 106.0258 40.3854 44.4384 11.8077 22.2219 14.6186
# 2 40.3854 97.7163 49.9228 14.8944 4.5105 17.9880
# 3 44.4384 49.9228 102.8651 1.5822 18.1323 9.6448
# 4 11.8077 14.8944 1.5822 31.3409 2.8254 4.9334
# 5 22.2219 4.5105 18.1323 2.8254 31.7948 1.5436
# 6 14.6186 17.9880 9.6448 4.9334 1.5436 29.8531
#
#
#
# Elastic Compliance Matrix: (Units=1/GPa)
#
#
# Indices 1 2 3 4 5 6 
#
# 1 0.014101 -0.002935 -0.003022 -0.002576 -0.007324 -0.003355
# 2 -0.002935 0.016806 -0.007060 -0.006042 0.004505 -0.005642
# 3 -0.003022 -0.007060 0.015425 0.004204 -0.006075 0.000370
# 4 -0.002576 -0.006042 0.004204 0.036153 -0.002842 -0.002283
# 5 -0.007324 0.004505 -0.006075 -0.002842 0.039587 0.001257
# 6 -0.003355 -0.005642 0.000370 -0.002283 0.001257 0.038733
#
#
# Mechanical properties :
#
#
# Convention : Reuss Voigt Hill
#
# Bulk Modulus (GPa) = 49.26960 64.01116 56.64038
# Shear Modulus (GPa) = 25.82587 30.05515 27.94051
#
# Velocity S-wave (km/s) = 3.61843 3.90349 3.76366
# Velocity P-wave (km/s) = 6.51428 7.26418 6.89943
#
# Compressibility (1/GPa) = 0.02029649
#
# Stress axis : x y z
#
# Youngs Moduli (GPa) = 70.91767 59.50407 64.83071
#
# Poissons Ratio (x) = 0.17467 0.19590
# Poissons Ratio (y) = 0.20818 0.45771
# Poissons Ratio (z) = 0.21430 0.42010
#
# Static dielectric constant tensor:
#      x y z
#    x 3.781560 0.249500 0.267870 
#    y 0.249500 3.900800 0.292560 
#    z 0.267870 0.292560 4.331300 
# 
# 
# High freq. dielectric constant tensor:
#      x y z
#    x 1.752250 0.010280 0.023560 
#    y 0.010280 1.769230 -0.006680 
#    z 0.023560 -0.006680 1.784020 
# 
# From -- ./inp_files/280783.got.cif
#   From: 2010.06.25/outbox.cif.g09.slc.cpg/sg2_141_cif.got.tgz:280783.got - 2010.06.27 13:26:56.
