data_PCOD8005995
_publ_section_title
;
Structure prediction by ZEFSAII (Michael W. Deem and Ramdas Pophale) SiO2 
 PCOD8005995
Probable space group: P -1
;
_chemical_formula_sum "Si O2"
_cell_formula_units_Z 16
_cell_length_a 7.910567
_cell_length_b 11.483619
_cell_length_c 14.896552
_cell_angle_alpha 39.231110
_cell_angle_beta 92.636619
_cell_angle_gamma 67.966373
_cell_volume 649.556102
_symmetry_space_group_name_H-M "P -1"
_symmetry_group_IT_number 2
_symmetry_cell_setting 'triclinic'
loop_
_space_group_symop_operation_xyz
x,y,z
-x,-y,-z
loop_
_atom_site_type_symbol
_atom_site_label
_atom_site_fract_x
_atom_site_fract_y
_atom_site_fract_z
Si Si1 0.364133 0.368771 0.450521
Si Si2 0.730188 0.836101 0.282040
Si Si3 0.233390 0.216485 0.032391
Si Si4 0.035909 0.111856 0.602814
Si Si5 0.856832 0.852148 0.750582
Si Si6 0.251469 0.191099 0.412081
Si Si7 0.239267 0.862627 0.132361
Si Si8 0.706225 0.633013 0.229828
O O1 0.245211 0.364035 0.536858
O O2 0.615202 0.116924 0.597766
O O3 0.226148 0.404596 0.336038
O O4 0.345278 0.598749 0.327020
O O5 0.779818 0.739426 0.238980
O O6 0.895279 0.874657 0.302537
O O7 0.485964 0.094249 0.131228
O O8 0.100050 0.320401 0.061760
O O9 0.213383 0.015644 0.124393
O O10 0.162396 0.403075 0.837443
O O11 0.034263 0.892708 0.731290
O O12 0.795747 0.370240 0.418092
O O13 0.208314 0.058442 0.562266
O O14 0.895114 0.717148 0.737932
O O15 0.500000 0.000000 0.500000
O O16 0.435685 0.815525 0.102407
O O17 0.000000 0.000000 0.000000
#
# Coordination Sequence:
#
# PCOD8005995 Si02
#       8
#     2   2   2   2   2   2   2   2
#     4   9  19  37  61  94 120 161 207 253 304 360
#     4   9  20  36  60  87 128 165 198 248 306 369
#     4  10  24  39  59  89 134 166 199 248 313 367
#     4  11  21  36  69  94 118 158 214 255 304 361
#     4  10  20  39  64  92 119 159 211 262 293 359
#     4   9  20  39  64  90 123 157 202 265 312 352
#     4  11  23  37  62  90 131 167 203 245 311 374
#     4  11  23  41  57  92 132 167 198 251 307 373
#
# _framework density 24.632207000000001
#
# number of rings (size 3 to 8) (size 9 to 14) (size 15 to 20)
#    0.000    2.000    1.250    3.000    5.250    3.500 
#    0.000    0.625    0.000    0.750    0.000    0.000 
#    0.000    0.000    0.000    0.000    0.000    0.000 
#
# Total GULP energy -198272.203975 kJ/mol
# GULP energy per Si atom -12392.012748 kJ/mol
# Density = 2.457614 g / cm^3
# Si number density = 24.632207 Si / 1000 Ang^3
#
#
#
# Elastic Constant Matrix: (Units=GPa)
#
#
# Indices 1 2 3 4 5 6 
#
# 1 106.8123 42.8857 17.3373 27.5339 9.5221 7.3000
# 2 42.8857 113.5000 23.3914 34.9724 -3.5038 -3.6367
# 3 17.3373 23.3914 66.1327 31.5177 0.7653 6.5059
# 4 27.5339 34.9724 31.5177 27.4243 -8.4089 2.3697
# 5 9.5221 -3.5038 0.7653 -8.4089 36.9117 0.9094
# 6 7.3000 -3.6367 6.5059 2.3697 0.9094 36.1432
#
#
#
# Elastic Compliance Matrix: (Units=1/GPa)
#
#
# Indices 1 2 3 4 5 6 
#
# 1 0.019088 0.003291 0.016820 -0.047222 -0.015643 -0.003062
# 2 0.003291 0.019337 0.015927 -0.049722 -0.010719 0.001944
# 3 0.016820 0.015927 0.061682 -0.117108 -0.030675 -0.004447
# 4 -0.047222 -0.049722 -0.117108 0.305939 0.079499 0.003555
# 5 -0.015643 -0.010719 -0.030675 0.079499 0.048828 0.001162
# 6 -0.003062 0.001944 -0.004447 0.003555 0.001162 0.029020
#
#
# Mechanical properties :
#
#
# Convention : Reuss Voigt Hill
#
# Bulk Modulus (GPa) = 5.80780 50.40821 28.10801
# Shear Modulus (GPa) = 10.65617 33.61789 22.13703
#
# Velocity S-wave (km/s) = 2.08219 3.69832 3.00109
# Velocity P-wave (km/s) = 2.85370 6.22459 4.84196
#
# Compressibility (1/GPa) = 0.17218211
#
# Stress axis : x y z
#
# Youngs Moduli (GPa) = 52.39029 51.71506 16.21213
#
# Poissons Ratio (x) = -0.17019 -0.27268
# Poissons Ratio (y) = -0.17241 -0.25821
# Poissons Ratio (z) = -0.88119 -0.82368
#
# Static dielectric constant tensor:
#      x y z
#    x 4.601360 0.098980 0.144540 
#    y 0.098980 4.687410 0.428000 
#    z 0.144540 0.428000 4.321240 
# 
# 
# High freq. dielectric constant tensor:
#      x y z
#    x 1.984130 -0.008170 0.009530 
#    y -0.008170 1.984130 0.013460 
#    z 0.009530 0.013460 1.969030 
# 
# From -- ./inp_files/499494.got.cif
#   From: 2010.06.25/outbox.cif.g09.slc.cpg/sg2_250_cif.got.tgz:499494.got - 2010.06.27 13:26:56.
