data_PCOD8005216
_publ_section_title
;
Structure prediction by ZEFSAII (Michael W. Deem and Ramdas Pophale) SiO2 
 PCOD8005216
Probable space group: P -1
;
_chemical_formula_sum "Si O2"
_cell_formula_units_Z 16
_cell_length_a 25.469438
_cell_length_b 8.547002
_cell_length_c 9.201988
_cell_angle_alpha 77.484837
_cell_angle_beta 136.296823
_cell_angle_gamma 135.623666
_cell_volume 758.762303
_symmetry_space_group_name_H-M "P -1"
_symmetry_group_IT_number 2
_symmetry_cell_setting 'triclinic'
loop_
_space_group_symop_operation_xyz
x,y,z
-x,-y,-z
loop_
_atom_site_type_symbol
_atom_site_label
_atom_site_fract_x
_atom_site_fract_y
_atom_site_fract_z
Si Si1 0.753416 0.207934 0.186406
Si Si2 0.914905 0.694019 0.876105
Si Si3 0.522325 0.455701 0.202454
Si Si4 0.355208 0.624066 0.657998
Si Si5 0.549137 0.729152 0.453897
Si Si6 0.839323 0.308913 0.023750
Si Si7 0.029421 0.447116 0.212946
Si Si8 0.382233 0.718075 0.010270
O O1 0.848872 0.350480 0.207362
O O2 0.831432 0.278660 0.472141
O O3 0.725485 0.351465 0.113803
O O4 0.616631 0.867798 0.953868
O O5 0.756588 0.454989 0.614073
O O6 0.958211 0.707164 0.800267
O O7 0.933182 0.603128 0.066361
O O8 0.000000 0.000000 0.000000
O O9 0.639895 0.528901 0.398320
O O10 0.578024 0.696354 0.364562
O O11 0.500000 0.500000 0.000000
O O12 0.323181 0.532652 0.782791
O O13 0.498040 0.957994 0.864284
O O14 0.500000 0.500000 0.500000
O O15 0.433377 0.664860 0.228895
O O16 0.683969 0.047776 0.717057
O O17 0.904819 0.252191 0.116608
O O18 0.000000 0.500000 0.000000
#
# Coordination Sequence:
#
# PCOD8005216 Si02
#       8
#     2   2   2   2   2   2   2   2
#     4  11  23  45  65  98 133 178 217 267 341 387
#     4  11  24  43  65  96 122 175 227 269 322 386
#     4  11  24  35  67 101 130 169 219 268 322 398
#     4  10  20  38  65  94 127 166 219 277 319 381
#     4  12  24  43  63 104 138 167 212 269 344 394
#     4  11  25  44  65  94 141 171 213 274 330 393
#     4  10  24  43  70  92 127 177 223 276 318 385
#     4  10  21  39  68  93 131 169 212 273 332 386
#
# _framework density 21.086973
#
# number of rings (size 3 to 8) (size 9 to 14) (size 15 to 20)
#    0.000    1.250    5.000    0.375    5.250    2.500 
#    0.000    0.625    0.000    0.000    0.000    0.000 
#    0.000    0.000    0.000    0.000    0.000    0.000 
#
# Total GULP energy -198264.532755 kJ/mol
# GULP energy per Si atom -12391.533297 kJ/mol
# Density = 2.103898 g / cm^3
# Si number density = 21.086973 Si / 1000 Ang^3
#
#
#
# Elastic Constant Matrix: (Units=GPa)
#
#
# Indices 1 2 3 4 5 6 
#
# 1 168.0054 30.0183 41.4210 -10.9437 3.5919 4.0561
# 2 30.0183 71.0669 7.6327 -10.6196 -5.7082 1.0418
# 3 41.4210 7.6327 82.1253 -13.0216 -1.0867 -5.5253
# 4 -10.9437 -10.6196 -13.0216 29.0478 -5.6542 0.3169
# 5 3.5919 -5.7082 -1.0867 -5.6542 39.6155 -2.8700
# 6 4.0561 1.0418 -5.5253 0.3169 -2.8700 29.3045
#
#
#
# Elastic Compliance Matrix: (Units=1/GPa)
#
#
# Indices 1 2 3 4 5 6 
#
# 1 0.007418 -0.002840 -0.003629 -0.000109 -0.001323 -0.001738
# 2 -0.002840 0.016347 0.000930 0.006004 0.003515 0.000267
# 3 -0.003629 0.000930 0.015149 0.006116 0.002002 0.003455
# 4 -0.000109 0.006004 0.006116 0.040658 0.006932 0.001194
# 5 -0.001323 0.003515 0.002002 0.006932 0.027132 0.003018
# 6 -0.001738 0.000267 0.003455 0.001194 0.003018 0.035290
#
#
# Mechanical properties :
#
#
# Convention : Reuss Voigt Hill
#
# Bulk Modulus (GPa) = 35.92695 53.26015 44.59355
# Shear Modulus (GPa) = 30.79763 35.73528 33.26646
#
# Velocity S-wave (km/s) = 3.82580 4.12109 3.97619
# Velocity P-wave (km/s) = 6.04898 6.92508 6.50180
#
# Compressibility (1/GPa) = 0.02783426
#
# Stress axis : x y z
#
# Youngs Moduli (GPa) = 134.81565 61.17411 66.01065
#
# Poissons Ratio (x) = 0.17376 0.23955
# Poissons Ratio (y) = 0.38294 -0.06138
# Poissons Ratio (z) = 0.48923 -0.05688
#
# Static dielectric constant tensor:
#      x y z
#    x 3.948460 -0.201500 0.030160 
#    y -0.201500 3.328830 -0.345000 
#    z 0.030160 -0.345000 3.610490 
# 
# 
# High freq. dielectric constant tensor:
#      x y z
#    x 1.850510 -0.007820 0.001980 
#    y -0.007820 1.791310 -0.016440 
#    z 0.001980 -0.016440 1.823060 
# 
# From -- ./inp_files/175210.got.cif
#   From: 2010.06.25/outbox.cif.g09.slc.cpg/sg2_88_cif.got.tgz:175210.got - 2010.06.27 13:26:56.
