data_PCOD8005647
_publ_section_title
;
Structure prediction by ZEFSAII (Michael W. Deem and Ramdas Pophale) SiO2 
 PCOD8005647
Probable space group: P -1
;
_chemical_formula_sum "Si O2"
_cell_formula_units_Z 14
_cell_length_a 19.217427
_cell_length_b 5.588943
_cell_length_c 8.700393
_cell_angle_alpha 79.140309
_cell_angle_beta 48.907671
_cell_angle_gamma 63.802729
_cell_volume 624.724516
_symmetry_space_group_name_H-M "P -1"
_symmetry_group_IT_number 2
_symmetry_cell_setting 'triclinic'
loop_
_space_group_symop_operation_xyz
x,y,z
-x,-y,-z
loop_
_atom_site_type_symbol
_atom_site_label
_atom_site_fract_x
_atom_site_fract_y
_atom_site_fract_z
Si Si1 0.136122 0.754126 0.549950
Si Si2 0.214115 0.087652 0.192377
Si Si3 0.719978 0.806674 0.606297
Si Si4 0.414279 0.792390 0.766741
Si Si5 0.096950 0.117793 0.820164
Si Si6 0.952899 0.650484 0.825255
Si Si7 0.526706 0.154882 0.661838
O O1 0.247544 0.505825 0.444263
O O2 0.053156 0.666816 0.604247
O O3 0.147771 0.961318 0.391774
O O4 0.092175 0.861595 0.773095
O O5 0.271198 0.189175 0.222003
O O6 0.129751 0.329340 0.186171
O O7 0.298958 0.882472 0.979994
O O8 0.798043 0.894674 0.396966
O O9 0.605708 0.999495 0.700460
O O10 0.468306 0.469078 0.760768
O O11 0.413053 0.849834 0.580704
O O12 0.460452 0.982218 0.759365
O O13 0.992561 0.366066 0.886993
O O14 0.102561 0.109618 0.997577
#
# Coordination Sequence:
#
# PCOD8005647 Si02
#       7
#     2   2   2   2   2   2   2
#     4  10  22  38  57  93 122 169 204 255 321 380
#     4  11  24  38  59  92 127 166 206 261 318 391
#     4  10  23  39  61  89 129 163 207 256 324 378
#     4  10  24  44  69  97 124 166 219 265 325 372
#     4   9  20  38  62  89 118 164 214 261 311 374
#     4  10  20  39  61  87 124 162 213 261 312 373
#     4  10  23  46  69  94 127 166 215 273 314 382
#
# _framework density 22.409877000000002
#
# number of rings (size 3 to 8) (size 9 to 14) (size 15 to 20)
#    0.000    2.000    0.000    1.714    6.000    7.429 
#    2.571    0.000    0.000    0.000    0.000    0.000 
#    0.000    0.000    0.000    0.000    0.000    0.000 
#
# Total GULP energy -173460.022993 kJ/mol
# GULP energy per Si atom -12390.001642 kJ/mol
# Density = 2.235887 g / cm^3
# Si number density = 22.409877 Si / 1000 Ang^3
#
#
#
# Elastic Constant Matrix: (Units=GPa)
#
#
# Indices 1 2 3 4 5 6 
#
# 1 114.2143 53.0256 18.6283 4.0134 5.2771 -21.5162
# 2 53.0256 112.7882 13.7417 19.5680 6.4606 -2.0506
# 3 18.6283 13.7417 71.9315 9.8636 5.6940 -3.4467
# 4 4.0134 19.5680 9.8636 29.4236 -1.4839 -1.8940
# 5 5.2771 6.4606 5.6940 -1.4839 18.2649 0.1571
# 6 -21.5162 -2.0506 -3.4467 -1.8940 0.1571 39.3210
#
#
#
# Elastic Compliance Matrix: (Units=1/GPa)
#
#
# Indices 1 2 3 4 5 6 
#
# 1 0.013346 -0.006467 -0.002346 0.003684 -0.000597 0.006940
# 2 -0.006467 0.013508 0.000419 -0.008635 -0.003714 -0.003199
# 3 -0.002346 0.000419 0.015542 -0.005418 -0.004755 -0.000142
# 4 0.003684 -0.008635 -0.005418 0.041595 0.007032 0.003066
# 5 -0.000597 -0.003714 -0.004755 0.007032 0.058297 -0.000832
# 6 0.006940 -0.003199 -0.000142 0.003066 -0.000832 0.029201
#
#
# Mechanical properties :
#
#
# Convention : Reuss Voigt Hill
#
# Bulk Modulus (GPa) = 39.05031 52.19171 45.62101
# Shear Modulus (GPa) = 25.40466 31.63777 28.52122
#
# Velocity S-wave (km/s) = 3.37060 3.76144 3.57137
# Velocity P-wave (km/s) = 5.71063 6.49652 6.11621
#
# Compressibility (1/GPa) = 0.02560799
#
# Stress axis : x y z
#
# Youngs Moduli (GPa) = 74.92759 74.02788 64.34129
#
# Poissons Ratio (x) = 0.47877 0.15095
# Poissons Ratio (y) = 0.48459 -0.02697
# Poissons Ratio (z) = 0.17579 -0.03102
#
# Static dielectric constant tensor:
#      x y z
#    x 3.959960 0.215210 0.190650 
#    y 0.215210 4.122610 0.162940 
#    z 0.190650 0.162940 4.113730 
# 
# 
# High freq. dielectric constant tensor:
#      x y z
#    x 1.871000 0.005820 0.004500 
#    y 0.005820 1.875480 0.007840 
#    z 0.004500 0.007840 1.895200 
# 
# From -- ./inp_files/26986.got.cif
#   From: 2010.06.25/outbox.cif.g09.slc.cpg/sg2_14_cif.got.tgz:26986.got - 2010.06.27 13:26:56.
