data_PCOD8005709
_publ_section_title
;
Structure prediction by ZEFSAII (Michael W. Deem and Ramdas Pophale) SiO2 
 PCOD8005709
Probable space group: P -1
;
_chemical_formula_sum "Si O2"
_cell_formula_units_Z 16
_cell_length_a 13.700688
_cell_length_b 27.786356
_cell_length_c 8.785730
_cell_angle_alpha 139.958198
_cell_angle_beta 129.895126
_cell_angle_gamma 22.119611
_cell_volume 777.807632
_symmetry_space_group_name_H-M "P -1"
_symmetry_group_IT_number 2
_symmetry_cell_setting 'triclinic'
loop_
_space_group_symop_operation_xyz
x,y,z
-x,-y,-z
loop_
_atom_site_type_symbol
_atom_site_label
_atom_site_fract_x
_atom_site_fract_y
_atom_site_fract_z
Si Si1 0.928229 0.950024 0.979201
Si Si2 0.027436 0.500068 0.281402
Si Si3 0.434416 0.282758 0.422892
Si Si4 0.778288 0.049974 0.727346
Si Si5 0.527622 0.499940 0.273670
Si Si6 0.823008 0.691692 0.267463
Si Si7 0.717242 0.282790 0.705793
Si Si8 0.898075 0.308287 0.453657
O O1 0.034229 0.813674 0.801960
O O2 0.827334 0.000038 0.827447
O O3 0.161232 0.892522 0.093715
O O4 0.674514 0.098932 0.194484
O O5 0.770581 0.643030 0.479665
O O6 0.009101 0.571716 0.305685
O O7 0.296391 0.372202 0.339249
O O8 0.047080 0.408602 0.000050
O O9 0.555104 0.296596 0.642682
O O10 0.475218 0.186328 0.707490
O O11 0.971375 0.901015 0.451373
O O12 0.413342 0.627621 0.369985
O O13 0.723958 0.428406 0.427864
O O14 0.272574 0.591609 0.319909
O O15 0.699739 0.356907 0.990595
O O16 0.838359 0.774431 0.470591
#
# Coordination Sequence:
#
# PCOD8005709 Si02
#       8
#     2   2   2   2   2   2   2   2
#     4  10  21  39  62  86 117 159 199 242 292 352
#     4  10  22  38  59  89 119 155 197 245 294 350
#     4  10  20  39  62  85 115 156 202 243 290 350
#     4  10  21  39  62  86 117 159 199 242 292 352
#     4  10  22  38  59  89 119 155 197 245 294 350
#     4  11  23  39  61  90 123 157 194 244 298 351
#     4  10  20  39  62  85 115 156 202 243 290 350
#     4  11  23  39  61  90 123 157 194 244 298 351
#
# _framework density 20.570637999999999
#
# number of rings (size 3 to 8) (size 9 to 14) (size 15 to 20)
#    0.000    1.750    2.500    1.500    0.000    6.500 
#    0.000    6.250    0.000    0.000    0.000    0.000 
#    0.000    0.000    0.000    0.000    0.000    0.000 
#
# Total GULP energy -198369.688579 kJ/mol
# GULP energy per Si atom -12398.105536 kJ/mol
# Density = 2.052382 g / cm^3
# Si number density = 20.570638 Si / 1000 Ang^3
#
#
#
# Elastic Constant Matrix: (Units=GPa)
#
#
# Indices 1 2 3 4 5 6 
#
# 1 65.5665 32.9068 46.0257 3.0210 10.2440 -16.2250
# 2 32.9068 67.9918 30.8699 11.4141 4.0576 -13.2296
# 3 46.0257 30.8699 91.0539 12.1107 2.4622 -7.5822
# 4 3.0210 11.4141 12.1107 20.4814 3.3968 -2.3343
# 5 10.2440 4.0576 2.4622 3.3968 34.2908 -6.1985
# 6 -16.2250 -13.2296 -7.5822 -2.3343 -6.1985 29.1314
#
#
#
# Elastic Compliance Matrix: (Units=1/GPa)
#
#
# Indices 1 2 3 4 5 6 
#
# 1 0.032390 -0.008883 -0.013764 0.010575 -0.006913 0.009800
# 2 -0.008883 0.022016 -0.001338 -0.009994 0.001913 0.004309
# 3 -0.013764 -0.001338 0.019299 -0.009551 0.003229 -0.003329
# 4 0.010575 -0.009994 -0.009551 0.059865 -0.006821 0.002211
# 5 -0.006913 0.001913 0.003229 -0.006821 0.032198 0.004164
# 6 0.009800 0.004309 -0.003329 0.002211 0.004164 0.041939
#
#
# Mechanical properties :
#
#
# Convention : Reuss Voigt Hill
#
# Bulk Modulus (GPa) = 38.85629 49.35743 44.10686
# Shear Modulus (GPa) = 18.92109 24.43471 21.67790
#
# Velocity S-wave (km/s) = 3.03613 3.45025 3.24979
# Velocity P-wave (km/s) = 5.58757 6.31811 5.96404
#
# Compressibility (1/GPa) = 0.02573586
#
# Stress axis : x y z
#
# Youngs Moduli (GPa) = 30.87392 45.42128 51.81488
#
# Poissons Ratio (x) = 0.40346 0.71320
# Poissons Ratio (y) = 0.27424 0.06932
# Poissons Ratio (z) = 0.42496 0.06076
#
# Static dielectric constant tensor:
#      x y z
#    x 3.567790 0.043040 -0.106940 
#    y 0.043040 3.661120 0.079760 
#    z -0.106940 0.079760 3.722150 
# 
# 
# High freq. dielectric constant tensor:
#      x y z
#    x 1.798800 0.001100 -0.009720 
#    y 0.001100 1.797530 0.002590 
#    z -0.009720 0.002590 1.810400 
# 
# From -- ./inp_files/278665.got.cif
#   From: 2010.06.25/outbox.cif.g09.slc.cpg/sg2_140_cif.got.tgz:278665.got - 2010.06.27 13:26:56.
