data_PCOD8005919
_publ_section_title
;
Structure prediction by ZEFSAII (Michael W. Deem and Ramdas Pophale) SiO2 
 PCOD8005919
Probable space group: P -1
;
_chemical_formula_sum "Si O2"
_cell_formula_units_Z 16
_cell_length_a 8.023300
_cell_length_b 19.462802
_cell_length_c 8.443752
_cell_angle_alpha 142.121104
_cell_angle_beta 113.217906
_cell_angle_gamma 82.146988
_cell_volume 707.524760
_symmetry_space_group_name_H-M "P -1"
_symmetry_group_IT_number 2
_symmetry_cell_setting 'triclinic'
loop_
_space_group_symop_operation_xyz
x,y,z
-x,-y,-z
loop_
_atom_site_type_symbol
_atom_site_label
_atom_site_fract_x
_atom_site_fract_y
_atom_site_fract_z
Si Si1 0.214185 0.886057 0.232549
Si Si2 0.153100 0.513005 0.217249
Si Si3 0.854649 0.726058 0.282807
Si Si4 0.564745 0.858201 0.723498
Si Si5 0.460837 0.401314 0.672861
Si Si6 0.203098 0.916122 0.647765
Si Si7 0.055685 0.331428 0.435487
Si Si8 0.614091 0.876566 0.418556
O O1 0.164265 0.876340 0.380325
O O2 0.411546 0.857547 0.223071
O O3 0.228532 0.016755 0.416297
O O4 0.049977 0.793907 0.906273
O O5 0.373296 0.570321 0.346554
O O6 0.090048 0.589658 0.468911
O O7 0.128237 0.378587 0.017940
O O8 0.000000 0.500000 0.000000
O O9 0.661050 0.753020 0.208103
O O10 0.012812 0.851925 0.554138
O O11 0.858914 0.683916 0.387995
O O12 0.555305 0.724028 0.484498
O O13 0.358237 0.867721 0.706801
O O14 0.609815 0.913226 0.665813
O O15 0.729026 0.941356 0.051175
O O16 0.247031 0.392028 0.511165
O O17 0.500000 0.500000 0.000000
#
# Coordination Sequence:
#
# PCOD8005919 Si02
#       8
#     2   2   2   2   2   2   2   2
#     4  10  24  43  59  95 135 171 201 269 342 377
#     4  10  21  39  64  98 128 166 216 272 318 369
#     4  11  21  40  67  92 120 169 220 266 306 387
#     4  10  20  39  63  97 117 169 218 262 314 384
#     4  12  21  37  68  99 127 166 221 269 312 380
#     4  10  23  38  64  91 131 162 211 271 323 379
#     4  11  23  41  68  98 128 171 215 271 322 378
#     4  10  21  40  65  85 134 167 211 258 329 388
#
# _framework density 22.614049000000001
#
# number of rings (size 3 to 8) (size 9 to 14) (size 15 to 20)
#    0.000    1.500    3.750    2.250    1.750    5.500 
#    2.250    1.250    0.000    0.000    0.000    0.000 
#    0.000    0.000    0.000    0.000    0.000    0.000 
#
# Total GULP energy -198262.636146 kJ/mol
# GULP energy per Si atom -12391.414759 kJ/mol
# Density = 2.256258 g / cm^3
# Si number density = 22.614049 Si / 1000 Ang^3
#
#
#
# Elastic Constant Matrix: (Units=GPa)
#
#
# Indices 1 2 3 4 5 6 
#
# 1 123.6061 24.7553 37.7558 14.2841 13.0730 -13.2253
# 2 24.7553 58.9160 35.5614 18.5466 -5.8520 -20.9500
# 3 37.7558 35.5614 114.3365 25.7278 5.5066 -10.5778
# 4 14.2841 18.5466 25.7278 26.2731 -3.8869 -8.4321
# 5 13.0730 -5.8520 5.5066 -3.8869 33.5892 13.8788
# 6 -13.2253 -20.9500 -10.5778 -8.4321 13.8788 28.7893
#
#
#
# Elastic Compliance Matrix: (Units=1/GPa)
#
#
# Indices 1 2 3 4 5 6 
#
# 1 0.010448 -0.001249 -0.001693 -0.002259 -0.006674 0.005825
# 2 -0.001249 0.029477 -0.004791 -0.010254 -0.001795 0.016978
# 3 -0.001693 -0.004791 0.012905 -0.009007 -0.003048 -0.000691
# 4 -0.002259 -0.010254 -0.009007 0.056860 0.006428 0.001746
# 5 -0.006674 -0.001795 -0.003048 0.006428 0.043446 -0.024554
# 6 0.005825 0.016978 -0.000691 0.001746 -0.024554 0.061861
#
#
# Mechanical properties :
#
#
# Convention : Reuss Voigt Hill
#
# Bulk Modulus (GPa) = 26.76377 54.77818 40.77098
# Shear Modulus (GPa) = 20.58326 30.98271 25.78298
#
# Velocity S-wave (km/s) = 3.02022 3.70545 3.38025
# Velocity P-wave (km/s) = 4.90133 6.52555 5.77087
#
# Compressibility (1/GPa) = 0.03736394
#
# Stress axis : x y z
#
# Youngs Moduli (GPa) = 95.71593 33.92482 77.48924
#
# Poissons Ratio (x) = 0.04236 0.13119
# Poissons Ratio (y) = 0.11951 0.37126
# Poissons Ratio (z) = 0.16205 0.16254
#
# Static dielectric constant tensor:
#      x y z
#    x 4.646820 -0.285000 -0.028160 
#    y -0.285000 3.817800 0.303320 
#    z -0.028160 0.303320 4.059380 
# 
# 
# High freq. dielectric constant tensor:
#      x y z
#    x 1.909130 -0.017060 0.004310 
#    y -0.017060 1.859820 0.022750 
#    z 0.004310 0.022750 1.888160 
# 
# From -- ./inp_files/218986.got.cif
#   From: 2010.06.25/outbox.cif.g09.slc.cpg/sg2_110_cif.got.tgz:218986.got - 2010.06.27 13:26:56.
