data_PCOD8005730
_publ_section_title
;
Structure prediction by ZEFSAII (Michael W. Deem and Ramdas Pophale) SiO2 
 PCOD8005730
Probable space group: P -1
;
_chemical_formula_sum "Si O2"
_cell_formula_units_Z 16
_cell_length_a 9.154821
_cell_length_b 6.444236
_cell_length_c 18.622136
_cell_angle_alpha 123.680788
_cell_angle_beta 118.197868
_cell_angle_gamma 56.741179
_cell_volume 741.746305
_symmetry_space_group_name_H-M "P -1"
_symmetry_group_IT_number 2
_symmetry_cell_setting 'triclinic'
loop_
_space_group_symop_operation_xyz
x,y,z
-x,-y,-z
loop_
_atom_site_type_symbol
_atom_site_label
_atom_site_fract_x
_atom_site_fract_y
_atom_site_fract_z
Si Si1 0.863129 0.082192 0.231706
Si Si2 0.919714 0.535956 0.409076
Si Si3 0.587628 0.069140 0.463687
Si Si4 0.858197 0.255400 0.104246
Si Si5 0.357056 0.233200 0.920117
Si Si6 0.264671 0.475776 0.384174
Si Si7 0.739855 0.824505 0.962242
Si Si8 0.854555 0.492469 0.795001
O O1 0.855517 0.290443 0.333165
O O2 0.848525 0.238988 0.184401
O O3 0.703370 0.973861 0.180746
O O4 0.052934 0.828759 0.236346
O O5 0.000000 0.500000 0.500000
O O6 0.071758 0.532120 0.386746
O O7 0.740265 0.807834 0.412949
O O8 0.422045 0.202817 0.396346
O O9 0.685243 0.268882 0.542498
O O10 0.500000 0.000000 0.500000
O O11 0.673620 0.497780 0.080862
O O12 0.015823 0.347815 0.137961
O O13 0.887137 0.963796 0.019441
O O14 0.559451 0.091696 0.965145
O O15 0.236155 0.314896 0.980712
O O16 0.257826 0.430780 0.289141
O O17 0.734124 0.611284 0.860358
#
# Coordination Sequence:
#
# PCOD8005730 Si02
#       8
#     2   2   2   2   2   2   2   2
#     4  10  23  40  60  92 126 163 215 264 321 393
#     4  12  23  45  73  94 136 181 214 277 340 387
#     4  11  25  45  70 101 133 171 225 272 329 403
#     4  10  20  39  62  87 123 162 217 254 317 393
#     4   9  21  40  59  90 128 163 215 262 329 387
#     4  11  25  46  66 103 133 174 225 271 333 403
#     4  10  21  38  61  91 124 169 206 272 323 380
#     4  11  23  39  62  91 128 162 216 268 320 390
#
# _framework density 21.570716999999998
#
# number of rings (size 3 to 8) (size 9 to 14) (size 15 to 20)
#    0.000    1.500    2.500    1.875    0.000    7.500 
#    0.000    0.000    0.000    0.000    0.000    0.000 
#    0.000    0.000    0.000    0.000    0.000    0.000 
#
# Total GULP energy -198334.883528 kJ/mol
# GULP energy per Si atom -12395.930221 kJ/mol
# Density = 2.152162 g / cm^3
# Si number density = 21.570717 Si / 1000 Ang^3
#
#
#
# Elastic Constant Matrix: (Units=GPa)
#
#
# Indices 1 2 3 4 5 6 
#
# 1 61.2392 33.2014 20.2470 7.1686 -0.2056 -4.0148
# 2 33.2014 154.9777 69.3426 -5.8751 -5.3494 -4.5202
# 3 20.2470 69.3426 156.4335 3.4400 -5.3128 -1.4049
# 4 7.1686 -5.8751 3.4400 41.1665 -0.5669 -1.4697
# 5 -0.2056 -5.3494 -5.3128 -0.5669 17.5599 0.8667
# 6 -4.0148 -4.5202 -1.4049 -1.4697 0.8667 30.3049
#
#
#
# Elastic Compliance Matrix: (Units=1/GPa)
#
#
# Indices 1 2 3 4 5 6 
#
# 1 0.019263 -0.003961 -0.000685 -0.003818 -0.001400 0.001784
# 2 -0.003961 0.009023 -0.003474 0.002317 0.001690 0.000724
# 3 -0.000685 -0.003474 0.008087 -0.001045 0.001363 -0.000324
# 4 -0.003818 0.002317 -0.001045 0.025425 0.001117 0.000992
# 5 -0.001400 0.001690 0.001363 0.001117 0.057968 -0.001474
# 6 0.001784 0.000724 -0.000324 0.000992 -0.001474 0.033418
#
#
# Mechanical properties :
#
#
# Convention : Reuss Voigt Hill
#
# Bulk Modulus (GPa) = 49.66992 68.69249 59.18120
# Shear Modulus (GPa) = 28.38743 34.46355 31.42549
#
# Velocity S-wave (km/s) = 3.63163 4.00146 3.82102
# Velocity P-wave (km/s) = 6.37664 7.29817 6.85291
#
# Compressibility (1/GPa) = 0.02013291
#
# Stress axis : x y z
#
# Youngs Moduli (GPa) = 51.91380 110.82991 123.64980
#
# Poissons Ratio (x) = 0.43904 0.08467
# Poissons Ratio (y) = 0.20565 0.42955
# Poissons Ratio (z) = 0.03555 0.38501
#
# Static dielectric constant tensor:
#      x y z
#    x 3.833440 0.056420 0.141700 
#    y 0.056420 4.123710 -0.075220 
#    z 0.141700 -0.075220 3.920270 
# 
# 
# High freq. dielectric constant tensor:
#      x y z
#    x 1.833510 0.007150 0.014630 
#    y 0.007150 1.860860 -0.006730 
#    z 0.014630 -0.006730 1.856070 
# 
# From -- ./inp_files/553864.got.cif
#   From: 2010.06.25/outbox.cif.g09.slc.cpg/sg2_277_cif.got.tgz:553864.got - 2010.06.27 13:26:56.
