data_PCOD8005577
_publ_section_title
;
Structure prediction by ZEFSAII (Michael W. Deem and Ramdas Pophale) SiO2 
 PCOD8005577
Probable space group: P -1
;
_chemical_formula_sum "Si O2"
_cell_formula_units_Z 16
_cell_length_a 12.230171
_cell_length_b 11.579260
_cell_length_c 11.955734
_cell_angle_alpha 43.996948
_cell_angle_beta 117.846115
_cell_angle_gamma 125.072745
_cell_volume 958.222028
_symmetry_space_group_name_H-M "P -1"
_symmetry_group_IT_number 2
_symmetry_cell_setting 'triclinic'
loop_
_space_group_symop_operation_xyz
x,y,z
-x,-y,-z
loop_
_atom_site_type_symbol
_atom_site_label
_atom_site_fract_x
_atom_site_fract_y
_atom_site_fract_z
Si Si1 0.846297 0.579845 0.170092
Si Si2 0.811895 0.044166 0.344022
Si Si3 0.308288 0.772358 0.523639
Si Si4 0.234894 0.286611 0.162516
Si Si5 0.003153 0.932136 0.381782
Si Si6 0.966264 0.291482 0.642341
Si Si7 0.869832 0.433381 0.059681
Si Si8 0.403943 0.117477 0.479078
O O1 0.747030 0.426597 0.310853
O O2 0.910020 0.488976 0.170507
O O3 0.967142 0.729832 0.193737
O O4 0.764386 0.683143 0.993408
O O5 0.923220 0.116098 0.444978
O O6 0.793341 0.217801 0.161822
O O7 0.669734 0.902832 0.422266
O O8 0.863023 0.941971 0.345973
O O9 0.196153 0.809385 0.369494
O O10 0.435735 0.796890 0.488842
O O11 0.354271 0.917316 0.543919
O O12 0.364896 0.251421 0.286382
O O13 0.098380 0.121748 0.243527
O O14 0.228755 0.465725 0.095513
O O15 0.968124 0.776871 0.380280
O O16 0.000000 0.500000 0.500000
O O17 0.000000 0.500000 0.000000
#
# Coordination Sequence:
#
# PCOD8005577 Si02
#       8
#     2   2   2   2   2   2   2   2
#     4   9  19  31  48  72 100 129 152 204 248 285
#     4  10  16  30  48  71 102 123 160 204 248 279
#     4  10  18  31  51  69  99 132 167 196 237 290
#     4   9  18  29  44  79  96 122 156 202 246 286
#     4  10  18  28  49  74  95 125 162 204 242 286
#     4  10  18  33  49  72  98 128 166 197 244 290
#     4  10  17  30  47  76 101 124 154 201 258 284
#     4  10  18  31  48  74  99 128 166 201 234 293
#
# _framework density 16.697592
#
# number of rings (size 3 to 8) (size 9 to 14) (size 15 to 20)
#    0.750    1.500    5.000    0.750    0.000    1.000 
#    0.000    0.000    0.000    3.000    0.000    1.750 
#    0.000    0.000    0.000    0.000    0.000    0.000 
#
# Total GULP energy -198235.134879 kJ/mol
# GULP energy per Si atom -12389.695930 kJ/mol
# Density = 1.665959 g / cm^3
# Si number density = 16.697592 Si / 1000 Ang^3
#
#
#
# Elastic Constant Matrix: (Units=GPa)
#
#
# Indices 1 2 3 4 5 6 
#
# 1 117.7777 46.0552 31.5292 0.5056 -10.3374 -3.3664
# 2 46.0552 60.4338 20.9671 1.1806 -4.1310 -6.1741
# 3 31.5292 20.9671 71.4442 -10.7061 5.0978 0.4949
# 4 0.5056 1.1806 -10.7061 17.0841 -3.1551 1.4570
# 5 -10.3374 -4.1310 5.0978 -3.1551 24.8793 -4.5322
# 6 -3.3664 -6.1741 0.4949 1.4570 -4.5322 27.6283
#
#
#
# Elastic Compliance Matrix: (Units=1/GPa)
#
#
# Indices 1 2 3 4 5 6 
#
# 1 0.013253 -0.008277 -0.003996 -0.001482 0.004894 0.000718
# 2 -0.008277 0.025221 -0.004601 -0.004446 0.002091 0.005288
# 3 -0.003996 -0.004601 0.019295 0.011801 -0.005498 -0.003385
# 4 -0.001482 -0.004446 0.011801 0.067383 0.003993 -0.004284
# 5 0.004894 0.002091 -0.005498 0.003993 0.045748 0.008456
# 6 0.000718 0.005288 -0.003385 -0.004284 0.008456 0.039138
#
#
# Mechanical properties :
#
#
# Convention : Reuss Voigt Hill
#
# Bulk Modulus (GPa) = 41.62996 49.63986 45.63491
# Shear Modulus (GPa) = 19.85759 23.99195 21.92477
#
# Velocity S-wave (km/s) = 3.45229 3.79469 3.62753
# Velocity P-wave (km/s) = 6.39351 6.99949 6.70335
#
# Compressibility (1/GPa) = 0.02402116
#
# Stress axis : x y z
#
# Youngs Moduli (GPa) = 75.45321 39.64973 51.82711
#
# Poissons Ratio (x) = 0.32817 0.20710
# Poissons Ratio (y) = 0.62451 0.23846
# Poissons Ratio (z) = 0.30151 0.18243
#
# Static dielectric constant tensor:
#      x y z
#    x 3.270790 -0.061040 0.052180 
#    y -0.061040 3.084540 0.043320 
#    z 0.052180 0.043320 3.281200 
# 
# 
# High freq. dielectric constant tensor:
#      x y z
#    x 1.637530 -0.017880 0.003190 
#    y -0.017880 1.601780 -0.016880 
#    z 0.003190 -0.016880 1.642860 
# 
# From -- ./inp_files/420628.got.cif
#   From: 2010.06.25/outbox.cif.g09.slc.cpg/sg2_211_cif.got.tgz:420628.got - 2010.06.27 13:26:56.
