data_PCOD8005818
_publ_section_title
;
Structure prediction by ZEFSAII (Michael W. Deem and Ramdas Pophale) SiO2 
 PCOD8005818
Probable space group: P -1
;
_chemical_formula_sum "Si O2"
_cell_formula_units_Z 16
_cell_length_a 7.836327
_cell_length_b 9.394184
_cell_length_c 12.253545
_cell_angle_alpha 125.846585
_cell_angle_beta 82.538179
_cell_angle_gamma 93.317250
_cell_volume 724.817807
_symmetry_space_group_name_H-M "P -1"
_symmetry_group_IT_number 2
_symmetry_cell_setting 'triclinic'
loop_
_space_group_symop_operation_xyz
x,y,z
-x,-y,-z
loop_
_atom_site_type_symbol
_atom_site_label
_atom_site_fract_x
_atom_site_fract_y
_atom_site_fract_z
Si Si1 0.167699 0.377932 0.924411
Si Si2 0.074613 0.001388 0.711365
Si Si3 0.830183 0.083390 0.099564
Si Si4 0.666602 0.123368 0.541394
Si Si5 0.315346 0.987981 0.278634
Si Si6 0.455067 0.350601 0.520790
Si Si7 0.580170 0.797765 0.007125
Si Si8 0.674047 0.422586 0.186784
O O1 0.098578 0.207003 0.796556
O O2 0.272564 0.323449 0.000196
O O3 0.301196 0.476238 0.881776
O O4 0.000000 0.500000 0.000000
O O5 0.172837 0.911484 0.765767
O O6 0.161561 0.940188 0.564072
O O7 0.873939 0.960257 0.726030
O O8 0.820635 0.277141 0.136812
O O9 0.670325 0.966004 0.021076
O O10 0.000000 0.000000 0.000000
O O11 0.614568 0.306334 0.569228
O O12 0.500000 0.000000 0.500000
O O13 0.713557 0.139333 0.671685
O O14 0.400005 0.173768 0.385000
O O15 0.429877 0.872103 0.133915
O O16 0.500000 0.500000 0.500000
O O17 0.315137 0.439278 0.652865
O O18 0.503749 0.681906 0.863128
#
# Coordination Sequence:
#
# PCOD8005818 Si02
#       8
#     2   2   2   2   2   2   2   2
#     4  11  22  38  61  94 127 156 201 265 312 354
#     4  11  23  41  62  90 125 166 210 253 307 379
#     4  11  23  41  62  89 126 169 207 251 310 378
#     4  10  20  39  63  86 119 165 204 247 307 375
#     4  11  22  42  67  91 121 167 212 250 306 381
#     4  11  23  40  61  91 125 160 204 260 310 360
#     4  11  23  42  65  91 123 167 209 249 309 381
#     4  12  23  39  64  94 123 160 207 259 308 360
#
# _framework density 22.074513
#
# number of rings (size 3 to 8) (size 9 to 14) (size 15 to 20)
#    0.000    1.000    0.000   10.875    0.000    2.000 
#    0.000    5.000    0.000    0.000    0.000    0.000 
#    0.000    0.000    0.000    0.000    0.000    0.000 
#
# Total GULP energy -198289.937111 kJ/mol
# GULP energy per Si atom -12393.121069 kJ/mol
# Density = 2.202427 g / cm^3
# Si number density = 22.074513 Si / 1000 Ang^3
#
#
#
# Elastic Constant Matrix: (Units=GPa)
#
#
# Indices 1 2 3 4 5 6 
#
# 1 85.8864 1.0924 14.6560 7.2417 -11.2624 -2.3747
# 2 1.0924 113.3273 11.8899 13.1893 0.6519 -8.2786
# 3 14.6560 11.8899 70.7012 6.9787 -10.0067 -3.6854
# 4 7.2417 13.1893 6.9787 30.1747 -0.4857 -11.9769
# 5 -11.2624 0.6519 -10.0067 -0.4857 37.7394 2.7671
# 6 -2.3747 -8.2786 -3.6854 -11.9769 2.7671 31.3345
#
#
#
# Elastic Compliance Matrix: (Units=1/GPa)
#
#
# Indices 1 2 3 4 5 6 
#
# 1 0.012629 0.000362 -0.001962 -0.002913 0.003247 -0.000578
# 2 0.000362 0.009449 -0.001339 -0.003487 -0.000534 0.001081
# 3 -0.001962 -0.001339 0.015519 -0.002446 0.003515 0.000078
# 4 -0.002913 -0.003487 -0.002446 0.041731 -0.001998 0.014697
# 5 0.003247 -0.000534 0.003515 -0.001998 0.028585 -0.002770
# 6 -0.000578 0.001081 0.000078 0.014697 -0.002770 0.038027
#
#
# Mechanical properties :
#
#
# Convention : Reuss Voigt Hill
#
# Bulk Modulus (GPa) = 31.52698 36.13238 33.82968
# Shear Modulus (GPa) = 30.79003 36.00148 33.39575
#
# Velocity S-wave (km/s) = 3.73878 4.04283 3.89378
# Velocity P-wave (km/s) = 5.74030 6.18033 5.96438
#
# Compressibility (1/GPa) = 0.03171886
#
# Stress axis : x y z
#
# Youngs Moduli (GPa) = 79.18364 105.83290 64.43746
#
# Poissons Ratio (x) = -0.03833 0.12642
# Poissons Ratio (y) = -0.02868 0.08630
# Poissons Ratio (z) = 0.15535 0.14173
#
# Static dielectric constant tensor:
#      x y z
#    x 3.066290 0.264980 0.627370 
#    y 0.264980 4.263890 -0.360650 
#    z 0.627370 -0.360650 3.603560 
# 
# 
# High freq. dielectric constant tensor:
#      x y z
#    x 1.864540 -0.011850 -0.009950 
#    y -0.011850 1.887370 -0.003440 
#    z -0.009950 -0.003440 1.861570 
# 
# From -- ./inp_files/186642.got.cif
#   From: 2010.06.25/outbox.cif.g09.slc.cpg/sg2_94_cif.got.tgz:186642.got - 2010.06.27 13:26:56.
