data_PCOD8005998
_publ_section_title
;
Structure prediction by ZEFSAII (Michael W. Deem and Ramdas Pophale) SiO2 
 PCOD8005998
Probable space group: P -1
;
_chemical_formula_sum "Si O2"
_cell_formula_units_Z 12
_cell_length_a 9.420194
_cell_length_b 7.676405
_cell_length_c 9.029914
_cell_angle_alpha 101.720169
_cell_angle_beta 92.112364
_cell_angle_gamma 64.992113
_cell_volume 578.542797
_symmetry_space_group_name_H-M "P -1"
_symmetry_group_IT_number 2
_symmetry_cell_setting 'triclinic'
loop_
_space_group_symop_operation_xyz
x,y,z
-x,-y,-z
loop_
_atom_site_type_symbol
_atom_site_label
_atom_site_fract_x
_atom_site_fract_y
_atom_site_fract_z
Si Si1 0.906621 0.776955 0.949797
Si Si2 0.235827 0.432265 0.295941
Si Si3 0.362529 0.207771 0.565978
Si Si4 0.472707 0.512725 0.675297
Si Si5 0.840720 0.146994 0.174785
Si Si6 0.067302 0.221008 0.724755
O O1 0.789089 0.713393 0.845922
O O2 0.064045 0.727445 0.849438
O O3 0.946423 0.673002 0.095964
O O4 0.824991 0.015091 0.014007
O O5 0.284790 0.325080 0.435176
O O6 0.370388 0.490543 0.244103
O O7 0.079565 0.633719 0.351850
O O8 0.436588 0.328602 0.688119
O O9 0.231078 0.179882 0.649491
O O10 0.500000 0.000000 0.500000
O O11 0.500000 0.500000 0.500000
O O12 0.329639 0.713156 0.750557
O O13 0.933307 0.992921 0.284880
#
# Coordination Sequence:
#
# PCOD8005998 Si02
#       6
#     2   2   2   2   2   2
#     4   9  21  40  66  91 126 160 202 249 306 363
#     4  11  22  38  64  94 122 161 208 244 310 363
#     4  11  24  43  61  87 125 166 205 258 302 359
#     4  10  22  40  58  88 124 161 201 253 301 355
#     4   9  20  41  65  86 130 158 200 250 307 358
#     4  10  20  39  64  92 122 162 201 252 301 364
#
# _framework density 20.741766999999999
#
# number of rings (size 3 to 8) (size 9 to 14) (size 15 to 20)
#    1.000    1.000    0.000    4.000    0.000    3.333 
#    0.000    6.667    0.000    0.000    0.000    0.000 
#    0.000    0.000    0.000    0.000    0.000    0.000 
#
# Total GULP energy -148713.475923 kJ/mol
# GULP energy per Si atom -12392.789660 kJ/mol
# Density = 2.069456 g / cm^3
# Si number density = 20.741767 Si / 1000 Ang^3
#
#
#
# Elastic Constant Matrix: (Units=GPa)
#
#
# Indices 1 2 3 4 5 6 
#
# 1 150.3920 74.8252 61.7108 -1.5576 -3.7341 -23.0791
# 2 74.8252 112.0989 29.9998 1.8954 -9.4261 -14.0254
# 3 61.7108 29.9998 58.7180 -0.9316 -5.6852 -5.4956
# 4 -1.5576 1.8954 -0.9316 34.7776 3.6656 -12.5076
# 5 -3.7341 -9.4261 -5.6852 3.6656 42.6958 11.2957
# 6 -23.0791 -14.0254 -5.4956 -12.5076 11.2957 23.4693
#
#
#
# Elastic Compliance Matrix: (Units=1/GPa)
#
#
# Indices 1 2 3 4 5 6 
#
# 1 0.019644 -0.007241 -0.015719 0.008839 -0.007988 0.019865
# 2 -0.007241 0.013685 0.000770 -0.001759 0.002936 -0.001112
# 3 -0.015719 0.000770 0.032472 -0.005646 0.007284 -0.013909
# 4 0.008839 -0.001759 -0.005646 0.043506 -0.013646 0.036073
# 5 -0.007988 0.002936 0.007284 -0.013646 0.032772 -0.027441
# 6 0.019865 -0.001112 -0.013909 0.036073 -0.027441 0.090653
#
#
# Mechanical properties :
#
#
# Convention : Reuss Voigt Hill
#
# Bulk Modulus (GPa) = 46.68468 72.69786 59.69127
# Shear Modulus (GPa) = 17.58996 30.50006 24.04501
#
# Velocity S-wave (km/s) = 2.91528 3.83883 3.40848
# Velocity P-wave (km/s) = 5.82136 7.40094 6.65816
#
# Compressibility (1/GPa) = 0.02142030
#
# Stress axis : x y z
#
# Youngs Moduli (GPa) = 50.90670 73.07098 30.79623
#
# Poissons Ratio (x) = 0.52911 0.48410
# Poissons Ratio (y) = 0.36862 -0.02372
# Poissons Ratio (z) = 0.80023 -0.05629
#
# Static dielectric constant tensor:
#      x y z
#    x 4.233820 0.279270 -0.028980 
#    y 0.279270 3.705950 0.111200 
#    z -0.028980 0.111200 3.643050 
# 
# 
# High freq. dielectric constant tensor:
#      x y z
#    x 1.821980 0.010870 -0.014220 
#    y 0.010870 1.812770 0.016270 
#    z -0.014220 0.016270 1.793340 
# 
# From -- ./inp_files/155905.got.cif
#   From: 2010.06.25/outbox.cif.g09.slc.cpg/sg2_78_cif.got.tgz:155905.got - 2010.06.27 13:26:56.
