data_PCOD8005814
_publ_section_title
;
Structure prediction by ZEFSAII (Michael W. Deem and Ramdas Pophale) SiO2 
 PCOD8005814
Probable space group: P -1
;
_chemical_formula_sum "Si O2"
_cell_formula_units_Z 16
_cell_length_a 6.511104
_cell_length_b 6.510870
_cell_length_c 19.192000
_cell_angle_alpha 78.685333
_cell_angle_beta 101.315925
_cell_angle_gamma 86.345869
_cell_volume 777.849350
_symmetry_space_group_name_H-M "P -1"
_symmetry_group_IT_number 2
_symmetry_cell_setting 'triclinic'
loop_
_space_group_symop_operation_xyz
x,y,z
-x,-y,-z
loop_
_atom_site_type_symbol
_atom_site_label
_atom_site_fract_x
_atom_site_fract_y
_atom_site_fract_z
Si Si1 0.226501 0.388598 0.536089
Si Si2 0.016020 0.405565 0.841558
Si Si3 0.594458 0.983964 0.341556
Si Si4 0.388600 0.226503 0.963898
Si Si5 0.433528 0.332242 0.410966
Si Si6 0.649454 0.340107 0.726155
Si Si7 0.667740 0.566477 0.910961
Si Si8 0.340090 0.649482 0.773848
O O1 0.313277 0.288195 0.476235
O O2 0.351500 0.572318 0.562293
O O3 0.000000 0.500000 0.500000
O O4 0.232970 0.197251 0.604828
O O5 0.858447 0.288648 0.790305
O O6 0.888432 0.523384 0.888648
O O7 0.197213 0.232964 0.895172
O O8 0.120977 0.583115 0.792809
O O9 0.476656 0.111553 0.388649
O O10 0.711384 0.141533 0.290307
O O11 0.416913 0.879021 0.292799
O O12 0.572297 0.351471 0.937665
O O13 0.288238 0.313354 0.023746
O O14 0.500000 0.000000 0.000000
O O15 0.294655 0.505084 0.342898
O O16 0.457383 0.457402 0.750002
O O17 0.494912 0.705396 0.842897
#
# Coordination Sequence:
#
# PCOD8005814 Si02
#       8
#     2   2   2   2   2   2   2   2
#     4  10  21  38  60  87 119 151 191 243 293 344
#     4  10  20  39  63  85 119 158 194 240 293 346
#     4  10  20  39  63  85 119 158 194 240 293 346
#     4  10  21  38  60  87 119 151 191 243 293 344
#     4   9  20  39  59  84 117 152 193 242 292 345
#     4   9  20  38  58  85 119 154 196 246 292 342
#     4   9  20  39  59  84 117 152 193 242 292 345
#     4   9  20  38  58  85 119 154 196 246 292 342
#
# _framework density 20.569537
#
# number of rings (size 3 to 8) (size 9 to 14) (size 15 to 20)
#    0.000    2.500    0.000    0.750    0.000    7.000 
#    0.000   28.750    0.000    0.000    0.000    0.000 
#    0.000    0.000    0.000    0.000    0.000    0.000 
#
# Total GULP energy -198391.720482 kJ/mol
# GULP energy per Si atom -12399.482530 kJ/mol
# Density = 2.052272 g / cm^3
# Si number density = 20.569537 Si / 1000 Ang^3
#
#
#
# Elastic Constant Matrix: (Units=GPa)
#
#
# Indices 1 2 3 4 5 6 
#
# 1 114.9114 67.2586 70.6341 -10.5794 6.0029 -0.6527
# 2 67.2586 114.8257 70.5798 -6.0180 10.5745 -0.6421
# 3 70.6341 70.5798 145.7324 -7.1721 7.1569 2.1420
# 4 -10.5794 -6.0180 -7.1721 32.0578 6.4039 7.9417
# 5 6.0029 10.5745 7.1569 6.4039 32.0596 -7.9412
# 6 -0.6527 -0.6421 2.1420 7.9417 -7.9412 6.7941
#
#
#
# Elastic Compliance Matrix: (Units=1/GPa)
#
#
# Indices 1 2 3 4 5 6 
#
# 1 0.015272 -0.005967 -0.003949 0.005742 -0.003219 -0.008326
# 2 -0.005967 0.015285 -0.003936 0.003303 -0.005825 -0.008557
# 3 -0.003949 -0.003936 0.011764 0.007661 -0.007659 -0.022368
# 4 0.005742 0.003303 0.007661 0.103738 -0.077436 -0.213322
# 5 -0.003219 -0.005825 -0.007659 -0.077436 0.103732 0.213317
# 6 -0.008326 -0.008557 -0.022368 -0.213322 0.213317 0.651317
#
#
# Mechanical properties :
#
#
# Convention : Reuss Voigt Hill
#
# Bulk Modulus (GPa) = 68.41609 88.04604 78.23107
# Shear Modulus (GPa) = 5.35512 25.31542 15.33527
#
# Velocity S-wave (km/s) = 1.61526 3.51197 2.73341
# Velocity P-wave (km/s) = 6.06728 7.70340 6.93376
#
# Compressibility (1/GPa) = 0.01461645
#
# Stress axis : x y z
#
# Youngs Moduli (GPa) = 65.47956 65.42213 85.00386
#
# Poissons Ratio (x) = 0.39040 0.33568
# Poissons Ratio (y) = 0.39074 0.33459
# Poissons Ratio (z) = 0.25858 0.25751
#
# Static dielectric constant tensor:
#      x y z
#    x 3.503350 0.049300 -0.089840 
#    y 0.049300 3.503350 0.089780 
#    z -0.089840 0.089780 4.286050 
# 
# 
# High freq. dielectric constant tensor:
#      x y z
#    x 1.786290 0.001970 -0.003370 
#    y 0.001970 1.786280 0.003370 
#    z -0.003370 0.003370 1.834240 
# 
# From -- ./inp_files/13746.got.cif
#   From: 2010.06.25/outbox.cif.g09.slc.cpg/sg2_7_cif.got.tgz:13746.got - 2010.06.27 13:26:56.
