data_PCOD8005867
_publ_section_title
;
Structure prediction by ZEFSAII (Michael W. Deem and Ramdas Pophale) SiO2 
 PCOD8005867
Probable space group: P -1
;
_chemical_formula_sum "Si O2"
_cell_formula_units_Z 16
_cell_length_a 18.368988
_cell_length_b 10.139019
_cell_length_c 8.975236
_cell_angle_alpha 138.750708
_cell_angle_beta 45.805513
_cell_angle_gamma 129.171791
_cell_volume 769.487738
_symmetry_space_group_name_H-M "P -1"
_symmetry_group_IT_number 2
_symmetry_cell_setting 'triclinic'
loop_
_space_group_symop_operation_xyz
x,y,z
-x,-y,-z
loop_
_atom_site_type_symbol
_atom_site_label
_atom_site_fract_x
_atom_site_fract_y
_atom_site_fract_z
Si Si1 0.174003 0.375536 0.296326
Si Si2 0.240537 0.977014 0.898344
Si Si3 0.266952 0.990642 0.515890
Si Si4 0.084825 0.177457 0.957068
Si Si5 0.049975 0.605887 0.868502
Si Si6 0.359522 0.647362 0.133266
Si Si7 0.458945 0.991380 0.714101
Si Si8 0.448009 0.338352 0.556680
O O1 0.142455 0.338158 0.135099
O O2 0.080503 0.440534 0.572776
O O3 0.283336 0.550703 0.298115
O O4 0.189865 0.167482 0.170799
O O5 0.154894 0.775460 0.894794
O O6 0.337861 0.996211 0.887846
O O7 0.274764 0.983909 0.681227
O O8 0.360045 0.161567 0.457524
O O9 0.286762 0.770813 0.245435
O O10 0.161502 0.047966 0.660975
O O11 0.037504 0.296327 0.999806
O O12 0.000000 0.000000 0.000000
O O13 0.000000 0.500000 0.000000
O O14 0.469303 0.806255 0.141233
O O15 0.387045 0.449437 0.853827
O O16 0.467143 0.773561 0.588786
O O17 0.500000 0.000000 0.500000
O O18 0.500000 0.500000 0.500000
#
# Coordination Sequence:
#
# PCOD8005867 Si02
#       8
#     2   2   2   2   2   2   2   2
#     4  11  21  41  72  91 123 173 222 249 313 395
#     4  11  21  42  60  94 129 164 213 259 305 387
#     4  10  20  39  63  91 124 159 218 257 293 386
#     4  11  20  42  70  92 121 173 220 258 309 386
#     4  12  26  42  65 100 133 158 211 281 323 359
#     4  11  20  39  68  94 121 170 212 251 309 380
#     4  11  21  38  65  95 127 163 208 256 309 379
#     4  11  24  40  60  93 130 160 208 267 311 362
#
# _framework density 20.793053
#
# number of rings (size 3 to 8) (size 9 to 14) (size 15 to 20)
#    0.000    1.000    8.750    0.375    0.000    6.500 
#    0.000    1.250    0.000    0.000    0.000    0.000 
#    0.000    0.000    0.000    0.000    0.000    0.000 
#
# Total GULP energy -198249.366599 kJ/mol
# GULP energy per Si atom -12390.585412 kJ/mol
# Density = 2.074573 g / cm^3
# Si number density = 20.793053 Si / 1000 Ang^3
#
#
#
# Elastic Constant Matrix: (Units=GPa)
#
#
# Indices 1 2 3 4 5 6 
#
# 1 110.0658 41.1541 34.7317 3.7215 -35.5630 -5.3583
# 2 41.1541 146.6437 16.7673 -1.3727 -6.1341 -2.1222
# 3 34.7317 16.7673 59.8273 17.2017 -20.5947 -3.7264
# 4 3.7215 -1.3727 17.2017 38.2766 -2.6285 -4.0140
# 5 -35.5630 -6.1341 -20.5947 -2.6285 30.0074 3.1785
# 6 -5.3583 -2.1222 -3.7264 -4.0140 3.1785 33.5541
#
#
#
# Elastic Compliance Matrix: (Units=1/GPa)
#
#
# Indices 1 2 3 4 5 6 
#
# 1 0.017041 -0.003686 -0.003107 0.000860 0.017322 0.000605
# 2 -0.003686 0.007904 -0.001729 0.001177 -0.003860 0.000226
# 3 -0.003107 -0.001729 0.026719 -0.010871 0.013372 -0.000205
# 4 0.000860 0.001177 -0.010871 0.031031 -0.003809 0.003077
# 5 0.017322 -0.003860 0.013372 -0.003809 0.062156 -0.002336
# 6 0.000605 0.000226 -0.000205 0.003077 -0.002336 0.030480
#
#
# Mechanical properties :
#
#
# Convention : Reuss Voigt Hill
#
# Bulk Modulus (GPa) = 28.88374 55.76033 42.32203
# Shear Modulus (GPa) = 24.52022 35.29320 29.90671
#
# Velocity S-wave (km/s) = 3.43775 4.12437 3.79661
# Velocity P-wave (km/s) = 5.44781 7.03957 6.29421
#
# Compressibility (1/GPa) = 0.03462155
#
# Stress axis : x y z
#
# Youngs Moduli (GPa) = 58.68168 126.51634 37.42711
#
# Poissons Ratio (x) = 0.46631 0.11628
# Poissons Ratio (y) = 0.21629 0.06469
# Poissons Ratio (z) = 0.18231 0.21869
#
# Static dielectric constant tensor:
#      x y z
#    x 2.813350 -0.151970 -0.410120 
#    y -0.151970 3.652900 0.228950 
#    z -0.410120 0.228950 3.997390 
# 
# 
# High freq. dielectric constant tensor:
#      x y z
#    x 1.790860 0.017040 -0.038680 
#    y 0.017040 1.826110 0.024780 
#    z -0.038680 0.024780 1.811880 
# 
# From -- ./inp_files/327952.got.cif
#   From: 2010.06.25/outbox.cif.g09.slc.cpg/sg2_164_cif.got.tgz:327952.got - 2010.06.27 13:26:56.
