data_PCOD8005235
_publ_section_title
;
Structure prediction by ZEFSAII (Michael W. Deem and Ramdas Pophale) SiO2 
 PCOD8005235
Probable space group: P -1
;
_chemical_formula_sum "Si O2"
_cell_formula_units_Z 14
_cell_length_a 11.520214
_cell_length_b 9.316364
_cell_length_c 9.049400
_cell_angle_alpha 60.697143
_cell_angle_beta 53.736702
_cell_angle_gamma 72.767217
_cell_volume 682.882763
_symmetry_space_group_name_H-M "P -1"
_symmetry_group_IT_number 2
_symmetry_cell_setting 'triclinic'
loop_
_space_group_symop_operation_xyz
x,y,z
-x,-y,-z
loop_
_atom_site_type_symbol
_atom_site_label
_atom_site_fract_x
_atom_site_fract_y
_atom_site_fract_z
Si Si1 0.294335 0.074117 0.936649
Si Si2 0.448433 0.499893 0.370600
Si Si3 0.277177 0.177300 0.586713
Si Si4 0.390121 0.012811 0.320457
Si Si5 0.228084 0.795852 0.342580
Si Si6 0.064460 0.345453 0.445129
Si Si7 0.308038 0.320586 0.052838
O O1 0.217684 0.100367 0.822965
O O2 0.465897 0.089094 0.772484
O O3 0.247475 0.223061 0.004710
O O4 0.259000 0.895362 0.117930
O O5 0.500000 0.500000 0.500000
O O6 0.385411 0.325081 0.462966
O O7 0.325290 0.633357 0.361396
O O8 0.587652 0.532447 0.147367
O O9 0.364768 0.035310 0.502969
O O10 0.139896 0.229059 0.567379
O O11 0.398568 0.192514 0.149079
O O12 0.257293 0.912654 0.401784
O O13 0.060999 0.751684 0.494228
O O14 0.177189 0.399241 0.206275
O O15 0.000000 0.500000 0.500000
#
# Coordination Sequence:
#
# PCOD8005235 Si02
#       7
#     2   2   2   2   2   2   2
#     4  11  20  40  65  98 126 165 214 266 312 378
#     4  12  21  40  69  98 120 168 217 268 316 369
#     4  11  24  37  65  97 135 158 216 268 309 375
#     4  10  20  38  65  97 128 162 213 266 317 368
#     4  11  22  42  69  84 133 173 208 255 328 380
#     4  11  25  43  61  95 133 170 211 263 317 380
#     4  10  21  38  66  94 125 169 212 258 323 372
#
# _framework density 20.501325000000001
#
# number of rings (size 3 to 8) (size 9 to 14) (size 15 to 20)
#    0.000    1.143    5.714    1.286    0.000    9.143 
#    0.000    2.857    0.000    0.000    0.000    0.000 
#    0.000    0.000    0.000    0.000    0.000    0.000 
#
# Total GULP energy -173610.976721 kJ/mol
# GULP energy per Si atom -12400.784051 kJ/mol
# Density = 2.045466 g / cm^3
# Si number density = 20.501325 Si / 1000 Ang^3
#
#
#
# Elastic Constant Matrix: (Units=GPa)
#
#
# Indices 1 2 3 4 5 6 
#
# 1 114.3868 35.5875 56.8003 3.9432 -3.2631 2.7070
# 2 35.5875 96.8680 51.0143 17.6971 -0.0434 8.3092
# 3 56.8003 51.0143 106.9192 13.2615 12.7671 -5.9146
# 4 3.9432 17.6971 13.2615 37.6142 5.2514 -2.0846
# 5 -3.2631 -0.0434 12.7671 5.2514 38.9599 4.0001
# 6 2.7070 8.3092 -5.9146 -2.0846 4.0001 26.1473
#
#
#
# Elastic Compliance Matrix: (Units=1/GPa)
#
#
# Indices 1 2 3 4 5 6 
#
# 1 0.012631 -0.000838 -0.007015 0.000875 0.003556 -0.003103
# 2 -0.000838 0.016377 -0.007550 -0.005958 0.004038 -0.007918
# 3 -0.007015 -0.007550 0.018087 -0.000612 -0.007291 0.008283
# 4 0.000875 -0.005958 -0.000612 0.030378 -0.004315 0.004746
# 5 0.003556 0.004038 -0.007291 -0.004315 0.029783 -0.008201
# 6 -0.003103 -0.007918 0.008283 0.004746 -0.008201 0.044589
#
#
# Mechanical properties :
#
#
# Convention : Reuss Voigt Hill
#
# Bulk Modulus (GPa) = 61.39365 67.21979 64.30672
# Shear Modulus (GPa) = 26.58438 32.19573 29.39006
#
# Velocity S-wave (km/s) = 3.60490 3.96715 3.79036
# Velocity P-wave (km/s) = 6.88028 7.33782 7.11273
#
# Compressibility (1/GPa) = 0.01628833
#
# Stress axis : x y z
#
# Youngs Moduli (GPa) = 79.16875 61.06228 55.28949
#
# Poissons Ratio (x) = 0.05118 0.38787
# Poissons Ratio (y) = 0.06635 0.41742
# Poissons Ratio (z) = 0.55539 0.46101
#
# Static dielectric constant tensor:
#      x y z
#    x 3.843730 0.068290 0.161540 
#    y 0.068290 3.753990 0.154870 
#    z 0.161540 0.154870 4.056690 
# 
# 
# High freq. dielectric constant tensor:
#      x y z
#    x 1.800850 0.006760 0.012710 
#    y 0.006760 1.800200 0.003590 
#    z 0.012710 0.003590 1.796310 
# 
# From -- ./inp_files/156737.got.cif
#   From: 2010.06.25/outbox.cif.g09.slc.cpg/sg2_79_cif.got.tgz:156737.got - 2010.06.27 13:26:56.
