data_PCOD8005860
_publ_section_title
;
Structure prediction by ZEFSAII (Michael W. Deem and Ramdas Pophale) SiO2 
 PCOD8005860
Probable space group: P -1
;
_chemical_formula_sum "Si O2"
_cell_formula_units_Z 14
_cell_length_a 29.103953
_cell_length_b 9.219332
_cell_length_c 12.370859
_cell_angle_alpha 144.995395
_cell_angle_beta 24.490924
_cell_angle_gamma 151.827144
_cell_volume 647.244242
_symmetry_space_group_name_H-M "P -1"
_symmetry_group_IT_number 2
_symmetry_cell_setting 'triclinic'
loop_
_space_group_symop_operation_xyz
x,y,z
-x,-y,-z
loop_
_atom_site_type_symbol
_atom_site_label
_atom_site_fract_x
_atom_site_fract_y
_atom_site_fract_z
Si Si1 0.525359 0.254179 0.018904
Si Si2 0.213124 0.691694 0.031532
Si Si3 0.695741 0.634768 0.496307
Si Si4 0.499721 0.798434 0.190383
Si Si5 0.806501 0.857158 0.798708
Si Si6 0.005235 0.802993 0.199732
Si Si7 0.981802 0.089238 0.213459
O O1 0.394856 0.263960 0.298829
O O2 0.551920 0.157929 0.786285
O O3 0.651536 0.586775 0.987670
O O4 0.500000 0.000000 0.000000
O O5 0.072018 0.465862 0.261737
O O6 0.183500 0.857302 0.104286
O O7 0.236940 0.438159 0.785410
O O8 0.345978 0.923363 0.956334
O O9 0.608846 0.300885 0.542643
O O10 0.818958 0.924633 0.479045
O O11 0.500000 0.500000 0.000000
O O12 0.871395 0.727315 0.502862
O O13 0.871939 0.963626 0.841608
O O14 0.027981 0.963187 0.133280
O O15 0.000000 0.500000 0.000000
O O16 0.000000 0.000000 0.000000
#
# Coordination Sequence:
#
# PCOD8005860 Si02
#       7
#     2   2   2   2   2   2   2
#     4  11  25  41  62  95 132 171 218 273 330 394
#     4  11  22  41  66 100 127 165 229 271 319 394
#     4  10  21  42  67  92 129 172 215 269 330 391
#     4  10  20  39  63  90 127 173 214 260 325 389
#     4  11  25  44  67 101 132 179 223 271 338 397
#     4  11  25  46  69  96 140 177 215 275 341 397
#     4  10  23  40  70 101 126 172 227 277 323 388
#
# _framework density 21.630165999999999
#
# number of rings (size 3 to 8) (size 9 to 14) (size 15 to 20)
#    0.000    1.429    2.857    3.000    4.000    5.143 
#    0.000    0.714    0.000    0.000    0.000    0.000 
#    0.000    0.000    0.000    0.000    0.000    0.000 
#
# Total GULP energy -173434.631821 kJ/mol
# GULP energy per Si atom -12388.187987 kJ/mol
# Density = 2.158093 g / cm^3
# Si number density = 21.630166 Si / 1000 Ang^3
#
#
#
# Elastic Constant Matrix: (Units=GPa)
#
#
# Indices 1 2 3 4 5 6 
#
# 1 182.1723 82.4113 39.2689 -14.0286 -10.8528 -15.1437
# 2 82.4113 188.5805 48.6963 -32.6622 -19.2630 2.1320
# 3 39.2689 48.6963 81.1234 -8.4632 -13.3123 -0.8322
# 4 -14.0286 -32.6622 -8.4632 33.6910 3.8475 -9.0193
# 5 -10.8528 -19.2630 -13.3123 3.8475 33.3769 -2.2140
# 6 -15.1437 2.1320 -0.8322 -9.0193 -2.2140 48.0605
#
#
#
# Elastic Compliance Matrix: (Units=1/GPa)
#
#
# Indices 1 2 3 4 5 6 
#
# 1 0.007352 -0.002617 -0.001850 0.000715 0.000229 0.002545
# 2 -0.002617 0.008464 -0.002809 0.006161 0.002204 0.000009
# 3 -0.001850 -0.002809 0.015558 -0.000045 0.003987 -0.000014
# 4 0.000715 0.006161 -0.000045 0.037842 -0.000124 0.007047
# 5 0.000229 0.002204 0.003987 -0.000124 0.033014 0.001541
# 6 0.002545 0.000009 -0.000014 0.007047 0.001541 0.023002
#
#
# Mechanical properties :
#
#
# Convention : Reuss Voigt Hill
#
# Bulk Modulus (GPa) = 59.44595 88.06993 73.75794
# Shear Modulus (GPa) = 34.38998 41.79232 38.09115
#
# Velocity S-wave (km/s) = 3.99169 4.40037 4.20100
# Velocity P-wave (km/s) = 6.98479 8.16225 7.59637
#
# Compressibility (1/GPa) = 0.01682200
#
# Stress axis : x y z
#
# Youngs Moduli (GPa) = 136.01447 118.14877 64.27475
#
# Poissons Ratio (x) = 0.30918 0.11890
# Poissons Ratio (y) = 0.35593 0.18058
# Poissons Ratio (z) = 0.25160 0.33194
#
# Static dielectric constant tensor:
#      x y z
#    x 3.769940 0.123380 -0.193330 
#    y 0.123380 3.918990 -0.308970 
#    z -0.193330 -0.308970 3.850830 
# 
# 
# High freq. dielectric constant tensor:
#      x y z
#    x 1.853160 0.013950 0.000700 
#    y 0.013950 1.862910 -0.018890 
#    z 0.000700 -0.018890 1.849460 
# 
# From -- ./inp_files/476331.got.cif
#   From: 2010.06.25/outbox.cif.g09.slc.cpg/sg2_239_cif.got.tgz:476331.got - 2010.06.27 13:26:56.
