data_PCOD8005812
_publ_section_title
;
Structure prediction by ZEFSAII (Michael W. Deem and Ramdas Pophale) SiO2 
 PCOD8005812
Probable space group: P -1
;
_chemical_formula_sum "Si O2"
_cell_formula_units_Z 14
_cell_length_a 15.673897
_cell_length_b 8.370625
_cell_length_c 12.209081
_cell_angle_alpha 70.512445
_cell_angle_beta 152.389620
_cell_angle_gamma 102.076543
_cell_volume 686.034355
_symmetry_space_group_name_H-M "P -1"
_symmetry_group_IT_number 2
_symmetry_cell_setting 'triclinic'
loop_
_space_group_symop_operation_xyz
x,y,z
-x,-y,-z
loop_
_atom_site_type_symbol
_atom_site_label
_atom_site_fract_x
_atom_site_fract_y
_atom_site_fract_z
Si Si1 0.543490 0.687448 0.492250
Si Si2 0.662280 0.572343 0.426366
Si Si3 0.946186 0.232549 0.519804
Si Si4 0.612076 0.131040 0.050776
Si Si5 0.384430 0.324490 0.186639
Si Si6 0.021494 0.463369 0.372963
Si Si7 0.293796 0.007227 0.047192
O O1 0.500000 0.500000 0.500000
O O2 0.667135 0.676078 0.523775
O O3 0.649165 0.729973 0.712610
O O4 0.354852 0.837365 0.231046
O O5 0.578350 0.397469 0.384976
O O6 0.871641 0.548070 0.619743
O O7 0.521505 0.683300 0.155210
O O8 0.881010 0.412328 0.468819
O O9 0.042937 0.279248 0.503916
O O10 0.226786 0.855278 0.682834
O O11 0.076387 0.103224 0.782723
O O12 0.691942 0.055200 0.045314
O O13 0.500000 0.000000 0.000000
O O14 0.413492 0.153059 0.183247
O O15 0.202090 0.466780 0.912697
#
# Coordination Sequence:
#
# PCOD8005812 Si02
#       7
#     2   2   2   2   2   2   2
#     4   9  20  39  61  86 114 153 200 247 296 344
#     4  10  21  37  60  87 118 158 198 239 297 346
#     4  10  21  38  57  90 125 152 197 241 288 356
#     4  11  22  36  55  90 124 157 195 237 294 353
#     4  10  20  39  63  84 120 153 202 245 287 351
#     4  10  21  37  62  91 118 158 195 239 295 346
#     4  10  21  36  61  86 114 161 191 242 302 338
#
# _framework density 20.407140999999999
#
# number of rings (size 3 to 8) (size 9 to 14) (size 15 to 20)
#    0.000    2.000    1.429    1.714    2.000    1.143 
#    0.000    0.000    3.143    7.714    0.000    0.000 
#    0.000    0.000    0.000    0.000    0.000    0.000 
#
# Total GULP energy -173459.974790 kJ/mol
# GULP energy per Si atom -12389.998199 kJ/mol
# Density = 2.036069 g / cm^3
# Si number density = 20.407141 Si / 1000 Ang^3
#
#
#
# Elastic Constant Matrix: (Units=GPa)
#
#
# Indices 1 2 3 4 5 6 
#
# 1 54.6229 -1.2529 17.7248 -2.2572 1.5969 11.8826
# 2 -1.2529 79.6233 38.2105 -8.6029 -1.7165 13.6063
# 3 17.7248 38.2105 78.1184 -7.0767 -16.2741 8.4946
# 4 -2.2572 -8.6029 -7.0767 37.7516 1.2210 -1.7915
# 5 1.5969 -1.7165 -16.2741 1.2210 32.1014 1.5954
# 6 11.8826 13.6063 8.4946 -1.7915 1.5954 22.2590
#
#
#
# Elastic Compliance Matrix: (Units=1/GPa)
#
#
# Indices 1 2 3 4 5 6 
#
# 1 0.024149 0.006535 -0.008023 0.000930 -0.004286 -0.013442
# 2 0.006535 0.019834 -0.010628 0.002530 -0.004200 -0.011052
# 3 -0.008023 -0.010628 0.021984 0.000948 0.010856 0.001688
# 4 0.000930 0.002530 0.000948 0.027305 -0.000460 -0.000174
# 5 -0.004286 -0.004200 0.010856 -0.000460 0.036758 -0.001959
# 6 -0.013442 -0.011052 0.001688 -0.000174 -0.001959 0.058340
#
#
# Mechanical properties :
#
#
# Convention : Reuss Voigt Hill
#
# Bulk Modulus (GPa) = 23.96089 35.74769 29.85429
# Shear Modulus (GPa) = 22.07383 28.93453 25.50418
#
# Velocity S-wave (km/s) = 3.29245 3.76954 3.53904
# Velocity P-wave (km/s) = 5.12060 6.04162 5.60007
#
# Compressibility (1/GPa) = 0.04173467
#
# Stress axis : x y z
#
# Youngs Moduli (GPa) = 41.41030 50.41933 45.48782
#
# Poissons Ratio (x) = -0.32950 0.36494
# Poissons Ratio (y) = -0.27062 0.48345
# Poissons Ratio (z) = 0.33223 0.53586
#
# Static dielectric constant tensor:
#      x y z
#    x 3.669280 -0.159860 -0.399930 
#    y -0.159860 3.820920 -0.141250 
#    z -0.399930 -0.141250 3.789930 
# 
# 
# High freq. dielectric constant tensor:
#      x y z
#    x 1.777980 -0.013270 -0.025020 
#    y -0.013270 1.804670 -0.007570 
#    z -0.025020 -0.007570 1.789440 
# 
# From -- ./inp_files/335851.got.cif
#   From: 2010.06.25/outbox.cif.g09.slc.cpg/sg2_168_cif.got.tgz:335851.got - 2010.06.27 13:26:56.
