data_PCOD8005506
_publ_section_title
;
Structure prediction by ZEFSAII (Michael W. Deem and Ramdas Pophale) SiO2 
 PCOD8005506
Probable space group: P -1
;
_chemical_formula_sum "Si O2"
_cell_formula_units_Z 16
_cell_length_a 12.690776
_cell_length_b 9.170467
_cell_length_c 15.768465
_cell_angle_alpha 45.681081
_cell_angle_beta 45.086273
_cell_angle_gamma 38.002165
_cell_volume 756.334359
_symmetry_space_group_name_H-M "P -1"
_symmetry_group_IT_number 2
_symmetry_cell_setting 'triclinic'
loop_
_space_group_symop_operation_xyz
x,y,z
-x,-y,-z
loop_
_atom_site_type_symbol
_atom_site_label
_atom_site_fract_x
_atom_site_fract_y
_atom_site_fract_z
Si Si1 0.102672 0.897386 0.846942
Si Si2 0.638378 0.573167 0.888811
Si Si3 0.974143 0.742440 0.122832
Si Si4 0.909670 0.320515 0.337657
Si Si5 0.329983 0.475597 0.767317
Si Si6 0.406722 0.993398 0.970666
Si Si7 0.218021 0.715319 0.230756
Si Si8 0.749421 0.233728 0.624234
O O1 0.283357 0.647800 0.807039
O O2 0.967574 0.834790 0.992956
O O3 0.159700 0.020216 0.835538
O O4 0.993680 0.093455 0.752950
O O5 0.819274 0.374302 0.918691
O O6 0.692940 0.541511 0.770459
O O7 0.548716 0.843990 0.872153
O O8 0.500000 0.500000 0.000000
O O9 0.919727 0.553960 0.237126
O O10 0.790134 0.344812 0.315382
O O11 0.807115 0.333203 0.475087
O O12 0.113911 0.067337 0.321250
O O13 0.277443 0.280697 0.894549
O O14 0.545178 0.317495 0.689944
O O15 0.500000 0.000000 0.000000
O O16 0.306957 0.865851 0.102973
O O17 0.237440 0.642437 0.347832
#
# Coordination Sequence:
#
# PCOD8005506 Si02
#       8
#     2   2   2   2   2   2   2   2
#     4  10  22  37  62  92 125 158 196 259 321 377
#     4   9  20  35  57  91 129 163 196 248 315 377
#     4  10  21  40  61  91 130 164 201 253 317 377
#     4  11  25  44  66  87 124 169 217 256 306 370
#     4  12  23  39  67  93 125 160 211 263 315 371
#     4  11  20  32  60  99 125 155 202 257 316 368
#     4  10  20  39  58  87 128 163 202 250 322 369
#     4  11  24  43  65  88 125 168 214 264 303 363
#
# _framework density 21.154662999999999
#
# number of rings (size 3 to 8) (size 9 to 14) (size 15 to 20)
#    0.000    1.500    2.500    2.625    3.500    2.000 
#    0.000    3.125    2.750    0.000    0.000    0.000 
#    0.000    0.000    0.000    0.000    0.000    0.000 
#
# Total GULP energy -198290.500514 kJ/mol
# GULP energy per Si atom -12393.156282 kJ/mol
# Density = 2.110651 g / cm^3
# Si number density = 21.154663 Si / 1000 Ang^3
#
#
#
# Elastic Constant Matrix: (Units=GPa)
#
#
# Indices 1 2 3 4 5 6 
#
# 1 83.6766 41.7442 36.2525 8.8110 13.1227 8.5101
# 2 41.7442 132.1177 41.6138 19.1623 7.6361 22.7737
# 3 36.2525 41.6138 82.2520 5.6603 18.8347 9.8545
# 4 8.8110 19.1623 5.6603 29.3918 2.1736 5.5023
# 5 13.1227 7.6361 18.8347 2.1736 32.9658 6.2074
# 6 8.5101 22.7737 9.8545 5.5023 6.2074 38.8246
#
#
#
# Elastic Compliance Matrix: (Units=1/GPa)
#
#
# Indices 1 2 3 4 5 6 
#
# 1 0.016250 -0.003275 -0.004751 -0.001655 -0.002937 0.000269
# 2 -0.003275 0.011166 -0.003802 -0.004875 0.002059 -0.004505
# 3 -0.004751 -0.003802 0.017834 0.001060 -0.007446 -0.000214
# 4 -0.001655 -0.004875 0.001060 0.037987 -0.000892 -0.002288
# 5 -0.002937 0.002059 -0.007446 -0.000892 0.036155 -0.004328
# 6 0.000269 -0.004505 -0.000214 -0.002288 -0.004328 0.029411
#
#
# Mechanical properties :
#
#
# Convention : Reuss Voigt Hill
#
# Bulk Modulus (GPa) = 46.31047 59.69638 53.00343
# Shear Modulus (GPa) = 27.83074 32.13214 29.98144
#
# Velocity S-wave (km/s) = 3.63103 3.90155 3.76872
# Velocity P-wave (km/s) = 6.28634 6.96968 6.63681
#
# Compressibility (1/GPa) = 0.02159339
#
# Stress axis : x y z
#
# Youngs Moduli (GPa) = 61.53689 89.55900 56.07421
#
# Poissons Ratio (x) = 0.29326 0.26643
# Poissons Ratio (y) = 0.20150 0.21320
# Poissons Ratio (z) = 0.29239 0.34052
#
# Static dielectric constant tensor:
#      x y z
#    x 4.071690 0.245880 0.351460 
#    y 0.245880 4.239240 0.188870 
#    z 0.351460 0.188870 3.629790 
# 
# 
# High freq. dielectric constant tensor:
#      x y z
#    x 1.838150 0.007580 0.023720 
#    y 0.007580 1.839780 0.011150 
#    z 0.023720 0.011150 1.793480 
# 
# From -- ./inp_files/204325.got.cif
#   From: 2010.06.25/outbox.cif.g09.slc.cpg/sg2_103_cif.got.tgz:204325.got - 2010.06.27 13:26:56.
