data_PCOD8005451
_publ_section_title
;
Structure prediction by ZEFSAII (Michael W. Deem and Ramdas Pophale) SiO2 
 PCOD8005451
Probable space group: P -1
;
_chemical_formula_sum "Si O2"
_cell_formula_units_Z 16
_cell_length_a 20.124786
_cell_length_b 9.350490
_cell_length_c 8.955389
_cell_angle_alpha 64.776902
_cell_angle_beta 150.116621
_cell_angle_gamma 114.314662
_cell_volume 756.224885
_symmetry_space_group_name_H-M "P -1"
_symmetry_group_IT_number 2
_symmetry_cell_setting 'triclinic'
loop_
_space_group_symop_operation_xyz
x,y,z
-x,-y,-z
loop_
_atom_site_type_symbol
_atom_site_label
_atom_site_fract_x
_atom_site_fract_y
_atom_site_fract_z
Si Si1 0.878856 0.005195 0.877286
Si Si2 0.269498 0.438720 0.779442
Si Si3 0.596223 0.870862 0.281122
Si Si4 0.912607 0.704490 0.258544
Si Si5 0.826878 0.396604 0.062850
Si Si6 0.576398 0.360361 0.770285
Si Si7 0.521989 0.684664 0.935170
Si Si8 0.220636 0.681548 0.331017
O O1 0.867071 0.182411 0.837427
O O2 0.744644 0.949011 0.554024
O O3 0.896666 0.885435 0.102507
O O4 0.000000 0.000000 0.000000
O O5 0.155893 0.341707 0.696830
O O6 0.204767 0.523956 0.474046
O O7 0.344912 0.587461 0.948302
O O8 0.370752 0.304256 0.996471
O O9 0.536015 0.783726 0.352037
O O10 0.597868 0.754717 0.196568
O O11 0.500000 0.000000 0.000000
O O12 0.848629 0.585987 0.056946
O O13 0.069019 0.689396 0.594939
O O14 0.681443 0.317852 0.867495
O O15 0.840530 0.370221 0.925485
O O16 0.500000 0.500000 0.500000
O O17 0.378354 0.751141 0.592368
O O18 0.500000 0.500000 0.000000
#
# Coordination Sequence:
#
# PCOD8005451 Si02
#       8
#     2   2   2   2   2   2   2   2
#     4  12  29  45  67  99 145 185 223 279 347 411
#     4  10  21  40  71  99 133 170 229 288 327 409
#     4  12  23  43  68 102 134 181 225 279 341 405
#     4  10  25  45  66  99 136 183 235 266 352 417
#     4  10  24  42  73  95 135 182 229 289 334 407
#     4  11  21  39  68  99 132 174 224 279 345 394
#     4  10  20  38  71 102 134 165 228 285 337 393
#     4  11  23  44  67 101 136 174 232 286 336 396
#
# _framework density 21.157727000000001
#
# number of rings (size 3 to 8) (size 9 to 14) (size 15 to 20)
#    0.000    1.250    3.750    2.250   12.250    2.000 
#    2.250    1.250    0.000    0.000    0.000    0.000 
#    0.000    0.000    0.000    0.000    0.000    0.000 
#
# Total GULP energy -198364.529655 kJ/mol
# GULP energy per Si atom -12397.783103 kJ/mol
# Density = 2.110957 g / cm^3
# Si number density = 21.157727 Si / 1000 Ang^3
#
#
#
# Elastic Constant Matrix: (Units=GPa)
#
#
# Indices 1 2 3 4 5 6 
#
# 1 152.0410 62.5052 52.1227 -2.8522 14.0721 -4.7426
# 2 62.5052 81.8729 37.7989 -14.6403 3.9244 5.7684
# 3 52.1227 37.7989 98.0977 -5.2901 8.1641 4.3506
# 4 -2.8522 -14.6403 -5.2901 37.7209 -4.5273 1.5874
# 5 14.0721 3.9244 8.1641 -4.5273 44.5116 2.9963
# 6 -4.7426 5.7684 4.3506 1.5874 2.9963 35.2948
#
#
#
# Elastic Compliance Matrix: (Units=1/GPa)
#
#
# Indices 1 2 3 4 5 6 
#
# 1 0.011108 -0.007758 -0.002999 -0.003079 -0.002827 0.003509
# 2 -0.007758 0.021441 -0.003714 0.007690 0.002337 -0.004633
# 3 -0.002999 -0.003714 0.013375 0.000136 -0.001072 -0.001360
# 4 -0.003079 0.007690 0.000136 0.029845 0.003530 -0.003329
# 5 -0.002827 0.002337 -0.001072 0.003530 0.023899 -0.002817
# 6 0.003509 -0.004633 -0.001360 -0.003329 -0.002817 0.030118
#
#
# Mechanical properties :
#
#
# Convention : Reuss Voigt Hill
#
# Bulk Modulus (GPa) = 58.88471 70.76277 64.82374
# Shear Modulus (GPa) = 30.41565 35.47778 32.94672
#
# Velocity S-wave (km/s) = 3.79564 4.09935 3.95041
# Velocity P-wave (km/s) = 6.86301 7.47824 7.17722
#
# Compressibility (1/GPa) = 0.01698234
#
# Stress axis : x y z
#
# Youngs Moduli (GPa) = 90.02509 46.64004 74.76409
#
# Poissons Ratio (x) = 0.36183 0.22423
# Poissons Ratio (y) = 0.69840 0.27767
# Poissons Ratio (z) = 0.27000 0.17322
#
# Static dielectric constant tensor:
#      x y z
#    x 4.081760 0.259450 0.418270 
#    y 0.259450 3.327420 -0.077050 
#    z 0.418270 -0.077050 4.108530 
# 
# 
# High freq. dielectric constant tensor:
#      x y z
#    x 1.842160 -0.003400 0.010350 
#    y -0.003400 1.804460 -0.003740 
#    z 0.010350 -0.003740 1.838490 
# 
# From -- ./inp_files/343474.got.cif
#   From: 2010.06.25/outbox.cif.g09.slc.cpg/sg2_172_cif.got.tgz:343474.got - 2010.06.27 13:26:56.
