data_PCOD8005263
_publ_section_title
;
Structure prediction by ZEFSAII (Michael W. Deem and Ramdas Pophale) SiO2 
 PCOD8005263
Probable space group: P -1
;
_chemical_formula_sum "Si O2"
_cell_formula_units_Z 16
_cell_length_a 9.211142
_cell_length_b 32.887932
_cell_length_c 15.928245
_cell_angle_alpha 161.667787
_cell_angle_beta 42.638873
_cell_angle_gamma 145.924070
_cell_volume 814.495098
_symmetry_space_group_name_H-M "P -1"
_symmetry_group_IT_number 2
_symmetry_cell_setting 'triclinic'
loop_
_space_group_symop_operation_xyz
x,y,z
-x,-y,-z
loop_
_atom_site_type_symbol
_atom_site_label
_atom_site_fract_x
_atom_site_fract_y
_atom_site_fract_z
Si Si1 0.967604 0.785360 0.564350
Si Si2 0.104614 0.670227 0.829189
Si Si3 0.707479 0.331270 0.775854
Si Si4 0.284389 0.471787 0.971369
Si Si5 0.182671 0.179703 0.811527
Si Si6 0.865817 0.246180 0.834308
Si Si7 0.270258 0.132761 0.040932
Si Si8 0.747157 0.919218 0.240247
O O1 0.748147 0.632106 0.299467
O O2 0.805274 0.764437 0.676338
O O3 0.235388 0.801096 0.506471
O O4 0.066078 0.945326 0.785695
O O5 0.426260 0.800026 0.935030
O O6 0.000000 0.500000 0.500000
O O7 0.038117 0.651345 0.919569
O O8 0.956744 0.733625 0.970750
O O9 0.480589 0.285631 0.851014
O O10 0.625615 0.354608 0.763487
O O11 0.000000 0.500000 0.000000
O O12 0.003837 0.372218 0.945586
O O13 0.500000 0.500000 0.000000
O O14 0.190859 0.161102 0.871399
O O15 0.000000 0.000000 0.500000
O O16 0.555577 0.144220 0.744696
O O17 0.935706 0.117689 0.555922
O O18 0.220818 0.141973 0.981833
#
# Coordination Sequence:
#
# PCOD8005263 Si02
#       8
#     2   2   2   2   2   2   2   2
#     4  10  21  41  63  88 123 167 215 244 317 384
#     4  11  25  40  62  95 134 163 203 264 336 365
#     4  10  23  38  63  91 123 162 208 256 310 375
#     4  11  22  36  62  91 124 155 206 264 316 365
#     4  12  23  40  69  97 124 163 217 271 310 372
#     4  10  20  39  62  90 119 167 210 255 305 383
#     4  10  22  41  63  86 126 173 203 257 311 391
#     4  10  20  38  66  89 118 159 225 254 298 375
#
# _framework density 19.644071
#
# number of rings (size 3 to 8) (size 9 to 14) (size 15 to 20)
#    0.000    1.500    2.500    3.000    7.000    0.000 
#    2.250    1.250    0.000    3.750    0.000    0.000 
#    0.000    0.000    0.000    0.000    0.000    0.000 
#
# Total GULP energy -198345.555954 kJ/mol
# GULP energy per Si atom -12396.597247 kJ/mol
# Density = 1.959936 g / cm^3
# Si number density = 19.644071 Si / 1000 Ang^3
#
#
#
# Elastic Constant Matrix: (Units=GPa)
#
#
# Indices 1 2 3 4 5 6 
#
# 1 140.8150 51.7879 50.2628 -16.8476 -10.4993 -16.4748
# 2 51.7879 128.8593 38.8850 -15.4454 -0.5129 -13.8414
# 3 50.2628 38.8850 96.2071 -18.2601 0.8837 -5.2159
# 4 -16.8476 -15.4454 -18.2601 32.5065 1.4707 -1.5693
# 5 -10.4993 -0.5129 0.8837 1.4707 32.5125 2.5547
# 6 -16.4748 -13.8414 -5.2159 -1.5693 2.5547 30.6450
#
#
#
# Elastic Compliance Matrix: (Units=1/GPa)
#
#
# Indices 1 2 3 4 5 6 
#
# 1 0.010217 -0.002290 -0.003844 0.002089 0.002986 0.003662
# 2 -0.002290 0.009970 -0.002179 0.002516 -0.000881 0.003103
# 3 -0.003844 -0.002179 0.014248 0.005050 -0.001875 -0.000211
# 4 0.002089 0.002516 0.005050 0.036190 -0.001460 0.005094
# 5 0.002986 -0.000881 -0.001875 -0.001460 0.031970 -0.001852
# 6 0.003662 0.003103 -0.000211 0.005094 -0.001852 0.036381
#
#
# Mechanical properties :
#
#
# Convention : Reuss Voigt Hill
#
# Bulk Modulus (GPa) = 56.15902 71.97254 64.06578
# Shear Modulus (GPa) = 30.95206 34.12917 32.54062
#
# Velocity S-wave (km/s) = 3.97374 4.17271 4.07444
# Velocity P-wave (km/s) = 7.05014 7.74165 7.40398
#
# Compressibility (1/GPa) = 0.01780658
#
# Stress axis : x y z
#
# Youngs Moduli (GPa) = 97.87480 100.30225 70.18600
#
# Poissons Ratio (x) = 0.22974 0.26983
# Poissons Ratio (y) = 0.22418 0.15295
# Poissons Ratio (z) = 0.37628 0.21858
#
# Static dielectric constant tensor:
#      x y z
#    x 7.404660 -2.333300 -3.845320 
#    y -2.333300 5.543560 2.605040 
#    z -3.845320 2.605040 7.731850 
# 
# 
# High freq. dielectric constant tensor:
#      x y z
#    x 1.770150 -0.006620 0.000090 
#    y -0.006620 1.775800 0.008570 
#    z 0.000090 0.008570 1.750480 
# 
# From -- ./inp_files/508634.got.cif
#   From: 2010.06.25/outbox.cif.g09.slc.cpg/sg2_255_cif.got.tgz:508634.got - 2010.06.27 13:26:56.
