data_PCOD8005545
_publ_section_title
;
Structure prediction by ZEFSAII (Michael W. Deem and Ramdas Pophale) SiO2 
 PCOD8005545
Probable space group: P -1
;
_chemical_formula_sum "Si O2"
_cell_formula_units_Z 16
_cell_length_a 9.007104
_cell_length_b 12.487071
_cell_length_c 18.030314
_cell_angle_alpha 148.589484
_cell_angle_beta 61.469645
_cell_angle_gamma 131.285255
_cell_volume 775.020148
_symmetry_space_group_name_H-M "P -1"
_symmetry_group_IT_number 2
_symmetry_cell_setting 'triclinic'
loop_
_space_group_symop_operation_xyz
x,y,z
-x,-y,-z
loop_
_atom_site_type_symbol
_atom_site_label
_atom_site_fract_x
_atom_site_fract_y
_atom_site_fract_z
Si Si1 0.018010 0.259188 0.561523
Si Si2 0.532211 0.831097 0.946939
Si Si3 0.124133 0.415332 0.875823
Si Si4 0.850852 0.237226 0.216008
Si Si5 0.352431 0.816674 0.618135
Si Si6 0.198579 0.314738 0.276093
Si Si7 0.106621 0.992788 0.711062
Si Si8 0.797623 0.017185 0.609767
O O1 0.086903 0.539407 0.723293
O O2 0.955781 0.188871 0.450275
O O3 0.823136 0.082624 0.555337
O O4 0.201080 0.227810 0.521801
O O5 0.326611 0.644100 0.928468
O O6 0.607217 0.686142 0.795701
O O7 0.500000 0.000000 0.000000
O O8 0.702055 0.986865 0.060289
O O9 0.988266 0.240490 0.738470
O O10 0.178336 0.266660 0.831482
O O11 0.000000 0.500000 0.000000
O O12 0.740834 0.276546 0.333882
O O13 0.046810 0.243369 0.200807
O O14 0.273732 0.586846 0.446553
O O15 0.291751 0.000633 0.711316
O O16 0.592545 0.976034 0.664229
O O17 0.083811 0.117350 0.252740
#
# Coordination Sequence:
#
# PCOD8005545 Si02
#       8
#     2   2   2   2   2   2   2   2
#     4  10  20  39  59  90 127 164 200 273 307 366
#     4  12  27  42  67  94 128 173 216 257 317 380
#     4  11  24  46  62  89 131 174 209 259 316 381
#     4  11  22  44  65  92 130 165 214 258 323 374
#     4  11  22  40  68  99 124 167 213 261 320 379
#     4  11  23  42  65  99 129 162 213 267 315 379
#     4  10  21  42  65  92 128 164 207 263 319 374
#     4  10  24  36  61  92 130 155 218 260 315 362
#
# _framework density 20.644625000000001
#
# number of rings (size 3 to 8) (size 9 to 14) (size 15 to 20)
#    0.000    1.250    2.500    3.375    7.000    3.000 
#    0.000    6.875    0.000    0.000    0.000    0.000 
#    0.000    0.000    0.000    0.000    0.000    0.000 
#
# Total GULP energy -198452.240426 kJ/mol
# GULP energy per Si atom -12403.265027 kJ/mol
# Density = 2.059764 g / cm^3
# Si number density = 20.644625 Si / 1000 Ang^3
#
#
#
# Elastic Constant Matrix: (Units=GPa)
#
#
# Indices 1 2 3 4 5 6 
#
# 1 75.6984 39.5796 16.8169 3.7634 -9.2517 -1.1220
# 2 39.5796 107.5140 20.9656 8.6308 -22.4665 -6.1686
# 3 16.8169 20.9656 73.5001 3.3053 -10.5561 -5.9367
# 4 3.7634 8.6308 3.3053 38.0412 2.9142 -6.3607
# 5 -9.2517 -22.4665 -10.5561 2.9142 38.1150 -3.9224
# 6 -1.1220 -6.1686 -5.9367 -6.3607 -3.9224 35.4352
#
#
#
# Elastic Compliance Matrix: (Units=1/GPa)
#
#
# Indices 1 2 3 4 5 6 
#
# 1 0.016713 -0.005747 -0.002247 -0.000304 -0.000023 -0.000905
# 2 -0.005747 0.013357 -0.001265 -0.002484 0.006545 0.002210
# 3 -0.002247 -0.001265 0.015172 -0.000639 0.003216 0.002492
# 4 -0.000304 -0.002484 -0.000639 0.027881 -0.003427 0.004076
# 5 -0.000023 0.006545 0.003216 -0.003427 0.031712 0.004573
# 6 -0.000905 0.002210 0.002492 0.004076 0.004573 0.030232
#
#
# Mechanical properties :
#
#
# Convention : Reuss Voigt Hill
#
# Bulk Modulus (GPa) = 37.41880 45.71517 41.56699
# Shear Modulus (GPa) = 30.77028 34.27497 32.52263
#
# Velocity S-wave (km/s) = 3.86485 4.07902 3.97338
# Velocity P-wave (km/s) = 6.17095 6.66157 6.42095
#
# Compressibility (1/GPa) = 0.02672453
#
# Stress axis : x y z
#
# Youngs Moduli (GPa) = 59.83274 74.86518 65.90921
#
# Poissons Ratio (x) = 0.43023 0.14813
# Poissons Ratio (y) = 0.34384 0.08337
# Poissons Ratio (z) = 0.13447 0.09470
#
# Static dielectric constant tensor:
#      x y z
#    x 3.720830 -0.097320 -0.059850 
#    y -0.097320 3.821790 -0.086570 
#    z -0.059850 -0.086570 3.713210 
# 
# 
# High freq. dielectric constant tensor:
#      x y z
#    x 1.809330 -0.008490 -0.006720 
#    y -0.008490 1.815820 -0.004780 
#    z -0.006720 -0.004780 1.807060 
# 
# From -- ./inp_files/180199.got.cif
#   From: 2010.06.25/outbox.cif.g09.slc.cpg/sg2_91_cif.got.tgz:180199.got - 2010.06.27 13:26:56.
