data_PCOD8005002
_publ_section_title
;
Structure prediction by ZEFSAII (Michael W. Deem and Ramdas Pophale) SiO2 
 PCOD8005002
Probable space group: P -1
;
_chemical_formula_sum "Si O2"
_cell_formula_units_Z 16
_cell_length_a 19.860586
_cell_length_b 9.184091
_cell_length_c 11.529966
_cell_angle_alpha 70.336352
_cell_angle_beta 43.544989
_cell_angle_gamma 37.658005
_cell_volume 731.034536
_symmetry_space_group_name_H-M "P -1"
_symmetry_group_IT_number 2
_symmetry_cell_setting 'triclinic'
loop_
_space_group_symop_operation_xyz
x,y,z
-x,-y,-z
loop_
_atom_site_type_symbol
_atom_site_label
_atom_site_fract_x
_atom_site_fract_y
_atom_site_fract_z
Si Si1 0.221306 0.713924 0.811464
Si Si2 0.420009 0.270483 0.481650
Si Si3 0.097222 0.527829 0.773318
Si Si4 0.798505 0.407371 0.713374
Si Si5 0.091673 0.199801 0.826961
Si Si6 0.566377 0.131169 0.102660
Si Si7 0.135699 0.032338 0.240126
Si Si8 0.791590 0.529752 0.940317
O O1 0.349096 0.482666 0.610635
O O2 0.250856 0.860422 0.745203
O O3 0.277868 0.540852 0.900482
O O4 0.000000 0.000000 0.000000
O O5 0.244416 0.458402 0.572937
O O6 0.542034 0.197381 0.253905
O O7 0.500000 0.000000 0.500000
O O8 0.183399 0.245752 0.706684
O O9 0.913715 0.807027 0.857551
O O10 0.066257 0.585852 0.934674
O O11 0.621285 0.638598 0.793206
O O12 0.777668 0.539914 0.817161
O O13 0.970983 0.258219 0.476660
O O14 0.832561 0.187514 0.771348
O O15 0.995366 0.294985 0.797558
O O16 0.683709 0.115540 0.902648
O O17 0.663541 0.837949 0.056264
#
# Coordination Sequence:
#
# PCOD8005002 Si02
#       8
#     2   2   2   2   2   2   2   2
#     4  10  20  38  64 102 132 171 220 275 335 403
#     4  12  23  41  69  99 138 179 216 276 348 401
#     4  11  20  41  67  96 131 176 220 270 340 403
#     4  11  26  43  70  92 131 182 225 280 339 388
#     4  10  21  36  67  98 130 171 220 274 330 404
#     4  12  24  45  68  98 133 177 228 278 332 400
#     4  11  25  45  68  99 128 176 235 276 332 402
#     4  11  21  41  63  98 135 172 219 277 334 399
#
# _framework density 21.886790000000001
#
# number of rings (size 3 to 8) (size 9 to 14) (size 15 to 20)
#    0.000    1.000    6.250    1.500    3.500    0.500 
#    0.000    1.875    0.000    0.000    0.000    0.000 
#    0.000    0.000    0.000    0.000    0.000    0.000 
#
# Total GULP energy -198242.612240 kJ/mol
# GULP energy per Si atom -12390.163265 kJ/mol
# Density = 2.183697 g / cm^3
# Si number density = 21.886790 Si / 1000 Ang^3
#
#
#
# Elastic Constant Matrix: (Units=GPa)
#
#
# Indices 1 2 3 4 5 6 
#
# 1 83.8331 20.3387 49.0774 -3.2171 12.9977 4.1157
# 2 20.3387 97.2120 30.6378 1.8809 7.7937 21.5266
# 3 49.0774 30.6378 107.4080 -3.4619 0.6513 -0.8763
# 4 -3.2171 1.8809 -3.4619 30.1792 7.6948 7.4592
# 5 12.9977 7.7937 0.6513 7.6948 30.4608 -6.6282
# 6 4.1157 21.5266 -0.8763 7.4592 -6.6282 23.0718
#
#
#
# Elastic Compliance Matrix: (Units=1/GPa)
#
#
# Indices 1 2 3 4 5 6 
#
# 1 0.019970 0.002632 -0.009656 0.007482 -0.013647 -0.012724
# 2 0.002632 0.017618 -0.006105 0.007338 -0.012373 -0.023067
# 3 -0.009656 -0.006105 0.015373 -0.004122 0.008988 0.011917
# 4 0.007482 0.007338 -0.004122 0.046332 -0.023211 -0.029986
# 5 -0.013647 -0.012373 0.008988 -0.023211 0.055722 0.037833
# 6 -0.012724 -0.023067 0.011917 -0.029986 0.037833 0.088151
#
#
# Mechanical properties :
#
#
# Convention : Reuss Voigt Hill
#
# Bulk Modulus (GPa) = 37.44625 54.28455 45.86540
# Shear Modulus (GPa) = 17.96464 29.30230 23.63347
#
# Velocity S-wave (km/s) = 2.86807 3.66295 3.28960
# Velocity P-wave (km/s) = 5.30226 6.53803 5.95230
#
# Compressibility (1/GPa) = 0.02670494
#
# Stress axis : x y z
#
# Youngs Moduli (GPa) = 50.07474 56.75993 65.04748
#
# Poissons Ratio (x) = -0.14939 0.62807
# Poissons Ratio (y) = -0.13180 0.39710
# Poissons Ratio (z) = 0.48350 0.34651
#
# Static dielectric constant tensor:
#      x y z
#    x 3.901500 0.181220 -0.081720 
#    y 0.181220 4.424650 0.000920 
#    z -0.081720 0.000920 3.859980 
# 
# 
# High freq. dielectric constant tensor:
#      x y z
#    x 1.852250 0.007160 0.001030 
#    y 0.007160 1.874650 0.001150 
#    z 0.001030 0.001150 1.847610 
# 
# From -- ./inp_files/469940.got.cif
#   From: 2010.06.25/outbox.cif.g09.slc.cpg/sg2_235_cif.got.tgz:469940.got - 2010.06.27 13:26:56.
