data_PCOD8005111
_publ_section_title
;
Structure prediction by ZEFSAII (Michael W. Deem and Ramdas Pophale) SiO2 
 PCOD8005111
Probable space group: P -1
;
_chemical_formula_sum "Si O2"
_cell_formula_units_Z 16
_cell_length_a 9.081509
_cell_length_b 14.324154
_cell_length_c 21.845458
_cell_angle_alpha 20.618251
_cell_angle_beta 49.039402
_cell_angle_gamma 48.803352
_cell_volume 744.743251
_symmetry_space_group_name_H-M "P -1"
_symmetry_group_IT_number 2
_symmetry_cell_setting 'triclinic'
loop_
_space_group_symop_operation_xyz
x,y,z
-x,-y,-z
loop_
_atom_site_type_symbol
_atom_site_label
_atom_site_fract_x
_atom_site_fract_y
_atom_site_fract_z
Si Si1 0.545881 0.921362 0.709702
Si Si2 0.269852 0.638007 0.034054
Si Si3 0.961559 0.409829 0.452381
Si Si4 0.898611 0.051087 0.898208
Si Si5 0.374270 0.595126 0.536282
Si Si6 0.671344 0.161676 0.770139
Si Si7 0.567781 0.255417 0.947527
Si Si8 0.412032 0.207754 0.447090
O O1 0.719904 0.672838 0.797775
O O2 0.617579 0.097675 0.636301
O O3 0.491717 0.114882 0.548487
O O4 0.352540 0.802333 0.856082
O O5 0.407586 0.646666 0.050518
O O6 0.042531 0.764791 0.031078
O O7 0.851747 0.424010 0.407444
O O8 0.847666 0.267588 0.621820
O O9 0.971059 0.711265 0.287497
O O10 0.175843 0.234981 0.492388
O O11 0.738376 0.078231 0.871104
O O12 0.774079 0.068712 0.984503
O O13 0.500000 0.500000 0.500000
O O14 0.473029 0.391083 0.687516
O O15 0.615151 0.905168 0.906972
O O16 0.522111 0.508140 0.759298
O O17 0.500000 0.000000 0.500000
#
# Coordination Sequence:
#
# PCOD8005111 Si02
#       8
#     2   2   2   2   2   2   2   2
#     4  11  23  41  66  94 133 177 218 271 322 392
#     4  11  22  40  64  96 130 174 225 263 323 391
#     4  10  21  38  68  93 128 174 225 265 324 391
#     4  11  22  38  64  97 132 172 218 270 328 388
#     4  10  20  38  64  95 129 161 215 272 321 371
#     4  11  21  39  65 100 127 167 225 275 320 380
#     4  11  23  41  67  94 134 171 213 278 329 379
#     4  11  23  46  65  94 134 177 214 264 336 391
#
# _framework density 21.483913999999999
#
# number of rings (size 3 to 8) (size 9 to 14) (size 15 to 20)
#    0.000    1.250    1.250    7.125    0.000    1.000 
#    2.250    1.250    0.000    0.000    0.000    0.000 
#    0.000    0.000    0.000    0.000    0.000    0.000 
#
# Total GULP energy -198428.901184 kJ/mol
# GULP energy per Si atom -12401.806324 kJ/mol
# Density = 2.143502 g / cm^3
# Si number density = 21.483914 Si / 1000 Ang^3
#
#
#
# Elastic Constant Matrix: (Units=GPa)
#
#
# Indices 1 2 3 4 5 6 
#
# 1 101.4184 33.7434 31.6985 -24.1525 -4.7966 14.3896
# 2 33.7434 120.8213 31.9825 -29.8584 -3.4259 6.6365
# 3 31.6985 31.9825 92.6786 -14.1511 -2.7400 4.3246
# 4 -24.1525 -29.8584 -14.1511 40.7737 2.6330 0.1971
# 5 -4.7966 -3.4259 -2.7400 2.6330 38.1939 -3.1239
# 6 14.3896 6.6365 4.3246 0.1971 -3.1239 34.7540
#
#
#
# Elastic Compliance Matrix: (Units=1/GPa)
#
#
# Indices 1 2 3 4 5 6 
#
# 1 0.013335 -0.001164 -0.002999 0.005995 0.000540 -0.004911
# 2 -0.001164 0.010891 -0.002304 0.006486 0.000109 -0.001338
# 3 -0.002999 -0.002304 0.012758 0.000946 0.000276 0.000114
# 4 0.005995 0.006486 0.000946 0.033254 -0.001228 -0.004137
# 5 0.000540 0.000109 0.000276 -0.001228 0.026537 0.002114
# 6 -0.004911 -0.001338 0.000114 -0.004137 0.002114 0.031262
#
#
# Mechanical properties :
#
#
# Convention : Reuss Voigt Hill
#
# Bulk Modulus (GPa) = 41.58011 56.64081 49.11046
# Shear Modulus (GPa) = 33.55999 37.24392 35.40195
#
# Velocity S-wave (km/s) = 3.95663 4.16814 4.06376
# Velocity P-wave (km/s) = 6.34581 7.04173 6.70281
#
# Compressibility (1/GPa) = 0.02404996
#
# Stress axis : x y z
#
# Youngs Moduli (GPa) = 74.99303 91.81784 78.38160
#
# Poissons Ratio (x) = 0.10686 0.23504
# Poissons Ratio (y) = 0.08728 0.18062
# Poissons Ratio (z) = 0.22488 0.21159
#
# Static dielectric constant tensor:
#      x y z
#    x 4.094100 0.027030 0.161570 
#    y 0.027030 3.935390 -0.177560 
#    z 0.161570 -0.177560 4.014640 
# 
# 
# High freq. dielectric constant tensor:
#      x y z
#    x 1.841940 0.010310 0.007680 
#    y 0.010310 1.836070 -0.004740 
#    z 0.007680 -0.004740 1.851090 
# 
# From -- ./inp_files/590384.got.cif
#   From: 2010.06.25/outbox.cif.g09.slc.cpg/sg2_296_cif.got.tgz:590384.got - 2010.06.27 13:26:56.
