data_PCOD8005518
_publ_section_title
;
Structure prediction by ZEFSAII (Michael W. Deem and Ramdas Pophale) SiO2 
 PCOD8005518
Probable space group: P -1
;
_chemical_formula_sum "Si O2"
_cell_formula_units_Z 16
_cell_length_a 15.518087
_cell_length_b 16.807608
_cell_length_c 15.532372
_cell_angle_alpha 141.721710
_cell_angle_beta 28.112478
_cell_angle_gamma 153.601626
_cell_volume 848.484936
_symmetry_space_group_name_H-M "P -1"
_symmetry_group_IT_number 2
_symmetry_cell_setting 'triclinic'
loop_
_space_group_symop_operation_xyz
x,y,z
-x,-y,-z
loop_
_atom_site_type_symbol
_atom_site_label
_atom_site_fract_x
_atom_site_fract_y
_atom_site_fract_z
Si Si1 0.874422 0.755233 0.713533
Si Si2 0.094032 0.711541 0.331634
Si Si3 0.914232 0.706388 0.041462
Si Si4 0.374013 0.617620 0.090750
Si Si5 0.351651 0.161121 0.629573
Si Si6 0.939859 0.439294 0.098703
Si Si7 0.264202 0.556951 0.326843
Si Si8 0.551615 0.107579 0.250387
O O1 0.804424 0.619854 0.734023
O O2 0.894507 0.695166 0.551406
O O3 0.640404 0.741547 0.908401
O O4 0.136137 0.955831 0.676850
O O5 0.232488 0.680840 0.247542
O O6 0.956842 0.575863 0.257779
O O7 0.301972 0.908571 0.273796
O O8 0.801567 0.590703 0.955193
O O9 0.865234 0.575208 0.049193
O O10 0.219578 0.876773 0.908274
O O11 0.778000 0.773302 0.237058
O O12 0.419668 0.632205 0.164772
O O13 0.551585 0.282248 0.631773
O O14 0.507378 0.180847 0.430463
O O15 0.651387 0.242552 0.196231
O O16 0.000000 0.500000 0.000000
O O17 0.000000 0.500000 0.500000
#
# Coordination Sequence:
#
# PCOD8005518 Si02
#       8
#     2   2   2   2   2   2   2   2
#     4  11  23  37  59  82 111 156 194 232 285 333
#     4  10  20  39  59  81 113 153 184 230 286 340
#     4   9  20  37  60  80 112 150 183 233 282 337
#     4  11  21  37  58  81 113 152 195 238 282 323
#     4  11  22  39  58  82 113 155 194 230 281 336
#     4   9  20  38  62  90 114 143 183 231 287 342
#     4  12  23  39  55  82 120 151 195 247 277 322
#     4   9  20  37  60  82 114 149 185 230 281 342
#
# _framework density 18.857142
#
# number of rings (size 3 to 8) (size 9 to 14) (size 15 to 20)
#    0.750    1.000    2.500    2.625    0.000    1.500 
#    2.250    0.625    0.000    1.500    0.000    0.000 
#    0.000    0.000    0.000    0.000    0.000    0.000 
#
# Total GULP energy -198305.133543 kJ/mol
# GULP energy per Si atom -12394.070846 kJ/mol
# Density = 1.881422 g / cm^3
# Si number density = 18.857142 Si / 1000 Ang^3
#
#
#
# Elastic Constant Matrix: (Units=GPa)
#
#
# Indices 1 2 3 4 5 6 
#
# 1 55.4510 29.9362 38.0772 3.4352 17.5040 -6.8533
# 2 29.9362 102.5002 32.0736 -1.9353 19.7570 -6.8971
# 3 38.0772 32.0736 93.8968 -11.4906 -0.3720 0.5712
# 4 3.4352 -1.9353 -11.4906 31.7137 -2.3555 2.0229
# 5 17.5040 19.7570 -0.3720 -2.3555 24.4873 -8.9189
# 6 -6.8533 -6.8971 0.5712 2.0229 -8.9189 18.1894
#
#
#
# Elastic Compliance Matrix: (Units=1/GPa)
#
#
# Indices 1 2 3 4 5 6 
#
# 1 0.041715 -0.000727 -0.018475 -0.013655 -0.029751 0.002952
# 2 -0.000727 0.013367 -0.004498 -0.001512 -0.010494 -0.000042
# 3 -0.018475 -0.004498 0.021079 0.010787 0.017480 -0.001957
# 4 -0.013655 -0.001512 0.010787 0.038063 0.013462 -0.003689
# 5 -0.029751 -0.010494 0.017480 0.013462 0.080172 0.022077
# 6 0.002952 -0.000042 -0.001957 -0.003689 0.022077 0.067370
#
#
# Mechanical properties :
#
#
# Convention : Reuss Voigt Hill
#
# Bulk Modulus (GPa) = 34.76700 50.22467 42.49584
# Shear Modulus (GPa) = 15.68615 24.99548 20.34081
#
# Velocity S-wave (km/s) = 2.88729 3.64472 3.28789
# Velocity P-wave (km/s) = 5.43989 6.66364 6.08262
#
# Compressibility (1/GPa) = 0.02876291
#
# Stress axis : x y z
#
# Youngs Moduli (GPa) = 23.97237 74.81023 47.43962
#
# Poissons Ratio (x) = 0.05438 0.87643
# Poissons Ratio (y) = 0.01743 0.21336
# Poissons Ratio (z) = 0.44288 0.33646
#
# Static dielectric constant tensor:
#      x y z
#    x 3.108780 0.057980 -0.126810 
#    y 0.057980 3.599290 -0.008990 
#    z -0.126810 -0.008990 3.627360 
# 
# 
# High freq. dielectric constant tensor:
#      x y z
#    x 1.694160 0.004080 -0.002720 
#    y 0.004080 1.743390 0.001590 
#    z -0.002720 0.001590 1.743680 
# 
# From -- ./inp_files/533816.got.cif
#   From: 2010.06.25/outbox.cif.g09.slc.cpg/sg2_267_cif.got.tgz:533816.got - 2010.06.27 13:26:56.
