data_PCOD8005591
_publ_section_title
;
Structure prediction by ZEFSAII (Michael W. Deem and Ramdas Pophale) SiO2 
 PCOD8005591
Probable space group: P -1
;
_chemical_formula_sum "Si O2"
_cell_formula_units_Z 16
_cell_length_a 9.252708
_cell_length_b 18.840046
_cell_length_c 15.372522
_cell_angle_alpha 147.015024
_cell_angle_beta 143.883644
_cell_angle_gamma 38.354749
_cell_volume 811.114195
_symmetry_space_group_name_H-M "P -1"
_symmetry_group_IT_number 2
_symmetry_cell_setting 'triclinic'
loop_
_space_group_symop_operation_xyz
x,y,z
-x,-y,-z
loop_
_atom_site_type_symbol
_atom_site_label
_atom_site_fract_x
_atom_site_fract_y
_atom_site_fract_z
Si Si1 0.009621 0.137691 0.974135
Si Si2 0.106099 0.841584 0.717003
Si Si3 0.783706 0.567454 0.894741
Si Si4 0.491752 0.768646 0.089237
Si Si5 0.236756 0.935135 0.611708
Si Si6 0.701972 0.810300 0.990738
Si Si7 0.737814 0.922204 0.776228
Si Si8 0.946827 0.284481 0.607880
O O1 0.177758 0.202167 0.060665
O O2 0.138867 0.089265 0.080550
O O3 0.717881 0.246244 0.957038
O O4 0.992987 0.995715 0.778479
O O5 0.414242 0.801760 0.838351
O O6 0.955508 0.832120 0.723165
O O7 0.038854 0.736473 0.510341
O O8 0.870158 0.676079 0.989384
O O9 0.758477 0.441902 0.695428
O O10 0.525287 0.653145 0.911493
O O11 0.000000 0.500000 0.000000
O O12 0.765209 0.750066 0.249108
O O13 0.375998 0.917459 0.141039
O O14 0.492900 0.867209 0.606592
O O15 0.196019 0.815439 0.525743
O O16 0.000000 0.000000 0.500000
O O17 0.289363 0.050359 0.817267
#
# Coordination Sequence:
#
# PCOD8005591 Si02
#       8
#     2   2   2   2   2   2   2   2
#     4  11  21  35  63  91 118 157 200 250 297 351
#     4  11  22  37  62  91 124 154 199 249 306 350
#     4  10  21  42  62  82 120 165 197 235 304 365
#     4  10  20  39  60  88 124 160 200 240 303 358
#     4  12  21  36  60  91 118 148 200 251 294 344
#     4  12  22  40  62  90 119 156 204 245 294 360
#     4  11  21  36  61  92 120 158 195 252 302 351
#     4  11  23  38  59  91 123 158 199 249 296 356
#
# _framework density 19.725953000000001
#
# number of rings (size 3 to 8) (size 9 to 14) (size 15 to 20)
#    0.000    1.000    5.000    4.125    0.000    3.500 
#    0.000    3.750    0.000    3.000    0.000    0.000 
#    0.000    0.000    0.000    0.000    0.000    0.000 
#
# Total GULP energy -198297.483959 kJ/mol
# GULP energy per Si atom -12393.592747 kJ/mol
# Density = 1.968106 g / cm^3
# Si number density = 19.725953 Si / 1000 Ang^3
#
#
#
# Elastic Constant Matrix: (Units=GPa)
#
#
# Indices 1 2 3 4 5 6 
#
# 1 169.6944 60.1483 62.8825 -2.1929 -5.3658 -19.3104
# 2 60.1483 80.1317 42.8241 5.2472 -2.8757 -6.9693
# 3 62.8825 42.8241 109.0873 4.5758 -14.8499 -11.7543
# 4 -2.1929 5.2472 4.5758 32.5182 -5.5771 5.6299
# 5 -5.3658 -2.8757 -14.8499 -5.5771 33.3871 -4.3352
# 6 -19.3104 -6.9693 -11.7543 5.6299 -4.3352 32.5344
#
#
#
# Elastic Compliance Matrix: (Units=1/GPa)
#
#
# Indices 1 2 3 4 5 6 
#
# 1 0.009187 -0.005122 -0.002962 0.001388 0.000351 0.003092
# 2 -0.005122 0.018894 -0.004626 -0.002985 -0.001803 -0.000388
# 3 -0.002962 -0.004626 0.013823 -0.000998 0.005516 0.003153
# 4 0.001388 -0.002985 -0.000998 0.033139 0.004366 -0.005329
# 5 0.000351 -0.001803 0.005516 0.004366 0.033757 0.005558
# 6 0.003092 -0.000388 0.003153 -0.005329 0.005558 0.035291
#
#
# Mechanical properties :
#
#
# Convention : Reuss Voigt Hill
#
# Bulk Modulus (GPa) = 60.67110 76.73592 68.70351
# Shear Modulus (GPa) = 28.57024 32.55850 30.56437
#
# Velocity S-wave (km/s) = 3.80986 4.06709 3.94058
# Velocity P-wave (km/s) = 7.08358 7.81284 7.45713
#
# Compressibility (1/GPa) = 0.01648231
#
# Stress axis : x y z
#
# Youngs Moduli (GPa) = 108.84767 52.92733 72.34211
#
# Poissons Ratio (x) = 0.27111 0.21430
# Poissons Ratio (y) = 0.55755 0.33468
# Poissons Ratio (z) = 0.32243 0.24486
#
# Static dielectric constant tensor:
#      x y z
#    x 4.274690 -0.327850 -0.107350 
#    y -0.327850 3.836750 0.142010 
#    z -0.107350 0.142010 3.810500 
# 
# 
# High freq. dielectric constant tensor:
#      x y z
#    x 1.784570 -0.006710 -0.010720 
#    y -0.006710 1.761120 -0.013400 
#    z -0.010720 -0.013400 1.748020 
# 
# From -- ./inp_files/186070.got.cif
#   From: 2010.06.25/outbox.cif.g09.slc.cpg/sg2_94_cif.got.tgz:186070.got - 2010.06.27 13:26:56.
