data_PCOD8005559
_publ_section_title
;
Structure prediction by ZEFSAII (Michael W. Deem and Ramdas Pophale) SiO2 
 PCOD8005559
Probable space group: P -1
;
_chemical_formula_sum "Si O2"
_cell_formula_units_Z 16
_cell_length_a 11.517087
_cell_length_b 10.196247
_cell_length_c 12.354597
_cell_angle_alpha 35.757723
_cell_angle_beta 85.376564
_cell_angle_gamma 86.107008
_cell_volume 845.029581
_symmetry_space_group_name_H-M "P -1"
_symmetry_group_IT_number 2
_symmetry_cell_setting 'triclinic'
loop_
_space_group_symop_operation_xyz
x,y,z
-x,-y,-z
loop_
_atom_site_type_symbol
_atom_site_label
_atom_site_fract_x
_atom_site_fract_y
_atom_site_fract_z
Si Si1 0.266812 0.511317 0.307842
Si Si2 0.069283 0.823660 0.041572
Si Si3 0.236210 0.260279 0.266870
Si Si4 0.255734 0.048198 0.735469
Si Si5 0.404058 0.427671 0.969057
Si Si6 0.445739 0.852058 0.011265
Si Si7 0.254261 0.808327 0.667189
Si Si8 0.013976 0.566929 0.832071
O O1 0.153019 0.671429 0.213075
O O2 0.291028 0.418090 0.248255
O O3 0.255810 0.313494 0.529417
O O4 0.380695 0.661975 0.214159
O O5 0.985148 0.653543 0.096863
O O6 0.136775 0.980168 0.847313
O O7 0.000000 0.000000 0.000000
O O8 0.097250 0.272592 0.288359
O O9 0.278241 0.005754 0.448629
O O10 0.285175 0.341763 0.093543
O O11 0.361597 0.994695 0.843708
O O12 0.259139 0.897435 0.729402
O O13 0.361862 0.637588 0.759484
O O14 0.500000 0.500000 0.000000
O O15 0.451373 0.242051 0.008556
O O16 0.500000 0.000000 0.000000
O O17 0.131874 0.700524 0.714966
O O18 0.000000 0.500000 0.000000
#
# Coordination Sequence:
#
# PCOD8005559 Si02
#       8
#     2   2   2   2   2   2   2   2
#     4   9  20  39  60  82 114 155 194 232 294 357
#     4  10  21  37  59  87 118 153 191 235 288 346
#     4  10  21  37  61  92 116 150 196 243 295 343
#     4  10  20  39  60  81 116 158 189 236 300 345
#     4  12  21  38  61  87 115 150 199 243 287 343
#     4  11  24  40  58  82 117 155 194 239 291 347
#     4  11  21  36  63  91 117 150 196 249 291 339
#     4  11  19  38  62  85 120 153 191 238 292 345
#
# _framework density 18.934249000000001
#
# number of rings (size 3 to 8) (size 9 to 14) (size 15 to 20)
#    0.000    1.500    5.000    1.125    0.000    4.500 
#    0.000    1.250    0.000    0.000    0.000    0.000 
#    0.000    0.000    0.000    0.000    0.000    0.000 
#
# Total GULP energy -198355.145520 kJ/mol
# GULP energy per Si atom -12397.196595 kJ/mol
# Density = 1.889115 g / cm^3
# Si number density = 18.934249 Si / 1000 Ang^3
#
#
#
# Elastic Constant Matrix: (Units=GPa)
#
#
# Indices 1 2 3 4 5 6 
#
# 1 87.4715 47.0933 33.1311 -19.6081 -0.6293 13.6082
# 2 47.0933 116.1569 35.1229 -16.7365 3.7901 5.4525
# 3 33.1311 35.1229 118.2092 -17.6153 10.3311 0.2546
# 4 -19.6081 -16.7365 -17.6153 21.0201 -1.3259 0.4914
# 5 -0.6293 3.7901 10.3311 -1.3259 24.6672 -5.5360
# 6 13.6082 5.4525 0.2546 0.4914 -5.5360 32.8519
#
#
#
# Elastic Compliance Matrix: (Units=1/GPa)
#
#
# Indices 1 2 3 4 5 6 
#
# 1 0.018618 -0.004918 -0.002065 0.011957 0.001199 -0.006857
# 2 -0.004918 0.011567 -0.001463 0.003327 -0.001136 -0.000112
# 3 -0.002065 -0.001463 0.010647 0.005577 -0.003926 0.000271
# 4 0.011957 0.003327 0.005577 0.066174 -0.000470 -0.006617
# 5 0.001199 -0.001136 -0.003926 -0.000470 0.043966 0.007138
# 6 -0.006857 -0.000112 0.000271 -0.006617 0.007138 0.034598
#
#
# Mechanical properties :
#
#
# Convention : Reuss Voigt Hill
#
# Bulk Modulus (GPa) = 41.77310 61.39246 51.58278
# Shear Modulus (GPa) = 23.75937 29.47388 26.61662
#
# Velocity S-wave (km/s) = 3.54621 3.94971 3.75339
# Velocity P-wave (km/s) = 6.23519 7.30032 6.78868
#
# Compressibility (1/GPa) = 0.02393885
#
# Stress axis : x y z
#
# Youngs Moduli (GPa) = 53.71137 86.45143 93.92566
#
# Poissons Ratio (x) = 0.42520 0.19397
# Poissons Ratio (y) = 0.26417 0.13742
# Poissons Ratio (z) = 0.11092 0.12649
#
# Static dielectric constant tensor:
#      x y z
#    x 3.384470 -0.147630 -0.089910 
#    y -0.147630 3.245570 -0.079130 
#    z -0.089910 -0.079130 3.717730 
# 
# 
# High freq. dielectric constant tensor:
#      x y z
#    x 1.741020 0.002260 0.002700 
#    y 0.002260 1.716810 -0.012280 
#    z 0.002700 -0.012280 1.744340 
# 
# From -- ./inp_files/255918.got.cif
#   From: 2010.06.25/outbox.cif.g09.slc.cpg/sg2_128_cif.got.tgz:255918.got - 2010.06.27 13:26:56.
