data_PCOD8005886
_publ_section_title
;
Structure prediction by ZEFSAII (Michael W. Deem and Ramdas Pophale) SiO2 
 PCOD8005886
Probable space group: P -1
;
_chemical_formula_sum "Si O2"
_cell_formula_units_Z 14
_cell_length_a 9.098593
_cell_length_b 22.588174
_cell_length_c 8.376969
_cell_angle_alpha 58.057050
_cell_angle_beta 59.513586
_cell_angle_gamma 26.709524
_cell_volume 653.920131
_symmetry_space_group_name_H-M "P -1"
_symmetry_group_IT_number 2
_symmetry_cell_setting 'triclinic'
loop_
_space_group_symop_operation_xyz
x,y,z
-x,-y,-z
loop_
_atom_site_type_symbol
_atom_site_label
_atom_site_fract_x
_atom_site_fract_y
_atom_site_fract_z
Si Si1 0.078137 0.785010 0.489965
Si Si2 0.733685 0.911308 0.807112
Si Si3 0.926817 0.781223 0.271303
Si Si4 0.832021 0.722358 0.143026
Si Si5 0.278759 0.443942 0.328377
Si Si6 0.677897 0.257745 0.084887
Si Si7 0.262740 0.848968 0.092798
O O1 0.411619 0.653943 0.587306
O O2 0.086732 0.845226 0.274983
O O3 0.778513 0.905416 0.601362
O O4 0.990282 0.750462 0.469769
O O5 0.989252 0.873435 0.810069
O O6 0.361936 0.061591 0.840553
O O7 0.833992 0.795494 0.947260
O O8 0.812864 0.746651 0.309730
O O9 0.254683 0.694922 0.122881
O O10 0.537879 0.777511 0.165834
O O11 0.159426 0.562026 0.169505
O O12 0.377040 0.370147 0.215219
O O13 0.000000 0.500000 0.500000
O O14 0.598009 0.222402 0.056578
O O15 0.000000 0.000000 0.000000
#
# Coordination Sequence:
#
# PCOD8005886 Si02
#       7
#     2   2   2   2   2   2   2
#     4  10  22  40  61  88 127 160 193 259 300 353
#     4  10  20  40  64  92 125 153 200 257 308 355
#     4  10  20  39  63  93 121 155 201 252 310 358
#     4  11  22  38  64  86 121 164 201 249 297 362
#     4  11  23  44  58  86 127 161 210 250 292 353
#     4   9  21  38  63  84 123 164 192 249 306 350
#     4  11  21  40  63  93 120 159 205 245 309 368
#
# _framework density 21.409344000000001
#
# number of rings (size 3 to 8) (size 9 to 14) (size 15 to 20)
#    0.000    1.714    1.429    4.714    0.000    6.286 
#    5.143    2.143    0.000    0.000    0.000    0.000 
#    0.000    0.000    0.000    0.000    0.000    0.000 
#
# Total GULP energy -173479.884815 kJ/mol
# GULP energy per Si atom -12391.420344 kJ/mol
# Density = 2.136061 g / cm^3
# Si number density = 21.409344 Si / 1000 Ang^3
#
#
#
# Elastic Constant Matrix: (Units=GPa)
#
#
# Indices 1 2 3 4 5 6 
#
# 1 141.4877 31.7287 20.5058 12.4210 28.9664 28.3521
# 2 31.7287 118.3643 35.0309 0.4948 -3.3017 21.4509
# 3 20.5058 35.0309 57.1145 10.7021 7.6481 19.4672
# 4 12.4210 0.4948 10.7021 41.6305 2.0324 7.8408
# 5 28.9664 -3.3017 7.6481 2.0324 29.9733 10.9709
# 6 28.3521 21.4509 19.4672 7.8408 10.9709 28.2992
#
#
#
# Elastic Compliance Matrix: (Units=1/GPa)
#
#
# Indices 1 2 3 4 5 6 
#
# 1 0.010462 -0.002327 0.001089 -0.001894 -0.008441 -0.005670
# 2 -0.002327 0.012199 -0.005978 0.002944 0.007275 -0.006440
# 3 0.001089 -0.005978 0.026182 -0.004569 -0.003743 -0.011853
# 4 -0.001894 0.002944 -0.004569 0.026678 0.003716 -0.006023
# 5 -0.008441 0.007275 -0.003743 0.003716 0.048226 -0.014208
# 6 -0.005670 -0.006440 -0.011853 -0.006023 -0.014208 0.061229
#
#
# Mechanical properties :
#
#
# Convention : Reuss Voigt Hill
#
# Bulk Modulus (GPa) = 29.06019 54.61081 41.83550
# Shear Modulus (GPa) = 23.71035 35.29402 29.50218
#
# Velocity S-wave (km/s) = 3.33149 4.06462 3.71618
# Velocity P-wave (km/s) = 5.32930 6.89866 6.16413
#
# Compressibility (1/GPa) = 0.03441134
#
# Stress axis : x y z
#
# Youngs Moduli (GPa) = 95.58116 81.97394 38.19470
#
# Poissons Ratio (x) = 0.19073 -0.04158
# Poissons Ratio (y) = 0.22239 0.22831
# Poissons Ratio (z) = -0.10404 0.49001
#
# Static dielectric constant tensor:
#      x y z
#    x 4.311790 0.094030 0.440260 
#    y 0.094030 3.900900 0.120320 
#    z 0.440260 0.120320 3.855930 
# 
# 
# High freq. dielectric constant tensor:
#      x y z
#    x 1.851340 0.001820 0.032060 
#    y 0.001820 1.830710 0.009730 
#    z 0.032060 0.009730 1.826750 
# 
# From -- ./inp_files/221938.got.cif
#   From: 2010.06.25/outbox.cif.g09.slc.cpg/sg2_111_cif.got.tgz:221938.got - 2010.06.27 13:26:56.
