data_PCOD8005573
_publ_section_title
;
Structure prediction by ZEFSAII (Michael W. Deem and Ramdas Pophale) SiO2 
 PCOD8005573
Probable space group: P -1
;
_chemical_formula_sum "Si O2"
_cell_formula_units_Z 16
_cell_length_a 8.905381
_cell_length_b 7.522797
_cell_length_c 13.867501
_cell_angle_alpha 123.259969
_cell_angle_beta 71.389832
_cell_angle_gamma 89.778214
_cell_volume 717.222894
_symmetry_space_group_name_H-M "P -1"
_symmetry_group_IT_number 2
_symmetry_cell_setting 'triclinic'
loop_
_space_group_symop_operation_xyz
x,y,z
-x,-y,-z
loop_
_atom_site_type_symbol
_atom_site_label
_atom_site_fract_x
_atom_site_fract_y
_atom_site_fract_z
Si Si1 0.487970 0.990224 0.383946
Si Si2 0.657398 0.355448 0.794148
Si Si3 0.969753 0.729413 0.311021
Si Si4 0.803409 0.708795 0.157593
Si Si5 0.356129 0.661384 0.988603
Si Si6 0.967660 0.190063 0.356116
Si Si7 0.041708 0.944846 0.082646
Si Si8 0.791434 0.659016 0.519494
O O1 0.382081 0.813445 0.326373
O O2 0.665195 0.925372 0.279077
O O3 0.500000 0.000000 0.500000
O O4 0.396643 0.225429 0.427997
O O5 0.532565 0.594334 0.879979
O O6 0.840034 0.380235 0.751333
O O7 0.629153 0.273825 0.883779
O O8 0.884812 0.603761 0.210675
O O9 0.895170 0.710862 0.423692
O O10 0.934845 0.982458 0.358710
O O11 0.722655 0.549092 0.065007
O O12 0.948557 0.760477 0.079591
O O13 0.237204 0.861180 0.020188
O O14 0.815726 0.400169 0.458634
O O15 0.136810 0.238683 0.372931
O O16 0.989914 0.149362 0.225167
O O17 0.000000 0.000000 0.000000
#
# Coordination Sequence:
#
# PCOD8005573 Si02
#       8
#     2   2   2   2   2   2   2   2
#     4  11  21  37  61  94 123 159 204 258 310 367
#     4  10  21  34  62  88 120 154 205 256 296 365
#     4  11  20  39  64  93 122 161 209 250 308 372
#     4  10  22  37  62  92 118 157 212 246 304 375
#     4  10  20  39  60  86 117 162 203 248 309 356
#     4  10  23  39  57  95 119 160 210 250 303 370
#     4  11  23  38  60  85 128 160 199 259 302 362
#     4  11  22  38  66  86 127 165 198 257 312 369
#
# _framework density 22.308267000000001
#
# number of rings (size 3 to 8) (size 9 to 14) (size 15 to 20)
#    0.000    1.500    5.000    0.750    1.750    0.000 
#    0.000    5.000    0.000    5.250    0.000    0.000 
#    0.000    0.000    0.000    0.000    0.000    0.000 
#
# Total GULP energy -198322.371430 kJ/mol
# GULP energy per Si atom -12395.148214 kJ/mol
# Density = 2.225749 g / cm^3
# Si number density = 22.308267 Si / 1000 Ang^3
#
#
#
# Elastic Constant Matrix: (Units=GPa)
#
#
# Indices 1 2 3 4 5 6 
#
# 1 104.5829 9.5625 27.9984 -1.1291 -5.7325 -27.4463
# 2 9.5625 47.0078 18.3699 -4.8882 3.8419 -14.6894
# 3 27.9984 18.3699 85.8677 -10.5079 16.1144 -6.3429
# 4 -1.1291 -4.8882 -10.5079 30.1438 -10.8001 -1.9193
# 5 -5.7325 3.8419 16.1144 -10.8001 53.3094 -0.1153
# 6 -27.4463 -14.6894 -6.3429 -1.9193 -0.1153 30.5994
#
#
#
# Elastic Compliance Matrix: (Units=1/GPa)
#
#
# Indices 1 2 3 4 5 6 
#
# 1 0.014220 0.002993 -0.004702 0.001312 0.003029 0.013311
# 2 0.002993 0.027905 -0.005488 0.003982 0.000809 0.015196
# 3 -0.004702 -0.005488 0.015184 0.002494 -0.004202 -0.003564
# 4 0.001312 0.003982 0.002494 0.037526 0.006716 0.005984
# 5 0.003029 0.000809 -0.004202 0.006716 0.021663 0.002737
# 6 0.013311 0.015196 -0.003564 0.005984 0.002737 0.051561
#
#
# Mechanical properties :
#
#
# Convention : Reuss Voigt Hill
#
# Bulk Modulus (GPa) = 23.30151 38.81334 31.05742
# Shear Modulus (GPa) = 25.41207 34.91235 30.16221
#
# Velocity S-wave (km/s) = 3.37876 3.96029 3.68103
# Velocity P-wave (km/s) = 5.06846 6.19260 5.65852
#
# Compressibility (1/GPa) = 0.04291568
#
# Stress axis : x y z
#
# Youngs Moduli (GPa) = 70.32213 35.83568 65.86090
#
# Poissons Ratio (x) = -0.10725 0.30966
# Poissons Ratio (y) = -0.21047 0.36143
# Poissons Ratio (z) = 0.33063 0.19666
#
# Static dielectric constant tensor:
#      x y z
#    x 4.551480 -0.936890 -0.016600 
#    y -0.936890 5.011510 0.085930 
#    z -0.016600 0.085930 4.432780 
# 
# 
# High freq. dielectric constant tensor:
#      x y z
#    x 1.890290 -0.037390 0.006770 
#    y -0.037390 1.830940 0.006360 
#    z 0.006770 0.006360 1.900570 
# 
# From -- ./inp_files/245117.got.cif
#   From: 2010.06.25/outbox.cif.g09.slc.cpg/sg2_123_cif.got.tgz:245117.got - 2010.06.27 13:26:56.
