data_PCOD8005751
_publ_section_title
;
Structure prediction by ZEFSAII (Michael W. Deem and Ramdas Pophale) SiO2 
 PCOD8005751
Probable space group: P -1
;
_chemical_formula_sum "Si O2"
_cell_formula_units_Z 16
_cell_length_a 13.651640
_cell_length_b 17.035997
_cell_length_c 9.717963
_cell_angle_alpha 103.460161
_cell_angle_beta 77.143589
_cell_angle_gamma 159.558642
_cell_volume 767.590707
_symmetry_space_group_name_H-M "P -1"
_symmetry_group_IT_number 2
_symmetry_cell_setting 'triclinic'
loop_
_space_group_symop_operation_xyz
x,y,z
-x,-y,-z
loop_
_atom_site_type_symbol
_atom_site_label
_atom_site_fract_x
_atom_site_fract_y
_atom_site_fract_z
Si Si1 0.178889 0.903629 0.855567
Si Si2 0.327969 0.519518 0.990928
Si Si3 0.754320 0.877925 0.222786
Si Si4 0.777747 0.374111 0.919624
Si Si5 0.831747 0.170532 0.445134
Si Si6 0.227062 0.696298 0.404257
Si Si7 0.572564 0.446927 0.569721
Si Si8 0.373793 0.331004 0.289450
O O1 0.132616 0.793074 0.719515
O O2 0.218098 0.008003 0.780562
O O3 0.460353 0.105044 0.941428
O O4 0.916023 0.718716 0.962987
O O5 0.397251 0.540220 0.826012
O O6 0.607271 0.720952 0.078341
O O7 0.205072 0.517271 0.021314
O O8 0.560651 0.720006 0.354989
O O9 0.062551 0.073363 0.232170
O O10 0.851518 0.404640 0.754651
O O11 0.000000 0.500000 0.000000
O O12 0.796302 0.224787 0.566410
O O13 0.104197 0.328394 0.480134
O O14 0.535641 0.900819 0.445264
O O15 0.000000 0.500000 0.500000
O O16 0.398321 0.316259 0.430280
O O17 0.563959 0.527098 0.679509
#
# Coordination Sequence:
#
# PCOD8005751 Si02
#       8
#     2   2   2   2   2   2   2   2
#     4  10  21  41  67  91 124 163 209 251 304 367
#     4  11  23  41  66  89 127 165 205 254 306 370
#     4  11  21  41  67  90 123 165 210 255 296 371
#     4  10  24  42  60  94 126 159 201 255 312 368
#     4  10  20  39  62  90 118 160 205 249 300 361
#     4  10  22  38  66  89 118 158 210 250 301 367
#     4  11  24  41  64  90 131 161 204 258 310 361
#     4  11  25  41  60  96 126 163 204 254 316 364
#
# _framework density 20.844442000000001
#
# number of rings (size 3 to 8) (size 9 to 14) (size 15 to 20)
#    0.000    1.500    2.500    1.500    5.250    4.500 
#    2.250    0.000    0.000    0.000    0.000    0.000 
#    0.000    0.000    0.000    0.000    0.000    0.000 
#
# Total GULP energy -198319.802311 kJ/mol
# GULP energy per Si atom -12394.987644 kJ/mol
# Density = 2.079700 g / cm^3
# Si number density = 20.844442 Si / 1000 Ang^3
#
#
#
# Elastic Constant Matrix: (Units=GPa)
#
#
# Indices 1 2 3 4 5 6 
#
# 1 103.2580 53.5546 54.6550 4.3738 -1.4405 11.5756
# 2 53.5546 132.9886 65.7687 -7.8599 9.5905 20.2856
# 3 54.6550 65.7687 106.4788 -7.7024 -11.2969 3.9356
# 4 4.3738 -7.8599 -7.7024 34.4438 9.3649 4.0027
# 5 -1.4405 9.5905 -11.2969 9.3649 37.9824 3.7536
# 6 11.5756 20.2856 3.9356 4.0027 3.7536 33.1305
#
#
#
# Elastic Compliance Matrix: (Units=1/GPa)
#
#
# Indices 1 2 3 4 5 6 
#
# 1 0.014747 -0.002984 -0.005840 -0.003797 0.000735 -0.002256
# 2 -0.002984 0.013987 -0.007211 0.004408 -0.006235 -0.006491
# 3 -0.005840 -0.007211 0.017434 0.000891 0.006212 0.003573
# 4 -0.003797 0.004408 0.000891 0.033651 -0.008840 -0.004542
# 5 0.000735 -0.006235 0.006212 -0.008840 0.031930 0.000273
# 6 -0.002256 -0.006491 0.003573 -0.004542 0.000273 0.035040
#
#
# Mechanical properties :
#
#
# Convention : Reuss Voigt Hill
#
# Bulk Modulus (GPa) = 70.92183 76.74244 73.83214
# Shear Modulus (GPa) = 27.23914 32.36116 29.80015
#
# Velocity S-wave (km/s) = 3.61887 3.94446 3.78517
# Velocity P-wave (km/s) = 7.18051 7.59221 7.38923
#
# Compressibility (1/GPa) = 0.01410003
#
# Stress axis : x y z
#
# Youngs Moduli (GPa) = 67.80961 71.49321 57.35801
#
# Poissons Ratio (x) = 0.21332 0.33497
# Poissons Ratio (y) = 0.20233 0.41359
# Poissons Ratio (z) = 0.39600 0.51551
#
# Static dielectric constant tensor:
#      x y z
#    x 3.555250 0.239030 -0.025910 
#    y 0.239030 4.001000 0.053350 
#    z -0.025910 0.053350 3.617230 
# 
# 
# High freq. dielectric constant tensor:
#      x y z
#    x 1.801260 0.014070 -0.016780 
#    y 0.014070 1.831830 0.006160 
#    z -0.016780 0.006160 1.808760 
# 
# From -- ./inp_files/317730.got.cif
#   From: 2010.06.25/outbox.cif.g09.slc.cpg/sg2_159_cif.got.tgz:317730.got - 2010.06.27 13:26:56.
