data_PCOD8005611
_publ_section_title
;
Structure prediction by ZEFSAII (Michael W. Deem and Ramdas Pophale) SiO2 
 PCOD8005611
Probable space group: P -1
;
_chemical_formula_sum "Si O2"
_cell_formula_units_Z 16
_cell_length_a 8.859215
_cell_length_b 8.307447
_cell_length_c 14.534950
_cell_angle_alpha 97.919944
_cell_angle_beta 113.812647
_cell_angle_gamma 126.014771
_cell_volume 682.322600
_symmetry_space_group_name_H-M "P -1"
_symmetry_group_IT_number 2
_symmetry_cell_setting 'triclinic'
loop_
_space_group_symop_operation_xyz
x,y,z
-x,-y,-z
loop_
_atom_site_type_symbol
_atom_site_label
_atom_site_fract_x
_atom_site_fract_y
_atom_site_fract_z
Si Si1 0.694644 0.620067 0.409179
Si Si2 0.483533 0.800212 0.957200
Si Si3 0.911351 0.014322 0.172784
Si Si4 0.671495 0.834820 0.809180
Si Si5 0.085370 0.968667 0.389119
Si Si6 0.826323 0.409985 0.529670
Si Si7 0.381940 0.952289 0.335918
Si Si8 0.988255 0.545705 0.778028
O O1 0.456302 0.420924 0.278076
O O2 0.709737 0.802076 0.481336
O O3 0.699296 0.490875 0.482154
O O4 0.905759 0.758543 0.398564
O O5 0.619305 0.839664 0.901524
O O6 0.201925 0.575111 0.867138
O O7 0.500000 0.000000 0.000000
O O8 0.627974 0.799276 0.070415
O O9 0.054438 0.996310 0.136434
O O10 0.962663 0.014166 0.293088
O O11 0.977422 0.242424 0.172652
O O12 0.569897 0.919401 0.736614
O O13 0.185567 0.898784 0.345647
O O14 0.984973 0.530980 0.666882
O O15 0.000000 0.500000 0.500000
O O16 0.631311 0.127177 0.465518
O O17 0.265557 0.694841 0.264708
#
# Coordination Sequence:
#
# PCOD8005611 Si02
#       8
#     2   2   2   2   2   2   2   2
#     4  10  21  36  62  90 126 158 198 254 300 371
#     4  10  22  42  65  85 122 163 206 255 303 358
#     4  10  22  39  64  90 122 163 208 252 300 361
#     4  10  21  40  62  88 120 159 207 253 311 355
#     4  10  20  39  60  93 123 161 204 244 309 359
#     4  11  21  35  58  89 123 164 197 246 306 363
#     4  10  22  36  62  88 128 159 200 248 306 368
#     4  11  21  39  59  91 123 164 204 246 305 354
#
# _framework density 23.449317000000001
#
# number of rings (size 3 to 8) (size 9 to 14) (size 15 to 20)
#    0.000    1.750    1.250    3.750    1.750    1.500 
#    2.250    9.375    0.000    0.000    0.000    0.000 
#    0.000    0.000    0.000    0.000    0.000    0.000 
#
# Total GULP energy -198218.550238 kJ/mol
# GULP energy per Si atom -12388.659390 kJ/mol
# Density = 2.339594 g / cm^3
# Si number density = 23.449317 Si / 1000 Ang^3
#
#
#
# Elastic Constant Matrix: (Units=GPa)
#
#
# Indices 1 2 3 4 5 6 
#
# 1 38.0776 0.3779 30.4910 5.6363 5.3263 4.8627
# 2 0.3779 84.0497 14.0171 10.4012 -2.1999 2.7578
# 3 30.4910 14.0171 112.3502 5.9746 7.0794 0.4800
# 4 5.6363 10.4012 5.9746 28.7978 8.0515 1.3092
# 5 5.3263 -2.1999 7.0794 8.0515 32.3121 1.3258
# 6 4.8627 2.7578 0.4800 1.3092 1.3258 23.7776
#
#
#
# Elastic Compliance Matrix: (Units=1/GPa)
#
#
# Indices 1 2 3 4 5 6 
#
# 1 0.035827 0.002216 -0.009574 -0.004908 -0.002147 -0.007001
# 2 0.002216 0.013009 -0.002085 -0.005281 0.002365 -0.001761
# 3 -0.009574 -0.002085 0.011811 0.000462 -0.001349 0.002011
# 4 -0.004908 -0.005281 0.000462 0.040203 -0.009667 -0.000068
# 5 -0.002147 0.002365 -0.001349 -0.009667 0.034216 -0.001183
# 6 -0.007001 -0.001761 0.002011 -0.000068 -0.001183 0.043722
#
#
# Mechanical properties :
#
#
# Convention : Reuss Voigt Hill
#
# Bulk Modulus (GPa) = 23.94521 36.02773 29.98647
# Shear Modulus (GPa) = 23.63034 29.61693 26.62363
#
# Velocity S-wave (km/s) = 3.17790 3.55775 3.37318
# Velocity P-wave (km/s) = 4.86817 5.68104 5.29024
#
# Compressibility (1/GPa) = 0.04176200
#
# Stress axis : x y z
#
# Youngs Moduli (GPa) = 27.91185 76.87148 84.66738
#
# Poissons Ratio (x) = -0.17038 0.81057
# Poissons Ratio (y) = -0.06186 0.17655
# Poissons Ratio (z) = 0.26721 0.16029
#
# Static dielectric constant tensor:
#      x y z
#    x 4.140290 -0.020740 0.393650 
#    y -0.020740 3.940930 0.118410 
#    z 0.393650 0.118410 4.731280 
# 
# 
# High freq. dielectric constant tensor:
#      x y z
#    x 1.912810 -0.001420 0.008080 
#    y -0.001420 1.919500 0.006620 
#    z 0.008080 0.006620 1.934900 
# 
# From -- ./inp_files/187220.got.cif
#   From: 2010.06.25/outbox.cif.g09.slc.cpg/sg2_94_cif.got.tgz:187220.got - 2010.06.27 13:26:56.
