data_PCOD8005844
_publ_section_title
;
Structure prediction by ZEFSAII (Michael W. Deem and Ramdas Pophale) SiO2 
 PCOD8005844
Probable space group: P -1
;
_chemical_formula_sum "Si O2"
_cell_formula_units_Z 16
_cell_length_a 14.761668
_cell_length_b 11.234205
_cell_length_c 9.186805
_cell_angle_alpha 54.711624
_cell_angle_beta 139.932728
_cell_angle_gamma 102.827845
_cell_volume 726.859692
_symmetry_space_group_name_H-M "P -1"
_symmetry_group_IT_number 2
_symmetry_cell_setting 'triclinic'
loop_
_space_group_symop_operation_xyz
x,y,z
-x,-y,-z
loop_
_atom_site_type_symbol
_atom_site_label
_atom_site_fract_x
_atom_site_fract_y
_atom_site_fract_z
Si Si1 0.542404 0.909137 0.894204
Si Si2 0.373944 0.689616 0.126603
Si Si3 0.223447 0.609321 0.540430
Si Si4 0.546936 0.372857 0.424388
Si Si5 0.243770 0.875823 0.570862
Si Si6 0.891581 0.754800 0.923793
Si Si7 0.316464 0.280603 0.060371
Si Si8 0.351149 0.228482 0.582336
O O1 0.655373 0.849092 0.215445
O O2 0.424481 0.823943 0.792525
O O3 0.643775 0.864592 0.904272
O O4 0.440109 0.097214 0.658348
O O5 0.394022 0.526283 0.185886
O O6 0.332195 0.704749 0.236888
O O7 0.555014 0.664045 0.360562
O O8 0.247667 0.840453 0.776448
O O9 0.368511 0.579937 0.635593
O O10 0.184205 0.762753 0.488270
O O11 0.255994 0.451340 0.784319
O O12 0.074024 0.647067 0.229247
O O13 0.472200 0.253672 0.361065
O O14 0.137569 0.060877 0.274917
O O15 0.817067 0.734523 0.997733
O O16 0.822882 0.684543 0.756735
#
# Coordination Sequence:
#
# PCOD8005844 Si02
#       8
#     2   2   2   2   2   2   2   2
#     4   9  19  34  63  90 117 152 205 252 303 340
#     4  10  20  39  66  94 116 158 211 258 301 351
#     4  12  23  41  60  91 126 167 201 249 306 371
#     4  11  22  38  67  94 119 157 215 255 298 361
#     4  10  20  39  63  89 123 162 202 253 303 360
#     4  11  25  39  59  90 133 163 198 245 317 369
#     4  12  22  41  62  95 122 160 209 258 296 362
#     4   9  18  37  57  87 124 156 191 254 303 356
#
# _framework density 22.012499999999999
#
# number of rings (size 3 to 8) (size 9 to 14) (size 15 to 20)
#    0.000    1.500    3.750    3.375    0.000    3.000 
#    0.000    4.375    0.000    0.000    0.000    0.000 
#    0.000    0.000    0.000    0.000    0.000    0.000 
#
# Total GULP energy -198268.331573 kJ/mol
# GULP energy per Si atom -12391.770723 kJ/mol
# Density = 2.196240 g / cm^3
# Si number density = 22.012500 Si / 1000 Ang^3
#
#
#
# Elastic Constant Matrix: (Units=GPa)
#
#
# Indices 1 2 3 4 5 6 
#
# 1 63.6641 12.2042 27.1716 -7.5691 -20.0222 -2.2422
# 2 12.2042 53.8024 13.8176 6.5351 -8.9622 -11.7916
# 3 27.1716 13.8176 102.6937 9.3280 -18.2714 1.6786
# 4 -7.5691 6.5351 9.3280 29.8082 8.8599 -6.7336
# 5 -20.0222 -8.9622 -18.2714 8.8599 32.7010 -0.6374
# 6 -2.2422 -11.7916 1.6786 -6.7336 -0.6374 25.1648
#
#
#
# Elastic Compliance Matrix: (Units=1/GPa)
#
#
# Indices 1 2 3 4 5 6 
#
# 1 0.021483 -0.002359 -0.004359 0.005384 0.008667 0.002760
# 2 -0.002359 0.023048 -0.001178 -0.004829 0.005708 0.009521
# 3 -0.004359 -0.001178 0.012896 -0.007551 0.006188 -0.003665
# 4 0.005384 -0.004829 -0.007551 0.044904 -0.014210 0.010376
# 5 0.008667 0.005708 0.006188 -0.014210 0.044766 0.000365
# 6 0.002760 0.009521 -0.003665 0.010376 0.000365 0.047475
#
#
# Mechanical properties :
#
#
# Convention : Reuss Voigt Hill
#
# Bulk Modulus (GPa) = 24.01823 36.28298 30.15061
# Shear Modulus (GPa) = 22.29709 28.66591 25.48150
#
# Velocity S-wave (km/s) = 3.18611 3.61259 3.40603
# Velocity P-wave (km/s) = 4.94671 5.82407 5.40323
#
# Compressibility (1/GPa) = 0.04163504
#
# Stress axis : x y z
#
# Youngs Moduli (GPa) = 46.54851 43.38726 77.54064
#
# Poissons Ratio (x) = 0.10235 0.33799
# Poissons Ratio (y) = 0.10981 0.09138
# Poissons Ratio (z) = 0.20290 0.05113
#
# Static dielectric constant tensor:
#      x y z
#    x 3.753860 0.048840 -0.461510 
#    y 0.048840 4.001400 0.321050 
#    z -0.461510 0.321050 4.077450 
# 
# 
# High freq. dielectric constant tensor:
#      x y z
#    x 1.836780 0.006230 -0.046900 
#    y 0.006230 1.868970 0.014300 
#    z -0.046900 0.014300 1.859240 
# 
# From -- ./inp_files/239536.got.cif
#   From: 2010.06.25/outbox.cif.g09.slc.cpg/sg2_120_cif.got.tgz:239536.got - 2010.06.27 13:26:56.
