data_PCOD8005178
_publ_section_title
;
Structure prediction by ZEFSAII (Michael W. Deem and Ramdas Pophale) SiO2 
 PCOD8005178
Probable space group: P -1
;
_chemical_formula_sum "Si O2"
_cell_formula_units_Z 14
_cell_length_a 9.184192
_cell_length_b 12.645736
_cell_length_c 8.447453
_cell_angle_alpha 111.869705
_cell_angle_beta 129.761740
_cell_angle_gamma 64.659604
_cell_volume 674.690775
_symmetry_space_group_name_H-M "P -1"
_symmetry_group_IT_number 2
_symmetry_cell_setting 'triclinic'
loop_
_space_group_symop_operation_xyz
x,y,z
-x,-y,-z
loop_
_atom_site_type_symbol
_atom_site_label
_atom_site_fract_x
_atom_site_fract_y
_atom_site_fract_z
Si Si1 0.597414 0.161457 0.663423
Si Si2 0.176037 0.770631 0.400376
Si Si3 0.265559 0.128172 0.846091
Si Si4 0.803289 0.463615 0.874445
Si Si5 0.476939 0.699050 0.828407
Si Si6 0.416692 0.033989 0.222193
Si Si7 0.365436 0.625734 0.017718
O O1 0.792089 0.158569 0.694976
O O2 0.657386 0.066721 0.793776
O O3 0.522152 0.294408 0.756104
O O4 0.432139 0.132810 0.417754
O O5 0.209522 0.630737 0.320389
O O6 0.344691 0.779137 0.647110
O O7 0.957643 0.827828 0.344491
O O8 0.371407 0.021281 0.744561
O O9 0.372203 0.232279 0.960039
O O10 0.264559 0.089809 0.008650
O O11 0.609193 0.572774 0.787396
O O12 0.815240 0.397805 0.018897
O O13 0.000000 0.500000 0.000000
O O14 0.318854 0.687894 0.848496
O O15 0.500000 0.500000 0.000000
#
# Coordination Sequence:
#
# PCOD8005178 Si02
#       7
#     2   2   2   2   2   2   2
#     4  10  20  39  62  89 124 158 206 250 309 353
#     4  11  23  38  63  93 119 164 204 248 308 367
#     4  11  22  40  63  87 122 164 206 248 304 356
#     4  10  20  38  65  91 122 157 202 254 307 362
#     4  11  20  41  61  89 126 157 200 251 308 362
#     4  10  22  40  62  89 123 165 203 258 294 356
#     4   9  20  37  65  88 122 162 196 251 309 362
#
# _framework density 20.750245
#
# number of rings (size 3 to 8) (size 9 to 14) (size 15 to 20)
#    0.000    1.714    4.286    0.429    0.000    1.143 
#    0.000    7.857    0.000    0.000    0.000    0.000 
#    0.000    0.000    0.000    0.000    0.000    0.000 
#
# Total GULP energy -173461.693264 kJ/mol
# GULP energy per Si atom -12390.120947 kJ/mol
# Density = 2.070302 g / cm^3
# Si number density = 20.750245 Si / 1000 Ang^3
#
#
#
# Elastic Constant Matrix: (Units=GPa)
#
#
# Indices 1 2 3 4 5 6 
#
# 1 114.9129 40.3094 39.6638 -11.4257 0.0163 20.5403
# 2 40.3094 90.6194 31.3480 9.4380 -3.6093 8.2732
# 3 39.6638 31.3480 58.2163 1.1560 0.7518 -2.3053
# 4 -11.4257 9.4380 1.1560 41.4496 -2.1201 -3.8486
# 5 0.0163 -3.6093 0.7518 -2.1201 31.7740 -2.2969
# 6 20.5403 8.2732 -2.3053 -3.8486 -2.2969 43.6048
#
#
#
# Elastic Compliance Matrix: (Units=1/GPa)
#
#
# Indices 1 2 3 4 5 6 
#
# 1 0.014260 -0.003412 -0.008203 0.004349 -0.000354 -0.006139
# 2 -0.003412 0.015285 -0.005914 -0.004360 0.001449 -0.001914
# 3 -0.008203 -0.005914 0.026231 -0.001115 -0.000913 0.006227
# 4 0.004349 -0.004360 -0.001115 0.026524 0.001381 0.001134
# 5 -0.000354 0.001449 -0.000913 0.001381 0.031870 0.001644
# 6 -0.006139 -0.001914 0.006227 0.001134 0.001644 0.026704
#
#
# Mechanical properties :
#
#
# Convention : Reuss Voigt Hill
#
# Bulk Modulus (GPa) = 48.26667 54.04346 51.15507
# Shear Modulus (GPa) = 27.34642 33.52749 30.43696
#
# Velocity S-wave (km/s) = 3.63421 4.02402 3.83407
# Velocity P-wave (km/s) = 6.39697 6.90591 6.65630
#
# Compressibility (1/GPa) = 0.02071823
#
# Stress axis : x y z
#
# Youngs Moduli (GPa) = 70.12465 65.42266 38.12226
#
# Poissons Ratio (x) = 0.22323 0.31273
# Poissons Ratio (y) = 0.23927 0.22545
# Poissons Ratio (z) = 0.57526 0.38690
#
# Static dielectric constant tensor:
#      x y z
#    x 4.187830 0.313120 -0.489820 
#    y 0.313120 3.974960 0.266710 
#    z -0.489820 0.266710 3.580340 
# 
# 
# High freq. dielectric constant tensor:
#      x y z
#    x 1.815300 0.022980 -0.025980 
#    y 0.022980 1.822460 0.030520 
#    z -0.025980 0.030520 1.781710 
# 
# From -- ./inp_files/49426.got.cif
#   From: 2010.06.25/outbox.cif.g09.slc.cpg/sg2_25_cif.got.tgz:49426.got - 2010.06.27 13:26:56.
