data_PCOD8005964
_publ_section_title
;
Structure prediction by ZEFSAII (Michael W. Deem and Ramdas Pophale) SiO2 
 PCOD8005964
Probable space group: P -1
;
_chemical_formula_sum "Si O2"
_cell_formula_units_Z 16
_cell_length_a 14.078200
_cell_length_b 19.051267
_cell_length_c 6.733019
_cell_angle_alpha 104.775310
_cell_angle_beta 69.335588
_cell_angle_gamma 151.418290
_cell_volume 802.261441
_symmetry_space_group_name_H-M "P -1"
_symmetry_group_IT_number 2
_symmetry_cell_setting 'triclinic'
loop_
_space_group_symop_operation_xyz
x,y,z
-x,-y,-z
loop_
_atom_site_type_symbol
_atom_site_label
_atom_site_fract_x
_atom_site_fract_y
_atom_site_fract_z
Si Si1 0.468830 0.141888 0.544321
Si Si2 0.881066 0.602953 0.180918
Si Si3 0.891972 0.124554 0.652484
Si Si4 0.587330 0.962353 0.082276
Si Si5 0.450757 0.642231 0.430442
Si Si6 0.333411 0.331370 0.457950
Si Si7 0.562677 0.461180 0.014132
Si Si8 0.733852 0.209773 0.137254
O O1 0.480782 0.132084 0.759167
O O2 0.474954 0.231101 0.572496
O O3 0.668325 0.229751 0.357727
O O4 0.250985 0.975466 0.506058
O O5 0.731245 0.470425 0.352399
O O6 0.041903 0.750124 0.298544
O O7 0.764044 0.584402 0.099386
O O8 0.019308 0.630906 0.975777
O O9 0.095822 0.203779 0.549382
O O10 0.756054 0.022103 0.873677
O O11 0.681262 0.097463 0.185275
O O12 0.384560 0.851795 0.024983
O O13 0.641127 0.714939 0.429859
O O14 0.389671 0.567127 0.212830
O O15 0.500000 0.500000 0.500000
O O16 0.373405 0.323323 0.202074
O O17 0.500000 0.500000 0.000000
#
# Coordination Sequence:
#
# PCOD8005964 Si02
#       8
#     2   2   2   2   2   2   2   2
#     4  11  24  39  60  91 129 158 198 254 312 364
#     4  10  21  39  64  92 117 160 214 250 297 355
#     4  10  20  39  64  90 117 159 205 252 296 362
#     4   9  20  38  61  88 122 158 204 249 303 361
#     4  11  24  39  58  93 128 160 196 251 315 360
#     4  11  20  40  63  89 121 155 201 254 299 358
#     4  11  20  36  62  89 122 157 200 250 298 359
#     4   9  20  39  63  85 118 164 208 252 295 361
#
# _framework density 19.943622999999999
#
# number of rings (size 3 to 8) (size 9 to 14) (size 15 to 20)
#    0.000    1.750    3.750    1.125    0.000   11.000 
#    0.000    2.500    0.000    0.000    0.000    0.000 
#    0.000    0.000    0.000    0.000    0.000    0.000 
#
# Total GULP energy -198300.249403 kJ/mol
# GULP energy per Si atom -12393.765588 kJ/mol
# Density = 1.989823 g / cm^3
# Si number density = 19.943623 Si / 1000 Ang^3
#
#
#
# Elastic Constant Matrix: (Units=GPa)
#
#
# Indices 1 2 3 4 5 6 
#
# 1 111.7700 41.8752 53.2116 -20.9047 0.6049 5.1010
# 2 41.8752 59.0597 27.2912 -8.2656 1.4733 12.3651
# 3 53.2116 27.2912 101.0306 -9.8367 1.5168 12.0217
# 4 -20.9047 -8.2656 -9.8367 20.6889 7.4655 -9.3527
# 5 0.6049 1.4733 1.5168 7.4655 40.2334 -15.3979
# 6 5.1010 12.3651 12.0217 -9.3527 -15.3979 31.8237
#
#
#
# Elastic Compliance Matrix: (Units=1/GPa)
#
#
# Indices 1 2 3 4 5 6 
#
# 1 0.017838 -0.009284 -0.006396 0.014558 0.000565 0.007716
# 2 -0.009284 0.026061 -0.001019 -0.002924 -0.004567 -0.011322
# 3 -0.006396 -0.001019 0.014041 -0.001898 -0.002139 -0.005476
# 4 0.014558 -0.002924 -0.001898 0.071158 -0.006657 0.017211
# 5 0.000565 -0.004567 -0.002139 -0.006657 0.032565 0.016292
# 6 0.007716 -0.011322 -0.005476 0.017211 0.016292 0.049595
#
#
# Mechanical properties :
#
#
# Convention : Reuss Voigt Hill
#
# Bulk Modulus (GPa) = 40.74793 57.40180 49.07487
# Shear Modulus (GPa) = 19.77557 28.51467 24.14512
#
# Velocity S-wave (km/s) = 3.15234 3.78532 3.48324
# Velocity P-wave (km/s) = 5.80737 6.92455 6.39042
#
# Compressibility (1/GPa) = 0.02454113
#
# Stress axis : x y z
#
# Youngs Moduli (GPa) = 56.05931 38.37194 71.21970
#
# Poissons Ratio (x) = 0.35625 0.45555
# Poissons Ratio (y) = 0.52047 0.07256
# Poissons Ratio (z) = 0.35858 0.03909
#
# Static dielectric constant tensor:
#      x y z
#    x 3.661000 0.220980 -0.159850 
#    y 0.220980 3.363490 -0.062070 
#    z -0.159850 -0.062070 3.926210 
# 
# 
# High freq. dielectric constant tensor:
#      x y z
#    x 1.779390 0.019700 -0.008590 
#    y 0.019700 1.744120 -0.007410 
#    z -0.008590 -0.007410 1.793050 
# 
# From -- ./inp_files/100420.got.cif
#   From: 2010.06.25/outbox.cif.g09.slc.cpg/sg2_51_cif.got.tgz:100420.got - 2010.06.27 13:26:56.
