data_PCOD8005287
_publ_section_title
;
Structure prediction by ZEFSAII (Michael W. Deem and Ramdas Pophale) SiO2 
 PCOD8005287
Probable space group: P -1
;
_chemical_formula_sum "Si O2"
_cell_formula_units_Z 16
_cell_length_a 8.996753
_cell_length_b 11.615660
_cell_length_c 10.562903
_cell_angle_alpha 63.885624
_cell_angle_beta 68.463211
_cell_angle_gamma 110.370797
_cell_volume 730.409610
_symmetry_space_group_name_H-M "P -1"
_symmetry_group_IT_number 2
_symmetry_cell_setting 'triclinic'
loop_
_space_group_symop_operation_xyz
x,y,z
-x,-y,-z
loop_
_atom_site_type_symbol
_atom_site_label
_atom_site_fract_x
_atom_site_fract_y
_atom_site_fract_z
Si Si1 0.931951 0.607625 0.438084
Si Si2 0.718504 0.087153 0.951153
Si Si3 0.943530 0.248665 0.046665
Si Si4 0.913215 0.954256 0.854293
Si Si5 0.290578 0.277679 0.456471
Si Si6 0.281193 0.560583 0.663151
Si Si7 0.706646 0.142420 0.427053
Si Si8 0.221906 0.077426 0.354177
O O1 0.811961 0.630542 0.573257
O O2 0.782924 0.532472 0.403191
O O3 0.000000 0.500000 0.500000
O O4 0.137015 0.780414 0.261745
O O5 0.793368 0.975974 0.988581
O O6 0.756397 0.164982 0.043073
O O7 0.500000 0.000000 0.000000
O O8 0.870638 0.226334 0.223657
O O9 0.060984 0.172339 0.032678
O O10 0.108327 0.440331 0.877855
O O11 0.754922 0.878321 0.822047
O O12 0.134346 0.115795 0.666576
O O13 0.503655 0.397922 0.399373
O O14 0.352536 0.236895 0.324929
O O15 0.302730 0.724695 0.567478
O O16 0.500000 0.000000 0.500000
O O17 0.748816 0.059350 0.563192
O O18 0.000000 0.000000 0.500000
#
# Coordination Sequence:
#
# PCOD8005287 Si02
#       8
#     2   2   2   2   2   2   2   2
#     4  10  24  39  61  90 128 166 206 259 307 367
#     4  10  24  39  61  91 128 163 209 256 308 371
#     4  11  23  42  58  93 131 162 202 258 323 365
#     4  10  21  40  65  87 122 166 211 257 297 377
#     4  10  20  41  61  90 120 163 218 245 299 378
#     4  11  24  39  61  93 128 165 200 261 322 365
#     4  12  23  40  68  92 119 166 215 255 304 380
#     4  10  20  38  66  93 114 154 225 256 293 353
#
# _framework density 21.905515999999999
#
# number of rings (size 3 to 8) (size 9 to 14) (size 15 to 20)
#    0.000    1.500    3.750    1.125    7.000    2.000 
#    0.000    0.625    0.000    0.000    0.000    0.000 
#    0.000    0.000    0.000    0.000    0.000    0.000 
#
# Total GULP energy -198271.126292 kJ/mol
# GULP energy per Si atom -12391.945393 kJ/mol
# Density = 2.185566 g / cm^3
# Si number density = 21.905516 Si / 1000 Ang^3
#
#
#
# Elastic Constant Matrix: (Units=GPa)
#
#
# Indices 1 2 3 4 5 6 
#
# 1 121.4815 30.5691 27.2550 -21.0285 -0.1757 1.1477
# 2 30.5691 81.3159 29.5983 -13.7444 -8.2441 -4.9510
# 3 27.2550 29.5983 39.9141 -6.9113 -0.6623 8.1628
# 4 -21.0285 -13.7444 -6.9113 32.7947 1.0854 2.8084
# 5 -0.1757 -8.2441 -0.6623 1.0854 31.3376 -7.4635
# 6 1.1477 -4.9510 8.1628 2.8084 -7.4635 49.9984
#
#
#
# Elastic Compliance Matrix: (Units=1/GPa)
#
#
# Indices 1 2 3 4 5 6 
#
# 1 0.010667 -0.001137 -0.005590 0.005185 -0.000492 0.000190
# 2 -0.001137 0.019249 -0.013722 0.003842 0.005782 0.004820
# 3 -0.005590 -0.013722 0.040754 0.000151 -0.004837 -0.008615
# 4 0.005185 0.003842 0.000151 0.035640 -0.000634 -0.001860
# 5 -0.000492 0.005782 -0.004837 -0.000634 0.034926 0.006623
# 6 0.000190 0.004820 -0.008615 -0.001860 0.006623 0.022973
#
#
# Mechanical properties :
#
#
# Convention : Reuss Voigt Hill
#
# Bulk Modulus (GPa) = 33.58871 46.39514 39.99193
# Shear Modulus (GPa) = 23.25241 33.17875 28.21558
#
# Velocity S-wave (km/s) = 3.26158 3.89605 3.59285
# Velocity P-wave (km/s) = 5.43605 6.43930 5.95882
#
# Compressibility (1/GPa) = 0.02977190
#
# Stress axis : x y z
#
# Youngs Moduli (GPa) = 93.74668 51.95063 24.53741
#
# Poissons Ratio (x) = 0.05908 0.13716
# Poissons Ratio (y) = 0.10661 0.33670
# Poissons Ratio (z) = 0.52403 0.71287
#
# Static dielectric constant tensor:
#      x y z
#    x 4.829810 1.690110 0.561710 
#    y 1.690110 11.153650 1.631700 
#    z 0.561710 1.631700 4.049530 
# 
# 
# High freq. dielectric constant tensor:
#      x y z
#    x 1.872750 -0.000470 -0.002500 
#    y -0.000470 1.877180 -0.000700 
#    z -0.002500 -0.000700 1.825770 
# 
# From -- ./inp_files/389389.got.cif
#   From: 2010.06.25/outbox.cif.g09.slc.cpg/sg2_195_cif.got.tgz:389389.got - 2010.06.27 13:26:56.
