data_PCOD8005722
_publ_section_title
;
Structure prediction by ZEFSAII (Michael W. Deem and Ramdas Pophale) SiO2 
 PCOD8005722
Probable space group: P -1
;
_chemical_formula_sum "Si O2"
_cell_formula_units_Z 14
_cell_length_a 8.634488
_cell_length_b 12.212529
_cell_length_c 9.402129
_cell_angle_alpha 77.695127
_cell_angle_beta 69.163083
_cell_angle_gamma 121.614188
_cell_volume 682.439649
_symmetry_space_group_name_H-M "P -1"
_symmetry_group_IT_number 2
_symmetry_cell_setting 'triclinic'
loop_
_space_group_symop_operation_xyz
x,y,z
-x,-y,-z
loop_
_atom_site_type_symbol
_atom_site_label
_atom_site_fract_x
_atom_site_fract_y
_atom_site_fract_z
Si Si1 0.274212 0.766834 0.568757
Si Si2 0.297406 0.028834 0.458130
Si Si3 0.578046 0.386838 0.554254
Si Si4 0.218342 0.311917 0.503295
Si Si5 0.376854 0.307599 0.939065
Si Si6 0.078971 0.019282 0.268007
Si Si7 0.201275 0.404205 0.179010
O O1 0.452902 0.838142 0.615223
O O2 0.322552 0.693693 0.455042
O O3 0.033284 0.639221 0.748432
O O4 0.277682 0.889859 0.458096
O O5 0.234223 0.086242 0.338015
O O6 0.122479 0.980864 0.653891
O O7 0.448359 0.353065 0.458870
O O8 0.780268 0.564099 0.459232
O O9 0.403635 0.327485 0.755501
O O10 0.203488 0.316902 0.335650
O O11 0.017031 0.148638 0.676656
O O12 0.618310 0.418042 0.903314
O O13 0.241007 0.132404 0.058983
O O14 0.246024 0.355828 0.032884
#
# Coordination Sequence:
#
# PCOD8005722 Si02
#       7
#     2   2   2   2   2   2   2
#     4  11  20  38  62  92 118 154 203 252 286 352
#     4  10  21  34  65  92 113 158 210 237 287 362
#     4  10  23  38  62  90 123 149 205 247 298 342
#     4  10  20  39  62  87 112 170 202 229 280 385
#     4  10  22  36  61  93 119 157 196 247 299 352
#     4  11  18  39  63  88 114 161 200 242 280 373
#     4  10  20  40  65  83 120 160 209 233 289 361
#
# _framework density 20.514633
#
# number of rings (size 3 to 8) (size 9 to 14) (size 15 to 20)
#    0.000    1.714    4.286    0.857    0.000    2.857 
#    0.000    1.429    3.143    0.000    0.000    0.000 
#    0.000    0.000    0.000    0.000    0.000    0.000 
#
# Total GULP energy -173497.525988 kJ/mol
# GULP energy per Si atom -12392.680428 kJ/mol
# Density = 2.046794 g / cm^3
# Si number density = 20.514633 Si / 1000 Ang^3
#
#
#
# Elastic Constant Matrix: (Units=GPa)
#
#
# Indices 1 2 3 4 5 6 
#
# 1 113.1436 43.4775 38.6348 3.8546 -20.6025 3.2965
# 2 43.4775 120.8776 54.6246 -22.6585 -12.1471 -14.2044
# 3 38.6348 54.6246 85.7512 -12.0736 -15.4769 0.2566
# 4 3.8546 -22.6585 -12.0736 40.8961 -0.8157 -4.6679
# 5 -20.6025 -12.1471 -15.4769 -0.8157 22.5079 -4.9696
# 6 3.2965 -14.2044 0.2566 -4.6679 -4.9696 34.3666
#
#
#
# Elastic Compliance Matrix: (Units=1/GPa)
#
#
# Indices 1 2 3 4 5 6 
#
# 1 0.012661 -0.003677 -0.002648 -0.004126 0.007140 -0.002242
# 2 -0.003677 0.015198 -0.006509 0.007818 0.002431 0.008097
# 3 -0.002648 -0.006509 0.018479 0.002076 0.006548 -0.001346
# 4 -0.004126 0.007818 0.002076 0.030853 0.004866 0.008506
# 5 0.007140 0.002431 0.006548 0.004866 0.059046 0.009471
# 6 -0.002242 0.008097 -0.001346 0.008506 0.009471 0.035194
#
#
# Mechanical properties :
#
#
# Convention : Reuss Voigt Hill
#
# Bulk Modulus (GPa) = 48.37810 65.91624 57.14717
# Shear Modulus (GPa) = 24.51076 31.75649 28.13363
#
# Velocity S-wave (km/s) = 3.46033 3.93872 3.70725
# Velocity P-wave (km/s) = 6.29274 7.27226 6.80016
#
# Compressibility (1/GPa) = 0.02067051
#
# Stress axis : x y z
#
# Youngs Moduli (GPa) = 78.98015 65.79699 54.11444
#
# Poissons Ratio (x) = 0.24193 0.14329
# Poissons Ratio (y) = 0.29040 0.35226
# Poissons Ratio (z) = 0.20913 0.42830
#
# Static dielectric constant tensor:
#      x y z
#    x 3.655140 0.127260 -0.107920 
#    y 0.127260 3.999060 -0.214760 
#    z -0.107920 -0.214760 3.469680 
# 
# 
# High freq. dielectric constant tensor:
#      x y z
#    x 1.789220 0.010550 -0.004060 
#    y 0.010550 1.822450 -0.017060 
#    z -0.004060 -0.017060 1.760260 
# 
# From -- ./inp_files/177588.got.cif
#   From: 2010.06.25/outbox.cif.g09.slc.cpg/sg2_89_cif.got.tgz:177588.got - 2010.06.27 13:26:56.
