data_PCOD8005633
_publ_section_title
;
Structure prediction by ZEFSAII (Michael W. Deem and Ramdas Pophale) SiO2 
 PCOD8005633
Probable space group: P -1
;
_chemical_formula_sum "Si O2"
_cell_formula_units_Z 16
_cell_length_a 15.516534
_cell_length_b 9.429793
_cell_length_c 13.286914
_cell_angle_alpha 133.108142
_cell_angle_beta 140.783387
_cell_angle_gamma 67.704199
_cell_volume 848.626896
_symmetry_space_group_name_H-M "P -1"
_symmetry_group_IT_number 2
_symmetry_cell_setting 'triclinic'
loop_
_space_group_symop_operation_xyz
x,y,z
-x,-y,-z
loop_
_atom_site_type_symbol
_atom_site_label
_atom_site_fract_x
_atom_site_fract_y
_atom_site_fract_z
Si Si1 0.048214 0.307776 0.928213
Si Si2 0.415818 0.762733 0.058777
Si Si3 0.369422 0.361201 0.943578
Si Si4 0.104071 0.043714 0.021346
Si Si5 0.577485 0.813798 0.666532
Si Si6 0.638008 0.592918 0.807992
Si Si7 0.101757 0.728204 0.707822
Si Si8 0.942541 0.935230 0.525096
O O1 0.066574 0.215336 0.006888
O O2 0.195546 0.386735 0.037207
O O3 0.931278 0.133424 0.672132
O O4 0.000000 0.500000 0.000000
O O5 0.523894 0.743037 0.060942
O O6 0.473001 0.986407 0.271345
O O7 0.402979 0.596406 0.054198
O O8 0.265902 0.735100 0.852958
O O9 0.210286 0.240388 0.700990
O O10 0.391102 0.348496 0.076611
O O11 0.275972 0.131998 0.241350
O O12 0.070909 0.825612 0.830863
O O13 0.000000 0.000000 0.000000
O O14 0.602222 0.744811 0.768908
O O15 0.455433 0.641129 0.413504
O O16 0.000000 0.500000 0.500000
O O17 0.066069 0.858209 0.648523
O O18 0.000000 0.000000 0.500000
#
# Coordination Sequence:
#
# PCOD8005633 Si02
#       8
#     2   2   2   2   2   2   2   2
#     4  10  22  37  58  85 117 150 193 241 290 346
#     4  10  23  40  59  90 122 154 197 244 294 355
#     4  11  23  39  61  90 123 152 198 249 295 350
#     4   9  20  37  58  84 114 149 194 239 281 347
#     4   9  21  41  61  83 119 157 197 241 292 351
#     4  10  21  41  61  85 118 157 196 244 293 347
#     4  10  20  39  61  84 119 157 192 237 295 353
#     4  11  22  40  61  89 120 155 195 249 297 345
#
# _framework density 18.853985999999999
#
# number of rings (size 3 to 8) (size 9 to 14) (size 15 to 20)
#    0.000    2.000    2.500    0.750    1.750    5.000 
#    2.250    0.000    0.000    0.000    0.000    0.000 
#    0.000    0.000    0.000    0.000    0.000    0.000 
#
# Total GULP energy -198392.959544 kJ/mol
# GULP energy per Si atom -12399.559971 kJ/mol
# Density = 1.881107 g / cm^3
# Si number density = 18.853986 Si / 1000 Ang^3
#
#
#
# Elastic Constant Matrix: (Units=GPa)
#
#
# Indices 1 2 3 4 5 6 
#
# 1 141.4567 52.0350 34.2869 -1.9297 1.4942 5.4091
# 2 52.0350 81.9461 26.3867 14.9689 -3.2056 -14.0337
# 3 34.2869 26.3867 91.8174 11.7055 2.5069 0.0323
# 4 -1.9297 14.9689 11.7055 35.4036 2.4829 -2.2308
# 5 1.4942 -3.2056 2.5069 2.4829 21.6877 0.8543
# 6 5.4091 -14.0337 0.0323 -2.2308 0.8543 29.0507
#
#
#
# Elastic Compliance Matrix: (Units=1/GPa)
#
#
# Indices 1 2 3 4 5 6 
#
# 1 0.010856 -0.008002 -0.002275 0.004520 -0.001969 -0.005480
# 2 -0.008002 0.021655 -0.002286 -0.008451 0.004544 0.011171
# 3 -0.002275 -0.002286 0.012863 -0.003381 -0.001245 -0.000918
# 4 0.004520 -0.008451 -0.003381 0.033388 -0.004905 -0.002212
# 5 -0.001969 0.004544 -0.001245 -0.004905 0.047591 0.000787
# 6 -0.005480 0.011171 -0.000918 -0.002212 0.000787 0.040647
#
#
# Mechanical properties :
#
#
# Convention : Reuss Voigt Hill
#
# Bulk Modulus (GPa) = 49.38581 60.07081 54.72831
# Shear Modulus (GPa) = 25.14139 30.72918 27.93529
#
# Velocity S-wave (km/s) = 3.65564 4.04152 3.85342
# Velocity P-wave (km/s) = 6.63845 7.32863 6.99206
#
# Compressibility (1/GPa) = 0.02024873
#
# Stress axis : x y z
#
# Youngs Moduli (GPa) = 92.11200 46.17856 77.74324
#
# Poissons Ratio (x) = 0.36953 0.17686
# Poissons Ratio (y) = 0.73711 0.17769
# Poissons Ratio (z) = 0.20954 0.10555
#
# Static dielectric constant tensor:
#      x y z
#    x 3.410070 -0.060450 0.330870 
#    y -0.060450 3.620730 -0.139600 
#    z 0.330870 -0.139600 4.711270 
# 
# 
# High freq. dielectric constant tensor:
#      x y z
#    x 1.727360 0.000830 0.005490 
#    y 0.000830 1.737950 0.012860 
#    z 0.005490 0.012860 1.742250 
# 
# From -- ./inp_files/179264.got.cif
#   From: 2010.06.25/outbox.cif.g09.slc.cpg/sg2_90_cif.got.tgz:179264.got - 2010.06.27 13:26:56.
