data_PCOD8005096
_publ_section_title
;
Structure prediction by ZEFSAII (Michael W. Deem and Ramdas Pophale) SiO2 
 PCOD8005096
Probable space group: P -1
;
_chemical_formula_sum "Si O2"
_cell_formula_units_Z 14
_cell_length_a 10.704037
_cell_length_b 12.412604
_cell_length_c 8.778649
_cell_angle_alpha 141.641200
_cell_angle_beta 120.399119
_cell_angle_gamma 68.467279
_cell_volume 623.356537
_symmetry_space_group_name_H-M "P -1"
_symmetry_group_IT_number 2
_symmetry_cell_setting 'triclinic'
loop_
_space_group_symop_operation_xyz
x,y,z
-x,-y,-z
loop_
_atom_site_type_symbol
_atom_site_label
_atom_site_fract_x
_atom_site_fract_y
_atom_site_fract_z
Si Si1 0.298166 0.017472 0.285834
Si Si2 0.050237 0.134268 0.450857
Si Si3 0.493066 0.744787 0.154492
Si Si4 0.609716 0.415387 0.779764
Si Si5 0.054636 0.521716 0.890980
Si Si6 0.138561 0.174890 0.895034
Si Si7 0.424432 0.155874 0.204652
O O1 0.133417 0.035163 0.258002
O O2 0.387834 0.097092 0.574672
O O3 0.334393 0.108207 0.249080
O O4 0.342447 0.816347 0.077429
O O5 0.025520 0.329049 0.583485
O O6 0.133205 0.157241 0.689183
O O7 0.905461 0.012381 0.260320
O O8 0.477814 0.656740 0.210311
O O9 0.558492 0.608593 0.926555
O O10 0.558049 0.296778 0.473316
O O11 0.777898 0.413215 0.923890
O O12 0.000000 0.500000 0.000000
O O13 0.963123 0.675947 0.934131
O O14 0.305099 0.228784 0.098003
O O15 0.500000 0.000000 0.000000
#
# Coordination Sequence:
#
# PCOD8005096 Si02
#       7
#     2   2   2   2   2   2   2
#     4  10  20  38  64  94 121 166 217 256 310 381
#     4  10  21  41  71  88 123 171 227 249 301 389
#     4   9  19  34  66  92 120 161 212 263 307 375
#     4  10  20  40  63  94 125 157 212 266 314 369
#     4  10  21  38  66  94 118 167 220 254 302 383
#     4  10  24  42  63  94 130 169 206 265 321 365
#     4  11  27  41  60  94 137 162 199 270 334 365
#
# _framework density 22.459057999999999
#
# number of rings (size 3 to 8) (size 9 to 14) (size 15 to 20)
#    0.000    2.000    1.429    0.857   12.000    0.571 
#    2.571    4.286    0.000    0.000    0.000    0.000 
#    0.000    0.000    0.000    0.000    0.000    0.000 
#
# Total GULP energy -173433.028850 kJ/mol
# GULP energy per Si atom -12388.073489 kJ/mol
# Density = 2.240794 g / cm^3
# Si number density = 22.459058 Si / 1000 Ang^3
#
#
#
# Elastic Constant Matrix: (Units=GPa)
#
#
# Indices 1 2 3 4 5 6 
#
# 1 91.5337 24.2154 27.2482 9.1997 -12.6270 -21.9693
# 2 24.2154 67.6346 43.3284 17.1241 0.8140 -29.0037
# 3 27.2482 43.3284 91.3545 20.2393 3.2879 -22.6697
# 4 9.1997 17.1241 20.2393 24.4021 -1.0797 -8.2877
# 5 -12.6270 0.8140 3.2879 -1.0797 32.3023 2.6103
# 6 -21.9693 -29.0037 -22.6697 -8.2877 2.6103 46.1331
#
#
#
# Elastic Compliance Matrix: (Units=1/GPa)
#
#
# Indices 1 2 3 4 5 6 
#
# 1 0.013824 -0.001620 -0.002464 -0.000446 0.005360 0.003971
# 2 -0.001620 0.027257 -0.007764 -0.008368 -0.001710 0.011143
# 3 -0.002464 -0.007764 0.017534 -0.007848 -0.002921 0.001317
# 4 -0.000446 -0.008368 -0.007848 0.053703 0.002617 0.000170
# 5 0.005360 -0.001710 -0.002921 0.002617 0.033593 -0.001389
# 6 0.003971 0.011143 0.001317 0.000170 -0.001389 0.031329
#
#
# Mechanical properties :
#
#
# Convention : Reuss Voigt Hill
#
# Bulk Modulus (GPa) = 28.63674 48.90077 38.76875
# Shear Modulus (GPa) = 23.52109 30.94956 27.23532
#
# Velocity S-wave (km/s) = 3.23969 3.71623 3.48611
# Velocity P-wave (km/s) = 5.17421 6.34306 5.78821
#
# Compressibility (1/GPa) = 0.03492018
#
# Stress axis : x y z
#
# Youngs Moduli (GPa) = 72.33733 36.68808 57.03160
#
# Poissons Ratio (x) = 0.05944 0.14051
# Poissons Ratio (y) = 0.11719 0.44277
# Poissons Ratio (z) = 0.17822 0.28483
#
# Static dielectric constant tensor:
#      x y z
#    x 4.029100 -0.358730 -0.313700 
#    y -0.358730 4.462230 0.856270 
#    z -0.313700 0.856270 4.636860 
# 
# 
# High freq. dielectric constant tensor:
#      x y z
#    x 1.889670 -0.006170 -0.007160 
#    y -0.006170 1.866820 0.026810 
#    z -0.007160 0.026810 1.871610 
# 
# From -- ./inp_files/261197.got.cif
#   From: 2010.06.25/outbox.cif.g09.slc.cpg/sg2_131_cif.got.tgz:261197.got - 2010.06.27 13:26:56.
