data_PCOD8005029
_publ_section_title
;
Structure prediction by ZEFSAII (Michael W. Deem and Ramdas Pophale) SiO2 
 PCOD8005029
Probable space group: P -1
;
_chemical_formula_sum "Si O2"
_cell_formula_units_Z 16
_cell_length_a 10.911953
_cell_length_b 5.209843
_cell_length_c 16.563110
_cell_angle_alpha 94.270543
_cell_angle_beta 124.423449
_cell_angle_gamma 72.076613
_cell_volume 733.055578
_symmetry_space_group_name_H-M "P -1"
_symmetry_group_IT_number 2
_symmetry_cell_setting 'triclinic'
loop_
_space_group_symop_operation_xyz
x,y,z
-x,-y,-z
loop_
_atom_site_type_symbol
_atom_site_label
_atom_site_fract_x
_atom_site_fract_y
_atom_site_fract_z
Si Si1 0.350781 0.348283 0.020723
Si Si2 0.295395 0.855308 0.905125
Si Si3 0.404790 0.357910 0.217968
Si Si4 0.716196 0.405081 0.662054
Si Si5 0.002192 0.007682 0.313356
Si Si6 0.610338 0.750053 0.312551
Si Si7 0.590427 0.732559 0.481869
Si Si8 0.953474 0.558481 0.391718
O O1 0.538930 0.248903 0.081042
O O2 0.306894 0.414358 0.099668
O O3 0.271006 0.619082 0.946022
O O4 0.281187 0.116770 0.960529
O O5 0.162043 0.938743 0.790530
O O6 0.278101 0.447949 0.246705
O O7 0.526687 0.523804 0.266735
O O8 0.494479 0.037753 0.247902
O O9 0.731203 0.567753 0.589876
O O10 0.537361 0.408898 0.592438
O O11 0.855206 0.118259 0.700738
O O12 0.014140 0.797599 0.386343
O O13 0.023964 0.282625 0.360484
O O14 0.665893 0.778475 0.426369
O O15 0.764790 0.658387 0.313197
O O16 0.500000 0.000000 0.500000
O O17 0.000000 0.500000 0.500000
#
# Coordination Sequence:
#
# PCOD8005029 Si02
#       8
#     2   2   2   2   2   2   2   2
#     4  10  20  38  64  87 118 150 210 255 305 365
#     4  10  21  39  62  89 117 161 196 253 312 366
#     4  11  22  39  63  93 117 157 206 267 302 353
#     4  10  24  38  61  90 124 167 208 250 304 365
#     4  12  26  43  62  91 133 165 203 247 315 376
#     4  11  22  37  62  89 123 155 213 256 305 354
#     4  10  20  39  62  85 118 166 212 252 288 352
#     4  12  26  40  61  91 127 168 200 251 306 363
#
# _framework density 21.826450999999999
#
# number of rings (size 3 to 8) (size 9 to 14) (size 15 to 20)
#    0.000    1.250    1.250    4.875    3.500    2.000 
#    0.000    1.250    0.000    0.000    0.000    0.000 
#    0.000    0.000    0.000    0.000    0.000    0.000 
#
# Total GULP energy -198384.082752 kJ/mol
# GULP energy per Si atom -12399.005172 kJ/mol
# Density = 2.177677 g / cm^3
# Si number density = 21.826451 Si / 1000 Ang^3
#
#
#
# Elastic Constant Matrix: (Units=GPa)
#
#
# Indices 1 2 3 4 5 6 
#
# 1 49.5941 18.5483 13.9631 -6.0328 -5.4069 -3.8146
# 2 18.5483 92.7620 34.9462 -0.4992 -7.2973 -2.9073
# 3 13.9631 34.9462 104.6196 7.5804 -21.2415 -9.6172
# 4 -6.0328 -0.4992 7.5804 34.0257 -0.2997 -0.0136
# 5 -5.4069 -7.2973 -21.2415 -0.2997 30.8057 -1.8503
# 6 -3.8146 -2.9073 -9.6172 -0.0136 -1.8503 29.2768
#
#
#
# Elastic Compliance Matrix: (Units=1/GPa)
#
#
# Indices 1 2 3 4 5 6 
#
# 1 0.022936 -0.003767 -0.001436 0.004353 0.002323 0.002291
# 2 -0.003767 0.012994 -0.003990 0.000408 -0.000362 -0.000534
# 3 -0.001436 -0.003990 0.013394 -0.003222 0.008267 0.004337
# 4 0.004353 0.000408 -0.003222 0.030875 -0.001091 -0.000506
# 5 0.002323 -0.000362 0.008267 -0.001091 0.038800 0.005434
# 6 0.002291 -0.000534 0.004337 -0.000506 0.005434 0.036170
#
#
# Mechanical properties :
#
#
# Convention : Reuss Voigt Hill
#
# Bulk Modulus (GPa) = 32.32327 42.43236 37.37781
# Shear Modulus (GPa) = 27.19365 30.78950 28.99157
#
# Velocity S-wave (km/s) = 3.53356 3.75994 3.64851
# Velocity P-wave (km/s) = 5.61155 6.19133 5.90855
#
# Compressibility (1/GPa) = 0.03093747
#
# Stress axis : x y z
#
# Youngs Moduli (GPa) = 43.59975 76.96128 74.66302
#
# Poissons Ratio (x) = 0.28993 0.10720
# Poissons Ratio (y) = 0.16425 0.29788
# Poissons Ratio (z) = 0.06260 0.30705
#
# Static dielectric constant tensor:
#      x y z
#    x 7.127290 0.156110 3.275700 
#    y 0.156110 4.134730 0.253480 
#    z 3.275700 0.253480 8.116640 
# 
# 
# High freq. dielectric constant tensor:
#      x y z
#    x 1.844830 -0.001570 -0.016070 
#    y -0.001570 1.871660 0.000870 
#    z -0.016070 0.000870 1.855720 
# 
# From -- ./inp_files/71259.got.cif
#   From: 2010.06.25/outbox.cif.g09.slc.cpg/sg2_36_cif.got.tgz:71259.got - 2010.06.27 13:26:56.
