data_PCOD8005862
_publ_section_title
;
Structure prediction by ZEFSAII (Michael W. Deem and Ramdas Pophale) SiO2 
 PCOD8005862
Probable space group: P -1
;
_chemical_formula_sum "Si O2"
_cell_formula_units_Z 16
_cell_length_a 8.454737
_cell_length_b 13.299996
_cell_length_c 19.145046
_cell_angle_alpha 37.702703
_cell_angle_beta 50.028879
_cell_angle_gamma 76.924225
_cell_volume 805.874817
_symmetry_space_group_name_H-M "P -1"
_symmetry_group_IT_number 2
_symmetry_cell_setting 'triclinic'
loop_
_space_group_symop_operation_xyz
x,y,z
-x,-y,-z
loop_
_atom_site_type_symbol
_atom_site_label
_atom_site_fract_x
_atom_site_fract_y
_atom_site_fract_z
Si Si1 0.543892 0.665605 0.111665
Si Si2 0.465639 0.843756 0.538952
Si Si3 0.416043 0.015262 0.169789
Si Si4 0.280844 0.305846 0.624535
Si Si5 0.919575 0.564453 0.054104
Si Si6 0.400604 0.992439 0.735288
Si Si7 0.184842 0.285500 0.508595
Si Si8 0.705891 0.994958 0.988354
O O1 0.718785 0.606118 0.061915
O O2 0.275831 0.462542 0.328597
O O3 0.702841 0.815311 0.051023
O O4 0.478802 0.763849 0.014993
O O5 0.213175 0.615254 0.751826
O O6 0.428028 0.906651 0.438779
O O7 0.723462 0.854264 0.461617
O O8 0.500000 0.000000 0.500000
O O9 0.434466 0.023139 0.243832
O O10 0.592268 0.949919 0.124385
O O11 0.120774 0.855047 0.319154
O O12 0.500000 0.500000 0.500000
O O13 0.317538 0.128330 0.713634
O O14 0.304630 0.385992 0.494984
O O15 0.995175 0.207954 0.789686
O O16 0.000000 0.500000 0.000000
O O17 0.159317 0.762179 0.914531
O O18 0.500000 0.000000 0.000000
#
# Coordination Sequence:
#
# PCOD8005862 Si02
#       8
#     2   2   2   2   2   2   2   2
#     4  10  21  40  65  90 126 170 222 255 321 398
#     4  10  21  40  70  94 118 164 221 267 326 391
#     4  11  24  40  62  91 139 171 208 271 326 389
#     4  11  23  41  65  99 134 173 224 273 315 379
#     4  11  21  40  74  91 118 168 216 272 328 381
#     4  11  24  41  62  98 130 162 218 271 320 385
#     4  10  22  40  64  91 128 174 212 268 327 383
#     4  10  20  39  63  90 129 178 215 254 321 390
#
# _framework density 19.854201
#
# number of rings (size 3 to 8) (size 9 to 14) (size 15 to 20)
#    0.000    1.500    5.000    0.750    1.750    7.000 
#    0.000    1.250    0.000    0.000    0.000    0.000 
#    0.000    0.000    0.000    0.000    0.000    0.000 
#
# Total GULP energy -198362.186783 kJ/mol
# GULP energy per Si atom -12397.636674 kJ/mol
# Density = 1.980901 g / cm^3
# Si number density = 19.854201 Si / 1000 Ang^3
#
#
#
# Elastic Constant Matrix: (Units=GPa)
#
#
# Indices 1 2 3 4 5 6 
#
# 1 97.6515 52.1464 59.1085 6.1018 11.9575 17.9518
# 2 52.1464 138.5234 61.8015 4.9892 -2.6331 1.8900
# 3 59.1085 61.8015 135.5994 5.6543 4.8022 3.9246
# 4 6.1018 4.9892 5.6543 36.7341 3.8867 -2.2992
# 5 11.9575 -2.6331 4.8022 3.8867 41.9812 6.4704
# 6 17.9518 1.8900 3.9246 -2.2992 6.4704 26.1993
#
#
#
# Elastic Compliance Matrix: (Units=1/GPa)
#
#
# Indices 1 2 3 4 5 6 
#
# 1 0.018383 -0.004277 -0.005560 -0.001980 -0.003007 -0.010886
# 2 -0.004277 0.010125 -0.002867 -0.000288 0.001878 0.002141
# 3 -0.005560 -0.002867 0.011052 -0.000216 -0.000209 0.002394
# 4 -0.001980 -0.000288 -0.000216 0.028200 -0.002743 0.004562
# 5 -0.003007 0.001878 -0.000209 -0.002743 0.025790 -0.004654
# 6 -0.010886 0.002141 0.002394 0.004562 -0.004654 0.046665
#
#
# Mechanical properties :
#
#
# Convention : Reuss Voigt Hill
#
# Bulk Modulus (GPa) = 70.65734 79.76525 75.21130
# Shear Modulus (GPa) = 29.35337 34.23078 31.79207
#
# Velocity S-wave (km/s) = 3.84923 4.15674 4.00594
# Velocity P-wave (km/s) = 7.44451 7.95618 7.70459
#
# Compressibility (1/GPa) = 0.01415281
#
# Stress axis : x y z
#
# Youngs Moduli (GPa) = 54.39834 98.76691 90.48243
#
# Poissons Ratio (x) = 0.42243 0.50306
# Poissons Ratio (y) = 0.23266 0.25938
# Poissons Ratio (z) = 0.30244 0.28313
#
# Static dielectric constant tensor:
#      x y z
#    x 3.415830 -0.041920 0.133080 
#    y -0.041920 3.968780 0.136250 
#    z 0.133080 0.136250 3.812350 
# 
# 
# High freq. dielectric constant tensor:
#      x y z
#    x 1.750180 -0.005430 0.006900 
#    y -0.005430 1.775980 0.009070 
#    z 0.006900 0.009070 1.790100 
# 
# From -- ./inp_files/452466.got.cif
#   From: 2010.06.25/outbox.cif.g09.slc.cpg/sg2_227_cif.got.tgz:452466.got - 2010.06.27 13:26:56.
