data_PCOD8005322
_publ_section_title
;
Structure prediction by ZEFSAII (Michael W. Deem and Ramdas Pophale) SiO2 
 PCOD8005322
Probable space group: P -1
;
_chemical_formula_sum "Si O2"
_cell_formula_units_Z 14
_cell_length_a 9.285927
_cell_length_b 11.289199
_cell_length_c 8.842674
_cell_angle_alpha 106.011796
_cell_angle_beta 59.276900
_cell_angle_gamma 61.445149
_cell_volume 507.477672
_symmetry_space_group_name_H-M "P -1"
_symmetry_group_IT_number 2
_symmetry_cell_setting 'triclinic'
loop_
_space_group_symop_operation_xyz
x,y,z
-x,-y,-z
loop_
_atom_site_type_symbol
_atom_site_label
_atom_site_fract_x
_atom_site_fract_y
_atom_site_fract_z
Si Si1 0.629914 0.542127 0.201508
Si Si2 0.161192 0.823328 0.731765
Si Si3 0.442103 0.687910 0.827837
Si Si4 0.098069 0.517905 0.669332
Si Si5 0.153675 0.089492 0.822567
Si Si6 0.282404 0.163403 0.513463
Si Si7 0.464167 0.202713 0.909642
O O1 0.351848 0.658223 0.455983
O O2 0.703167 0.359102 0.057465
O O3 0.812998 0.495889 0.213833
O O4 0.596915 0.651731 0.119734
O O5 0.318167 0.802756 0.778405
O O6 0.044670 0.015523 0.793426
O O7 0.976404 0.820456 0.906585
O O8 0.741800 0.506657 0.560055
O O9 0.405752 0.813238 0.017256
O O10 0.127946 0.351915 0.572197
O O11 0.802392 0.715458 0.881182
O O12 0.099222 0.229098 0.779107
O O13 0.458017 0.917699 0.597216
O O14 0.342443 0.006430 0.330619
#
# Coordination Sequence:
#
# PCOD8005322 Si02
#       7
#     2   2   2   2   2   2   2
#     4  11  22  43  67  96 131 176 231 275 314 400
#     4  10  20  40  65  94 130 171 228 266 330 381
#     4  11  25  43  62 101 142 171 222 272 336 406
#     4  11  24  46  69 100 128 180 231 270 325 394
#     4  10  20  38  66  99 126 169 223 285 310 387
#     4  11  22  42  69  98 135 162 230 274 324 397
#     4  12  26  43  68  99 140 180 208 278 348 384
#
# _framework density 27.587420000000002
#
# number of rings (size 3 to 8) (size 9 to 14) (size 15 to 20)
#    0.000    1.143    4.286    3.857    6.000    0.571 
#    0.000    2.143    0.000    0.000    0.000    0.000 
#    0.000    0.000    0.000    0.000    0.000    0.000 
#
# Total GULP energy -173438.614507 kJ/mol
# GULP energy per Si atom -12388.472465 kJ/mol
# Density = 2.752463 g / cm^3
# Si number density = 27.587420 Si / 1000 Ang^3
#
#
#
# Elastic Constant Matrix: (Units=GPa)
#
#
# Indices 1 2 3 4 5 6 
#
# 1 94.0228 23.5132 30.6723 -18.2337 7.8966 28.4122
# 2 23.5132 95.5884 -6.2577 -2.0137 3.7254 33.4598
# 3 30.6723 -6.2577 100.4387 -9.8511 -13.6935 18.8674
# 4 -18.2337 -2.0137 -9.8511 39.4576 11.0501 -7.0510
# 5 7.8966 3.7254 -13.6935 11.0501 49.0843 -5.5021
# 6 28.4122 33.4598 18.8674 -7.0510 -5.5021 33.5706
#
#
#
# Elastic Compliance Matrix: (Units=1/GPa)
#
#
# Indices 1 2 3 4 5 6 
#
# 1 0.017360 0.000563 -0.003028 0.006807 -0.006695 -0.013219
# 2 0.000563 0.018439 0.004705 -0.000884 -0.002455 -0.022087
# 3 -0.003028 0.004705 0.013259 -0.000290 0.002867 -0.009169
# 4 0.006807 -0.000884 -0.000290 0.030679 -0.007969 0.000420
# 5 -0.006695 -0.002455 0.002867 -0.007969 0.025235 0.008964
# 6 -0.013219 -0.022087 -0.009169 0.000420 0.008964 0.069701
#
#
# Mechanical properties :
#
#
# Convention : Reuss Voigt Hill
#
# Bulk Modulus (GPa) = 18.67853 42.87838 30.77845
# Shear Modulus (GPa) = 26.59023 40.56397 33.57710
#
# Velocity S-wave (km/s) = 3.10797 3.83871 3.49250
# Velocity P-wave (km/s) = 4.43448 5.93499 5.23874
#
# Compressibility (1/GPa) = 0.05353740
#
# Stress axis : x y z
#
# Youngs Moduli (GPa) = 57.60448 54.23148 75.42061
#
# Poissons Ratio (x) = -0.03054 0.22838
# Poissons Ratio (y) = -0.03244 -0.35483
# Poissons Ratio (z) = 0.17443 -0.25514
#
# Static dielectric constant tensor:
#      x y z
#    x 4.836750 0.298570 -0.534580 
#    y 0.298570 5.054390 0.150930 
#    z -0.534580 0.150930 5.672620 
# 
# 
# High freq. dielectric constant tensor:
#      x y z
#    x 2.083210 0.043340 -0.036700 
#    y 0.043340 2.118640 0.016240 
#    z -0.036700 0.016240 2.143230 
# 
# From -- ./inp_files/189009.got.cif
#   From: 2010.06.25/outbox.cif.g09.slc.cpg/sg2_95_cif.got.tgz:189009.got - 2010.06.27 13:26:56.
