data_PCOD8005571
_publ_section_title
;
Structure prediction by ZEFSAII (Michael W. Deem and Ramdas Pophale) SiO2 
 PCOD8005571
Probable space group: P -1
;
_chemical_formula_sum "Si O2"
_cell_formula_units_Z 14
_cell_length_a 25.636759
_cell_length_b 7.597233
_cell_length_c 6.466644
_cell_angle_alpha 62.359350
_cell_angle_beta 61.901709
_cell_angle_gamma 35.422145
_cell_volume 636.008109
_symmetry_space_group_name_H-M "P -1"
_symmetry_group_IT_number 2
_symmetry_cell_setting 'triclinic'
loop_
_space_group_symop_operation_xyz
x,y,z
-x,-y,-z
loop_
_atom_site_type_symbol
_atom_site_label
_atom_site_fract_x
_atom_site_fract_y
_atom_site_fract_z
Si Si1 0.297208 0.662113 0.638954
Si Si2 0.202899 0.734885 0.393470
Si Si3 0.622160 0.218956 0.038789
Si Si4 0.264331 0.362739 0.101176
Si Si5 0.478456 0.286154 0.356710
Si Si6 0.896162 0.276957 0.108367
Si Si7 0.804088 0.895085 0.080756
O O1 0.278302 0.647403 0.444935
O O2 0.391303 0.547839 0.527524
O O3 0.209950 0.008234 0.704713
O O4 0.314274 0.425603 0.877046
O O5 0.248853 0.439200 0.333476
O O6 0.123918 0.847944 0.624546
O O7 0.159685 0.009323 0.170779
O O8 0.566105 0.199292 0.291232
O O9 0.701143 0.103450 0.095598
O O10 0.553537 0.566996 0.896715
O O11 0.670302 0.992254 0.870765
O O12 0.166400 0.580359 0.054851
O O13 0.500000 0.000000 0.500000
O O14 0.877218 0.533579 0.119847
O O15 0.000000 0.000000 0.000000
#
# Coordination Sequence:
#
# PCOD8005571 Si02
#       7
#     2   2   2   2   2   2   2
#     4  10  20  39  60  85 120 164 200 238 297 348
#     4  10  21  40  62  84 121 160 191 247 295 348
#     4  10  21  37  58  89 118 159 204 243 292 346
#     4   9  20  40  62  86 119 160 202 235 300 361
#     4  11  21  36  59  88 126 154 201 252 286 340
#     4  10  23  40  63  94 118 148 200 248 297 361
#     4  10  22  39  63  88 116 161 202 235 301 363
#
# _framework density 22.012298000000001
#
# number of rings (size 3 to 8) (size 9 to 14) (size 15 to 20)
#    0.000    2.000    2.857    0.000    2.000    1.714 
#    0.000   10.714    0.000    0.000    0.000    0.000 
#    0.000    0.000    0.000    0.000    0.000    0.000 
#
# Total GULP energy -173514.148213 kJ/mol
# GULP energy per Si atom -12393.867730 kJ/mol
# Density = 2.196220 g / cm^3
# Si number density = 22.012298 Si / 1000 Ang^3
#
#
#
# Elastic Constant Matrix: (Units=GPa)
#
#
# Indices 1 2 3 4 5 6 
#
# 1 70.7940 41.6854 38.0299 12.0723 -3.3516 8.7120
# 2 41.6854 111.3105 48.0397 8.3207 -9.9555 5.5947
# 3 38.0299 48.0397 91.5755 19.3332 -7.0803 -1.0257
# 4 12.0723 8.3207 19.3332 34.3363 8.3740 -4.7428
# 5 -3.3516 -9.9555 -7.0803 8.3740 41.8327 9.8747
# 6 8.7120 5.5947 -1.0257 -4.7428 9.8747 33.6686
#
#
#
# Elastic Compliance Matrix: (Units=1/GPa)
#
#
# Indices 1 2 3 4 5 6 
#
# 1 0.021531 -0.004944 -0.005247 -0.004780 0.002079 -0.006193
# 2 -0.004944 0.013148 -0.004794 0.000488 0.002209 -0.001630
# 3 -0.005247 -0.004794 0.017366 -0.007290 0.002628 0.000886
# 4 -0.004780 0.000488 -0.007290 0.038985 -0.011626 0.009835
# 5 0.002079 0.002209 0.002628 -0.011626 0.030029 -0.011270
# 6 -0.006193 -0.001630 0.000886 0.009835 -0.011270 0.036292
#
#
# Mechanical properties :
#
#
# Convention : Reuss Voigt Hill
#
# Bulk Modulus (GPa) = 45.30374 58.79889 52.05131
# Shear Modulus (GPa) = 25.68301 31.69588 28.68944
#
# Velocity S-wave (km/s) = 3.41949 3.79874 3.61409
# Velocity P-wave (km/s) = 6.01800 6.78310 6.41197
#
# Compressibility (1/GPa) = 0.02207323
#
# Stress axis : x y z
#
# Youngs Moduli (GPa) = 46.44423 76.05928 57.58243
#
# Poissons Ratio (x) = 0.37605 0.30216
# Poissons Ratio (y) = 0.22963 0.27607
# Poissons Ratio (z) = 0.24371 0.36466
#
# Static dielectric constant tensor:
#      x y z
#    x 4.007860 0.274640 -0.196070 
#    y 0.274640 3.799230 0.147270 
#    z -0.196070 0.147270 4.059000 
# 
# 
# High freq. dielectric constant tensor:
#      x y z
#    x 1.855300 0.018420 -0.023640 
#    y 0.018420 1.845680 0.007340 
#    z -0.023640 0.007340 1.871140 
# 
# From -- ./inp_files/128145.got.cif
#   From: 2010.06.25/outbox.cif.g09.slc.cpg/sg2_65_cif.got.tgz:128145.got - 2010.06.27 13:26:56.
