data_PCOD8005490
_publ_section_title
;
Structure prediction by ZEFSAII (Michael W. Deem and Ramdas Pophale) SiO2 
 PCOD8005490
Probable space group: P -1
;
_chemical_formula_sum "Si O2"
_cell_formula_units_Z 12
_cell_length_a 5.258241
_cell_length_b 21.183391
_cell_length_c 19.597301
_cell_angle_alpha 161.274891
_cell_angle_beta 61.860532
_cell_angle_gamma 109.682047
_cell_volume 569.512022
_symmetry_space_group_name_H-M "P -1"
_symmetry_group_IT_number 2
_symmetry_cell_setting 'triclinic'
loop_
_space_group_symop_operation_xyz
x,y,z
-x,-y,-z
loop_
_atom_site_type_symbol
_atom_site_label
_atom_site_fract_x
_atom_site_fract_y
_atom_site_fract_z
Si Si1 0.249638 0.131209 0.903827
Si Si2 0.512205 0.161128 0.758712
Si Si3 0.716747 0.951689 0.772393
Si Si4 0.764102 0.551078 0.431770
Si Si5 0.093437 0.283301 0.807823
Si Si6 0.343182 0.332621 0.287559
O O1 0.299973 0.191837 0.883229
O O2 0.584281 0.990028 0.751107
O O3 0.026993 0.998132 0.793134
O O4 0.100421 0.351174 0.192484
O O5 0.279668 0.292102 0.861934
O O6 0.773856 0.254971 0.836731
O O7 0.677244 0.910290 0.465000
O O8 0.795690 0.705958 0.528183
O O9 0.428325 0.095091 0.005013
O O10 0.540043 0.430610 0.315291
O O11 0.594624 0.685512 0.657698
O O12 0.000000 0.500000 0.000000
O O13 0.000000 0.500000 0.500000
#
# Coordination Sequence:
#
# PCOD8005490 Si02
#       6
#     2   2   2   2   2   2
#     4  11  24  40  57  88 120 150 190 236 287 342
#     4  10  22  39  60  88 122 148 187 239 277 336
#     4  11  24  38  60  84 114 156 196 233 289 344
#     4  10  23  38  57  84 114 152 194 244 289 337
#     4  10  21  39  64  89 114 153 192 227 281 340
#     4  10  20  39  58  80 114 149 198 245 286 337
#
# _framework density 21.07067
#
# number of rings (size 3 to 8) (size 9 to 14) (size 15 to 20)
#    0.000    1.667    1.667    2.000    2.333    3.333 
#    0.000    0.000    0.000    0.000    0.000    0.000 
#    0.000    0.000    0.000    0.000    0.000    0.000 
#
# Total GULP energy -148720.547749 kJ/mol
# GULP energy per Si atom -12393.378979 kJ/mol
# Density = 2.102271 g / cm^3
# Si number density = 21.070670 Si / 1000 Ang^3
#
#
#
# Elastic Constant Matrix: (Units=GPa)
#
#
# Indices 1 2 3 4 5 6 
#
# 1 104.4197 18.1723 21.8565 13.7968 -7.8523 -8.3388
# 2 18.1723 95.4392 38.0162 14.7503 2.4808 1.8899
# 3 21.8565 38.0162 68.4945 28.6682 -2.9573 3.2269
# 4 13.7968 14.7503 28.6682 38.5020 -6.0057 -7.3145
# 5 -7.8523 2.4808 -2.9573 -6.0057 19.2998 0.0138
# 6 -8.3388 1.8899 3.2269 -7.3145 0.0138 27.8365
#
#
#
# Elastic Compliance Matrix: (Units=1/GPa)
#
#
# Indices 1 2 3 4 5 6 
#
# 1 0.010983 -0.001129 -0.002864 -0.000020 0.004166 0.003692
# 2 -0.001129 0.013730 -0.007416 0.000072 -0.003338 -0.000390
# 3 -0.002864 -0.007416 0.027784 -0.018710 -0.001771 -0.008491
# 4 -0.000020 0.000072 -0.018710 0.044192 0.010858 0.013765
# 5 0.004166 -0.003338 -0.001771 0.010858 0.057042 0.004505
# 6 0.003692 -0.000390 -0.008491 0.013765 0.004505 0.041655
#
#
# Mechanical properties :
#
#
# Convention : Reuss Voigt Hill
#
# Bulk Modulus (GPa) = 33.69309 47.16037 40.42673
# Shear Modulus (GPa) = 21.92033 29.81489 25.86761
#
# Velocity S-wave (km/s) = 3.22890 3.76572 3.50760
# Velocity P-wave (km/s) = 5.47050 6.42947 5.96927
#
# Compressibility (1/GPa) = 0.02967968
#
# Stress axis : x y z
#
# Youngs Moduli (GPa) = 91.04661 72.83157 35.99164
#
# Poissons Ratio (x) = 0.08221 0.10309
# Poissons Ratio (y) = 0.10278 0.26692
# Poissons Ratio (z) = 0.26077 0.54013
#
# Static dielectric constant tensor:
#      x y z
#    x 3.967240 -0.051090 -0.058130 
#    y -0.051090 3.450390 0.330080 
#    z -0.058130 0.330080 3.318490 
# 
# 
# High freq. dielectric constant tensor:
#      x y z
#    x 1.831840 -0.000960 -0.004300 
#    y -0.000960 1.818150 0.002620 
#    z -0.004300 0.002620 1.822220 
# 
# From -- ./inp_files/4509.got.cif
#   From: 2010.06.25/outbox.cif.g09.slc.cpg/sg2_3_cif.got.tgz:4509.got - 2010.06.27 13:26:56.
