data_PCOD8005447
_publ_section_title
;
Structure prediction by ZEFSAII (Michael W. Deem and Ramdas Pophale) SiO2 
 PCOD8005447
Probable space group: P -1
;
_chemical_formula_sum "Si O2"
_cell_formula_units_Z 14
_cell_length_a 9.381365
_cell_length_b 20.633640
_cell_length_c 11.752620
_cell_angle_alpha 149.556647
_cell_angle_beta 123.805941
_cell_angle_gamma 38.111274
_cell_volume 655.106761
_symmetry_space_group_name_H-M "P -1"
_symmetry_group_IT_number 2
_symmetry_cell_setting 'triclinic'
loop_
_space_group_symop_operation_xyz
x,y,z
-x,-y,-z
loop_
_atom_site_type_symbol
_atom_site_label
_atom_site_fract_x
_atom_site_fract_y
_atom_site_fract_z
Si Si1 0.765602 0.211618 0.255333
Si Si2 0.779229 0.479528 0.591639
Si Si3 0.618932 0.185578 0.601511
Si Si4 0.945979 0.245775 0.851455
Si Si5 0.906582 0.735712 0.813866
Si Si6 0.435898 0.837057 0.715775
Si Si7 0.089959 0.488993 0.899660
O O1 0.841309 0.318758 0.448965
O O2 0.518071 0.326986 0.241073
O O3 0.686039 0.215564 0.352673
O O4 0.000000 0.000000 0.000000
O O5 0.923323 0.515903 0.769219
O O6 0.871379 0.410230 0.397882
O O7 0.537847 0.220067 0.487535
O O8 0.709466 0.280127 0.810804
O O9 0.375198 0.286003 0.718382
O O10 0.816405 0.971144 0.399704
O O11 0.972847 0.309388 0.077106
O O12 0.914458 0.357495 0.899456
O O13 0.713117 0.721181 0.711612
O O14 0.751211 0.942736 0.016715
O O15 0.000000 0.500000 0.000000
#
# Coordination Sequence:
#
# PCOD8005447 Si02
#       7
#     2   2   2   2   2   2   2
#     4  11  24  41  63  97 135 168 212 273 335 384
#     4  11  25  42  64  98 130 174 219 266 333 387
#     4  10  23  45  68  96 128 174 222 266 332 380
#     4  10  24  43  68  99 128 171 222 272 321 392
#     4  10  20  40  70  98 124 162 225 266 322 388
#     4  10  20  38  70  94 128 170 209 273 322 388
#     4  12  27  44  64  96 134 176 220 268 326 396
#
# _framework density 21.370564000000002
#
# number of rings (size 3 to 8) (size 9 to 14) (size 15 to 20)
#    0.000    1.429    2.857    1.286    4.000    5.143 
#    2.571    0.000    0.000    0.000    0.000    0.000 
#    0.000    0.000    0.000    0.000    0.000    0.000 
#
# Total GULP energy -173624.217932 kJ/mol
# GULP energy per Si atom -12401.729852 kJ/mol
# Density = 2.132192 g / cm^3
# Si number density = 21.370564 Si / 1000 Ang^3
#
#
#
# Elastic Constant Matrix: (Units=GPa)
#
#
# Indices 1 2 3 4 5 6 
#
# 1 115.3433 25.3071 56.8753 4.0359 -17.6200 10.9213
# 2 25.3071 75.0485 46.6092 -2.4448 -7.9837 -13.8029
# 3 56.8753 46.6092 86.8428 3.0688 -15.0747 -4.7780
# 4 4.0359 -2.4448 3.0688 37.9568 -2.2498 0.6924
# 5 -17.6200 -7.9837 -15.0747 -2.2498 33.3057 2.4349
# 6 10.9213 -13.8029 -4.7780 0.6924 2.4349 41.6844
#
#
#
# Elastic Compliance Matrix: (Units=1/GPa)
#
#
# Indices 1 2 3 4 5 6 
#
# 1 0.014082 0.000342 -0.008999 -0.000436 0.003782 -0.004821
# 2 0.000342 0.021474 -0.011542 0.002167 -0.000164 0.005672
# 3 -0.008999 -0.011542 0.024292 -0.001577 0.003276 0.001155
# 4 -0.000436 0.002167 -0.001577 0.026738 0.001372 0.000127
# 5 0.003782 -0.000164 0.003276 0.001372 0.033756 -0.002664
# 6 -0.004821 0.005672 0.001155 0.000127 -0.002664 0.027417
#
#
# Mechanical properties :
#
#
# Convention : Reuss Voigt Hill
#
# Bulk Modulus (GPa) = 51.41879 59.42420 55.42149
# Shear Modulus (GPa) = 25.68830 32.48559 29.08694
#
# Velocity S-wave (km/s) = 3.47081 3.90309 3.69328
# Velocity P-wave (km/s) = 6.33836 6.94111 6.64657
#
# Compressibility (1/GPa) = 0.01944814
#
# Stress axis : x y z
#
# Youngs Moduli (GPa) = 71.01388 46.56787 41.16615
#
# Poissons Ratio (x) = -0.01593 0.37047
# Poissons Ratio (y) = -0.02429 0.47515
# Poissons Ratio (z) = 0.63909 0.53750
#
# Static dielectric constant tensor:
#      x y z
#    x 4.046890 -0.135730 0.106440 
#    y -0.135730 3.845980 0.170370 
#    z 0.106440 0.170370 3.829870 
# 
# 
# High freq. dielectric constant tensor:
#      x y z
#    x 1.851860 -0.006710 0.008180 
#    y -0.006710 1.839300 0.018650 
#    z 0.008180 0.018650 1.837590 
# 
# From -- ./inp_files/259262.got.cif
#   From: 2010.06.25/outbox.cif.g09.slc.cpg/sg2_130_cif.got.tgz:259262.got - 2010.06.27 13:26:56.
