data_PCOD8005802
_publ_section_title
;
Structure prediction by ZEFSAII (Michael W. Deem and Ramdas Pophale) SiO2 
 PCOD8005802
Probable space group: P -1
;
_chemical_formula_sum "Si O2"
_cell_formula_units_Z 16
_cell_length_a 12.868901
_cell_length_b 18.881700
_cell_length_c 8.335604
_cell_angle_alpha 47.358203
_cell_angle_beta 131.382811
_cell_angle_gamma 151.986696
_cell_volume 688.033277
_symmetry_space_group_name_H-M "P -1"
_symmetry_group_IT_number 2
_symmetry_cell_setting 'triclinic'
loop_
_space_group_symop_operation_xyz
x,y,z
-x,-y,-z
loop_
_atom_site_type_symbol
_atom_site_label
_atom_site_fract_x
_atom_site_fract_y
_atom_site_fract_z
Si Si1 0.442820 0.187220 0.300281
Si Si2 0.579901 0.601687 0.081796
Si Si3 0.974007 0.157418 0.660118
Si Si4 0.835805 0.267069 0.493295
Si Si5 0.161867 0.815157 0.028451
Si Si6 0.816673 0.459633 0.780046
Si Si7 0.507919 0.852893 0.225525
Si Si8 0.772314 0.619450 0.697388
O O1 0.625061 0.224084 0.330467
O O2 0.449379 0.164918 0.527638
O O3 0.496309 0.328687 0.113876
O O4 0.193735 0.025424 0.226714
O O5 0.850802 0.747488 0.157188
O O6 0.472598 0.492864 0.300732
O O7 0.500000 0.500000 0.000000
O O8 0.112865 0.232906 0.517353
O O9 0.819729 0.170451 0.495206
O O10 0.857149 0.232100 0.740349
O O11 0.067066 0.450531 0.409927
O O12 0.320166 0.832757 0.059431
O O13 0.917082 0.677920 0.913673
O O14 0.262091 0.978427 0.872341
O O15 0.582436 0.278076 0.785191
O O16 0.744352 0.511960 0.723969
O O17 0.000000 0.500000 0.000000
#
# Coordination Sequence:
#
# PCOD8005802 Si02
#       8
#     2   2   2   2   2   2   2   2
#     4  11  24  44  71 102 135 180 229 277 340 403
#     4  12  28  47  70  97 138 182 231 280 336 400
#     4  11  24  48  68 101 137 179 225 280 341 404
#     4  10  24  39  76 104 137 174 226 281 340 402
#     4  10  20  39  62  98 137 177 216 271 341 396
#     4  11  22  38  62 103 141 171 219 276 338 398
#     4  10  22  37  63  97 140 173 216 278 338 400
#     4  11  23  42  69  94 132 181 224 274 337 401
#
# _framework density 23.254688000000002
#
# number of rings (size 3 to 8) (size 9 to 14) (size 15 to 20)
#    0.000    1.250    2.500    2.625    5.250    3.000 
#    0.000    1.875    0.000    0.000    0.000    0.000 
#    0.000    0.000    0.000    0.000    0.000    0.000 
#
# Total GULP energy -198389.665330 kJ/mol
# GULP energy per Si atom -12399.354083 kJ/mol
# Density = 2.320176 g / cm^3
# Si number density = 23.254688 Si / 1000 Ang^3
#
#
#
# Elastic Constant Matrix: (Units=GPa)
#
#
# Indices 1 2 3 4 5 6 
#
# 1 95.9943 55.8406 24.4440 -9.9864 -10.3369 5.6250
# 2 55.8406 161.5958 29.6708 -3.4589 -5.2662 -14.4064
# 3 24.4440 29.6708 60.3262 -12.9175 -2.8377 -1.3606
# 4 -9.9864 -3.4589 -12.9175 41.3577 4.1875 0.8077
# 5 -10.3369 -5.2662 -2.8377 4.1875 29.7716 1.3465
# 6 5.6250 -14.4064 -1.3606 0.8077 1.3465 24.6697
#
#
#
# Elastic Compliance Matrix: (Units=1/GPa)
#
#
# Indices 1 2 3 4 5 6 
#
# 1 0.015276 -0.005133 -0.003205 0.001976 0.004127 -0.006947
# 2 -0.005133 0.008936 -0.002484 -0.001337 -0.000536 0.006325
# 3 -0.003205 -0.002484 0.020234 0.005373 -0.000390 0.000241
# 4 0.001976 -0.001337 0.005373 0.026528 -0.002695 -0.001657
# 5 0.004127 -0.000536 -0.000390 -0.002695 0.035410 -0.003120
# 6 -0.006947 0.006325 0.000241 -0.001657 -0.003120 0.046051
#
#
# Mechanical properties :
#
#
# Convention : Reuss Voigt Hill
#
# Bulk Modulus (GPa) = 43.85351 59.75856 51.80603
# Shear Modulus (GPa) = 27.52087 33.02386 30.27237
#
# Velocity S-wave (km/s) = 3.44387 3.77250 3.61193
# Velocity P-wave (km/s) = 5.89173 6.68797 6.30244
#
# Compressibility (1/GPa) = 0.02280319
#
# Stress axis : x y z
#
# Youngs Moduli (GPa) = 65.46079 111.90842 49.42059
#
# Poissons Ratio (x) = 0.57443 0.15838
# Poissons Ratio (y) = 0.33601 0.12276
# Poissons Ratio (z) = 0.20978 0.27799
#
# Static dielectric constant tensor:
#      x y z
#    x 4.123820 0.118140 -0.038610 
#    y 0.118140 4.441790 -0.203780 
#    z -0.038610 -0.203780 4.249900 
# 
# 
# High freq. dielectric constant tensor:
#      x y z
#    x 1.906200 0.004250 -0.011260 
#    y 0.004250 1.931460 -0.004320 
#    z -0.011260 -0.004320 1.919860 
# 
# From -- ./inp_files/279133.got.cif
#   From: 2010.06.25/outbox.cif.g09.slc.cpg/sg2_140_cif.got.tgz:279133.got - 2010.06.27 13:26:56.
