data_PCOD8005365
_publ_section_title
;
Structure prediction by ZEFSAII (Michael W. Deem and Ramdas Pophale) SiO2 
 PCOD8005365
Probable space group: P -1
;
_chemical_formula_sum "Si O2"
_cell_formula_units_Z 14
_cell_length_a 9.576477
_cell_length_b 5.100142
_cell_length_c 14.897918
_cell_angle_alpha 73.158258
_cell_angle_beta 86.435734
_cell_angle_gamma 78.745555
_cell_volume 683.021406
_symmetry_space_group_name_H-M "P -1"
_symmetry_group_IT_number 2
_symmetry_cell_setting 'triclinic'
loop_
_space_group_symop_operation_xyz
x,y,z
-x,-y,-z
loop_
_atom_site_type_symbol
_atom_site_label
_atom_site_fract_x
_atom_site_fract_y
_atom_site_fract_z
Si Si1 0.621873 0.156086 0.280499
Si Si2 0.437313 0.451847 0.102731
Si Si3 0.201122 0.448134 0.674535
Si Si4 0.865281 0.202536 0.525239
Si Si5 0.100937 0.639324 0.289403
Si Si6 0.336308 0.104501 0.347491
Si Si7 0.702183 0.042468 0.824999
O O1 0.563532 0.282313 0.175095
O O2 0.742115 0.310191 0.298675
O O3 0.491059 0.177819 0.356097
O O4 0.690274 0.837218 0.292702
O O5 0.381354 0.749633 0.119580
O O6 0.310344 0.271711 0.113896
O O7 0.500000 0.500000 0.000000
O O8 0.180252 0.530352 0.562351
O O9 0.050307 0.426203 0.728334
O O10 0.909244 0.293734 0.611387
O O11 0.730239 0.043838 0.553392
O O12 0.000000 0.000000 0.500000
O O13 0.226737 0.377781 0.292214
O O14 0.136668 0.896515 0.201697
O O15 0.364745 0.901511 0.278686
#
# Coordination Sequence:
#
# PCOD8005365 Si02
#       7
#     2   2   2   2   2   2   2
#     4  11  25  42  59  97 128 159 202 271 336 365
#     4  11  22  42  72  98 122 159 207 261 316 399
#     4  12  26  39  62  92 136 165 210 271 315 350
#     4  11  23  39  62  93 124 178 234 256 290 365
#     4  11  22  41  67  87 126 182 220 248 298 380
#     4  10  22  40  66  85 130 172 222 254 299 381
#     4  10  20  38  67  97 117 159 218 252 299 377
#
# _framework density 20.497160999999998
#
# number of rings (size 3 to 8) (size 9 to 14) (size 15 to 20)
#    0.000    1.143    4.286    3.429    6.000    1.143 
#    0.000    0.000    0.000    5.143    0.000    0.000 
#    0.000    0.000    0.000    0.000    0.000    0.000 
#
# Total GULP energy -173528.442535 kJ/mol
# GULP energy per Si atom -12394.888753 kJ/mol
# Density = 2.045051 g / cm^3
# Si number density = 20.497161 Si / 1000 Ang^3
#
#
#
# Elastic Constant Matrix: (Units=GPa)
#
#
# Indices 1 2 3 4 5 6 
#
# 1 139.8565 22.7788 35.8700 -2.1743 -26.5536 13.6418
# 2 22.7788 93.7353 25.3567 13.0179 -4.6029 3.5571
# 3 35.8700 25.3567 98.4474 8.7504 -24.6639 6.5914
# 4 -2.1743 13.0179 8.7504 31.0319 1.9876 -5.5586
# 5 -26.5536 -4.6029 -24.6639 1.9876 28.0122 -11.1502
# 6 13.6418 3.5571 6.5914 -5.5586 -11.1502 34.4021
#
#
#
# Elastic Compliance Matrix: (Units=1/GPa)
#
#
# Indices 1 2 3 4 5 6 
#
# 1 0.009144 -0.001677 -0.001206 0.001098 0.006935 -0.000796
# 2 -0.001677 0.012388 -0.002585 -0.004731 -0.002121 -0.001572
# 3 -0.001206 -0.002585 0.014496 -0.003628 0.011952 0.001256
# 4 0.001098 -0.004731 -0.003628 0.036521 -0.003302 0.005580
# 5 0.006935 -0.002121 0.011952 -0.003302 0.058039 0.013457
# 6 -0.000796 -0.001572 0.001256 0.005580 0.013457 0.034569
#
#
# Mechanical properties :
#
#
# Convention : Reuss Voigt Hill
#
# Bulk Modulus (GPa) = 39.85631 55.56113 47.70872
# Shear Modulus (GPa) = 27.10649 35.22482 31.16566
#
# Velocity S-wave (km/s) = 3.64050 4.15000 3.90357
# Velocity P-wave (km/s) = 6.09573 7.08018 6.60632
#
# Compressibility (1/GPa) = 0.02509013
#
# Stress axis : x y z
#
# Youngs Moduli (GPa) = 109.35696 80.72429 68.98522
#
# Poissons Ratio (x) = 0.13541 0.08323
# Poissons Ratio (y) = 0.18345 0.17833
# Poissons Ratio (z) = 0.13194 0.20867
#
# Static dielectric constant tensor:
#      x y z
#    x 4.085440 0.316760 -0.361000 
#    y 0.316760 3.895460 0.020600 
#    z -0.361000 0.020600 3.603700 
# 
# 
# High freq. dielectric constant tensor:
#      x y z
#    x 1.806000 0.019490 -0.036470 
#    y 0.019490 1.813790 0.006280 
#    z -0.036470 0.006280 1.769360 
# 
# From -- ./inp_files/41186.got.cif
#   From: 2010.06.25/outbox.cif.g09.slc.cpg/sg2_21_cif.got.tgz:41186.got - 2010.06.27 13:26:56.
