data_PCOD8005944
_publ_section_title
;
Structure prediction by ZEFSAII (Michael W. Deem and Ramdas Pophale) SiO2 
 PCOD8005944
Probable space group: P -1
;
_chemical_formula_sum "Si O2"
_cell_formula_units_Z 16
_cell_length_a 22.454633
_cell_length_b 7.972710
_cell_length_c 6.843260
_cell_angle_alpha 78.708133
_cell_angle_beta 48.476450
_cell_angle_gamma 57.488692
_cell_volume 748.068735
_symmetry_space_group_name_H-M "P -1"
_symmetry_group_IT_number 2
_symmetry_cell_setting 'triclinic'
loop_
_space_group_symop_operation_xyz
x,y,z
-x,-y,-z
loop_
_atom_site_type_symbol
_atom_site_label
_atom_site_fract_x
_atom_site_fract_y
_atom_site_fract_z
Si Si1 0.051677 0.370137 0.724011
Si Si2 0.140480 0.913835 0.208385
Si Si3 0.771808 0.065478 0.614098
Si Si4 0.592905 0.056874 0.121532
Si Si5 0.048693 0.681435 0.387632
Si Si6 0.689659 0.271860 0.365278
Si Si7 0.514405 0.315498 0.877673
Si Si8 0.579285 0.683910 0.290225
O O1 0.086762 0.479263 0.479318
O O2 0.975479 0.344951 0.775630
O O3 0.148331 0.150610 0.613736
O O4 0.000000 0.500000 0.000000
O O5 0.174335 0.874093 0.367570
O O6 0.128172 0.734714 0.199100
O O7 0.221663 0.910075 0.906002
O O8 0.044537 0.136200 0.338606
O O9 0.723328 0.251297 0.521692
O O10 0.690269 0.049839 0.902469
O O11 0.523859 0.212080 0.405462
O O12 0.616910 0.832228 0.166364
O O13 0.535871 0.133958 0.020354
O O14 0.604612 0.235963 0.555693
O O15 0.657424 0.489161 0.290667
O O16 0.427096 0.380657 0.904648
O O17 0.500000 0.500000 0.000000
#
# Coordination Sequence:
#
# PCOD8005944 Si02
#       8
#     2   2   2   2   2   2   2   2
#     4  10  20  39  64  87 124 156 196 241 300 354
#     4  10  21  39  62  87 124 151 203 248 290 357
#     4  10  23  39  61  91 120 157 197 250 297 349
#     4  10  23  41  59  88 121 154 205 244 300 352
#     4   9  21  39  62  90 116 163 193 241 303 352
#     4  11  23  35  62  90 117 158 202 241 297 352
#     4  11  22  39  61  86 119 158 200 244 298 353
#     4  11  23  39  63  86 119 163 197 250 296 352
#
# _framework density 21.388408999999999
#
# number of rings (size 3 to 8) (size 9 to 14) (size 15 to 20)
#    0.000    1.750    1.250    2.250    5.250    1.000 
#    0.000    5.000    2.750    0.000    0.000    0.000 
#    0.000    0.000    0.000    0.000    0.000    0.000 
#
# Total GULP energy -198348.549527 kJ/mol
# GULP energy per Si atom -12396.784345 kJ/mol
# Density = 2.133973 g / cm^3
# Si number density = 21.388409 Si / 1000 Ang^3
#
#
#
# Elastic Constant Matrix: (Units=GPa)
#
#
# Indices 1 2 3 4 5 6 
#
# 1 108.7066 46.1510 32.0578 -0.4000 12.0318 -0.6083
# 2 46.1510 93.7308 26.8904 -17.9503 8.7577 -13.5064
# 3 32.0578 26.8904 95.1186 6.6960 4.0934 3.7612
# 4 -0.4000 -17.9503 6.6960 31.9972 -5.8627 10.1494
# 5 12.0318 8.7577 4.0934 -5.8627 21.7178 2.8404
# 6 -0.6083 -13.5064 3.7612 10.1494 2.8404 30.3508
#
#
#
# Elastic Compliance Matrix: (Units=1/GPa)
#
#
# Indices 1 2 3 4 5 6 
#
# 1 0.012960 -0.006020 -0.002170 -0.003575 -0.005248 -0.000463
# 2 -0.006020 0.017141 -0.003557 0.008366 -0.001338 0.005275
# 3 -0.002170 -0.003557 0.012646 -0.004249 -0.000670 -0.001710
# 4 -0.003575 0.008366 -0.004249 0.042623 0.012383 -0.011234
# 5 -0.005248 -0.001338 -0.000670 0.012383 0.054248 -0.009836
# 6 -0.000463 0.005275 -0.001710 -0.011234 -0.009836 0.040175
#
#
# Mechanical properties :
#
#
# Convention : Reuss Voigt Hill
#
# Bulk Modulus (GPa) = 51.94078 56.41714 54.17896
# Shear Modulus (GPa) = 23.84315 29.64362 26.74338
#
# Velocity S-wave (km/s) = 3.34244 3.72690 3.53989
# Velocity P-wave (km/s) = 6.26364 6.70480 6.48797
#
# Compressibility (1/GPa) = 0.01925270
#
# Stress axis : x y z
#
# Youngs Moduli (GPa) = 77.16166 58.34068 79.07791
#
# Poissons Ratio (x) = 0.35119 0.17161
# Poissons Ratio (y) = 0.46449 0.28127
# Poissons Ratio (z) = 0.16746 0.20751
#
# Static dielectric constant tensor:
#      x y z
#    x 3.781770 -0.150650 0.044600 
#    y -0.150650 3.861100 0.021700 
#    z 0.044600 0.021700 3.956070 
# 
# 
# High freq. dielectric constant tensor:
#      x y z
#    x 1.833880 -0.013530 0.007120 
#    y -0.013530 1.836070 0.000640 
#    z 0.007120 0.000640 1.840100 
# 
# From -- ./inp_files/54883.got.cif
#   From: 2010.06.25/outbox.cif.g09.slc.cpg/sg2_28_cif.got.tgz:54883.got - 2010.06.27 13:26:56.
