data_PCOD8005607
_publ_section_title
;
Structure prediction by ZEFSAII (Michael W. Deem and Ramdas Pophale) SiO2 
 PCOD8005607
Probable space group: P -1
;
_chemical_formula_sum "Si O2"
_cell_formula_units_Z 16
_cell_length_a 20.062643
_cell_length_b 10.988560
_cell_length_c 7.990459
_cell_angle_alpha 40.132741
_cell_angle_beta 131.654529
_cell_angle_gamma 136.678202
_cell_volume 755.247124
_symmetry_space_group_name_H-M "P -1"
_symmetry_group_IT_number 2
_symmetry_cell_setting 'triclinic'
loop_
_space_group_symop_operation_xyz
x,y,z
-x,-y,-z
loop_
_atom_site_type_symbol
_atom_site_label
_atom_site_fract_x
_atom_site_fract_y
_atom_site_fract_z
Si Si1 0.944910 0.219182 0.571869
Si Si2 0.058062 0.184182 0.111112
Si Si3 0.451046 0.214463 0.085134
Si Si4 0.266029 0.766879 0.192365
Si Si5 0.216257 0.656456 0.860461
Si Si6 0.943540 0.374568 0.878203
Si Si7 0.409037 0.591500 0.585521
Si Si8 0.435532 0.763311 0.084303
O O1 0.846112 0.239205 0.449698
O O2 0.021046 0.452852 0.390951
O O3 0.920386 0.020043 0.611372
O O4 0.997344 0.160583 0.867174
O O5 0.161854 0.401261 0.053216
O O6 0.982335 0.196443 0.111027
O O7 0.397632 0.364221 0.854736
O O8 0.520469 0.287451 0.957217
O O9 0.510326 0.232035 0.339365
O O10 0.364873 0.979195 0.173716
O O11 0.176828 0.728787 0.210509
O O12 0.301003 0.581902 0.451749
O O13 0.225719 0.766763 0.940365
O O14 0.324190 0.724601 0.887309
O O15 0.000000 0.500000 0.000000
O O16 0.435549 0.631181 0.389255
O O17 0.500000 0.000000 0.000000
#
# Coordination Sequence:
#
# PCOD8005607 Si02
#       8
#     2   2   2   2   2   2   2   2
#     4  10  22  41  61  87 126 160 196 252 303 364
#     4  10  22  41  60  89 123 161 199 246 307 364
#     4  11  23  44  64  90 132 163 204 261 309 366
#     4  11  22  39  62  91 122 160 204 250 305 363
#     4  10  20  39  60  92 118 158 205 246 301 365
#     4  11  21  39  60  89 118 155 202 247 301 355
#     4  10  24  42  63  93 127 164 207 258 308 370
#     4  11  22  41  66  92 122 169 206 251 317 363
#
# _framework density 21.185117999999999
#
# number of rings (size 3 to 8) (size 9 to 14) (size 15 to 20)
#    0.000    1.500    5.000    2.250    0.000    5.500 
#    2.250    2.500    0.000    0.000    0.000    0.000 
#    0.000    0.000    0.000    0.000    0.000    0.000 
#
# Total GULP energy -198225.779495 kJ/mol
# GULP energy per Si atom -12389.111218 kJ/mol
# Density = 2.113690 g / cm^3
# Si number density = 21.185118 Si / 1000 Ang^3
#
#
#
# Elastic Constant Matrix: (Units=GPa)
#
#
# Indices 1 2 3 4 5 6 
#
# 1 116.9227 49.0817 24.4008 8.0401 22.4777 12.8343
# 2 49.0817 72.3280 24.2015 1.8053 22.6787 4.9262
# 3 24.4008 24.2015 65.8860 7.7221 12.1133 8.4662
# 4 8.0401 1.8053 7.7221 25.8340 -10.2332 4.7282
# 5 22.4777 22.6787 12.1133 -10.2332 33.4326 9.8905
# 6 12.8343 4.9262 8.4662 4.7282 9.8905 37.9828
#
#
#
# Elastic Compliance Matrix: (Units=1/GPa)
#
#
# Indices 1 2 3 4 5 6 
#
# 1 0.013027 -0.006826 -0.000600 -0.005143 -0.005063 -0.001424
# 2 -0.006826 0.023417 -0.003861 -0.003888 -0.012208 0.003793
# 3 -0.000600 -0.003861 0.018855 -0.007229 -0.005692 -0.001117
# 4 -0.005143 -0.003888 -0.007229 0.056230 0.029098 -0.010723
# 5 -0.005063 -0.012208 -0.005692 0.029098 0.056651 -0.013811
# 6 -0.001424 0.003793 -0.001117 -0.010723 -0.013811 0.031497
#
#
# Mechanical properties :
#
#
# Convention : Reuss Voigt Hill
#
# Bulk Modulus (GPa) = 30.55816 50.05607 40.30711
# Shear Modulus (GPa) = 21.44455 29.94675 25.69565
#
# Velocity S-wave (km/s) = 3.18503 3.76383 3.48646
# Velocity P-wave (km/s) = 5.28976 6.52440 5.93925
#
# Compressibility (1/GPa) = 0.03272449
#
# Stress axis : x y z
#
# Youngs Moduli (GPa) = 76.76549 42.70475 53.03498
#
# Poissons Ratio (x) = 0.29151 0.03185
# Poissons Ratio (y) = 0.52401 0.20474
# Poissons Ratio (z) = 0.04610 0.16486
#
# Static dielectric constant tensor:
#      x y z
#    x 4.114960 -0.285020 0.189330 
#    y -0.285020 4.416610 -0.316690 
#    z 0.189330 -0.316690 4.465210 
# 
# 
# High freq. dielectric constant tensor:
#      x y z
#    x 1.827140 -0.017120 0.016970 
#    y -0.017120 1.834950 0.012450 
#    z 0.016970 0.012450 1.831110 
# 
# From -- ./inp_files/345902.got.cif
#   From: 2010.06.25/outbox.cif.g09.slc.cpg/sg2_173_cif.got.tgz:345902.got - 2010.06.27 13:26:56.
