data_PCOD8005989
_publ_section_title
;
Structure prediction by ZEFSAII (Michael W. Deem and Ramdas Pophale) SiO2 
 PCOD8005989
Probable space group: P -1
;
_chemical_formula_sum "Si O2"
_cell_formula_units_Z 14
_cell_length_a 7.842275
_cell_length_b 12.175848
_cell_length_c 7.506502
_cell_angle_alpha 130.616444
_cell_angle_beta 110.314112
_cell_angle_gamma 70.894569
_cell_volume 505.054407
_symmetry_space_group_name_H-M "P -1"
_symmetry_group_IT_number 2
_symmetry_cell_setting 'triclinic'
loop_
_space_group_symop_operation_xyz
x,y,z
-x,-y,-z
loop_
_atom_site_type_symbol
_atom_site_label
_atom_site_fract_x
_atom_site_fract_y
_atom_site_fract_z
Si Si1 0.856588 0.392213 0.689998
Si Si2 0.972628 0.842304 0.250843
Si Si3 0.750836 0.568724 0.152182
Si Si4 0.620194 0.276396 0.893918
Si Si5 0.753825 0.887383 0.888616
Si Si6 0.716041 0.959225 0.551847
Si Si7 0.406019 0.790748 0.786537
O O1 0.708882 0.336316 0.449579
O O2 0.878499 0.290322 0.767078
O O3 0.051508 0.397400 0.665009
O O4 0.773405 0.544467 0.917493
O O5 0.930779 0.824001 0.004998
O O6 0.786799 0.836613 0.300565
O O7 0.000000 0.000000 0.500000
O O8 0.575894 0.696953 0.259157
O O9 0.704533 0.426131 0.090524
O O10 0.763981 0.130779 0.721199
O O11 0.564218 0.225624 0.012062
O O12 0.696146 0.047342 0.123496
O O13 0.799322 0.898918 0.708323
O O14 0.600533 0.779244 0.742717
O O15 0.500000 0.000000 0.500000
#
# Coordination Sequence:
#
# PCOD8005989 Si02
#       7
#     2   2   2   2   2   2   2
#     4  11  23  41  63  93 129 172 209 266 328 374
#     4  12  23  41  67  99 134 169 205 272 338 383
#     4  10  23  42  64  86 128 174 220 260 310 382
#     4  10  22  42  65  91 123 170 222 261 311 389
#     4  10  22  40  62 101 132 168 209 260 333 401
#     4  11  23  39  70  99 129 169 213 267 328 390
#     4  10  20  39  64  91 128 160 216 266 321 387
#
# _framework density 27.719784000000001
#
# number of rings (size 3 to 8) (size 9 to 14) (size 15 to 20)
#    0.000    1.429    1.429    5.143    2.000    1.714 
#    2.571    0.000    0.000    0.000    0.000    0.000 
#    0.000    0.000    0.000    0.000    0.000    0.000 
#
# Total GULP energy -173486.392442 kJ/mol
# GULP energy per Si atom -12391.885174 kJ/mol
# Density = 2.765669 g / cm^3
# Si number density = 27.719784 Si / 1000 Ang^3
#
#
#
# Elastic Constant Matrix: (Units=GPa)
#
#
# Indices 1 2 3 4 5 6 
#
# 1 106.4615 32.3167 30.5195 5.5379 11.5439 -2.0003
# 2 32.3167 88.3075 20.5087 -15.9032 -19.1319 -8.9508
# 3 30.5195 20.5087 118.8886 -5.3180 14.8106 -8.9108
# 4 5.5379 -15.9032 -5.3180 39.7103 2.6680 -6.0233
# 5 11.5439 -19.1319 14.8106 2.6680 51.5946 10.2447
# 6 -2.0003 -8.9508 -8.9108 -6.0233 10.2447 49.7635
#
#
#
# Elastic Compliance Matrix: (Units=1/GPa)
#
#
# Indices 1 2 3 4 5 6 
#
# 1 0.012311 -0.005724 -0.001896 -0.004075 -0.004015 -0.000541
# 2 -0.005724 0.016924 -0.001916 0.007098 0.007380 0.001811
# 3 -0.001896 -0.001916 0.009919 0.001417 -0.003660 0.002280
# 4 -0.004075 0.007098 0.001417 0.029466 0.000661 0.004797
# 5 -0.004015 0.007380 -0.003660 0.000661 0.024935 -0.004543
# 6 -0.000541 0.001811 0.002280 0.004797 -0.004543 0.022323
#
#
# Mechanical properties :
#
#
# Convention : Reuss Voigt Hill
#
# Bulk Modulus (GPa) = 49.79365 53.37195 51.58280
# Shear Modulus (GPa) = 35.29975 43.56786 39.43381
#
# Velocity S-wave (km/s) = 3.57241 3.96880 3.77581
# Velocity P-wave (km/s) = 5.91764 6.34805 6.13662
#
# Compressibility (1/GPa) = 0.02008288
#
# Stress axis : x y z
#
# Youngs Moduli (GPa) = 81.22796 59.08628 100.82028
#
# Poissons Ratio (x) = 0.33818 0.19113
# Poissons Ratio (y) = 0.46491 0.19321
# Poissons Ratio (z) = 0.15398 0.11323
#
# Static dielectric constant tensor:
#      x y z
#    x -7.031690 -0.117260 3.478670 
#    y -0.117260 5.463320 0.777330 
#    z 3.478670 0.777330 4.096880 
# 
# 
# High freq. dielectric constant tensor:
#      x y z
#    x 2.159500 0.017330 0.018700 
#    y 0.017330 2.127850 0.026160 
#    z 0.018700 0.026160 2.098070 
# 
# From -- ./inp_files/182838.got.cif
#   From: 2010.06.25/outbox.cif.g09.slc.cpg/sg2_92_cif.got.tgz:182838.got - 2010.06.27 13:26:56.
