data_PCOD8005182
_publ_section_title
;
Structure prediction by ZEFSAII (Michael W. Deem and Ramdas Pophale) SiO2 
 PCOD8005182
Probable space group: P -1
;
_chemical_formula_sum "Si O2"
_cell_formula_units_Z 16
_cell_length_a 23.803880
_cell_length_b 11.735499
_cell_length_c 12.098261
_cell_angle_alpha 143.099835
_cell_angle_beta 158.547811
_cell_angle_gamma 40.511225
_cell_volume 740.164568
_symmetry_space_group_name_H-M "P -1"
_symmetry_group_IT_number 2
_symmetry_cell_setting 'triclinic'
loop_
_space_group_symop_operation_xyz
x,y,z
-x,-y,-z
loop_
_atom_site_type_symbol
_atom_site_label
_atom_site_fract_x
_atom_site_fract_y
_atom_site_fract_z
Si Si1 0.814650 0.870941 0.636582
Si Si2 0.823905 0.523881 0.231879
Si Si3 0.479484 0.009237 0.676750
Si Si4 0.145399 0.916503 0.346893
Si Si5 0.303759 0.529764 0.420024
Si Si6 0.633841 0.334980 0.894499
Si Si7 0.273193 0.243021 0.961828
Si Si8 0.647412 0.361211 0.178987
O O1 0.810721 0.664077 0.418830
O O2 0.670150 0.884918 0.463033
O O3 0.808375 0.027300 0.649154
O O4 0.967491 0.874860 0.993282
O O5 0.718769 0.595265 0.991538
O O6 0.000000 0.500000 0.500000
O O7 0.754315 0.337752 0.013658
O O8 0.431367 0.873839 0.383792
O O9 0.561277 0.870688 0.812050
O O10 0.600306 0.153216 0.967311
O O11 0.257491 0.731477 0.434657
O O12 0.155346 0.089802 0.587321
O O13 0.490698 0.494490 0.736415
O O14 0.248929 0.551302 0.465840
O O15 0.228056 0.355602 0.082045
O O16 0.724584 0.353088 0.191976
O O17 0.500000 0.500000 0.000000
#
# Coordination Sequence:
#
# PCOD8005182 Si02
#       8
#     2   2   2   2   2   2   2   2
#     4  10  23  36  61  92 130 174 203 258 332 379
#     4  11  24  41  63  95 134 171 211 264 324 394
#     4  11  22  39  65  99 128 165 217 273 317 383
#     4  10  21  38  58  91 136 166 212 257 322 383
#     4  10  20  38  65  91 125 167 213 271 312 377
#     4  10  24  37  66  97 127 170 219 262 321 377
#     4  10  23  36  64 100 128 166 215 264 329 372
#     4  10  20  41  65  92 126 169 219 269 314 377
#
# _framework density 21.616814999999999
#
# number of rings (size 3 to 8) (size 9 to 14) (size 15 to 20)
#    0.000    1.750    1.250    2.625    8.750    2.000 
#    0.000    0.000    0.000   16.500    0.000    0.000 
#    0.000    0.000    0.000    0.000    0.000    0.000 
#
# Total GULP energy -198238.496446 kJ/mol
# GULP energy per Si atom -12389.906028 kJ/mol
# Density = 2.156761 g / cm^3
# Si number density = 21.616815 Si / 1000 Ang^3
#
#
#
# Elastic Constant Matrix: (Units=GPa)
#
#
# Indices 1 2 3 4 5 6 
#
# 1 102.3474 41.0477 50.1051 -8.2846 -20.9122 -0.4847
# 2 41.0477 92.0578 22.3374 1.7229 -9.9687 -1.7098
# 3 50.1051 22.3374 82.3186 5.6883 -28.9120 -4.8486
# 4 -8.2846 1.7229 5.6883 24.5831 -10.8871 -3.9261
# 5 -20.9122 -9.9687 -28.9120 -10.8871 39.1581 7.2132
# 6 -0.4847 -1.7098 -4.8486 -3.9261 7.2132 23.4278
#
#
#
# Elastic Compliance Matrix: (Units=1/GPa)
#
#
# Indices 1 2 3 4 5 6 
#
# 1 0.018097 -0.005679 -0.008477 0.010491 0.005177 -0.001630
# 2 -0.005679 0.013433 -0.000192 -0.003034 -0.000696 0.000529
# 3 -0.008477 -0.000192 0.021140 -0.003199 0.010040 0.000558
# 4 0.010491 -0.003034 -0.003199 0.053031 0.016642 0.003097
# 5 0.005177 -0.000696 0.010040 0.016642 0.041619 -0.007891
# 6 -0.001630 0.000529 0.000558 0.003097 -0.007891 0.045753
#
#
# Mechanical properties :
#
#
# Convention : Reuss Voigt Hill
#
# Bulk Modulus (GPa) = 41.71101 55.96716 48.83908
# Shear Modulus (GPa) = 21.76175 28.31605 25.03890
#
# Velocity S-wave (km/s) = 3.17630 3.62319 3.40708
# Velocity P-wave (km/s) = 5.72620 6.59167 6.17412
#
# Compressibility (1/GPa) = 0.02397449
#
# Stress axis : x y z
#
# Youngs Moduli (GPa) = 55.25633 74.44557 47.30337
#
# Poissons Ratio (x) = 0.42274 0.40100
# Poissons Ratio (y) = 0.31378 0.00909
# Poissons Ratio (z) = 0.46841 0.01431
#
# Static dielectric constant tensor:
#      x y z
#    x 4.345300 -0.197740 -0.655970 
#    y -0.197740 4.147990 0.098170 
#    z -0.655970 0.098170 3.945110 
# 
# 
# High freq. dielectric constant tensor:
#      x y z
#    x 1.828140 -0.004090 -0.038400 
#    y -0.004090 1.862300 0.009360 
#    z -0.038400 0.009360 1.836250 
# 
# From -- ./inp_files/437033.got.cif
#   From: 2010.06.25/outbox.cif.g09.slc.cpg/sg2_219_cif.got.tgz:437033.got - 2010.06.27 13:26:56.
