data_PCOD8005859
_publ_section_title
;
Structure prediction by ZEFSAII (Michael W. Deem and Ramdas Pophale) SiO2 
 PCOD8005859
Probable space group: P -1
;
_chemical_formula_sum "Si O2"
_cell_formula_units_Z 10
_cell_length_a 9.482636
_cell_length_b 11.231689
_cell_length_c 7.102513
_cell_angle_alpha 119.275644
_cell_angle_beta 131.963262
_cell_angle_gamma 55.392548
_cell_volume 455.523575
_symmetry_space_group_name_H-M "P -1"
_symmetry_group_IT_number 2
_symmetry_cell_setting 'triclinic'
loop_
_space_group_symop_operation_xyz
x,y,z
-x,-y,-z
loop_
_atom_site_type_symbol
_atom_site_label
_atom_site_fract_x
_atom_site_fract_y
_atom_site_fract_z
Si Si1 0.501500 0.925313 0.243848
Si Si2 0.760984 0.301548 0.652618
Si Si3 0.497459 0.646778 0.205057
Si Si4 0.196134 0.123936 0.842829
Si Si5 0.683593 0.614693 0.726565
O O1 0.523160 0.757299 0.157788
O O2 0.691637 0.935543 0.301137
O O3 0.500000 0.000000 0.500000
O O4 0.293934 0.009670 0.009527
O O5 0.717840 0.278013 0.816219
O O6 0.803781 0.452461 0.790208
O O7 0.555302 0.321444 0.364721
O O8 0.952237 0.160063 0.639501
O O9 0.682870 0.608722 0.492459
O O10 0.500000 0.500000 0.000000
O O11 0.209062 0.279500 0.023903
#
# Coordination Sequence:
#
# PCOD8005859 Si02
#       5
#     2   2   2   2   2
#     4  11  23  42  61  91 127 161 204 257 305 361
#     4   9  20  38  62  92 120 161 206 247 310 360
#     4  10  20  39  63  90 126 158 202 257 301 358
#     4  11  22  41  65  86 125 167 201 251 308 365
#     4   9  19  39  64  87 128 153 203 255 305 352
#
# _framework density 21.952760999999999
#
# number of rings (size 3 to 8) (size 9 to 14) (size 15 to 20)
#    1.200    0.800    2.000    1.800    0.000    0.800 
#    3.600   11.000    0.000    0.000    0.000    0.000 
#    0.000    0.000    0.000    0.000    0.000    0.000 
#
# Total GULP energy -123931.598139 kJ/mol
# GULP energy per Si atom -12393.159814 kJ/mol
# Density = 2.190280 g / cm^3
# Si number density = 21.952761 Si / 1000 Ang^3
#
#
#
# Elastic Constant Matrix: (Units=GPa)
#
#
# Indices 1 2 3 4 5 6 
#
# 1 85.1055 36.0288 23.0526 -23.2613 -19.3965 -20.2367
# 2 36.0288 79.0234 14.2490 -17.4382 -8.1561 -4.4475
# 3 23.0526 14.2490 67.5089 -1.2705 -24.6978 -10.7883
# 4 -23.2613 -17.4382 -1.2705 34.4304 0.1276 1.3667
# 5 -19.3965 -8.1561 -24.6978 0.1276 27.8773 -4.7595
# 6 -20.2367 -4.4475 -10.7883 1.3667 -4.7595 51.6913
#
#
#
# Elastic Compliance Matrix: (Units=1/GPa)
#
#
# Indices 1 2 3 4 5 6 
#
# 1 0.023929 -0.005932 0.001620 0.012737 0.018087 0.010524
# 2 -0.005932 0.016455 -0.002194 0.004316 -0.001553 -0.001621
# 3 0.001620 -0.002194 0.024604 0.000496 0.023602 0.007740
# 4 0.012737 0.004316 0.000496 0.039595 0.011315 0.005456
# 5 0.018087 -0.001553 0.023602 0.011315 0.071967 0.018200
# 6 0.010524 -0.001621 0.007740 0.005456 0.018200 0.026473
#
#
# Mechanical properties :
#
#
# Convention : Reuss Voigt Hill
#
# Bulk Modulus (GPa) = 19.23974 42.03318 30.63646
# Shear Modulus (GPa) = 21.42608 33.35364 27.38986
#
# Velocity S-wave (km/s) = 3.12750 3.90210 3.53607
# Velocity P-wave (km/s) = 4.67171 6.28414 5.53694
#
# Compressibility (1/GPa) = 0.05197576
#
# Stress axis : x y z
#
# Youngs Moduli (GPa) = 41.79101 60.77035 40.64409
#
# Poissons Ratio (x) = 0.36049 -0.06583
# Poissons Ratio (y) = 0.24790 0.08916
# Poissons Ratio (z) = -0.06768 0.13331
#
# Static dielectric constant tensor:
#      x y z
#    x 4.004770 0.213910 -0.183890 
#    y 0.213910 3.963840 -0.059110 
#    z -0.183890 -0.059110 3.619300 
# 
# 
# High freq. dielectric constant tensor:
#      x y z
#    x 1.849310 0.013100 -0.008740 
#    y 0.013100 1.872080 0.004600 
#    z -0.008740 0.004600 1.843140 
# 
# From -- ./inp_files/20602.got.cif
#   From: 2010.06.25/outbox.cif.g09.slc.cpg/sg2_11_cif.got.tgz:20602.got - 2010.06.27 13:26:56.
