data_PCOD8005149
_publ_section_title
;
Structure prediction by ZEFSAII (Michael W. Deem and Ramdas Pophale) SiO2 
 PCOD8005149
Probable space group: P -1
;
_chemical_formula_sum "Si O2"
_cell_formula_units_Z 16
_cell_length_a 14.424902
_cell_length_b 9.123796
_cell_length_c 12.388854
_cell_angle_alpha 65.347842
_cell_angle_beta 149.686339
_cell_angle_gamma 104.113845
_cell_volume 723.550981
_symmetry_space_group_name_H-M "P -1"
_symmetry_group_IT_number 2
_symmetry_cell_setting 'triclinic'
loop_
_space_group_symop_operation_xyz
x,y,z
-x,-y,-z
loop_
_atom_site_type_symbol
_atom_site_label
_atom_site_fract_x
_atom_site_fract_y
_atom_site_fract_z
Si Si1 0.610623 0.232841 0.367810
Si Si2 0.316107 0.647785 0.144016
Si Si3 0.229930 0.273968 0.869637
Si Si4 0.185274 0.021234 0.529185
Si Si5 0.081545 0.392258 0.304987
Si Si6 0.690084 0.359907 0.619284
Si Si7 0.245377 0.963546 0.848099
Si Si8 0.165523 0.538456 0.551329
O O1 0.690306 0.211141 0.578348
O O2 0.647364 0.409120 0.314257
O O3 0.726000 0.092023 0.447112
O O4 0.384075 0.250735 0.128367
O O5 0.488043 0.487804 0.364446
O O6 0.279298 0.721571 0.206388
O O7 0.364367 0.789323 0.072464
O O8 0.139786 0.581755 0.947093
O O9 0.214093 0.453053 0.742103
O O10 0.012379 0.293346 0.682791
O O11 0.307435 0.118458 0.915751
O O12 0.196979 0.205192 0.446845
O O13 0.970776 0.020484 0.340225
O O14 0.293357 0.961452 0.769299
O O15 0.149192 0.539125 0.267400
O O16 0.112541 0.403322 0.460772
#
# Coordination Sequence:
#
# PCOD8005149 Si02
#       8
#     2   2   2   2   2   2   2   2
#     4  11  23  37  59  88 122 152 198 247 291 346
#     4  10  22  41  65  84 120 157 205 244 290 351
#     4  11  21  35  59  85 122 161 189 236 308 348
#     4  10  21  38  60  93 125 150 193 246 303 360
#     4  10  20  38  65  87 116 158 196 246 299 349
#     4  10  23  42  62  89 114 158 209 248 283 345
#     4  10  21  38  61  89 122 162 190 241 304 358
#     4  10  21  37  56  87 122 152 197 242 287 364
#
# _framework density 22.113164999999999
#
# number of rings (size 3 to 8) (size 9 to 14) (size 15 to 20)
#    0.000    1.750    2.500    1.500    1.750    3.500 
#    0.000    3.125    2.750    0.000    0.000    0.000 
#    0.000    0.000    0.000    0.000    0.000    0.000 
#
# Total GULP energy -198295.463606 kJ/mol
# GULP energy per Si atom -12393.466475 kJ/mol
# Density = 2.206283 g / cm^3
# Si number density = 22.113165 Si / 1000 Ang^3
#
#
#
# Elastic Constant Matrix: (Units=GPa)
#
#
# Indices 1 2 3 4 5 6 
#
# 1 29.9760 1.5359 -17.8364 -2.2422 6.3345 -12.4718
# 2 1.5359 90.5844 12.9431 8.8306 1.1242 -22.5068
# 3 -17.8364 12.9431 37.4105 4.9004 12.0283 6.4285
# 4 -2.2422 8.8306 4.9004 25.1523 3.5366 -4.5204
# 5 6.3345 1.1242 12.0283 3.5366 15.7873 2.2011
# 6 -12.4718 -22.5068 6.4285 -4.5204 2.2011 30.0201
#
#
#
# Elastic Compliance Matrix: (Units=1/GPa)
#
#
# Indices 1 2 3 4 5 6 
#
# 1 0.186218 -0.009076 0.140903 0.030653 -0.196575 0.059416
# 2 -0.009076 0.016106 -0.015596 -0.003545 0.013763 0.010102
# 3 0.140903 -0.015596 0.148377 0.019617 -0.177192 0.031017
# 4 0.030653 -0.003545 0.019617 0.048445 -0.040091 0.016110
# 5 -0.196575 0.013763 -0.177192 -0.040091 0.293720 -0.060978
# 6 0.059416 0.010102 0.031017 0.016110 -0.060978 0.065823
#
#
# Mechanical properties :
#
#
# Convention : Reuss Voigt Hill
#
# Bulk Modulus (GPa) = 1.71479 16.80622 9.26051
# Shear Modulus (GPa) = 6.93850 24.94716 15.94283
#
# Velocity S-wave (km/s) = 1.77328 3.36245 2.68799
# Velocity P-wave (km/s) = 2.22932 4.76355 3.71895
#
# Compressibility (1/GPa) = 0.58316155
#
# Stress axis : x y z
#
# Youngs Moduli (GPa) = 5.37004 62.08711 6.73961
#
# Poissons Ratio (x) = 0.56351 -0.94963
# Poissons Ratio (y) = 0.04874 0.10511
# Poissons Ratio (z) = -0.75665 0.96833
#
# Static dielectric constant tensor:
#      x y z
#    x 4.026190 -0.153580 -0.101900 
#    y -0.153580 3.978400 0.224500 
#    z -0.101900 0.224500 4.023260 
# 
# 
# High freq. dielectric constant tensor:
#      x y z
#    x 1.856310 -0.010640 0.008550 
#    y -0.010640 1.867340 0.019450 
#    z 0.008550 0.019450 1.868350 
# 
# From -- ./inp_files/328816.got.cif
#   From: 2010.06.25/outbox.cif.g09.slc.cpg/sg2_165_cif.got.tgz:328816.got - 2010.06.27 13:26:56.
