data_PCOD8005881
_publ_section_title
;
Structure prediction by ZEFSAII (Michael W. Deem and Ramdas Pophale) SiO2 
 PCOD8005881
Probable space group: P -1
;
_chemical_formula_sum "Si O2"
_cell_formula_units_Z 16
_cell_length_a 12.529488
_cell_length_b 14.732950
_cell_length_c 9.182544
_cell_angle_alpha 77.370469
_cell_angle_beta 30.619998
_cell_angle_gamma 90.716179
_cell_volume 770.765755
_symmetry_space_group_name_H-M "P -1"
_symmetry_group_IT_number 2
_symmetry_cell_setting 'triclinic'
loop_
_space_group_symop_operation_xyz
x,y,z
-x,-y,-z
loop_
_atom_site_type_symbol
_atom_site_label
_atom_site_fract_x
_atom_site_fract_y
_atom_site_fract_z
Si Si1 0.047318 0.443964 0.602112
Si Si2 0.389054 0.227597 0.794080
Si Si3 0.583787 0.272092 0.245168
Si Si4 0.481582 0.054231 0.852519
Si Si5 0.805350 0.144480 0.865710
Si Si6 0.732453 0.713810 0.621136
Si Si7 0.091360 0.788535 0.601431
Si Si8 0.331304 0.644565 0.344532
O O1 0.182064 0.375718 0.419325
O O2 0.207450 0.524799 0.502339
O O3 0.000000 0.500000 0.500000
O O4 0.802547 0.376540 0.984266
O O5 0.496088 0.213880 0.519930
O O6 0.345022 0.129055 0.984835
O O7 0.557916 0.333035 0.633436
O O8 0.158096 0.241824 0.030524
O O9 0.376366 0.293141 0.408456
O O10 0.657947 0.205548 0.069001
O O11 0.743026 0.136950 0.494786
O O12 0.500000 0.000000 0.000000
O O13 0.371580 0.974818 0.877062
O O14 0.880792 0.157292 0.605218
O O15 0.043482 0.178337 0.664853
O O16 0.535514 0.702766 0.971306
O O17 0.137596 0.688887 0.549600
#
# Coordination Sequence:
#
# PCOD8005881 Si02
#       8
#     2   2   2   2   2   2   2   2
#     4  11  23  39  68  97 122 160 220 262 301 375
#     4  11  25  41  62  94 134 164 203 262 322 364
#     4  11  25  41  60  96 131 164 206 264 317 367
#     4   9  22  40  66  96 124 163 216 258 305 378
#     4  10  20  39  65  90 123 165 214 254 304 375
#     4  11  21  38  67  93 123 163 211 259 310 369
#     4  10  20  39  63  92 126 163 208 259 308 373
#     4  11  21  39  66  90 123 169 210 253 310 374
#
# _framework density 20.758576000000001
#
# number of rings (size 3 to 8) (size 9 to 14) (size 15 to 20)
#    0.000    1.500    3.750    1.125    0.000    8.000 
#    0.000    2.500    0.000    0.000    0.000    0.000 
#    0.000    0.000    0.000    0.000    0.000    0.000 
#
# Total GULP energy -198232.586956 kJ/mol
# GULP energy per Si atom -12389.536685 kJ/mol
# Density = 2.071133 g / cm^3
# Si number density = 20.758576 Si / 1000 Ang^3
#
#
#
# Elastic Constant Matrix: (Units=GPa)
#
#
# Indices 1 2 3 4 5 6 
#
# 1 88.8028 47.4995 53.1963 -1.7361 -22.2761 12.5476
# 2 47.4995 112.9321 53.9976 -9.7916 -21.5678 20.1614
# 3 53.1963 53.9976 97.6978 12.3765 -17.2578 1.0086
# 4 -1.7361 -9.7916 12.3765 19.5193 1.4407 -13.3503
# 5 -22.2761 -21.5678 -17.2578 1.4407 39.7800 -5.1994
# 6 12.5476 20.1614 1.0086 -13.3503 -5.1994 36.5050
#
#
#
# Elastic Compliance Matrix: (Units=1/GPa)
#
#
# Indices 1 2 3 4 5 6 
#
# 1 0.019676 -0.001946 -0.009150 0.003982 0.005430 -0.003206
# 2 -0.001946 0.015830 -0.008450 0.010446 0.002979 -0.003596
# 3 -0.009150 -0.008450 0.022444 -0.019132 0.000764 0.000304
# 4 0.003982 0.010446 -0.019132 0.085921 -0.000280 0.024773
# 5 0.005430 0.002979 0.000764 -0.000280 0.030223 0.000669
# 6 -0.003206 -0.003596 0.000304 0.024773 0.000669 0.039628
#
#
# Mechanical properties :
#
#
# Convention : Reuss Voigt Hill
#
# Bulk Modulus (GPa) = 53.02816 67.64660 60.33738
# Shear Modulus (GPa) = 19.29759 28.81016 24.05388
#
# Velocity S-wave (km/s) = 3.05228 3.72945 3.40773
# Velocity P-wave (km/s) = 6.16624 7.15564 6.67928
#
# Compressibility (1/GPa) = 0.01885791
#
# Stress axis : x y z
#
# Youngs Moduli (GPa) = 50.82292 63.17054 44.55624
#
# Poissons Ratio (x) = 0.12293 0.40770
# Poissons Ratio (y) = 0.09890 0.37649
# Poissons Ratio (z) = 0.46504 0.53377
#
# Static dielectric constant tensor:
#      x y z
#    x 3.929450 0.290190 -0.488920 
#    y 0.290190 3.898510 -0.211970 
#    z -0.488920 -0.211970 3.702320 
# 
# 
# High freq. dielectric constant tensor:
#      x y z
#    x 1.809770 0.013340 -0.034380 
#    y 0.013340 1.810230 -0.000160 
#    z -0.034380 -0.000160 1.797370 
# 
# From -- ./inp_files/37336.got.cif
#   From: 2010.06.25/outbox.cif.g09.slc.cpg/sg2_19_cif.got.tgz:37336.got - 2010.06.27 13:26:56.
