data_PCOD8005523
_publ_section_title
;
Structure prediction by ZEFSAII (Michael W. Deem and Ramdas Pophale) SiO2 
 PCOD8005523
Probable space group: P -1
;
_chemical_formula_sum "Si O2"
_cell_formula_units_Z 16
_cell_length_a 13.973577
_cell_length_b 20.269522
_cell_length_c 11.419325
_cell_angle_alpha 54.614884
_cell_angle_beta 33.048927
_cell_angle_gamma 31.510487
_cell_volume 811.004647
_symmetry_space_group_name_H-M "P -1"
_symmetry_group_IT_number 2
_symmetry_cell_setting 'triclinic'
loop_
_space_group_symop_operation_xyz
x,y,z
-x,-y,-z
loop_
_atom_site_type_symbol
_atom_site_label
_atom_site_fract_x
_atom_site_fract_y
_atom_site_fract_z
Si Si1 0.447403 0.129088 0.538321
Si Si2 0.699324 0.581318 0.161894
Si Si3 0.279653 0.298228 0.154247
Si Si4 0.754970 0.174281 0.209248
Si Si5 0.805931 0.423493 0.000992
Si Si6 0.335756 0.386097 0.217841
Si Si7 0.477109 0.937061 0.730619
Si Si8 0.554048 0.596148 0.540063
O O1 0.724058 0.089140 0.311887
O O2 0.361575 0.150948 0.466593
O O3 0.552587 0.002363 0.612294
O O4 0.159638 0.273718 0.756781
O O5 0.792561 0.476640 0.082080
O O6 0.487044 0.625202 0.438436
O O7 0.546492 0.717168 0.111812
O O8 0.000000 0.500000 0.000000
O O9 0.393341 0.291630 0.166413
O O10 0.383043 0.165153 0.195843
O O11 0.912918 0.447181 0.357753
O O12 0.605707 0.280333 0.145452
O O13 0.570759 0.272330 0.413716
O O14 0.110622 0.063361 0.966796
O O15 0.633720 0.404755 0.208614
O O16 0.640500 0.537122 0.951051
O O17 0.000000 0.500000 0.500000
#
# Coordination Sequence:
#
# PCOD8005523 Si02
#       8
#     2   2   2   2   2   2   2   2
#     4  11  22  37  58  85 128 160 192 244 294 365
#     4   9  20  39  65  87 113 155 201 259 304 340
#     4  10  20  39  59  85 121 155 203 251 294 358
#     4  12  22  39  62  87 126 164 197 243 305 359
#     4  11  21  37  62  93 120 152 202 256 297 359
#     4  11  19  34  59  88 120 154 199 248 301 351
#     4  11  24  39  57  89 127 164 201 234 304 371
#     4  11  22  38  64  92 115 156 206 254 303 347
#
# _framework density 19.728617
#
# number of rings (size 3 to 8) (size 9 to 14) (size 15 to 20)
#    0.000    1.250    5.000    2.250    0.000    2.500 
#    2.250    0.625    0.000    3.750    0.000    0.000 
#    0.000    0.000    0.000    0.000    0.000    0.000 
#
# Total GULP energy -198342.506281 kJ/mol
# GULP energy per Si atom -12396.406643 kJ/mol
# Density = 1.968371 g / cm^3
# Si number density = 19.728617 Si / 1000 Ang^3
#
#
#
# Elastic Constant Matrix: (Units=GPa)
#
#
# Indices 1 2 3 4 5 6 
#
# 1 82.4263 39.6392 26.0159 -3.9863 17.4384 8.6193
# 2 39.6392 120.4647 36.8713 -27.9334 15.3715 8.0482
# 3 26.0159 36.8713 80.2082 -16.4464 7.4543 -2.5480
# 4 -3.9863 -27.9334 -16.4464 33.9173 3.0214 -6.7106
# 5 17.4384 15.3715 7.4543 3.0214 31.1536 -8.5399
# 6 8.6193 8.0482 -2.5480 -6.7106 -8.5399 27.5483
#
#
#
# Elastic Compliance Matrix: (Units=1/GPa)
#
#
# Indices 1 2 3 4 5 6 
#
# 1 0.017974 -0.003756 -0.004349 -0.004003 -0.009177 -0.008749
# 2 -0.003756 0.013331 -0.002575 0.009302 -0.005411 -0.002369
# 3 -0.004349 -0.002575 0.016481 0.006369 0.000619 0.005381
# 4 -0.004003 0.009302 0.006369 0.041765 -0.005874 0.007477
# 5 -0.009177 -0.005411 0.000619 -0.005874 0.044995 0.017027
# 6 -0.008749 -0.002369 0.005381 0.007477 0.017027 0.047326
#
#
# Mechanical properties :
#
#
# Convention : Reuss Voigt Hill
#
# Bulk Modulus (GPa) = 37.84142 54.23912 46.04027
# Shear Modulus (GPa) = 23.58036 30.56201 27.07118
#
# Velocity S-wave (km/s) = 3.46097 3.94016 3.70831
# Velocity P-wave (km/s) = 5.93243 6.94637 6.45933
#
# Compressibility (1/GPa) = 0.02642607
#
# Stress axis : x y z
#
# Youngs Moduli (GPa) = 55.63673 75.01388 60.67460
#
# Poissons Ratio (x) = 0.28174 0.26388
# Poissons Ratio (y) = 0.20896 0.15623
# Poissons Ratio (z) = 0.24197 0.19315
#
# Static dielectric constant tensor:
#      x y z
#    x 4.203420 -0.371170 1.102310 
#    y -0.371170 4.489860 -1.223940 
#    z 1.102310 -1.223940 5.165600 
# 
# 
# High freq. dielectric constant tensor:
#      x y z
#    x 1.757300 0.012660 0.006750 
#    y 0.012660 1.769180 -0.021950 
#    z 0.006750 -0.021950 1.770230 
# 
# From -- ./inp_files/218573.got.cif
#   From: 2010.06.25/outbox.cif.g09.slc.cpg/sg2_110_cif.got.tgz:218573.got - 2010.06.27 13:26:56.
