data_PCOD8005712
_publ_section_title
;
Structure prediction by ZEFSAII (Michael W. Deem and Ramdas Pophale) SiO2 
 PCOD8005712
Probable space group: P -1
;
_chemical_formula_sum "Si O2"
_cell_formula_units_Z 16
_cell_length_a 12.785407
_cell_length_b 21.350940
_cell_length_c 15.567735
_cell_angle_alpha 156.061566
_cell_angle_beta 152.940979
_cell_angle_gamma 40.215987
_cell_volume 754.700429
_symmetry_space_group_name_H-M "P -1"
_symmetry_group_IT_number 2
_symmetry_cell_setting 'triclinic'
loop_
_space_group_symop_operation_xyz
x,y,z
-x,-y,-z
loop_
_atom_site_type_symbol
_atom_site_label
_atom_site_fract_x
_atom_site_fract_y
_atom_site_fract_z
Si Si1 0.212827 0.618570 0.196374
Si Si2 0.084689 0.431487 0.700102
Si Si3 0.800171 0.057617 0.478561
Si Si4 0.679237 0.819877 0.511081
Si Si5 0.695327 0.180452 0.191443
Si Si6 0.957014 0.944153 0.038042
Si Si7 0.132786 0.758736 0.069490
Si Si8 0.312891 0.548313 0.360122
O O1 0.296701 0.808607 0.475553
O O2 0.372915 0.569907 0.328874
O O3 0.228550 0.509795 0.989082
O O4 0.936346 0.586040 0.981160
O O5 0.255605 0.345587 0.667266
O O6 0.825613 0.307765 0.372993
O O7 0.028446 0.571251 0.777661
O O8 0.900849 0.133445 0.738769
O O9 0.000000 0.000000 0.500000
O O10 0.577259 0.903203 0.139416
O O11 0.400220 0.793699 0.275174
O O12 0.791391 0.953401 0.688928
O O13 0.767643 0.880180 0.745317
O O14 0.705243 0.275621 0.406579
O O15 0.850218 0.055466 0.161821
O O16 0.982845 0.795738 0.926645
O O17 0.500000 0.500000 0.500000
#
# Coordination Sequence:
#
# PCOD8005712 Si02
#       8
#     2   2   2   2   2   2   2   2
#     4   9  21  40  57  89 124 157 209 258 305 371
#     4   9  21  41  64  91 128 168 208 262 314 379
#     4  11  23  40  63  93 128 166 215 262 314 382
#     4  10  20  42  65  92 132 164 208 263 319 367
#     4  10  21  42  60  90 128 168 204 263 319 363
#     4  10  22  39  66  96 128 164 207 266 316 380
#     4  11  22  41  65  96 127 164 218 255 315 381
#     4  10  20  39  62  85 122 166 206 256 314 371
#
# _framework density 21.200465000000001
#
# number of rings (size 3 to 8) (size 9 to 14) (size 15 to 20)
#    0.000    2.000    1.250    1.500    1.750    1.000 
#   11.250    1.250    0.000    0.000    0.000    0.000 
#    0.000    0.000    0.000    0.000    0.000    0.000 
#
# Total GULP energy -198358.782633 kJ/mol
# GULP energy per Si atom -12397.423915 kJ/mol
# Density = 2.115221 g / cm^3
# Si number density = 21.200465 Si / 1000 Ang^3
#
#
#
# Elastic Constant Matrix: (Units=GPa)
#
#
# Indices 1 2 3 4 5 6 
#
# 1 74.1437 48.0127 16.8118 7.3744 -6.4860 3.5205
# 2 48.0127 117.0543 37.7275 8.6703 -4.7924 19.2134
# 3 16.8118 37.7275 46.3973 0.4422 -13.7692 12.3662
# 4 7.3744 8.6703 0.4422 24.8795 -17.7275 0.7585
# 5 -6.4860 -4.7924 -13.7692 -17.7275 7.4897 11.6012
# 6 3.5205 19.2134 12.3662 0.7585 11.6012 34.4211
#
#
#
# Elastic Compliance Matrix: (Units=1/GPa)
#
#
# Indices 1 2 3 4 5 6 
#
# 1 0.018818 -0.007604 -0.000881 -0.002154 0.001162 0.002292
# 2 -0.007604 0.014896 -0.006022 0.000899 0.004932 -0.007056
# 3 -0.000881 -0.006022 0.016707 -0.018080 -0.027958 0.007271
# 4 -0.002154 0.000899 -0.018080 0.009926 -0.042517 0.020325
# 5 0.001162 0.004932 -0.027958 -0.042517 -0.056313 0.027089
# 6 0.002292 -0.007056 0.007271 0.020325 0.027089 0.020566
#
#
# Mechanical properties :
#
#
# Convention : Reuss Voigt Hill
#
# Bulk Modulus (GPa) = 46.71392 49.18881 47.95136
# Shear Modulus (GPa) = 82.30387 22.36094 52.33241
#
# Velocity S-wave (km/s) = 6.23747 3.25120 4.97375
# Velocity P-wave (km/s) = 8.59982 6.11112 7.45998
#
# Compressibility (1/GPa) = 0.02140690
#
# Stress axis : x y z
#
# Youngs Moduli (GPa) = 53.14015 67.13042 59.85670
#
# Poissons Ratio (x) = 0.51045 0.05275
# Poissons Ratio (y) = 0.40407 0.36046
# Poissons Ratio (z) = 0.04683 0.40427
#
# Static dielectric constant tensor:
#      x y z
#    x 4.038730 -0.058550 0.036380 
#    y -0.058550 3.710320 0.317870 
#    z 0.036380 0.317870 3.850260 
# 
# 
# High freq. dielectric constant tensor:
#      x y z
#    x 1.838500 -0.005530 0.004600 
#    y -0.005530 1.818450 0.019890 
#    z 0.004600 0.019890 1.829610 
# 
# From -- ./inp_files/327218.got.cif
#   From: 2010.06.25/outbox.cif.g09.slc.cpg/sg2_164_cif.got.tgz:327218.got - 2010.06.27 13:26:56.
