data_PCOD8005673
_publ_section_title
;
Structure prediction by ZEFSAII (Michael W. Deem and Ramdas Pophale) SiO2 
 PCOD8005673
Probable space group: P -1
;
_chemical_formula_sum "Si O2"
_cell_formula_units_Z 16
_cell_length_a 7.843589
_cell_length_b 11.725113
_cell_length_c 9.780961
_cell_angle_alpha 63.388190
_cell_angle_beta 105.276839
_cell_angle_gamma 108.482652
_cell_volume 754.881082
_symmetry_space_group_name_H-M "P -1"
_symmetry_group_IT_number 2
_symmetry_cell_setting 'triclinic'
loop_
_space_group_symop_operation_xyz
x,y,z
-x,-y,-z
loop_
_atom_site_type_symbol
_atom_site_label
_atom_site_fract_x
_atom_site_fract_y
_atom_site_fract_z
Si Si1 0.243523 0.007706 0.926338
Si Si2 0.700699 0.185024 0.563856
Si Si3 0.284787 0.501833 0.214793
Si Si4 0.838178 0.946871 0.805237
Si Si5 0.948766 0.439485 0.374227
Si Si6 0.584397 0.210858 0.822267
Si Si7 0.319393 0.551056 0.905640
Si Si8 0.573517 0.740413 0.708301
O O1 0.054320 0.979978 0.821430
O O2 0.378091 0.125421 0.810497
O O3 0.313723 0.873190 0.010881
O O4 0.225705 0.057763 0.049481
O O5 0.853555 0.288129 0.458798
O O6 0.693037 0.231647 0.692613
O O7 0.499190 0.168891 0.465488
O O8 0.757182 0.048002 0.645021
O O9 0.413717 0.643488 0.203171
O O10 0.403133 0.391940 0.292762
O O11 0.128830 0.450505 0.318270
O O12 0.203100 0.524871 0.034996
O O13 0.758648 0.808317 0.788480
O O14 0.812746 0.508737 0.218844
O O15 0.000000 0.500000 0.500000
O O16 0.409076 0.702815 0.805415
O O17 0.500000 0.500000 0.000000
#
# Coordination Sequence:
#
# PCOD8005673 Si02
#       8
#     2   2   2   2   2   2   2   2
#     4   9  21  38  63  90 117 160 212 258 305 375
#     4  10  22  41  59  88 124 168 204 259 317 368
#     4  11  22  39  65  96 125 168 207 260 318 373
#     4  10  20  41  62  87 120 163 211 257 310 367
#     4  11  22  41  61  92 128 166 212 261 313 380
#     4  10  20  39  61  90 125 159 208 258 315 367
#     4   9  21  40  58  91 126 165 208 251 316 372
#     4  10  22  40  62  92 127 162 210 253 320 378
#
# _framework density 21.19539
#
# number of rings (size 3 to 8) (size 9 to 14) (size 15 to 20)
#    0.000    2.000    1.250    1.500    0.000    4.500 
#   13.500    5.000    0.000    0.000    0.000    0.000 
#    0.000    0.000    0.000    0.000    0.000    0.000 
#
# Total GULP energy -198218.843221 kJ/mol
# GULP energy per Si atom -12388.677701 kJ/mol
# Density = 2.114715 g / cm^3
# Si number density = 21.195390 Si / 1000 Ang^3
#
#
#
# Elastic Constant Matrix: (Units=GPa)
#
#
# Indices 1 2 3 4 5 6 
#
# 1 111.5239 46.5981 47.8676 -3.9452 1.4213 15.5830
# 2 46.5981 113.6800 32.8848 -1.1429 7.9592 8.8819
# 3 47.8676 32.8848 112.1882 1.3443 -1.2278 12.3416
# 4 -3.9452 -1.1429 1.3443 27.6241 5.6948 2.7594
# 5 1.4213 7.9592 -1.2278 5.6948 46.1306 -1.2762
# 6 15.5830 8.8819 12.3416 2.7594 -1.2762 29.2853
#
#
#
# Elastic Compliance Matrix: (Units=1/GPa)
#
#
# Indices 1 2 3 4 5 6 
#
# 1 0.012937 -0.003776 -0.003971 0.002369 -0.000264 -0.004300
# 2 -0.003776 0.010993 -0.001550 0.000463 -0.001901 -0.000798
# 3 -0.003971 -0.001550 0.011309 -0.001137 0.000775 -0.002042
# 4 0.002369 0.000463 -0.001137 0.038121 -0.005020 -0.004732
# 5 -0.000264 -0.001901 0.000775 -0.005020 0.022705 0.001853
# 6 -0.004300 -0.000798 -0.002042 -0.004732 0.001853 0.038064
#
#
# Mechanical properties :
#
#
# Convention : Reuss Voigt Hill
#
# Bulk Modulus (GPa) = 60.07836 65.78811 62.93323
# Shear Modulus (GPa) = 31.59155 34.61078 33.10117
#
# Velocity S-wave (km/s) = 3.86488 4.04535 3.95614
# Velocity P-wave (km/s) = 6.95147 7.27503 7.11509
#
# Compressibility (1/GPa) = 0.01664493
#
# Stress axis : x y z
#
# Youngs Moduli (GPa) = 77.29874 90.96911 88.42517
#
# Poissons Ratio (x) = 0.34348 0.35116
# Poissons Ratio (y) = 0.29187 0.13703
# Poissons Ratio (z) = 0.30697 0.14098
#
# Static dielectric constant tensor:
#      x y z
#    x 3.871840 0.127680 -0.171210 
#    y 0.127680 3.626040 -0.105800 
#    z -0.171210 -0.105800 4.427950 
# 
# 
# High freq. dielectric constant tensor:
#      x y z
#    x 1.826330 0.014720 -0.002760 
#    y 0.014720 1.813150 -0.009910 
#    z -0.002760 -0.009910 1.843590 
# 
# From -- ./inp_files/176490.got.cif
#   From: 2010.06.25/outbox.cif.g09.slc.cpg/sg2_89_cif.got.tgz:176490.got - 2010.06.27 13:26:56.
