data_PCOD8005922
_publ_section_title
;
Structure prediction by ZEFSAII (Michael W. Deem and Ramdas Pophale) SiO2 
 PCOD8005922
Probable space group: P -1
;
_chemical_formula_sum "Si O2"
_cell_formula_units_Z 14
_cell_length_a 8.991605
_cell_length_b 11.932616
_cell_length_c 9.798428
_cell_angle_alpha 128.910933
_cell_angle_beta 131.249003
_cell_angle_gamma 71.857023
_cell_volume 605.489530
_symmetry_space_group_name_H-M "P -1"
_symmetry_group_IT_number 2
_symmetry_cell_setting 'triclinic'
loop_
_space_group_symop_operation_xyz
x,y,z
-x,-y,-z
loop_
_atom_site_type_symbol
_atom_site_label
_atom_site_fract_x
_atom_site_fract_y
_atom_site_fract_z
Si Si1 0.878603 0.699501 0.550652
Si Si2 0.476708 0.337303 0.131097
Si Si3 0.167399 0.082711 0.755869
Si Si4 0.185780 0.600982 0.841007
Si Si5 0.446726 0.856139 0.714888
Si Si6 0.573757 0.339177 0.691297
Si Si7 0.878662 0.004371 0.066956
O O1 0.858116 0.574978 0.326637
O O2 0.656498 0.734239 0.470357
O O3 0.974892 0.653150 0.717859
O O4 0.036223 0.836228 0.694247
O O5 0.658523 0.338064 0.137721
O O6 0.516062 0.263221 0.241810
O O7 0.426818 0.498709 0.244341
O O8 0.277712 0.233319 0.869311
O O9 0.318365 0.968140 0.787180
O O10 0.081000 0.109088 0.875512
O O11 0.000000 0.000000 0.500000
O O12 0.279150 0.655126 0.084668
O O13 0.344953 0.761268 0.451073
O O14 0.643956 0.964084 0.859390
O O15 0.000000 0.000000 0.000000
#
# Coordination Sequence:
#
# PCOD8005922 Si02
#       7
#     2   2   2   2   2   2   2
#     4  10  20  39  63  97 130 168 216 270 328 379
#     4  10  21  43  64  91 129 178 213 266 334 388
#     4  11  26  41  65  94 134 173 217 267 332 392
#     4  10  22  38  68  95 131 171 222 266 323 392
#     4  11  23  45  64  97 135 175 208 275 339 385
#     4  11  23  40  69  98 132 168 226 269 323 394
#     4  11  22  41  69  92 126 172 220 263 326 394
#
# _framework density 23.121786
#
# number of rings (size 3 to 8) (size 9 to 14) (size 15 to 20)
#    0.000    1.429    1.429    5.571    4.000    1.143 
#    0.000    2.857    0.000    0.000    0.000    0.000 
#    0.000    0.000    0.000    0.000    0.000    0.000 
#
# Total GULP energy -173435.211950 kJ/mol
# GULP energy per Si atom -12388.229425 kJ/mol
# Density = 2.306916 g / cm^3
# Si number density = 23.121786 Si / 1000 Ang^3
#
#
#
# Elastic Constant Matrix: (Units=GPa)
#
#
# Indices 1 2 3 4 5 6 
#
# 1 62.6582 14.5858 31.6315 -0.0078 -4.3349 25.7179
# 2 14.5858 59.8262 21.2539 14.9718 9.3031 22.7045
# 3 31.6315 21.2539 153.0317 7.0249 6.2199 25.3376
# 4 -0.0078 14.9718 7.0249 44.7269 2.0633 8.9270
# 5 -4.3349 9.3031 6.2199 2.0633 33.7869 -0.1514
# 6 25.7179 22.7045 25.3376 8.9270 -0.1514 22.0165
#
#
#
# Elastic Compliance Matrix: (Units=1/GPa)
#
#
# Indices 1 2 3 4 5 6 
#
# 1 0.037230 0.010660 -0.000042 0.007896 0.001109 -0.057628
# 2 0.010660 0.033543 0.001535 -0.001450 -0.008279 -0.048279
# 3 -0.000042 0.001535 0.008253 0.000531 -0.002030 -0.011260
# 4 0.007896 -0.001450 0.000531 0.026597 -0.000396 -0.019126
# 5 0.001109 -0.008279 -0.002030 -0.000396 0.032462 0.009962
# 6 -0.057628 -0.048279 -0.011260 -0.019126 0.009962 0.183308
#
#
# Mechanical properties :
#
#
# Convention : Reuss Voigt Hill
#
# Bulk Modulus (GPa) = 9.67755 45.60649 27.64202
# Shear Modulus (GPa) = 15.08154 33.97575 24.52864
#
# Velocity S-wave (km/s) = 2.55672 3.83747 3.26060
# Velocity P-wave (km/s) = 3.59309 6.27711 5.11432
#
# Compressibility (1/GPa) = 0.10333191
#
# Stress axis : x y z
#
# Youngs Moduli (GPa) = 26.85976 29.81212 121.17314
#
# Poissons Ratio (x) = -0.31780 0.00508
# Poissons Ratio (y) = -0.28633 -0.18594
# Poissons Ratio (z) = 0.00113 -0.04575
#
# Static dielectric constant tensor:
#      x y z
#    x 0.743360 3.984540 -1.434760 
#    y 3.984540 -0.272900 2.368310 
#    z -1.434760 2.368310 3.831910 
# 
# 
# High freq. dielectric constant tensor:
#      x y z
#    x 1.897060 0.015430 0.007530 
#    y 0.015430 1.902180 0.016560 
#    z 0.007530 0.016560 1.938380 
# 
# From -- ./inp_files/190527.got.cif
#   From: 2010.06.25/outbox.cif.g09.slc.cpg/sg2_96_cif.got.tgz:190527.got - 2010.06.27 13:26:56.
