data_PCOD8005265
_publ_section_title
;
Structure prediction by ZEFSAII (Michael W. Deem and Ramdas Pophale) SiO2 
 PCOD8005265
Probable space group: P -1
;
_chemical_formula_sum "Si O2"
_cell_formula_units_Z 14
_cell_length_a 8.515356
_cell_length_b 9.051686
_cell_length_c 14.560238
_cell_angle_alpha 128.673538
_cell_angle_beta 128.773345
_cell_angle_gamma 63.351381
_cell_volume 680.077136
_symmetry_space_group_name_H-M "P -1"
_symmetry_group_IT_number 2
_symmetry_cell_setting 'triclinic'
loop_
_space_group_symop_operation_xyz
x,y,z
-x,-y,-z
loop_
_atom_site_type_symbol
_atom_site_label
_atom_site_fract_x
_atom_site_fract_y
_atom_site_fract_z
Si Si1 0.736010 0.069913 0.525979
Si Si2 0.938896 0.385938 0.344164
Si Si3 0.570036 0.200283 0.074452
Si Si4 0.187420 0.854589 0.042904
Si Si5 0.908693 0.728189 0.336467
Si Si6 0.283407 0.063111 0.335171
Si Si7 0.697271 0.551293 0.040035
O O1 0.500549 0.142258 0.459824
O O2 0.865350 0.218532 0.579979
O O3 0.786607 0.866999 0.417317
O O4 0.786749 0.049677 0.644829
O O5 0.730988 0.280580 0.236546
O O6 0.913626 0.520128 0.299538
O O7 0.000000 0.500000 0.500000
O O8 0.121082 0.237270 0.324705
O O9 0.665414 0.162224 0.995310
O O10 0.375845 0.359225 0.051565
O O11 0.500000 0.000000 0.000000
O O12 0.300749 0.932193 0.201670
O O13 0.144140 0.640705 0.978621
O O14 0.000000 0.000000 0.000000
O O15 0.794602 0.721198 0.195092
O O16 0.500000 0.500000 0.000000
#
# Coordination Sequence:
#
# PCOD8005265 Si02
#       7
#     2   2   2   2   2   2   2
#     4  10  24  38  67  92 129 164 211 268 328 394
#     4  12  24  41  68  93 133 169 220 272 327 392
#     4  11  25  42  67  98 130 177 222 267 326 388
#     4  11  21  40  67  90 130 171 209 271 330 380
#     4  11  21  42  66  96 120 171 218 261 323 392
#     4  11  23  42  61  93 131 168 208 273 334 379
#     4  10  20  38  66  89 124 169 216 258 317 396
#
# _framework density 20.585899000000001
#
# number of rings (size 3 to 8) (size 9 to 14) (size 15 to 20)
#    0.000    1.143    5.714    1.714    2.000    1.714 
#    0.000    5.714    0.000    0.000    0.000    0.000 
#    0.000    0.000    0.000    0.000    0.000    0.000 
#
# Total GULP energy -173499.929742 kJ/mol
# GULP energy per Si atom -12392.852124 kJ/mol
# Density = 2.053904 g / cm^3
# Si number density = 20.585899 Si / 1000 Ang^3
#
#
#
# Elastic Constant Matrix: (Units=GPa)
#
#
# Indices 1 2 3 4 5 6 
#
# 1 57.7432 29.2378 28.0674 0.1377 8.6267 3.3855
# 2 29.2378 140.5261 33.9761 -4.3546 22.1911 -0.5558
# 3 28.0674 33.9761 145.8629 -1.9493 -0.6779 3.4398
# 4 0.1377 -4.3546 -1.9493 26.0183 -1.7745 9.4886
# 5 8.6267 22.1911 -0.6779 -1.7745 32.7562 6.3278
# 6 3.3855 -0.5558 3.4398 9.4886 6.3278 22.2480
#
#
#
# Elastic Compliance Matrix: (Units=1/GPa)
#
#
# Indices 1 2 3 4 5 6 
#
# 1 0.021078 -0.003095 -0.003318 -0.000501 -0.003234 -0.001638
# 2 -0.003095 0.009089 -0.001609 0.000074 -0.005871 0.002585
# 3 -0.003318 -0.001609 0.007946 0.001264 0.002591 -0.002040
# 4 -0.000501 0.000074 0.001264 0.047108 0.006946 -0.022184
# 5 -0.003234 -0.005871 0.002591 0.006946 0.038485 -0.013963
# 6 -0.001638 0.002585 -0.002040 -0.022184 -0.013963 0.059010
#
#
# Mechanical properties :
#
#
# Convention : Reuss Voigt Hill
#
# Bulk Modulus (GPa) = 45.31106 58.52163 51.91635
# Shear Modulus (GPa) = 24.25821 33.06123 28.65972
#
# Velocity S-wave (km/s) = 3.43649 4.01186 3.73527
# Velocity P-wave (km/s) = 6.14853 7.06751 6.62398
#
# Compressibility (1/GPa) = 0.02206967
#
# Stress axis : x y z
#
# Youngs Moduli (GPa) = 47.44224 110.02872 125.84891
#
# Poissons Ratio (x) = 0.34049 0.41760
# Poissons Ratio (y) = 0.14681 0.20247
# Poissons Ratio (z) = 0.15742 0.17701
#
# Static dielectric constant tensor:
#      x y z
#    x 3.146450 0.711820 0.186110 
#    y 0.711820 2.665880 -0.472360 
#    z 0.186110 -0.472360 4.010400 
# 
# 
# High freq. dielectric constant tensor:
#      x y z
#    x 1.777590 -0.007040 0.000140 
#    y -0.007040 1.818930 -0.007750 
#    z 0.000140 -0.007750 1.819920 
# 
# From -- ./inp_files/175578.got.cif
#   From: 2010.06.25/outbox.cif.g09.slc.cpg/sg2_88_cif.got.tgz:175578.got - 2010.06.27 13:26:56.
