data_PCOD8005123
_publ_section_title
;
Structure prediction by ZEFSAII (Michael W. Deem and Ramdas Pophale) SiO2 
 PCOD8005123
Probable space group: P -1
;
_chemical_formula_sum "Si O2"
_cell_formula_units_Z 16
_cell_length_a 13.058673
_cell_length_b 9.721985
_cell_length_c 14.507678
_cell_angle_alpha 134.340408
_cell_angle_beta 132.565489
_cell_angle_gamma 34.671355
_cell_volume 725.610041
_symmetry_space_group_name_H-M "P -1"
_symmetry_group_IT_number 2
_symmetry_cell_setting 'triclinic'
loop_
_space_group_symop_operation_xyz
x,y,z
-x,-y,-z
loop_
_atom_site_type_symbol
_atom_site_label
_atom_site_fract_x
_atom_site_fract_y
_atom_site_fract_z
Si Si1 0.708095 0.803946 0.626348
Si Si2 0.987087 0.100940 0.842024
Si Si3 0.730002 0.617995 0.026912
Si Si4 0.752064 0.340250 0.465206
Si Si5 0.329710 0.903284 0.840075
Si Si6 0.845077 0.031964 0.546433
Si Si7 0.924581 0.331012 0.193247
Si Si8 0.695721 0.782361 0.397714
O O1 0.653061 0.636612 0.540864
O O2 0.756808 0.773611 0.534359
O O3 0.888648 0.724698 0.749873
O O4 0.520068 0.090388 0.674659
O O5 0.865763 0.095650 0.691345
O O6 0.875021 0.394750 0.938651
O O7 0.183393 0.983208 0.866365
O O8 0.019601 0.940858 0.878465
O O9 0.775476 0.495065 0.098339
O O10 0.740942 0.839068 0.133606
O O11 0.523039 0.745482 0.935712
O O12 0.649395 0.282455 0.309978
O O13 0.738418 0.283951 0.536106
O O14 0.960026 0.188826 0.486984
O O15 0.728749 0.942574 0.432487
O O16 0.827511 0.493598 0.304437
#
# Coordination Sequence:
#
# PCOD8005123 Si02
#       8
#     2   2   2   2   2   2   2   2
#     4  11  24  38  65 101 133 166 211 263 327 397
#     4  11  24  42  68  93 129 172 214 265 322 386
#     4  11  26  45  67  90 128 176 222 265 312 381
#     4  10  21  39  67  97 128 166 209 265 329 383
#     4  10  24  46  65  93 130 168 219 271 316 377
#     4  10  20  38  64  96 129 165 207 266 325 382
#     4  12  24  43  66  97 134 169 215 267 319 384
#     4  11  22  40  62  97 135 169 205 263 331 381
#
# _framework density 22.050411
#
# number of rings (size 3 to 8) (size 9 to 14) (size 15 to 20)
#    0.000    1.250    2.500    3.375    5.250    3.000 
#    4.500    0.000    0.000    0.000    0.000    0.000 
#    0.000    0.000    0.000    0.000    0.000    0.000 
#
# Total GULP energy -198452.790329 kJ/mol
# GULP energy per Si atom -12403.299396 kJ/mol
# Density = 2.200022 g / cm^3
# Si number density = 22.050411 Si / 1000 Ang^3
#
#
#
# Elastic Constant Matrix: (Units=GPa)
#
#
# Indices 1 2 3 4 5 6 
#
# 1 57.0436 29.9778 23.4364 -14.2556 6.0873 24.4593
# 2 29.9778 99.8548 33.3436 -9.0766 9.9731 12.1153
# 3 23.4364 33.3436 43.9288 -16.9340 14.7596 7.6758
# 4 -14.2556 -9.0766 -16.9340 28.6922 6.7935 2.7700
# 5 6.0873 9.9731 14.7596 6.7935 27.7568 -0.3827
# 6 24.4593 12.1153 7.6758 2.7700 -0.3827 36.5768
#
#
#
# Elastic Compliance Matrix: (Units=1/GPa)
#
#
# Indices 1 2 3 4 5 6 
#
# 1 0.038425 -0.005550 0.002789 0.024945 -0.014386 -0.026482
# 2 -0.005550 0.014561 -0.012508 -0.006756 0.004319 0.002070
# 3 0.002789 -0.012508 0.067433 0.049256 -0.044252 -0.016066
# 4 0.024945 -0.006756 0.049256 0.089491 -0.051580 -0.032096
# 5 -0.014386 0.004319 -0.044252 -0.051580 0.074091 0.022158
# 6 -0.026482 0.002070 -0.016066 -0.032096 0.022158 0.050397
#
#
# Mechanical properties :
#
#
# Convention : Reuss Voigt Hill
#
# Bulk Modulus (GPa) = 11.12583 41.59367 26.35975
# Shear Modulus (GPa) = 12.66153 26.20980 19.43566
#
# Velocity S-wave (km/s) = 2.39886 3.45139 2.97209
# Velocity P-wave (km/s) = 3.56782 5.89803 4.87422
#
# Compressibility (1/GPa) = 0.08988093
#
# Stress axis : x y z
#
# Youngs Moduli (GPa) = 26.02467 68.67696 14.82945
#
# Poissons Ratio (x) = 0.38114 -0.04136
# Poissons Ratio (y) = 0.14443 0.18549
# Poissons Ratio (z) = -0.07258 0.85904
#
# Static dielectric constant tensor:
#      x y z
#    x 3.893400 0.099070 0.041800 
#    y 0.099070 4.060050 0.079570 
#    z 0.041800 0.079570 3.823360 
# 
# 
# High freq. dielectric constant tensor:
#      x y z
#    x 1.873140 0.002690 0.004910 
#    y 0.002690 1.878710 0.000270 
#    z 0.004910 0.000270 1.851860 
# 
# From -- ./inp_files/271715.got.cif
#   From: 2010.06.25/outbox.cif.g09.slc.cpg/sg2_136_cif.got.tgz:271715.got - 2010.06.27 13:26:56.
