data_PCOD8005360
_publ_section_title
;
Structure prediction by ZEFSAII (Michael W. Deem and Ramdas Pophale) SiO2 
 PCOD8005360
Probable space group: P -1
;
_chemical_formula_sum "Si O2"
_cell_formula_units_Z 16
_cell_length_a 9.215087
_cell_length_b 16.146402
_cell_length_c 9.318356
_cell_angle_alpha 78.601460
_cell_angle_beta 131.348983
_cell_angle_gamma 132.421590
_cell_volume 687.092871
_symmetry_space_group_name_H-M "P -1"
_symmetry_group_IT_number 2
_symmetry_cell_setting 'triclinic'
loop_
_space_group_symop_operation_xyz
x,y,z
-x,-y,-z
loop_
_atom_site_type_symbol
_atom_site_label
_atom_site_fract_x
_atom_site_fract_y
_atom_site_fract_z
Si Si1 0.504741 0.992993 0.836965
Si Si2 0.959023 0.008343 0.131063
Si Si3 0.766952 0.383637 0.491184
Si Si4 0.695620 0.896393 0.415328
Si Si5 0.519024 0.477589 0.355823
Si Si6 0.866489 0.515844 0.030900
Si Si7 0.511175 0.252669 0.931285
Si Si8 0.852861 0.276014 0.370504
O O1 0.250274 0.853910 0.650780
O O2 0.476754 0.071812 0.709752
O O3 0.813674 0.051753 0.000816
O O4 0.500000 0.000000 0.000000
O O5 0.772346 0.873875 0.130911
O O6 0.251097 0.114826 0.380441
O O7 0.000000 0.000000 0.000000
O O8 0.524561 0.376865 0.371465
O O9 0.669426 0.269435 0.374704
O O10 0.000000 0.500000 0.500000
O O11 0.901779 0.394056 0.724236
O O12 0.504579 0.768431 0.244287
O O13 0.000000 0.000000 0.500000
O O14 0.500000 0.500000 0.500000
O O15 0.241740 0.427644 0.112634
O O16 0.806137 0.609280 0.425616
O O17 0.583282 0.374909 0.956867
O O18 0.000000 0.500000 0.000000
O O19 0.782556 0.290255 0.161555
#
# Coordination Sequence:
#
# PCOD8005360 Si02
#       8
#     2   2   2   2   2   2   2   2
#     4  11  20  40  70  93 125 172 215 266 321 391
#     4  10  23  41  64  97 136 164 212 273 321 380
#     4  10  21  42  60  90 137 164 214 269 323 379
#     4  10  20  38  67  96 126 167 221 262 320 392
#     4  11  22  39  67  92 128 172 215 268 321 382
#     4  12  23  41  68  98 131 167 224 269 312 394
#     4  10  20  41  65  91 132 172 211 264 324 378
#     4  10  21  39  65  92 130 167 213 262 335 371
#
# _framework density 23.286517
#
# number of rings (size 3 to 8) (size 9 to 14) (size 15 to 20)
#    0.000    1.500    7.500    0.000    3.500    2.500 
#    4.500    2.500    0.000    0.000    0.000    0.000 
#    0.000    0.000    0.000    0.000    0.000    0.000 
#
# Total GULP energy -198211.526895 kJ/mol
# GULP energy per Si atom -12388.220431 kJ/mol
# Density = 2.323352 g / cm^3
# Si number density = 23.286517 Si / 1000 Ang^3
#
#
#
# Elastic Constant Matrix: (Units=GPa)
#
#
# Indices 1 2 3 4 5 6 
#
# 1 137.0844 11.8412 56.0101 -14.2030 -7.3092 -25.3616
# 2 11.8412 43.2416 14.9889 -0.5612 0.6845 -21.2706
# 3 56.0101 14.9889 169.2432 -18.5118 -1.5928 -12.0904
# 4 -14.2030 -0.5612 -18.5118 37.2906 -11.6546 -5.6882
# 5 -7.3092 0.6845 -1.5928 -11.6546 43.3550 -7.9892
# 6 -25.3616 -21.2706 -12.0904 -5.6882 -7.9892 26.6574
#
#
#
# Elastic Compliance Matrix: (Units=1/GPa)
#
#
# Indices 1 2 3 4 5 6 
#
# 1 0.013515 0.008898 -0.002282 0.010741 0.009369 0.024023
# 2 0.008898 0.047607 -0.001394 0.016305 0.014993 0.053793
# 3 -0.002282 -0.001394 0.007201 0.003108 0.000907 0.000918
# 4 0.010741 0.016305 0.003108 0.045624 0.021451 0.040804
# 5 0.009369 0.014993 0.000907 0.021451 0.037019 0.036959
# 6 0.024023 0.053793 0.000918 0.040804 0.036959 0.123491
#
#
# Mechanical properties :
#
#
# Convention : Reuss Voigt Hill
#
# Bulk Modulus (GPa) = 12.69528 57.24995 34.97261
# Shear Modulus (GPa) = 17.22538 39.24253 28.23396
#
# Velocity S-wave (km/s) = 2.72272 4.10958 3.48582
# Velocity P-wave (km/s) = 3.91764 6.86706 5.59037
#
# Compressibility (1/GPa) = 0.07876946
#
# Stress axis : x y z
#
# Youngs Moduli (GPa) = 73.99042 21.00511 138.86360
#
# Poissons Ratio (x) = -0.18690 0.31684
# Poissons Ratio (y) = -0.65837 0.19353
# Poissons Ratio (z) = 0.16882 0.02927
#
# Static dielectric constant tensor:
#      x y z
#    x 4.094660 0.363520 -0.285360 
#    y 0.363520 3.687460 0.109710 
#    z -0.285360 0.109710 4.711510 
# 
# 
# High freq. dielectric constant tensor:
#      x y z
#    x 1.913680 -0.011250 -0.009890 
#    y -0.011250 1.901100 0.001960 
#    z -0.009890 0.001960 1.934600 
# 
# From -- ./inp_files/215240.got.cif
#   From: 2010.06.25/outbox.cif.g09.slc.cpg/sg2_108_cif.got.tgz:215240.got - 2010.06.27 13:26:56.
