data_PCOD8005689
_publ_section_title
;
Structure prediction by ZEFSAII (Michael W. Deem and Ramdas Pophale) SiO2 
 PCOD8005689
Probable space group: P -1
;
_chemical_formula_sum "Si O2"
_cell_formula_units_Z 16
_cell_length_a 11.167033
_cell_length_b 8.519903
_cell_length_c 13.537993
_cell_angle_alpha 94.975366
_cell_angle_beta 139.699650
_cell_angle_gamma 69.934073
_cell_volume 749.377004
_symmetry_space_group_name_H-M "P -1"
_symmetry_group_IT_number 2
_symmetry_cell_setting 'triclinic'
loop_
_space_group_symop_operation_xyz
x,y,z
-x,-y,-z
loop_
_atom_site_type_symbol
_atom_site_label
_atom_site_fract_x
_atom_site_fract_y
_atom_site_fract_z
Si Si1 0.483169 0.141404 0.268189
Si Si2 0.124664 0.171404 0.139744
Si Si3 0.914480 0.984224 0.101540
Si Si4 0.547488 0.845039 0.149408
Si Si5 0.186637 0.467149 0.983789
Si Si6 0.432100 0.506213 0.845887
Si Si7 0.848149 0.196547 0.444040
Si Si8 0.904898 0.739176 0.237663
O O1 0.369776 0.126307 0.297527
O O2 0.664166 0.200425 0.399920
O O3 0.584733 0.958971 0.264053
O O4 0.286705 0.278772 0.089637
O O5 0.995518 0.380602 0.063953
O O6 0.095599 0.085945 0.016389
O O7 0.054785 0.090831 0.185716
O O8 0.004288 0.829710 0.229558
O O9 0.691768 0.106286 0.013479
O O10 0.647393 0.641286 0.234070
O O11 0.665297 0.858845 0.124125
O O12 0.091212 0.436151 0.818551
O O13 0.363448 0.533007 0.089743
O O14 0.251400 0.694179 0.711916
O O15 0.500000 0.500000 0.000000
O O16 0.961117 0.295133 0.580061
O O17 0.000000 0.000000 0.500000
#
# Coordination Sequence:
#
# PCOD8005689 Si02
#       8
#     2   2   2   2   2   2   2   2
#     4  10  22  40  64  89 122 176 209 262 314 381
#     4  10  20  39  61  95 123 165 226 261 303 368
#     4  10  22  35  65  95 124 166 216 269 308 372
#     4  11  20  38  62  95 125 156 215 265 317 378
#     4  11  21  36  63  94 127 164 215 265 312 379
#     4  11  24  39  65  97 127 165 214 264 314 378
#     4  11  26  43  61  94 137 169 206 260 326 386
#     4  12  23  38  61  94 130 166 206 260 334 363
#
# _framework density 21.351068999999999
#
# number of rings (size 3 to 8) (size 9 to 14) (size 15 to 20)
#    0.000    1.250    6.250    0.750    1.750    0.500 
#    0.000    1.250    0.000    0.000    0.000    0.000 
#    0.000    0.000    0.000    0.000    0.000    0.000 
#
# Total GULP energy -198230.802946 kJ/mol
# GULP energy per Si atom -12389.425184 kJ/mol
# Density = 2.130247 g / cm^3
# Si number density = 21.351069 Si / 1000 Ang^3
#
#
#
# Elastic Constant Matrix: (Units=GPa)
#
#
# Indices 1 2 3 4 5 6 
#
# 1 127.9781 28.0512 21.6484 -5.5942 19.3702 5.5671
# 2 28.0512 96.0206 16.7603 -11.3035 8.3690 4.3508
# 3 21.6484 16.7603 60.0718 0.3180 3.1298 -1.5119
# 4 -5.5942 -11.3035 0.3180 25.6977 5.8506 6.1174
# 5 19.3702 8.3690 3.1298 5.8506 27.5956 -4.9969
# 6 5.5671 4.3508 -1.5119 6.1174 -4.9969 32.0462
#
#
#
# Elastic Compliance Matrix: (Units=1/GPa)
#
#
# Indices 1 2 3 4 5 6 
#
# 1 0.010163 -0.000999 -0.003081 0.004606 -0.008169 -0.003928
# 2 -0.000999 0.012755 -0.003071 0.007538 -0.005131 -0.003942
# 3 -0.003081 -0.003071 0.018587 -0.003432 0.002226 0.002831
# 4 0.004606 0.007538 -0.003432 0.050986 -0.018586 -0.014616
# 5 -0.008169 -0.005131 0.002226 -0.018586 0.049663 0.013513
# 6 -0.003928 -0.003942 0.002831 -0.014616 0.013513 0.037453
#
#
# Mechanical properties :
#
#
# Convention : Reuss Voigt Hill
#
# Bulk Modulus (GPa) = 36.75964 46.33225 41.54594
# Shear Modulus (GPa) = 24.63342 31.57526 28.10434
#
# Velocity S-wave (km/s) = 3.40035 3.84977 3.63202
# Velocity P-wave (km/s) = 5.71582 6.44269 6.09011
#
# Compressibility (1/GPa) = 0.02720375
#
# Stress axis : x y z
#
# Youngs Moduli (GPa) = 98.39967 78.39845 53.80016
#
# Poissons Ratio (x) = 0.07831 0.16577
# Poissons Ratio (y) = 0.09829 0.16520
# Poissons Ratio (z) = 0.30320 0.24073
#
# Static dielectric constant tensor:
#      x y z
#    x 4.530350 0.346610 0.328120 
#    y 0.346610 3.933280 -0.009510 
#    z 0.328120 -0.009510 3.458430 
# 
# 
# High freq. dielectric constant tensor:
#      x y z
#    x 1.856520 0.013860 0.027320 
#    y 0.013860 1.841020 0.000560 
#    z 0.027320 0.000560 1.784650 
# 
# From -- ./inp_files/306751.got.cif
#   From: 2010.06.25/outbox.cif.g09.slc.cpg/sg2_154_cif.got.tgz:306751.got - 2010.06.27 13:26:56.
