data_PCOD8005843
_publ_section_title
;
Structure prediction by ZEFSAII (Michael W. Deem and Ramdas Pophale) SiO2 
 PCOD8005843
Probable space group: P -1
;
_chemical_formula_sum "Si O2"
_cell_formula_units_Z 14
_cell_length_a 16.186769
_cell_length_b 17.972220
_cell_length_c 7.812422
_cell_angle_alpha 115.821099
_cell_angle_beta 140.147880
_cell_angle_gamma 33.921048
_cell_volume 671.456759
_symmetry_space_group_name_H-M "P -1"
_symmetry_group_IT_number 2
_symmetry_cell_setting 'triclinic'
loop_
_space_group_symop_operation_xyz
x,y,z
-x,-y,-z
loop_
_atom_site_type_symbol
_atom_site_label
_atom_site_fract_x
_atom_site_fract_y
_atom_site_fract_z
Si Si1 0.155381 0.994888 0.199229
Si Si2 0.095327 0.876340 0.405627
Si Si3 0.557951 0.882256 0.209962
Si Si4 0.958093 0.379179 0.095868
Si Si5 0.528789 0.738208 0.790607
Si Si6 0.971955 0.760931 0.621658
Si Si7 0.992362 0.242706 0.706609
O O1 0.438480 0.823587 0.547767
O O2 0.036156 0.137314 0.253803
O O3 0.000000 0.000000 0.000000
O O4 0.134219 0.020851 0.987787
O O5 0.342755 0.768156 0.588825
O O6 0.156293 0.760417 0.493764
O O7 0.000000 0.000000 0.500000
O O8 0.742837 0.766840 0.553024
O O9 0.689368 0.878131 0.291698
O O10 0.527226 0.812020 0.998217
O O11 0.289821 0.063771 0.023394
O O12 0.864619 0.375601 0.108131
O O13 0.807011 0.548251 0.021339
O O14 0.903490 0.361789 0.815545
O O15 0.083223 0.686503 0.533781
#
# Coordination Sequence:
#
# PCOD8005843 Si02
#       7
#     2   2   2   2   2   2   2
#     4  10  20  39  63  89 122 163 209 253 307 368
#     4  11  21  39  67  92 120 166 220 252 306 382
#     4  10  21  40  67  88 132 163 214 250 311 373
#     4  10  25  39  63  97 129 164 203 264 322 357
#     4  11  22  42  63  92 132 163 201 272 316 356
#     4  10  22  40  66  91 122 168 212 254 308 375
#     4  12  20  41  64  93 122 169 217 252 301 385
#
# _framework density 20.850186999999998
#
# number of rings (size 3 to 8) (size 9 to 14) (size 15 to 20)
#    0.857    0.571    4.286    2.143    0.000    0.571 
#    2.571    1.429    0.000    0.000    0.000    0.000 
#    0.000    0.000    0.000    0.000    0.000    0.000 
#
# Total GULP energy -173510.185238 kJ/mol
# GULP energy per Si atom -12393.584660 kJ/mol
# Density = 2.080273 g / cm^3
# Si number density = 20.850187 Si / 1000 Ang^3
#
#
#
# Elastic Constant Matrix: (Units=GPa)
#
#
# Indices 1 2 3 4 5 6 
#
# 1 75.2115 8.8151 17.7988 18.2279 -15.5349 -4.0267
# 2 8.8151 67.0378 29.9937 6.2971 -17.8332 -2.4372
# 3 17.7988 29.9937 62.1436 17.6208 -20.9805 -3.6378
# 4 18.2279 6.2971 17.6208 30.5932 0.1624 -0.7762
# 5 -15.5349 -17.8332 -20.9805 0.1624 40.2155 11.2219
# 6 -4.0267 -2.4372 -3.6378 -0.7762 11.2219 29.5157
#
#
#
# Elastic Compliance Matrix: (Units=1/GPa)
#
#
# Indices 1 2 3 4 5 6 
#
# 1 0.017188 0.000531 0.000193 -0.010515 0.007184 -0.000595
# 2 0.000531 0.019761 -0.008114 0.000232 0.005074 -0.001219
# 3 0.000193 -0.008114 0.027926 -0.014643 0.011669 -0.002024
# 4 -0.010515 0.000232 -0.014643 0.047476 -0.012574 0.002809
# 5 0.007184 0.005074 0.011669 -0.012574 0.039524 -0.012520
# 6 -0.000595 -0.001219 -0.002024 0.002809 -0.012520 0.038283
#
#
# Mechanical properties :
#
#
# Convention : Reuss Voigt Hill
#
# Bulk Modulus (GPa) = 19.96200 35.28979 27.62589
# Shear Modulus (GPa) = 22.55949 29.91723 26.23836
#
# Velocity S-wave (km/s) = 3.29291 3.79207 3.55127
# Velocity P-wave (km/s) = 4.90434 6.01126 5.48579
#
# Compressibility (1/GPa) = 0.05009518
#
# Stress axis : x y z
#
# Youngs Moduli (GPa) = 58.17911 50.60444 35.80926
#
# Poissons Ratio (x) = -0.02685 -0.00691
# Poissons Ratio (y) = -0.03087 0.29054
# Poissons Ratio (z) = -0.01123 0.41059
#
# Static dielectric constant tensor:
#      x y z
#    x 3.899390 0.141190 -0.295370 
#    y 0.141190 3.486380 0.208730 
#    z -0.295370 0.208730 4.008900 
# 
# 
# High freq. dielectric constant tensor:
#      x y z
#    x 1.806730 0.014670 -0.014360 
#    y 0.014670 1.807550 0.024480 
#    z -0.014360 0.024480 1.812700 
# 
# From -- ./inp_files/336030.got.cif
#   From: 2010.06.25/outbox.cif.g09.slc.cpg/sg2_169_cif.got.tgz:336030.got - 2010.06.27 13:26:56.
