data_PCOD8005748
_publ_section_title
;
Structure prediction by ZEFSAII (Michael W. Deem and Ramdas Pophale) SiO2 
 PCOD8005748
Probable space group: P -1
;
_chemical_formula_sum "Si O2"
_cell_formula_units_Z 12
_cell_length_a 25.549617
_cell_length_b 6.340255
_cell_length_c 22.373199
_cell_angle_alpha 118.711592
_cell_angle_beta 170.112468
_cell_angle_gamma 62.086513
_cell_volume 545.505005
_symmetry_space_group_name_H-M "P -1"
_symmetry_group_IT_number 2
_symmetry_cell_setting 'triclinic'
loop_
_space_group_symop_operation_xyz
x,y,z
-x,-y,-z
loop_
_atom_site_type_symbol
_atom_site_label
_atom_site_fract_x
_atom_site_fract_y
_atom_site_fract_z
Si Si1 0.678456 0.515254 0.311594
Si Si2 0.906597 0.487851 0.690538
Si Si3 0.598342 0.940612 0.429161
Si Si4 0.544482 0.051280 0.253209
Si Si5 0.875487 0.764498 0.295349
Si Si6 0.274408 0.925522 0.183743
O O1 0.630869 0.797645 0.287405
O O2 0.909745 0.474998 0.620763
O O3 0.841985 0.407623 0.422791
O O4 0.356454 0.375747 0.940578
O O5 0.617048 0.650724 0.405571
O O6 0.218541 0.631874 0.082036
O O7 0.851777 0.224536 0.621158
O O8 0.439122 0.033109 0.201652
O O9 0.410157 0.015872 0.285440
O O10 0.948563 0.050060 0.842727
O O11 0.280705 0.163893 0.932885
O O12 0.000000 0.000000 0.500000
O O13 0.500000 0.000000 0.500000
#
# Coordination Sequence:
#
# PCOD8005748 Si02
#       6
#     2   2   2   2   2   2
#     4  10  23  40  64  93 126 168 217 254 317 385
#     4   8  21  36  62  89 124 165 212 254 314 371
#     4   9  21  37  60  89 121 166 215 251 316 379
#     4  10  22  42  67  94 128 172 216 265 309 385
#     4  11  25  43  64  97 131 164 209 268 323 371
#     4  10  20  39  62  89 131 164 203 272 318 360
#
# _framework density 21.997965000000001
#
# number of rings (size 3 to 8) (size 9 to 14) (size 15 to 20)
#    1.000    1.333    0.000    1.000    7.000    6.667 
#    0.000    1.667    0.000    0.000    0.000    0.000 
#    0.000    0.000    0.000    0.000    0.000    0.000 
#
# Total GULP energy -148698.904261 kJ/mol
# GULP energy per Si atom -12391.575355 kJ/mol
# Density = 2.194790 g / cm^3
# Si number density = 21.997965 Si / 1000 Ang^3
#
#
#
# Elastic Constant Matrix: (Units=GPa)
#
#
# Indices 1 2 3 4 5 6 
#
# 1 75.9499 10.9022 42.7756 6.8136 22.2025 -2.4811
# 2 10.9022 84.7664 35.9827 20.5515 11.8922 6.1474
# 3 42.7756 35.9827 102.7163 29.2769 15.4404 3.1054
# 4 6.8136 20.5515 29.2769 32.8187 -3.9205 -9.4873
# 5 22.2025 11.8922 15.4404 -3.9205 36.2997 0.8065
# 6 -2.4811 6.1474 3.1054 -9.4873 0.8065 21.5955
#
#
#
# Elastic Compliance Matrix: (Units=1/GPa)
#
#
# Indices 1 2 3 4 5 6 
#
# 1 0.020310 0.001191 -0.008519 0.002970 -0.008976 0.004859
# 2 0.001191 0.017273 -0.001212 -0.013848 -0.007136 -0.010423
# 3 -0.008519 -0.001212 0.020473 -0.019829 -0.004973 -0.012103
# 4 0.002970 -0.013848 -0.019829 0.068969 0.017787 0.036770
# 5 -0.008976 -0.007136 -0.004973 0.017787 0.039234 0.008064
# 6 0.004859 -0.010423 -0.012103 0.036770 0.008064 0.067424
#
#
# Mechanical properties :
#
#
# Convention : Reuss Voigt Hill
#
# Bulk Modulus (GPa) = 24.40479 49.19483 36.79981
# Shear Modulus (GPa) = 18.90914 29.72759 24.31836
#
# Velocity S-wave (km/s) = 2.93505 3.68010 3.32849
# Velocity P-wave (km/s) = 4.75439 6.36156 5.61576
#
# Compressibility (1/GPa) = 0.04097557
#
# Stress axis : x y z
#
# Youngs Moduli (GPa) = 49.23659 57.89420 48.84409
#
# Poissons Ratio (x) = -0.06896 0.41612
# Poissons Ratio (y) = -0.05865 0.05920
# Poissons Ratio (z) = 0.41946 0.07017
#
# Static dielectric constant tensor:
#      x y z
#    x 3.759530 -0.021490 0.025680 
#    y -0.021490 3.905190 0.197420 
#    z 0.025680 0.197420 3.822640 
# 
# 
# High freq. dielectric constant tensor:
#      x y z
#    x 1.856680 -0.002400 0.008460 
#    y -0.002400 1.855680 0.015110 
#    z 0.008460 0.015110 1.855760 
# 
# From -- ./inp_files/6976.got.cif
#   From: 2010.06.25/outbox.cif.g09.slc.cpg/sg2_4_cif.got.tgz:6976.got - 2010.06.27 13:26:56.
