data_PCOD8005356
_publ_section_title
;
Structure prediction by ZEFSAII (Michael W. Deem and Ramdas Pophale) SiO2 
 PCOD8005356
Probable space group: P -1
;
_chemical_formula_sum "Si O2"
_cell_formula_units_Z 16
_cell_length_a 8.885339
_cell_length_b 11.165416
_cell_length_c 9.428481
_cell_angle_alpha 117.618641
_cell_angle_beta 103.653074
_cell_angle_gamma 64.023961
_cell_volume 744.433763
_symmetry_space_group_name_H-M "P -1"
_symmetry_group_IT_number 2
_symmetry_cell_setting 'triclinic'
loop_
_space_group_symop_operation_xyz
x,y,z
-x,-y,-z
loop_
_atom_site_type_symbol
_atom_site_label
_atom_site_fract_x
_atom_site_fract_y
_atom_site_fract_z
Si Si1 0.464230 0.413777 0.161248
Si Si2 0.851530 0.616185 0.822347
Si Si3 0.266001 0.110664 0.850613
Si Si4 0.081222 0.235493 0.339219
Si Si5 0.536248 0.672141 0.212335
Si Si6 0.364636 0.950469 0.194388
Si Si7 0.879599 0.675601 0.306978
Si Si8 0.779168 0.147322 0.149582
O O1 0.314408 0.419527 0.233067
O O2 0.461365 0.576302 0.234908
O O3 0.632002 0.307279 0.217230
O O4 0.439402 0.362407 0.969979
O O5 0.909054 0.636862 0.688612
O O6 0.000605 0.468812 0.831810
O O7 0.818699 0.765663 0.981635
O O8 0.466796 0.065386 0.863266
O O9 0.174867 0.179455 0.721924
O O10 0.232094 0.965059 0.794925
O O11 0.026503 0.299193 0.519228
O O12 0.953199 0.167390 0.212974
O O13 0.269458 0.112135 0.321721
O O14 0.408510 0.841500 0.280503
O O15 0.715248 0.648341 0.304544
O O16 0.236138 0.916600 0.042628
#
# Coordination Sequence:
#
# PCOD8005356 Si02
#       8
#     2   2   2   2   2   2   2   2
#     4  10  20  38  67  95 117 157 214 258 299 358
#     4  12  22  41  65  92 122 166 210 255 300 371
#     4  11  22  40  69  91 119 160 214 263 303 358
#     4  12  26  39  62  92 133 167 199 252 318 372
#     4   9  20  39  64  93 124 155 202 263 307 359
#     4  10  20  40  65  94 117 161 212 258 306 360
#     4  11  25  43  58  94 132 166 199 252 322 368
#     4  11  21  40  63  94 120 161 211 258 299 365
#
# _framework density 21.492846
#
# number of rings (size 3 to 8) (size 9 to 14) (size 15 to 20)
#    0.000    1.250    5.000    3.000    0.000    3.500 
#    0.000    3.750    0.000    0.000    0.000    0.000 
#    0.000    0.000    0.000    0.000    0.000    0.000 
#
# Total GULP energy -198372.672735 kJ/mol
# GULP energy per Si atom -12398.292046 kJ/mol
# Density = 2.144393 g / cm^3
# Si number density = 21.492846 Si / 1000 Ang^3
#
#
#
# Elastic Constant Matrix: (Units=GPa)
#
#
# Indices 1 2 3 4 5 6 
#
# 1 115.5666 64.6628 26.4108 -5.1684 1.0642 12.4474
# 2 64.6628 133.4089 16.4049 0.9911 -4.0582 12.6852
# 3 26.4108 16.4049 55.0238 -6.9149 -5.4842 -6.3073
# 4 -5.1684 0.9911 -6.9149 22.7048 1.3162 -3.9090
# 5 1.0642 -4.0582 -5.4842 1.3162 14.5465 -4.9410
# 6 12.4474 12.6852 -6.3073 -3.9090 -4.9410 40.9705
#
#
#
# Elastic Compliance Matrix: (Units=1/GPa)
#
#
# Indices 1 2 3 4 5 6 
#
# 1 0.013744 -0.005779 -0.005779 0.001311 -0.006241 -0.003903
# 2 -0.005779 0.010615 -0.000575 -0.002379 0.002873 -0.001500
# 3 -0.005779 -0.000575 0.023954 0.006663 0.011277 0.007617
# 4 0.001311 -0.002379 0.006663 0.047511 -0.000567 0.005829
# 5 -0.006241 0.002873 0.011277 -0.000567 0.078432 0.012147
# 6 -0.003903 -0.001500 0.007617 0.005829 0.012147 0.029252
#
#
# Mechanical properties :
#
#
# Convention : Reuss Voigt Hill
#
# Bulk Modulus (GPa) = 41.58668 57.66178 49.62423
# Shear Modulus (GPa) = 21.20526 28.74576 24.97551
#
# Velocity S-wave (km/s) = 3.14446 3.66109 3.41257
# Velocity P-wave (km/s) = 5.70741 6.69015 6.21823
#
# Compressibility (1/GPa) = 0.02404616
#
# Stress axis : x y z
#
# Youngs Moduli (GPa) = 72.75966 94.20200 41.74747
#
# Poissons Ratio (x) = 0.54444 0.24124
# Poissons Ratio (y) = 0.42051 0.02402
# Poissons Ratio (z) = 0.42044 0.05420
#
# Static dielectric constant tensor:
#      x y z
#    x 3.736340 -0.013550 -0.002770 
#    y -0.013550 4.286820 0.060760 
#    z -0.002770 0.060760 3.394360 
# 
# 
# High freq. dielectric constant tensor:
#      x y z
#    x 1.837560 -0.001380 0.000930 
#    y -0.001380 1.873380 0.003050 
#    z 0.000930 0.003050 1.801730 
# 
# From -- ./inp_files/190179.got.cif
#   From: 2010.06.25/outbox.cif.g09.slc.cpg/sg2_96_cif.got.tgz:190179.got - 2010.06.27 13:26:56.
