data_PCOD8005949
_publ_section_title
;
Structure prediction by ZEFSAII (Michael W. Deem and Ramdas Pophale) SiO2 
 PCOD8005949
Probable space group: P -1
;
_chemical_formula_sum "Si O2"
_cell_formula_units_Z 16
_cell_length_a 20.987351
_cell_length_b 9.206799
_cell_length_c 10.193733
_cell_angle_alpha 57.604034
_cell_angle_beta 125.785641
_cell_angle_gamma 150.426414
_cell_volume 786.777945
_symmetry_space_group_name_H-M "P -1"
_symmetry_group_IT_number 2
_symmetry_cell_setting 'triclinic'
loop_
_space_group_symop_operation_xyz
x,y,z
-x,-y,-z
loop_
_atom_site_type_symbol
_atom_site_label
_atom_site_fract_x
_atom_site_fract_y
_atom_site_fract_z
Si Si1 0.595891 0.119830 0.441704
Si Si2 0.793495 0.423178 0.057227
Si Si3 0.639128 0.814577 0.571185
Si Si4 0.013219 0.324700 0.067648
Si Si5 0.128224 0.617781 0.566060
Si Si6 0.501507 0.881533 0.935366
Si Si7 0.261813 0.296912 0.059575
Si Si8 0.891010 0.663531 0.560081
O O1 0.530713 0.060408 0.256430
O O2 0.739883 0.470735 0.461453
O O3 0.500000 0.000000 0.500000
O O4 0.615247 0.949369 0.554409
O O5 0.838365 0.453953 0.242726
O O6 0.908507 0.570038 0.024551
O O7 0.768786 0.584760 0.950785
O O8 0.654015 0.078466 0.013197
O O9 0.500000 0.500000 0.500000
O O10 0.706344 0.797376 0.756021
O O11 0.742104 0.029797 0.470745
O O12 0.093754 0.379042 0.254709
O O13 0.000000 0.500000 0.000000
O O14 0.866246 0.979927 0.047736
O O15 0.091331 0.454475 0.467574
O O16 0.000000 0.500000 0.500000
O O17 0.387147 0.535083 0.992727
O O18 0.500000 0.000000 0.000000
O O19 0.000000 0.000000 0.500000
#
# Coordination Sequence:
#
# PCOD8005949 Si02
#       8
#     2   2   2   2   2   2   2   2
#     4  11  23  41  61  89 124 160 197 245 301 358
#     4  11  22  41  65  89 117 159 203 246 299 358
#     4  11  22  39  62  92 122 155 200 252 298 352
#     4  12  24  40  59  88 124 159 195 245 300 354
#     4  11  23  41  62  89 121 157 200 248 296 355
#     4  10  20  39  64  88 116 158 202 246 297 356
#     4  11  22  39  63  91 119 157 203 250 295 353
#     4  11  23  40  60  86 120 159 198 242 294 354
#
# _framework density 20.336106000000001
#
# number of rings (size 3 to 8) (size 9 to 14) (size 15 to 20)
#    0.000    1.000    0.000   10.875    0.000    2.000 
#    0.000    5.000    0.000    0.000    0.000    0.000 
#    0.000    0.000    0.000    0.000    0.000    0.000 
#
# Total GULP energy -198421.259781 kJ/mol
# GULP energy per Si atom -12401.328736 kJ/mol
# Density = 2.028982 g / cm^3
# Si number density = 20.336106 Si / 1000 Ang^3
#
#
#
# Elastic Constant Matrix: (Units=GPa)
#
#
# Indices 1 2 3 4 5 6 
#
# 1 111.9052 54.0699 38.2862 -8.9974 -5.1417 15.8206
# 2 54.0699 161.0712 25.8738 4.2822 -8.9130 19.6705
# 3 38.2862 25.8738 141.1680 3.6302 -6.7466 -0.5245
# 4 -8.9974 4.2822 3.6302 40.4310 1.8686 3.2719
# 5 -5.1417 -8.9130 -6.7466 1.8686 31.7729 -0.8967
# 6 15.8206 19.6705 -0.5245 3.2719 -0.8967 27.7992
#
#
#
# Elastic Compliance Matrix: (Units=1/GPa)
#
#
# Indices 1 2 3 4 5 6 
#
# 1 0.012552 -0.003177 -0.002933 0.003823 0.000140 -0.005396
# 2 -0.003177 0.007915 -0.000494 -0.001282 0.001575 -0.003600
# 3 -0.002933 -0.000494 0.008080 -0.001578 0.001263 0.002398
# 4 0.003823 -0.001282 -0.001578 0.026303 -0.001749 -0.004450
# 5 0.000140 0.001575 0.001263 -0.001749 0.032311 0.000078
# 6 -0.005396 -0.003600 0.002398 -0.004450 0.000078 0.042162
#
#
# Mechanical properties :
#
#
# Convention : Reuss Voigt Hill
#
# Bulk Modulus (GPa) = 65.20186 72.28938 68.74562
# Shear Modulus (GPa) = 33.86513 39.72826 36.79670
#
# Velocity S-wave (km/s) = 4.08520 4.42473 4.25835
# Velocity P-wave (km/s) = 7.37452 7.85677 7.61946
#
# Compressibility (1/GPa) = 0.01533699
#
# Stress axis : x y z
#
# Youngs Moduli (GPa) = 79.67143 126.33781 123.76585
#
# Poissons Ratio (x) = 0.40139 0.36306
# Poissons Ratio (y) = 0.25313 0.06116
# Poissons Ratio (z) = 0.23371 0.06243
#
# Static dielectric constant tensor:
#      x y z
#    x 3.687800 0.377650 -0.099270 
#    y 0.377650 4.426500 -0.134640 
#    z -0.099270 -0.134640 4.462250 
# 
# 
# High freq. dielectric constant tensor:
#      x y z
#    x 1.783570 0.019290 0.001410 
#    y 0.019290 1.814900 0.005470 
#    z 0.001410 0.005470 1.810890 
# 
# From -- ./inp_files/207885.got.cif
#   From: 2010.06.25/outbox.cif.g09.slc.cpg/sg2_104_cif.got.tgz:207885.got - 2010.06.27 13:26:56.
