data_PCOD8005370
_publ_section_title
;
Structure prediction by ZEFSAII (Michael W. Deem and Ramdas Pophale) SiO2 
 PCOD8005370
Probable space group: P -1
;
_chemical_formula_sum "Si O2"
_cell_formula_units_Z 14
_cell_length_a 9.196461
_cell_length_b 14.304483
_cell_length_c 8.633306
_cell_angle_alpha 83.331435
_cell_angle_beta 68.799440
_cell_angle_gamma 134.804518
_cell_volume 622.016954
_symmetry_space_group_name_H-M "P -1"
_symmetry_group_IT_number 2
_symmetry_cell_setting 'triclinic'
loop_
_space_group_symop_operation_xyz
x,y,z
-x,-y,-z
loop_
_atom_site_type_symbol
_atom_site_label
_atom_site_fract_x
_atom_site_fract_y
_atom_site_fract_z
Si Si1 0.291023 0.974820 0.033156
Si Si2 0.406096 0.183808 0.710422
Si Si3 0.973560 0.927322 0.371232
Si Si4 0.225088 0.393153 0.712143
Si Si5 0.062851 0.512282 0.650042
Si Si6 0.411805 0.602106 0.121119
Si Si7 0.375840 0.377767 0.254238
O O1 0.260690 0.034368 0.176255
O O2 0.991618 0.794051 0.154558
O O3 0.500000 0.000000 0.000000
O O4 0.390926 0.075408 0.820872
O O5 0.150958 0.076807 0.724526
O O6 0.648162 0.301600 0.470504
O O7 0.443707 0.284961 0.804662
O O8 0.807515 0.753459 0.514688
O O9 0.000000 0.000000 0.500000
O O10 0.500000 0.500000 0.500000
O O11 0.069113 0.404318 0.695724
O O12 0.319951 0.468439 0.833454
O O13 0.000000 0.500000 0.500000
O O14 0.823139 0.445475 0.847097
O O15 0.278783 0.436598 0.245667
O O16 0.626279 0.689700 0.884943
#
# Coordination Sequence:
#
# PCOD8005370 Si02
#       7
#     2   2   2   2   2   2   2
#     4  12  26  43  71 103 141 178 230 285 346 410
#     4  11  23  44  68  97 136 184 225 276 346 413
#     4  12  26  44  69  95 140 182 230 282 347 407
#     4  12  22  42  70  98 129 184 225 272 339 409
#     4  10  20  38  67  98 132 169 224 276 338 404
#     4  10  23  40  68 100 136 174 229 283 340 406
#     4  11  23  42  67  99 131 178 233 279 330 419
#
# _framework density 22.507425000000001
#
# number of rings (size 3 to 8) (size 9 to 14) (size 15 to 20)
#    0.000    0.857    2.857    5.571    2.000    2.857 
#    2.571    0.714    0.000    0.000    0.000    0.000 
#    0.000    0.000    0.000    0.000    0.000    0.000 
#
# Total GULP energy -173516.890157 kJ/mol
# GULP energy per Si atom -12394.063583 kJ/mol
# Density = 2.245620 g / cm^3
# Si number density = 22.507425 Si / 1000 Ang^3
#
#
#
# Elastic Constant Matrix: (Units=GPa)
#
#
# Indices 1 2 3 4 5 6 
#
# 1 153.2398 25.0902 34.7174 17.0905 -7.2154 -13.1078
# 2 25.0902 80.5180 20.1777 11.4267 -8.0807 5.1179
# 3 34.7174 20.1777 79.1863 0.1771 1.2100 -2.4841
# 4 17.0905 11.4267 0.1771 37.2520 -4.2870 8.0846
# 5 -7.2154 -8.0807 1.2100 -4.2870 39.4642 -7.2817
# 6 -13.1078 5.1179 -2.4841 8.0846 -7.2817 29.2467
#
#
#
# Elastic Compliance Matrix: (Units=1/GPa)
#
#
# Indices 1 2 3 4 5 6 
#
# 1 0.008543 -0.001375 -0.003242 -0.004456 0.001911 0.005502
# 2 -0.001375 0.014418 -0.003160 -0.003095 0.002086 -0.002033
# 3 -0.003242 -0.003160 0.014852 0.002353 -0.001565 -0.000678
# 4 -0.004456 -0.003095 0.002353 0.032027 0.000098 -0.010084
# 5 0.001911 0.002086 -0.001565 0.000098 0.027499 0.007178
# 6 0.005502 -0.002033 -0.000678 -0.010084 0.007178 0.041530
#
#
# Mechanical properties :
#
#
# Convention : Reuss Voigt Hill
#
# Bulk Modulus (GPa) = 44.92403 52.54609 48.73506
# Shear Modulus (GPa) = 30.89438 36.72317 33.80877
#
# Velocity S-wave (km/s) = 3.70892 4.04369 3.87992
# Velocity P-wave (km/s) = 6.19229 6.72300 6.46309
#
# Compressibility (1/GPa) = 0.02225980
#
# Stress axis : x y z
#
# Youngs Moduli (GPa) = 117.05698 69.35882 67.33039
#
# Poissons Ratio (x) = 0.09538 0.21826
# Poissons Ratio (y) = 0.16098 0.21274
# Poissons Ratio (z) = 0.37946 0.21915
#
# Static dielectric constant tensor:
#      x y z
#    x 4.704070 -0.001580 -0.480150 
#    y -0.001580 4.180470 -0.198820 
#    z -0.480150 -0.198820 4.718490 
# 
# 
# High freq. dielectric constant tensor:
#      x y z
#    x 1.896210 -0.008600 0.007570 
#    y -0.008600 1.875530 -0.009440 
#    z 0.007570 -0.009440 1.887530 
# 
# From -- ./inp_files/201376.got.cif
#   From: 2010.06.25/outbox.cif.g09.slc.cpg/sg2_101_cif.got.tgz:201376.got - 2010.06.27 13:26:56.
