data_PCOD8005368
_publ_section_title
;
Structure prediction by ZEFSAII (Michael W. Deem and Ramdas Pophale) SiO2 
 PCOD8005368
Probable space group: P -1
;
_chemical_formula_sum "Si O2"
_cell_formula_units_Z 16
_cell_length_a 13.394102
_cell_length_b 11.525798
_cell_length_c 13.255421
_cell_angle_alpha 49.107559
_cell_angle_beta 130.236982
_cell_angle_gamma 89.732431
_cell_volume 793.129911
_symmetry_space_group_name_H-M "P -1"
_symmetry_group_IT_number 2
_symmetry_cell_setting 'triclinic'
loop_
_space_group_symop_operation_xyz
x,y,z
-x,-y,-z
loop_
_atom_site_type_symbol
_atom_site_label
_atom_site_fract_x
_atom_site_fract_y
_atom_site_fract_z
Si Si1 0.655555 0.741545 0.052620
Si Si2 0.935116 0.112853 0.786793
Si Si3 0.094616 0.065942 0.304381
Si Si4 0.761351 0.961145 0.096971
Si Si5 0.475026 0.360957 0.807864
Si Si6 0.751680 0.396663 0.025949
Si Si7 0.071591 0.761889 0.561003
Si Si8 0.481619 0.900498 0.637342
O O1 0.754495 0.793253 0.149567
O O2 0.516340 0.775520 0.021160
O O3 0.805278 0.483392 0.263518
O O4 0.558294 0.894623 0.799397
O O5 0.914758 0.967896 0.799733
O O6 0.737699 0.384624 0.498975
O O7 0.112785 0.056211 0.891425
O O8 0.000000 0.000000 0.000000
O O9 0.145119 0.859872 0.508390
O O10 0.260824 0.048024 0.435240
O O11 0.888003 0.316959 0.063978
O O12 0.855639 0.903188 0.303422
O O13 0.546708 0.220499 0.828605
O O14 0.626790 0.356580 0.944780
O O15 0.912048 0.233897 0.311069
O O16 0.601965 0.653450 0.816052
O O17 0.500000 0.000000 0.500000
#
# Coordination Sequence:
#
# PCOD8005368 Si02
#       8
#     2   2   2   2   2   2   2   2
#     4  11  23  41  64  92 136 172 206 264 322 376
#     4  11  25  43  66  93 128 171 212 265 317 376
#     4  11  21  42  66  93 125 160 217 262 313 379
#     4  11  24  41  62  98 134 167 214 260 319 380
#     4  12  22  42  68  98 123 165 220 262 319 376
#     4  11  22  40  69  95 124 161 215 267 315 378
#     4  10  20  38  67  97 126 166 205 268 320 370
#     4  11  26  43  63  92 130 171 211 264 318 379
#
# _framework density 20.173238000000001
#
# number of rings (size 3 to 8) (size 9 to 14) (size 15 to 20)
#    0.000    1.000    6.250    1.875    3.500    3.000 
#    2.250    0.000    0.000    0.000    0.000    0.000 
#    0.000    0.000    0.000    0.000    0.000    0.000 
#
# Total GULP energy -198230.747469 kJ/mol
# GULP energy per Si atom -12389.421717 kJ/mol
# Density = 2.012732 g / cm^3
# Si number density = 20.173238 Si / 1000 Ang^3
#
#
#
# Elastic Constant Matrix: (Units=GPa)
#
#
# Indices 1 2 3 4 5 6 
#
# 1 103.9998 25.0645 37.2374 4.9533 23.3012 2.1587
# 2 25.0645 41.7859 -25.0661 -3.8533 38.4950 14.4967
# 3 37.2374 -25.0661 -26.9692 9.9131 59.5179 16.6317
# 4 4.9533 -3.8533 9.9131 28.0426 -11.4586 6.9701
# 5 23.3012 38.4950 59.5179 -11.4586 -7.0238 -23.9889
# 6 2.1587 14.4967 16.6317 6.9701 -23.9889 20.3646
#
#
#
# Elastic Compliance Matrix: (Units=1/GPa)
#
#
# Indices 1 2 3 4 5 6 
#
# 1 0.017345 -0.001870 -0.010722 -0.003495 -0.013960 -0.006999
# 2 -0.001870 0.017668 -0.009858 0.008452 0.003576 -0.003008
# 3 -0.010722 -0.009858 0.020902 -0.002067 0.023675 0.019679
# 4 -0.003495 0.008452 -0.002067 0.043066 0.002153 -0.016162
# 5 -0.013960 0.003576 0.023675 0.002153 0.019949 0.002362
# 6 -0.006999 -0.003008 0.019679 -0.016162 0.002362 0.044229
#
#
# Mechanical properties :
#
#
# Convention : Reuss Voigt Hill
#
# Bulk Modulus (GPa) = 90.79685 21.47648 56.13666
# Shear Modulus (GPa) = 23.61502 13.71540 18.66521
#
# Velocity S-wave (km/s) = 3.42513 2.61028 3.04509
# Velocity P-wave (km/s) = 7.79412 4.44454 6.34438
#
# Compressibility (1/GPa) = 0.01101360
#
# Stress axis : x y z
#
# Youngs Moduli (GPa) = 57.65495 56.60084 47.84337
#
# Poissons Ratio (x) = 0.10582 0.51299
# Poissons Ratio (y) = 0.10779 0.47164
# Poissons Ratio (z) = 0.61819 0.55798
#
# Static dielectric constant tensor:
#      x y z
#    x 3.640550 -0.140030 0.049820 
#    y -0.140030 3.702830 0.292480 
#    z 0.049820 0.292480 3.645640 
# 
# 
# High freq. dielectric constant tensor:
#      x y z
#    x 1.782500 -0.010100 0.016510 
#    y -0.010100 1.808170 -0.003930 
#    z 0.016510 -0.003930 1.777880 
# 
# From -- ./inp_files/427564.got.cif
#   From: 2010.06.25/outbox.cif.g09.slc.cpg/sg2_214_cif.got.tgz:427564.got - 2010.06.27 13:26:56.
