data_PCOD8005367
_publ_section_title
;
Structure prediction by ZEFSAII (Michael W. Deem and Ramdas Pophale) SiO2 
 PCOD8005367
Probable space group: P -1
;
_chemical_formula_sum "Si O2"
_cell_formula_units_Z 16
_cell_length_a 5.151683
_cell_length_b 20.039306
_cell_length_c 8.812630
_cell_angle_alpha 72.528045
_cell_angle_beta 73.145298
_cell_angle_gamma 53.192913
_cell_volume 687.563492
_symmetry_space_group_name_H-M "P -1"
_symmetry_group_IT_number 2
_symmetry_cell_setting 'triclinic'
loop_
_space_group_symop_operation_xyz
x,y,z
-x,-y,-z
loop_
_atom_site_type_symbol
_atom_site_label
_atom_site_fract_x
_atom_site_fract_y
_atom_site_fract_z
Si Si1 0.530922 0.201796 0.312736
Si Si2 0.281401 0.541793 0.656601
Si Si3 0.847227 0.954289 0.629890
Si Si4 0.520855 0.382153 0.912480
Si Si5 0.742148 0.879811 0.405738
Si Si6 0.448885 0.350857 0.389759
Si Si7 0.145582 0.304987 0.036034
Si Si8 0.605125 0.265777 0.734175
O O1 0.395787 0.178543 0.498269
O O2 0.599406 0.271357 0.305773
O O3 0.881940 0.118682 0.252703
O O4 0.271650 0.236207 0.195703
O O5 0.500000 0.500000 0.500000
O O6 0.397993 0.475443 0.818412
O O7 0.306869 0.617370 0.665871
O O8 0.912583 0.574734 0.652412
O O9 0.779738 0.905959 0.548315
O O10 0.506687 0.032981 0.707036
O O11 0.000000 0.000000 0.500000
O O12 0.217189 0.376313 0.019287
O O13 0.710549 0.317352 0.784007
O O14 0.759754 0.353134 0.037253
O O15 0.079628 0.826903 0.293965
O O16 0.419834 0.321797 0.580893
O O17 0.348770 0.256165 0.881368
#
# Coordination Sequence:
#
# PCOD8005367 Si02
#       8
#     2   2   2   2   2   2   2   2
#     4  11  24  40  64  94 132 167 215 256 322 383
#     4  12  22  39  60  94 128 159 217 275 317 360
#     4   9  20  37  63  97 129 160 202 266 320 365
#     4  10  23  40  63  87 130 171 210 260 324 370
#     4  10  20  38  67  97 126 160 214 262 313 376
#     4  12  24  36  66  97 119 166 219 272 308 373
#     4  10  24  41  63  89 132 178 205 258 322 382
#     4  10  22  38  67  94 127 164 219 259 320 373
#
# _framework density 23.270575999999998
#
# number of rings (size 3 to 8) (size 9 to 14) (size 15 to 20)
#    0.750    0.750    2.500    2.625    3.500    0.000 
#    0.000    4.375    0.000    7.500    0.000    0.000 
#    0.000    0.000    0.000    0.000    0.000    0.000 
#
# Total GULP energy -198278.519898 kJ/mol
# GULP energy per Si atom -12392.407494 kJ/mol
# Density = 2.321761 g / cm^3
# Si number density = 23.270576 Si / 1000 Ang^3
#
#
#
# Elastic Constant Matrix: (Units=GPa)
#
#
# Indices 1 2 3 4 5 6 
#
# 1 112.2962 29.4144 -3.6702 -10.9232 19.5812 -6.7903
# 2 29.4144 122.0348 16.9964 -13.5308 18.9798 -14.4809
# 3 -3.6702 16.9964 37.4547 -19.0165 23.0917 -3.7853
# 4 -10.9232 -13.5308 -19.0165 27.6005 -8.4231 10.7735
# 5 19.5812 18.9798 23.0917 -8.4231 33.4828 -10.0801
# 6 -6.7903 -14.4809 -3.7853 10.7735 -10.0801 39.7455
#
#
#
# Elastic Compliance Matrix: (Units=1/GPa)
#
#
# Indices 1 2 3 4 5 6 
#
# 1 0.015543 -0.002535 0.024540 0.017536 -0.022056 -0.006278
# 2 -0.002535 0.009742 -0.004477 -0.000460 -0.000239 0.002754
# 3 0.024540 -0.004477 0.115342 0.072660 -0.081127 -0.026724
# 4 0.017536 -0.000460 0.072660 0.089273 -0.045469 -0.025982
# 5 -0.022056 -0.000239 -0.081127 -0.045469 0.094880 0.024807
# 6 -0.006278 0.002754 -0.026724 -0.025982 0.024807 0.035880
#
#
# Mechanical properties :
#
#
# Convention : Reuss Voigt Hill
#
# Bulk Modulus (GPa) = 5.69202 39.69633 22.69418
# Shear Modulus (GPa) = 13.01533 35.43545 24.22539
#
# Velocity S-wave (km/s) = 2.36753 3.90649 3.23000
# Velocity P-wave (km/s) = 3.15038 6.11908 4.86662
#
# Compressibility (1/GPa) = 0.17568446
#
# Stress axis : x y z
#
# Youngs Moduli (GPa) = 64.33757 102.65064 8.66991
#
# Poissons Ratio (x) = 0.26017 -0.21276
# Poissons Ratio (y) = 0.16306 0.03881
# Poissons Ratio (z) = -1.57886 0.45953
#
# Static dielectric constant tensor:
#      x y z
#    x 4.031050 -0.257880 0.202900 
#    y -0.257880 4.602590 -0.052090 
#    z 0.202900 -0.052090 3.902410 
# 
# 
# High freq. dielectric constant tensor:
#      x y z
#    x 1.929740 -0.007810 0.008210 
#    y -0.007810 1.928380 -0.005530 
#    z 0.008210 -0.005530 1.886400 
# 
# From -- ./inp_files/140672.got.cif
#   From: 2010.06.25/outbox.cif.g09.slc.cpg/sg2_71_cif.got.tgz:140672.got - 2010.06.27 13:26:56.
