data_PCOD8005158
_publ_section_title
;
Structure prediction by ZEFSAII (Michael W. Deem and Ramdas Pophale) SiO2 
 PCOD8005158
Probable space group: P -1
;
_chemical_formula_sum "Si O2"
_cell_formula_units_Z 16
_cell_length_a 6.367512
_cell_length_b 19.050506
_cell_length_c 9.658828
_cell_angle_alpha 137.568111
_cell_angle_beta 85.586964
_cell_angle_gamma 82.123643
_cell_volume 754.763434
_symmetry_space_group_name_H-M "P -1"
_symmetry_group_IT_number 2
_symmetry_cell_setting 'triclinic'
loop_
_space_group_symop_operation_xyz
x,y,z
-x,-y,-z
loop_
_atom_site_type_symbol
_atom_site_label
_atom_site_fract_x
_atom_site_fract_y
_atom_site_fract_z
Si Si1 0.418500 0.899095 0.819958
Si Si2 0.084851 0.324226 0.721668
Si Si3 0.445072 0.118859 0.509893
Si Si4 0.762815 0.065621 0.665883
Si Si5 0.169350 0.276287 0.348368
Si Si6 0.825937 0.196187 0.114340
Si Si7 0.547253 0.583067 0.511677
Si Si8 0.686983 0.494284 0.087171
O O1 0.392216 0.894040 0.648853
O O2 0.594100 0.793160 0.713656
O O3 0.196897 0.895277 0.905641
O O4 0.500000 0.000000 0.000000
O O5 0.232232 0.221992 0.651886
O O6 0.021404 0.299204 0.530069
O O7 0.215046 0.411220 0.826474
O O8 0.865398 0.375244 0.896602
O O9 0.596038 0.129371 0.647844
O O10 0.354230 0.014641 0.371143
O O11 0.796738 0.155160 0.902111
O O12 0.000000 0.000000 0.500000
O O13 0.226408 0.380602 0.426151
O O14 0.068474 0.211373 0.146036
O O15 0.665251 0.314042 0.325228
O O16 0.500000 0.500000 0.500000
O O17 0.574302 0.514965 0.271053
O O18 0.500000 0.500000 0.000000
#
# Coordination Sequence:
#
# PCOD8005158 Si02
#       8
#     2   2   2   2   2   2   2   2
#     4  10  20  38  65  89 117 160 206 254 307 358
#     4   9  20  39  63  95 124 160 202 263 316 362
#     4  10  23  43  61  89 131 163 213 260 306 380
#     4  11  26  41  60  89 127 173 211 255 315 375
#     4   9  21  38  62  93 125 155 208 260 302 373
#     4  11  23  41  64  91 125 163 211 262 311 368
#     4  10  23  41  61  90 125 165 205 251 315 372
#     4  10  20  38  67  94 122 155 207 260 312 376
#
# _framework density 21.198695000000001
#
# number of rings (size 3 to 8) (size 9 to 14) (size 15 to 20)
#    0.000    2.000    1.250    1.500    1.750    7.000 
#    0.000    0.000    0.000    0.000    0.000    0.000 
#    0.000    0.000    0.000    0.000    0.000    0.000 
#
# Total GULP energy -198284.062736 kJ/mol
# GULP energy per Si atom -12392.753921 kJ/mol
# Density = 2.115045 g / cm^3
# Si number density = 21.198695 Si / 1000 Ang^3
#
#
#
# Elastic Constant Matrix: (Units=GPa)
#
#
# Indices 1 2 3 4 5 6 
#
# 1 87.3726 50.9843 50.4339 -22.6073 19.2817 -0.1415
# 2 50.9843 129.7825 55.7343 -13.0117 7.7762 5.6082
# 3 50.4339 55.7343 132.9554 -20.9963 9.4688 -6.0224
# 4 -22.6073 -13.0117 -20.9963 30.1430 -4.6980 -0.9599
# 5 19.2817 7.7762 9.4688 -4.6980 43.9767 -0.3629
# 6 -0.1415 5.6082 -6.0224 -0.9599 -0.3629 31.6118
#
#
#
# Elastic Compliance Matrix: (Units=1/GPa)
#
#
# Indices 1 2 3 4 5 6 
#
# 1 0.020384 -0.005155 -0.003586 0.009613 -0.006223 0.000543
# 2 -0.005155 0.010963 -0.003001 -0.001178 0.000821 -0.002566
# 3 -0.003586 -0.003001 0.010828 0.003672 0.000186 0.002693
# 4 0.009613 -0.001178 0.003672 0.042468 -0.000242 0.002238
# 5 -0.006223 0.000821 0.000186 -0.000242 0.025258 0.000145
# 6 0.000543 -0.002566 0.002693 0.002238 0.000145 0.032674
#
#
# Mechanical properties :
#
#
# Convention : Reuss Voigt Hill
#
# Bulk Modulus (GPa) = 53.49773 73.82395 63.66084
# Shear Modulus (GPa) = 29.02109 34.01016 31.51562
#
# Velocity S-wave (km/s) = 3.70402 4.00978 3.85993
# Velocity P-wave (km/s) = 6.60183 7.50587 7.06832
#
# Compressibility (1/GPa) = 0.01869238
#
# Stress axis : x y z
#
# Youngs Moduli (GPa) = 49.05690 91.21978 92.35260
#
# Poissons Ratio (x) = 0.47023 0.33115
# Poissons Ratio (y) = 0.25289 0.27713
# Poissons Ratio (z) = 0.17590 0.27373
#
# Static dielectric constant tensor:
#      x y z
#    x 3.827470 0.264000 -0.158890 
#    y 0.264000 3.795020 0.011010 
#    z -0.158890 0.011010 3.800970 
# 
# 
# High freq. dielectric constant tensor:
#      x y z
#    x 1.829110 0.011200 0.001550 
#    y 0.011200 1.826090 0.002980 
#    z 0.001550 0.002980 1.840500 
# 
# From -- ./inp_files/139554.got.cif
#   From: 2010.06.25/outbox.cif.g09.slc.cpg/sg2_70_cif.got.tgz:139554.got - 2010.06.27 13:26:56.
