data_PCOD8005505
_publ_section_title
;
Structure prediction by ZEFSAII (Michael W. Deem and Ramdas Pophale) SiO2 
 PCOD8005505
Probable space group: P -1
;
_chemical_formula_sum "Si O2"
_cell_formula_units_Z 14
_cell_length_a 16.554502
_cell_length_b 9.500638
_cell_length_c 6.231258
_cell_angle_alpha 48.450764
_cell_angle_beta 117.212924
_cell_angle_gamma 116.023662
_cell_volume 638.619079
_symmetry_space_group_name_H-M "P -1"
_symmetry_group_IT_number 2
_symmetry_cell_setting 'triclinic'
loop_
_space_group_symop_operation_xyz
x,y,z
-x,-y,-z
loop_
_atom_site_type_symbol
_atom_site_label
_atom_site_fract_x
_atom_site_fract_y
_atom_site_fract_z
Si Si1 0.933153 0.897060 0.343007
Si Si2 0.864291 0.500882 0.133967
Si Si3 0.034531 0.752328 0.249720
Si Si4 0.604786 0.519578 0.675703
Si Si5 0.267619 0.699392 0.173102
Si Si6 0.293877 0.431581 0.855903
Si Si7 0.270286 0.149383 0.758788
O O1 0.978278 0.746069 0.415436
O O2 0.835171 0.810678 0.426759
O O3 0.000000 0.000000 0.500000
O O4 0.915529 0.043175 0.986242
O O5 0.963473 0.649211 0.080898
O O6 0.788546 0.613580 0.022614
O O7 0.881134 0.350426 0.490645
O O8 0.827988 0.394948 0.973353
O O9 0.500000 0.500000 0.500000
O O10 0.643957 0.340030 0.811017
O O11 0.665482 0.726398 0.466909
O O12 0.611078 0.505435 0.956259
O O13 0.273588 0.601517 0.508653
O O14 0.274090 0.926651 0.973601
O O15 0.304755 0.238372 0.941809
#
# Coordination Sequence:
#
# PCOD8005505 Si02
#       7
#     2   2   2   2   2   2   2
#     4  11  23  35  57  91 128 165 215 254 303 365
#     4  10  20  39  58  86 125 170 210 255 304 363
#     4  10  22  35  57  86 125 170 215 254 301 358
#     4  10  25  46  69  94 125 161 205 264 327 386
#     4  10  23  40  66  94 124 164 212 258 316 379
#     4  10  22  41  67  89 130 162 211 256 320 370
#     4  11  23  41  64  96 127 167 209 262 314 370
#
# _framework density 21.922301000000001
#
# number of rings (size 3 to 8) (size 9 to 14) (size 15 to 20)
#    0.000    1.714    1.429    1.714    6.000    6.286 
#    0.000    5.000    0.000    0.000    0.000    0.000 
#    0.000    0.000    0.000    0.000    0.000    0.000 
#
# Total GULP energy -173477.752661 kJ/mol
# GULP energy per Si atom -12391.268047 kJ/mol
# Density = 2.187240 g / cm^3
# Si number density = 21.922301 Si / 1000 Ang^3
#
#
#
# Elastic Constant Matrix: (Units=GPa)
#
#
# Indices 1 2 3 4 5 6 
#
# 1 84.8751 40.5493 35.8016 14.8138 12.9082 9.7922
# 2 40.5493 132.2452 60.5810 0.7499 7.1937 -13.3285
# 3 35.8016 60.5810 99.8496 28.4973 12.9651 11.7591
# 4 14.8138 0.7499 28.4973 42.4912 7.2305 8.0085
# 5 12.9082 7.1937 12.9651 7.2305 35.8305 1.1407
# 6 9.7922 -13.3285 11.7591 8.0085 1.1407 30.6395
#
#
#
# Elastic Compliance Matrix: (Units=1/GPa)
#
#
# Indices 1 2 3 4 5 6 
#
# 1 0.016377 -0.005195 -0.000507 -0.003456 -0.003777 -0.006255
# 2 -0.005195 0.014820 -0.010285 0.006322 0.001012 0.010364
# 3 -0.000507 -0.010285 0.021218 -0.011644 -0.002784 -0.009308
# 4 -0.003456 0.006322 -0.011644 0.032886 -0.002441 -0.000182
# 5 -0.003777 0.001012 -0.002784 -0.002441 0.030496 0.002219
# 6 -0.006255 0.010364 -0.009308 -0.000182 0.002219 0.042683
#
#
# Mechanical properties :
#
#
# Convention : Reuss Voigt Hill
#
# Bulk Modulus (GPa) = 48.92047 65.64819 57.28433
# Shear Modulus (GPa) = 25.34642 33.79478 29.57060
#
# Velocity S-wave (km/s) = 3.40397 3.93054 3.67670
# Velocity P-wave (km/s) = 6.14925 7.11405 6.64917
#
# Compressibility (1/GPa) = 0.02044134
#
# Stress axis : x y z
#
# Youngs Moduli (GPa) = 61.06142 67.47729 47.13028
#
# Poissons Ratio (x) = 0.35053 0.02388
# Poissons Ratio (y) = 0.31720 0.48474
# Poissons Ratio (z) = 0.03094 0.69401
#
# Static dielectric constant tensor:
#      x y z
#    x 3.809190 -0.124180 0.035460 
#    y -0.124180 4.070350 0.117030 
#    z 0.035460 0.117030 4.103200 
# 
# 
# High freq. dielectric constant tensor:
#      x y z
#    x 1.839020 -0.013140 0.001620 
#    y -0.013140 1.863410 0.008810 
#    z 0.001620 0.008810 1.870070 
# 
# From -- ./inp_files/56431.got.cif
#   From: 2010.06.25/outbox.cif.g09.slc.cpg/sg2_29_cif.got.tgz:56431.got - 2010.06.27 13:26:56.
