data_PCOD8005840
_publ_section_title
;
Structure prediction by ZEFSAII (Michael W. Deem and Ramdas Pophale) SiO2 
 PCOD8005840
Probable space group: P -1
;
_chemical_formula_sum "Si O2"
_cell_formula_units_Z 14
_cell_length_a 9.197624
_cell_length_b 15.275420
_cell_length_c 15.184730
_cell_angle_alpha 150.910746
_cell_angle_beta 135.344304
_cell_angle_gamma 64.595366
_cell_volume 602.149230
_symmetry_space_group_name_H-M "P -1"
_symmetry_group_IT_number 2
_symmetry_cell_setting 'triclinic'
loop_
_space_group_symop_operation_xyz
x,y,z
-x,-y,-z
loop_
_atom_site_type_symbol
_atom_site_label
_atom_site_fract_x
_atom_site_fract_y
_atom_site_fract_z
Si Si1 0.091050 0.113928 0.511832
Si Si2 0.017824 0.110171 0.010855
Si Si3 0.639360 0.742039 0.870321
Si Si4 0.860268 0.197902 0.636872
Si Si5 0.923493 0.462613 0.534427
Si Si6 0.331263 0.536532 0.231775
Si Si7 0.733943 0.693364 0.413723
O O1 0.308642 0.280567 0.684212
O O2 0.003737 0.238804 0.642707
O O3 0.227454 0.035946 0.566215
O O4 0.846237 0.927848 0.188231
O O5 0.276162 0.215268 0.158002
O O6 0.975449 0.302489 0.172844
O O7 0.000000 0.000000 0.000000
O O8 0.806580 0.913950 0.688573
O O9 0.374132 0.713557 0.737354
O O10 0.589822 0.512540 0.683871
O O11 0.633309 0.227490 0.546019
O O12 0.038530 0.363970 0.936209
O O13 0.000000 0.500000 0.500000
O O14 0.052833 0.353983 0.538085
O O15 0.483371 0.509695 0.194831
#
# Coordination Sequence:
#
# PCOD8005840 Si02
#       7
#     2   2   2   2   2   2   2
#     4   9  21  40  61  91 116 155 207 251 303 365
#     4  11  23  41  58  88 125 162 207 245 296 356
#     4  10  22  40  62  88 126 161 200 248 304 360
#     4   9  20  40  63  87 117 155 205 253 308 356
#     4  12  23  41  61  91 128 163 201 250 295 366
#     4  10  20  39  63  89 121 159 197 254 307 360
#     4  11  24  41  60  93 126 158 207 245 302 367
#
# _framework density 23.250052
#
# number of rings (size 3 to 8) (size 9 to 14) (size 15 to 20)
#    0.000    1.714    2.857    0.429    2.000    4.571 
#    5.143    0.000    0.000    0.000    0.000    0.000 
#    0.000    0.000    0.000    0.000    0.000    0.000 
#
# Total GULP energy -173452.871807 kJ/mol
# GULP energy per Si atom -12389.490843 kJ/mol
# Density = 2.319713 g / cm^3
# Si number density = 23.250052 Si / 1000 Ang^3
#
#
#
# Elastic Constant Matrix: (Units=GPa)
#
#
# Indices 1 2 3 4 5 6 
#
# 1 143.6695 62.4627 11.7430 11.3482 8.6112 15.7611
# 2 62.4627 97.9693 5.6233 11.5957 13.0392 11.7385
# 3 11.7430 5.6233 40.4371 7.0671 -9.1191 -9.1970
# 4 11.3482 11.5957 7.0671 20.0689 3.1078 1.1624
# 5 8.6112 13.0392 -9.1191 3.1078 42.0243 7.3812
# 6 15.7611 11.7385 -9.1970 1.1624 7.3812 57.0842
#
#
#
# Elastic Compliance Matrix: (Units=1/GPa)
#
#
# Indices 1 2 3 4 5 6 
#
# 1 0.010017 -0.005826 -0.002374 -0.001301 -0.000333 -0.001880
# 2 -0.005826 0.015040 -0.000514 -0.004680 -0.003049 -0.001077
# 3 -0.002374 -0.000514 0.029995 -0.010299 0.007057 0.004891
# 4 -0.001301 -0.004680 -0.010299 0.057663 -0.004620 -0.000915
# 5 -0.000333 -0.003049 0.007057 -0.004620 0.026953 -0.001535
# 6 -0.001880 -0.001077 0.004891 -0.000915 -0.001535 0.019264
#
#
# Mechanical properties :
#
#
# Convention : Reuss Voigt Hill
#
# Bulk Modulus (GPa) = 26.58022 49.08152 37.83087
# Shear Modulus (GPa) = 26.46879 37.31859 31.89369
#
# Velocity S-wave (km/s) = 3.37774 4.01071 3.70776
# Velocity P-wave (km/s) = 5.16423 6.52716 5.88529
#
# Compressibility (1/GPa) = 0.03762196
#
# Stress axis : x y z
#
# Youngs Moduli (GPa) = 99.83395 66.48753 33.33937
#
# Poissons Ratio (x) = 0.38738 0.07915
# Poissons Ratio (y) = 0.58167 0.01715
# Poissons Ratio (z) = 0.23702 0.03419
#
# Static dielectric constant tensor:
#      x y z
#    x 5.139500 -0.309540 -0.012140 
#    y -0.309540 4.775000 0.341790 
#    z -0.012140 0.341790 4.101600 
# 
# 
# High freq. dielectric constant tensor:
#      x y z
#    x 1.928120 0.011840 -0.006300 
#    y 0.011840 1.920070 0.014940 
#    z -0.006300 0.014940 1.901490 
# 
# From -- ./inp_files/185674.got.cif
#   From: 2010.06.25/outbox.cif.g09.slc.cpg/sg2_93_cif.got.tgz:185674.got - 2010.06.27 13:26:56.
