data_PCOD8005706
_publ_section_title
;
Structure prediction by ZEFSAII (Michael W. Deem and Ramdas Pophale) SiO2 
 PCOD8005706
Probable space group: P -1
;
_chemical_formula_sum "Si O2"
_cell_formula_units_Z 14
_cell_length_a 5.155114
_cell_length_b 12.910804
_cell_length_c 10.951000
_cell_angle_alpha 114.801623
_cell_angle_beta 65.338917
_cell_angle_gamma 94.881349
_cell_volume 597.705624
_symmetry_space_group_name_H-M "P -1"
_symmetry_group_IT_number 2
_symmetry_cell_setting 'triclinic'
loop_
_space_group_symop_operation_xyz
x,y,z
-x,-y,-z
loop_
_atom_site_type_symbol
_atom_site_label
_atom_site_fract_x
_atom_site_fract_y
_atom_site_fract_z
Si Si1 0.354393 0.879719 0.350658
Si Si2 0.276048 0.200612 0.162622
Si Si3 0.059892 0.263684 0.780974
Si Si4 0.838435 0.894841 0.626586
Si Si5 0.129923 0.723145 0.914570
Si Si6 0.722053 0.645973 0.446419
Si Si7 0.130769 0.591134 0.616740
O O1 0.676558 0.835507 0.303223
O O2 0.212084 0.792172 0.246994
O O3 0.166495 0.897421 0.520573
O O4 0.364395 0.001218 0.342039
O O5 0.192433 0.097827 0.216151
O O6 0.613945 0.198228 0.078013
O O7 0.128710 0.192238 0.055061
O O8 0.152935 0.322274 0.313923
O O9 0.150535 0.361575 0.720248
O O10 0.971562 0.321380 0.956966
O O11 0.721420 0.775598 0.554284
O O12 0.219941 0.616124 0.753754
O O13 0.395157 0.616316 0.491052
O O14 0.912797 0.546512 0.443311
#
# Coordination Sequence:
#
# PCOD8005706 Si02
#       7
#     2   2   2   2   2   2   2
#     4  10  24  38  66  90 122 156 208 251 303 355
#     4  10  20  39  62  84 124 161 193 248 296 359
#     4  11  23  43  60  92 124 161 200 252 298 360
#     4  10  20  40  64  92 122 157 203 257 304 347
#     4  10  22  40  61  85 132 156 199 243 301 361
#     4  10  20  40  65  94 119 160 202 253 301 358
#     4   9  21  38  64  95 118 160 201 247 302 364
#
# _framework density 23.422901
#
# number of rings (size 3 to 8) (size 9 to 14) (size 15 to 20)
#    0.857    1.143    1.429    1.714    0.000    8.571 
#    5.143    5.000    0.000    0.000    0.000    0.000 
#    0.000    0.000    0.000    0.000    0.000    0.000 
#
# Total GULP energy -173524.342115 kJ/mol
# GULP energy per Si atom -12394.595865 kJ/mol
# Density = 2.336959 g / cm^3
# Si number density = 23.422901 Si / 1000 Ang^3
#
#
#
# Elastic Constant Matrix: (Units=GPa)
#
#
# Indices 1 2 3 4 5 6 
#
# 1 77.3310 17.8620 -7.5427 -5.2800 -5.3197 1.4153
# 2 17.8620 138.2636 25.3734 -30.6842 0.4122 -2.1280
# 3 -7.5427 25.3734 76.6213 -36.0085 1.9993 15.3292
# 4 -5.2800 -30.6842 -36.0085 37.2794 -5.9082 -1.4152
# 5 -5.3197 0.4122 1.9993 -5.9082 23.0138 0.8198
# 6 1.4153 -2.1280 15.3292 -1.4152 0.8198 23.9909
#
#
#
# Elastic Compliance Matrix: (Units=1/GPa)
#
#
# Indices 1 2 3 4 5 6 
#
# 1 0.014855 -0.001477 0.006391 0.007679 0.005048 -0.004810
# 2 -0.001477 0.009124 0.000222 0.007787 0.001433 0.001165
# 3 0.006391 0.000222 0.033179 0.033640 0.007934 -0.019844
# 4 0.007679 0.007787 0.033640 0.068837 0.017019 -0.017778
# 5 0.005048 0.001433 0.007934 0.017019 0.048483 -0.005893
# 6 -0.004810 0.001165 -0.019844 -0.017778 -0.005893 0.053902
#
#
# Mechanical properties :
#
#
# Convention : Reuss Voigt Hill
#
# Bulk Modulus (GPa) = 14.83003 40.40014 27.61509
# Shear Modulus (GPa) = 20.78260 33.95836 27.37048
#
# Velocity S-wave (km/s) = 2.98195 3.81175 3.42209
# Velocity P-wave (km/s) = 4.26629 6.05460 5.23733
#
# Compressibility (1/GPa) = 0.06743073
#
# Stress axis : x y z
#
# Youngs Moduli (GPa) = 67.31524 109.59655 30.13941
#
# Poissons Ratio (x) = 0.16187 -0.19261
# Poissons Ratio (y) = 0.09942 -0.00669
# Poissons Ratio (z) = -0.43020 -0.02433
#
# Static dielectric constant tensor:
#      x y z
#    x 3.970160 -0.219410 0.146430 
#    y -0.219410 4.283890 -0.449660 
#    z 0.146430 -0.449660 4.322200 
# 
# 
# High freq. dielectric constant tensor:
#      x y z
#    x 1.925400 -0.009750 0.005770 
#    y -0.009750 1.915260 -0.025650 
#    z 0.005770 -0.025650 1.922740 
# 
# From -- ./inp_files/363114.got.cif
#   From: 2010.06.25/outbox.cif.g09.slc.cpg/sg2_182_cif.got.tgz:363114.got - 2010.06.27 13:26:56.
