data_PCOD8005055
_publ_section_title
;
Structure prediction by ZEFSAII (Michael W. Deem and Ramdas Pophale) SiO2 
 PCOD8005055
Probable space group: P -1
;
_chemical_formula_sum "Si O2"
_cell_formula_units_Z 14
_cell_length_a 16.024724
_cell_length_b 8.805644
_cell_length_c 7.541312
_cell_angle_alpha 70.421488
_cell_angle_beta 42.924486
_cell_angle_gamma 58.831017
_cell_volume 618.337225
_symmetry_space_group_name_H-M "P -1"
_symmetry_group_IT_number 2
_symmetry_cell_setting 'triclinic'
loop_
_space_group_symop_operation_xyz
x,y,z
-x,-y,-z
loop_
_atom_site_type_symbol
_atom_site_label
_atom_site_fract_x
_atom_site_fract_y
_atom_site_fract_z
Si Si1 0.919626 0.605318 0.249559
Si Si2 0.871980 0.700114 0.755580
Si Si3 0.658605 0.549392 0.102270
Si Si4 0.988662 0.883975 0.722549
Si Si5 0.732749 0.449812 0.636003
Si Si6 0.108927 0.062105 0.690355
Si Si7 0.646611 0.310670 0.511602
O O1 0.764904 0.622958 0.486593
O O2 0.921167 0.801679 0.148740
O O3 0.998200 0.492606 0.347025
O O4 0.000000 0.500000 0.000000
O O5 0.883169 0.801789 0.523528
O O6 0.867743 0.824982 0.886792
O O7 0.735102 0.673733 0.970295
O O8 0.705969 0.392649 0.234448
O O9 0.499623 0.677556 0.317500
O O10 0.689486 0.448345 0.905662
O O11 0.128464 0.711871 0.571686
O O12 0.986247 0.001504 0.860323
O O13 0.000000 0.000000 0.500000
O O14 0.624778 0.430769 0.677345
O O15 0.253628 0.895752 0.539737
#
# Coordination Sequence:
#
# PCOD8005055 Si02
#       7
#     2   2   2   2   2   2   2
#     4  11  22  38  65  95 130 164 203 259 322 388
#     4  10  20  38  64  90 122 167 204 246 324 382
#     4  11  22  40  70  85 128 175 209 263 316 374
#     4   8  18  33  59  90 125 150 201 253 308 374
#     4  10  20  40  61  90 123 172 207 254 319 384
#     4  10  20  41  62  91 130 160 208 264 311 372
#     4  10  24  43  61  94 124 166 223 262 311 368
#
# _framework density 22.641366999999999
#
# number of rings (size 3 to 8) (size 9 to 14) (size 15 to 20)
#    0.000    2.000    1.429    1.714    4.000    0.571 
#   10.286    4.286    0.000    2.571    0.000    0.000 
#    0.000    0.000    0.000    0.000    0.000    0.000 
#
# Total GULP energy -173462.324392 kJ/mol
# GULP energy per Si atom -12390.166028 kJ/mol
# Density = 2.258983 g / cm^3
# Si number density = 22.641367 Si / 1000 Ang^3
#
#
#
# Elastic Constant Matrix: (Units=GPa)
#
#
# Indices 1 2 3 4 5 6 
#
# 1 124.2520 65.3615 26.8322 -0.3566 -5.8934 33.7715
# 2 65.3615 152.5646 36.5013 -14.1875 -8.0719 23.3468
# 3 26.8322 36.5013 46.6476 -5.5915 -2.3857 19.5946
# 4 -0.3566 -14.1875 -5.5915 33.3510 12.0509 2.0709
# 5 -5.8934 -8.0719 -2.3857 12.0509 44.7822 -0.4114
# 6 33.7715 23.3468 19.5946 2.0709 -0.4114 47.5775
#
#
#
# Elastic Compliance Matrix: (Units=1/GPa)
#
#
# Indices 1 2 3 4 5 6 
#
# 1 0.012177 -0.004063 -0.001499 -0.001935 0.001256 -0.005937
# 2 -0.004063 0.009783 -0.004906 0.003266 0.000088 -0.000037
# 3 -0.001499 -0.004906 0.030442 0.003777 -0.000561 -0.009235
# 4 -0.001935 0.003266 0.003777 0.035464 -0.009039 -0.003407
# 5 0.001256 0.000088 -0.000561 -0.009039 0.024913 -0.000095
# 6 -0.005937 -0.000037 -0.009235 -0.003407 -0.000095 0.029202
#
#
# Mechanical properties :
#
#
# Convention : Reuss Voigt Hill
#
# Bulk Modulus (GPa) = 31.78051 64.53934 48.15993
# Shear Modulus (GPa) = 28.83399 38.12675 33.48037
#
# Velocity S-wave (km/s) = 3.57250 4.10804 3.84959
# Velocity P-wave (km/s) = 5.57530 7.14620 6.40906
#
# Compressibility (1/GPa) = 0.03146582
#
# Stress axis : x y z
#
# Youngs Moduli (GPa) = 82.12221 102.21464 32.84942
#
# Poissons Ratio (x) = 0.41531 0.04923
# Poissons Ratio (y) = 0.33368 0.16118
# Poissons Ratio (z) = 0.12307 0.50151
#
# Static dielectric constant tensor:
#      x y z
#    x 4.986980 0.430150 0.322110 
#    y 0.430150 4.745120 -0.467740 
#    z 0.322110 -0.467740 3.982880 
# 
# 
# High freq. dielectric constant tensor:
#      x y z
#    x 1.918290 0.022230 0.028700 
#    y 0.022230 1.896470 -0.038610 
#    z 0.028700 -0.038610 1.884560 
# 
# From -- ./inp_files/325859.got.cif
#   From: 2010.06.25/outbox.cif.g09.slc.cpg/sg2_163_cif.got.tgz:325859.got - 2010.06.27 13:26:56.
