data_PCOD8005630
_publ_section_title
;
Structure prediction by ZEFSAII (Michael W. Deem and Ramdas Pophale) SiO2 
 PCOD8005630
Probable space group: P -1
;
_chemical_formula_sum "Si O2"
_cell_formula_units_Z 16
_cell_length_a 13.836930
_cell_length_b 16.322143
_cell_length_c 7.446347
_cell_angle_alpha 53.482977
_cell_angle_beta 85.348221
_cell_angle_gamma 125.442960
_cell_volume 835.946111
_symmetry_space_group_name_H-M "P -1"
_symmetry_group_IT_number 2
_symmetry_cell_setting 'triclinic'
loop_
_space_group_symop_operation_xyz
x,y,z
-x,-y,-z
loop_
_atom_site_type_symbol
_atom_site_label
_atom_site_fract_x
_atom_site_fract_y
_atom_site_fract_z
Si Si1 0.906963 0.654130 0.298450
Si Si2 0.797708 0.972830 0.204146
Si Si3 0.180911 0.135171 0.330209
Si Si4 0.167779 0.573228 0.687335
Si Si5 0.233371 0.011840 0.199117
Si Si6 0.497686 0.772954 0.355235
Si Si7 0.994475 0.353535 0.342255
Si Si8 0.366058 0.452991 0.681832
O O1 0.889896 0.546050 0.307629
O O2 0.906079 0.613311 0.555311
O O3 0.763584 0.615181 0.352333
O O4 0.070479 0.843127 0.978414
O O5 0.793672 0.866102 0.460425
O O6 0.625826 0.885840 0.350533
O O7 0.831136 0.977008 0.981022
O O8 0.239188 0.085264 0.277337
O O9 0.280094 0.315112 0.026131
O O10 0.000000 0.000000 0.500000
O O11 0.356321 0.734496 0.454528
O O12 0.103535 0.632597 0.583253
O O13 0.114856 0.487049 0.999239
O O14 0.125496 0.825332 0.493643
O O15 0.412091 0.125557 0.977955
O O16 0.437920 0.607245 0.574640
O O17 0.500000 0.500000 0.500000
#
# Coordination Sequence:
#
# PCOD8005630 Si02
#       8
#     2   2   2   2   2   2   2   2
#     4  10  20  39  61  83 118 155 188 237 288 344
#     4   9  20  39  56  84 116 154 193 232 279 347
#     4  12  22  36  62  83 114 162 194 233 285 339
#     4  10  21  38  62  91 113 143 199 240 292 340
#     4   9  21  40  54  84 120 149 191 236 287 342
#     4   9  21  40  55  84 123 145 189 247 280 341
#     4  10  21  38  64  85 114 152 192 241 289 348
#     4  11  21  38  57  88 118 152 193 240 284 335
#
# _framework density 19.139987999999999
#
# number of rings (size 3 to 8) (size 9 to 14) (size 15 to 20)
#    0.750    1.250    2.500    1.125    1.750    2.500 
#    4.500    0.000    0.000    2.250    0.000    0.000 
#    0.000    0.000    0.000    0.000    0.000    0.000 
#
# Total GULP energy -198306.297885 kJ/mol
# GULP energy per Si atom -12394.143618 kJ/mol
# Density = 1.909642 g / cm^3
# Si number density = 19.139988 Si / 1000 Ang^3
#
#
#
# Elastic Constant Matrix: (Units=GPa)
#
#
# Indices 1 2 3 4 5 6 
#
# 1 90.8486 23.0572 38.8566 -5.5486 -12.7456 9.5530
# 2 23.0572 51.4094 11.4811 -10.1689 -3.6102 7.0031
# 3 38.8566 11.4811 78.4924 -1.6554 -9.1460 16.9357
# 4 -5.5486 -10.1689 -1.6554 29.0141 7.9969 -5.4054
# 5 -12.7456 -3.6102 -9.1460 7.9969 39.1785 0.1103
# 6 9.5530 7.0031 16.9357 -5.4054 0.1103 27.7139
#
#
#
# Elastic Compliance Matrix: (Units=1/GPa)
#
#
# Indices 1 2 3 4 5 6 
#
# 1 0.015603 -0.005329 -0.006579 -0.000115 0.003073 -0.000046
# 2 -0.005329 0.023563 -0.000219 0.007027 -0.001040 -0.002609
# 3 -0.006579 -0.000219 0.018320 -0.002794 0.002713 -0.009428
# 4 -0.000115 0.007027 -0.002794 0.040518 -0.008335 0.007907
# 5 0.003073 -0.001040 0.002713 -0.008335 0.028774 -0.004194
# 6 -0.000046 -0.002609 -0.009428 0.007907 -0.004194 0.044078
#
#
# Mechanical properties :
#
#
# Convention : Reuss Voigt Hill
#
# Bulk Modulus (GPa) = 30.09088 40.83780 35.46434
# Shear Modulus (GPa) = 24.24981 29.00500 26.62740
#
# Velocity S-wave (km/s) = 3.56332 3.89705 3.73392
# Velocity P-wave (km/s) = 5.71710 6.45229 6.09579
#
# Compressibility (1/GPa) = 0.03323266
#
# Stress axis : x y z
#
# Youngs Moduli (GPa) = 64.09206 42.43938 54.58444
#
# Poissons Ratio (x) = 0.22617 0.35910
# Poissons Ratio (y) = 0.34156 0.01193
# Poissons Ratio (z) = 0.42165 0.00927
#
# Static dielectric constant tensor:
#      x y z
#    x 3.512640 0.067950 -0.061380 
#    y 0.067950 3.699700 -0.017880 
#    z -0.061380 -0.017880 3.714480 
# 
# 
# High freq. dielectric constant tensor:
#      x y z
#    x 1.733350 0.008150 -0.003290 
#    y 0.008150 1.730650 -0.008980 
#    z -0.003290 -0.008980 1.757880 
# 
# From -- ./inp_files/316970.got.cif
#   From: 2010.06.25/outbox.cif.g09.slc.cpg/sg2_159_cif.got.tgz:316970.got - 2010.06.27 13:26:56.
