data_PCOD8005004
_publ_section_title
;
Structure prediction by ZEFSAII (Michael W. Deem and Ramdas Pophale) SiO2 
 PCOD8005004
Probable space group: P -1
;
_chemical_formula_sum "Si O2"
_cell_formula_units_Z 16
_cell_length_a 14.527535
_cell_length_b 12.771921
_cell_length_c 8.966258
_cell_angle_alpha 31.468159
_cell_angle_beta 130.006839
_cell_angle_gamma 127.321262
_cell_volume 658.189420
_symmetry_space_group_name_H-M "P -1"
_symmetry_group_IT_number 2
_symmetry_cell_setting 'triclinic'
loop_
_space_group_symop_operation_xyz
x,y,z
-x,-y,-z
loop_
_atom_site_type_symbol
_atom_site_label
_atom_site_fract_x
_atom_site_fract_y
_atom_site_fract_z
Si Si1 0.447058 0.172611 0.563567
Si Si2 0.947036 0.164254 0.145639
Si Si3 0.313501 0.924969 0.969197
Si Si4 0.636961 0.684342 0.276388
Si Si5 0.374243 0.562241 0.167189
Si Si6 0.102652 0.892144 0.170174
Si Si7 0.715221 0.773428 0.930774
Si Si8 0.853233 0.514602 0.166280
O O1 0.592291 0.178898 0.705608
O O2 0.413782 0.352493 0.409866
O O3 0.406119 0.199678 0.318422
O O4 0.372921 0.969248 0.811696
O O5 0.818982 0.211214 0.026803
O O6 0.906733 0.070289 0.059136
O O7 0.000000 0.000000 0.500000
O O8 0.047792 0.362958 0.990694
O O9 0.288522 0.126730 0.788003
O O10 0.494837 0.727255 0.068484
O O11 0.652020 0.476073 0.636111
O O12 0.682788 0.647361 0.201812
O O13 0.256610 0.604262 0.902149
O O14 0.084602 0.653252 0.477677
O O15 0.228935 0.000597 0.236904
O O16 0.000000 0.000000 0.000000
O O17 0.807047 0.666147 0.054492
#
# Coordination Sequence:
#
# PCOD8005004 Si02
#       8
#     2   2   2   2   2   2   2   2
#     4   9  21  40  62 101 134 182 215 287 353 404
#     4  12  24  45  72  99 142 190 232 285 342 415
#     4  10  21  39  66  96 138 178 230 275 350 407
#     4  10  20  38  64 103 132 175 223 289 335 419
#     4   9  21  42  65  96 141 173 226 282 349 410
#     4  12  27  47  69 103 139 185 235 287 343 410
#     4  11  23  42  73  99 140 175 234 286 352 406
#     4  11  26  47  72  98 143 185 227 287 353 404
#
# _framework density 24.309111000000001
#
# number of rings (size 3 to 8) (size 9 to 14) (size 15 to 20)
#    0.000    1.500    2.500    2.625    1.750    4.500 
#    0.000    1.875    0.000    0.000    0.000    0.000 
#    0.000    0.000    0.000    0.000    0.000    0.000 
#
# Total GULP energy -198339.301352 kJ/mol
# GULP energy per Si atom -12396.206335 kJ/mol
# Density = 2.425378 g / cm^3
# Si number density = 24.309111 Si / 1000 Ang^3
#
#
#
# Elastic Constant Matrix: (Units=GPa)
#
#
# Indices 1 2 3 4 5 6 
#
# 1 99.7567 22.7090 44.4708 7.5115 -9.8118 28.4323
# 2 22.7090 84.2054 30.6032 14.8483 -8.6678 19.7017
# 3 44.4708 30.6032 140.9277 15.2428 -8.5446 7.3960
# 4 7.5115 14.8483 15.2428 31.5970 4.0487 -6.5740
# 5 -9.8118 -8.6678 -8.5446 4.0487 39.7987 6.8469
# 6 28.4323 19.7017 7.3960 -6.5740 6.8469 38.7794
#
#
#
# Elastic Compliance Matrix: (Units=1/GPa)
#
#
# Indices 1 2 3 4 5 6 
#
# 1 0.016835 0.002540 -0.003794 -0.007523 0.007317 -0.015477
# 2 0.002540 0.018223 -0.002249 -0.012009 0.007759 -0.014097
# 3 -0.003794 -0.002249 0.008929 -0.002021 0.000385 0.001811
# 4 -0.007523 -0.012009 -0.002021 0.046407 -0.013452 0.022244
# 5 0.007317 0.007759 0.000385 -0.013452 0.033082 -0.017501
# 6 -0.015477 -0.014097 0.001811 0.022244 -0.017501 0.050812
#
#
# Mechanical properties :
#
#
# Convention : Reuss Voigt Hill
#
# Bulk Modulus (GPa) = 27.04295 57.82844 42.43570
# Shear Modulus (GPa) = 25.82353 37.17545 31.49949
#
# Velocity S-wave (km/s) = 3.26283 3.91484 3.60361
# Velocity P-wave (km/s) = 5.03423 6.65395 5.89994
#
# Compressibility (1/GPa) = 0.03697821
#
# Stress axis : x y z
#
# Youngs Moduli (GPa) = 59.39983 54.87603 112.00037
#
# Poissons Ratio (x) = -0.13937 0.42497
# Poissons Ratio (y) = -0.15086 0.25194
# Poissons Ratio (z) = 0.22539 0.12344
#
# Static dielectric constant tensor:
#      x y z
#    x 4.269410 0.209150 -0.132040 
#    y 0.209150 5.028840 0.023070 
#    z -0.132040 0.023070 4.269840 
# 
# 
# High freq. dielectric constant tensor:
#      x y z
#    x 1.958520 0.007830 -0.005620 
#    y 0.007830 1.977050 0.011680 
#    z -0.005620 0.011680 1.958120 
# 
# From -- ./inp_files/314415.got.cif
#   From: 2010.06.25/outbox.cif.g09.slc.cpg/sg2_158_cif.got.tgz:314415.got - 2010.06.27 13:26:56.
