data_PCOD8005971
_publ_section_title
;
Structure prediction by ZEFSAII (Michael W. Deem and Ramdas Pophale) SiO2 
 PCOD8005971
Probable space group: P -1
;
_chemical_formula_sum "Si O2"
_cell_formula_units_Z 16
_cell_length_a 14.479112
_cell_length_b 8.360157
_cell_length_c 8.936406
_cell_angle_alpha 47.996871
_cell_angle_beta 97.112519
_cell_angle_gamma 78.101863
_cell_volume 733.830531
_symmetry_space_group_name_H-M "P -1"
_symmetry_group_IT_number 2
_symmetry_cell_setting 'triclinic'
loop_
_space_group_symop_operation_xyz
x,y,z
-x,-y,-z
loop_
_atom_site_type_symbol
_atom_site_label
_atom_site_fract_x
_atom_site_fract_y
_atom_site_fract_z
Si Si1 0.355870 0.425155 0.756684
Si Si2 0.415325 0.113117 0.226732
Si Si3 0.075681 0.733718 0.214726
Si Si4 0.524522 0.629253 0.679475
Si Si5 0.780272 0.924035 0.777186
Si Si6 0.706119 0.376099 0.679648
Si Si7 0.137997 0.760746 0.541913
Si Si8 0.038334 0.501135 0.841045
O O1 0.432606 0.550628 0.720392
O O2 0.335729 0.409329 0.584791
O O3 0.249734 0.577137 0.719855
O O4 0.398685 0.175084 0.007204
O O5 0.452196 0.299125 0.196295
O O6 0.309694 0.137530 0.272597
O O7 0.498085 0.851496 0.424255
O O8 0.185358 0.663288 0.200649
O O9 0.097084 0.700327 0.415672
O O10 0.035309 0.542333 0.266719
O O11 0.000000 0.000000 0.000000
O O12 0.623851 0.420129 0.765231
O O13 0.721527 0.143424 0.735118
O O14 0.850399 0.988449 0.627028
O O15 0.853609 0.712287 0.023844
O O16 0.057925 0.739072 0.661561
O O17 0.000000 0.500000 0.000000
#
# Coordination Sequence:
#
# PCOD8005971 Si02
#       8
#     2   2   2   2   2   2   2   2
#     4  10  20  39  64  90 121 166 200 247 307 367
#     4  11  22  38  65  86 128 161 202 249 312 356
#     4  10  20  42  64  87 124 165 202 250 306 359
#     4  11  23  39  61  95 122 162 201 257 299 362
#     4  10  21  42  61  87 125 165 196 251 309 363
#     4  10  22  40  64  87 128 157 207 253 293 361
#     4  10  21  40  67  88 123 163 207 248 307 370
#     4  12  24  39  69  93 118 163 205 256 315 362
#
# _framework density 21.803397
#
# number of rings (size 3 to 8) (size 9 to 14) (size 15 to 20)
#    0.000    1.750    6.250    1.125    1.750    1.000 
#    0.000    0.000    0.000    0.000    0.000    0.000 
#    0.000    0.000    0.000    0.000    0.000    0.000 
#
# Total GULP energy -198225.492728 kJ/mol
# GULP energy per Si atom -12389.093296 kJ/mol
# Density = 2.175377 g / cm^3
# Si number density = 21.803397 Si / 1000 Ang^3
#
#
#
# Elastic Constant Matrix: (Units=GPa)
#
#
# Indices 1 2 3 4 5 6 
#
# 1 158.8979 36.7089 37.5996 6.1838 -0.2261 19.1149
# 2 36.7089 27.2865 18.1702 -0.9479 -3.2707 3.3837
# 3 37.5996 18.1702 90.7232 -4.1020 2.7938 -0.3907
# 4 6.1838 -0.9479 -4.1020 16.3259 2.5557 -5.0684
# 5 -0.2261 -3.2707 2.7938 2.5557 41.2500 -1.4292
# 6 19.1149 3.3837 -0.3907 -5.0684 -1.4292 27.6771
#
#
#
# Elastic Compliance Matrix: (Units=1/GPa)
#
#
# Indices 1 2 3 4 5 6 
#
# 1 0.010966 -0.012562 -0.002394 -0.007731 -0.000555 -0.007516
# 2 -0.012562 0.058145 -0.006264 0.006750 0.004650 0.002955
# 3 -0.002394 -0.006264 0.013574 0.005295 -0.001636 0.003496
# 4 -0.007731 0.006750 0.005295 0.071939 -0.003714 0.017571
# 5 -0.000555 0.004650 -0.001636 -0.003714 0.024963 0.000401
# 6 -0.007516 0.002955 0.003496 0.017571 0.000401 0.044248
#
#
# Mechanical properties :
#
#
# Convention : Reuss Voigt Hill
#
# Bulk Modulus (GPa) = 24.84795 51.31833 38.08314
# Shear Modulus (GPa) = 17.87690 29.34586 23.61138
#
# Velocity S-wave (km/s) = 2.86652 3.67267 3.29435
# Velocity P-wave (km/s) = 4.73044 6.44769 5.65463
#
# Compressibility (1/GPa) = 0.04024477
#
# Stress axis : x y z
#
# Youngs Moduli (GPa) = 91.19044 17.19849 73.66964
#
# Poissons Ratio (x) = 0.21604 0.17634
# Poissons Ratio (y) = 1.14552 0.46150
# Poissons Ratio (z) = 0.21828 0.10774
#
# Static dielectric constant tensor:
#      x y z
#    x 4.304530 0.202300 0.150060 
#    y 0.202300 3.453440 -0.129350 
#    z 0.150060 -0.129350 4.223250 
# 
# 
# High freq. dielectric constant tensor:
#      x y z
#    x 1.881660 0.011740 0.012780 
#    y 0.011740 1.809800 -0.010370 
#    z 0.012780 -0.010370 1.857410 
# 
# From -- ./inp_files/297500.got.cif
#   From: 2010.06.25/outbox.cif.g09.slc.cpg/sg2_149_cif.got.tgz:297500.got - 2010.06.27 13:26:56.
