data_PCOD8005321
_publ_section_title
;
Structure prediction by ZEFSAII (Michael W. Deem and Ramdas Pophale) SiO2 
 PCOD8005321
Probable space group: P -1
;
_chemical_formula_sum "Si O2"
_cell_formula_units_Z 16
_cell_length_a 9.559915
_cell_length_b 8.327257
_cell_length_c 14.885176
_cell_angle_alpha 143.196264
_cell_angle_beta 101.362319
_cell_angle_gamma 92.736363
_cell_volume 651.992636
_symmetry_space_group_name_H-M "P -1"
_symmetry_group_IT_number 2
_symmetry_cell_setting 'triclinic'
loop_
_space_group_symop_operation_xyz
x,y,z
-x,-y,-z
loop_
_atom_site_type_symbol
_atom_site_label
_atom_site_fract_x
_atom_site_fract_y
_atom_site_fract_z
Si Si1 0.010797 0.791496 0.027446
Si Si2 0.656424 0.329448 0.297825
Si Si3 0.446447 0.681207 0.396168
Si Si4 0.919473 0.098045 0.451052
Si Si5 0.157528 0.108683 0.352479
Si Si6 0.286258 0.668317 0.208522
Si Si7 0.589388 0.988346 0.305916
Si Si8 0.089841 0.697586 0.807095
O O1 0.932314 0.007591 0.080498
O O2 0.874123 0.536514 0.946320
O O3 0.146356 0.968037 0.189927
O O4 0.081593 0.654877 0.895306
O O5 0.538794 0.465610 0.304015
O O6 0.770209 0.549730 0.481403
O O7 0.744406 0.275066 0.197714
O O8 0.589522 0.044327 0.223449
O O9 0.299310 0.528774 0.245226
O O10 0.500000 0.000000 0.500000
O O11 0.413952 0.723652 0.515080
O O12 0.990397 0.022224 0.335425
O O13 0.960076 0.438042 0.623520
O O14 0.738629 0.934536 0.341155
O O15 0.000000 0.000000 0.500000
O O16 0.271305 0.982346 0.364296
O O17 0.436534 0.714318 0.186164
#
# Coordination Sequence:
#
# PCOD8005321 Si02
#       8
#     2   2   2   2   2   2   2   2
#     4  11  23  45  66  96 137 192 221 274 339 425
#     4  11  22  42  72 108 129 170 234 299 338 384
#     4  10  20  38  66  98 137 172 224 280 342 404
#     4  11  23  40  71 105 132 175 231 295 337 389
#     4  11  22  40  71  98 134 169 236 284 334 399
#     4  11  24  41  66 100 136 187 221 268 344 422
#     4  11  22  38  66 106 138 172 219 288 347 399
#     4  10  24  43  68  97 136 176 236 274 342 397
#
# _framework density 24.540154999999999
#
# number of rings (size 3 to 8) (size 9 to 14) (size 15 to 20)
#    0.000    1.250    2.500    4.500    5.250    3.000 
#    0.000    3.125    2.750    0.000    0.000    0.000 
#    0.000    0.000    0.000    0.000    0.000    0.000 
#
# Total GULP energy -198219.301989 kJ/mol
# GULP energy per Si atom -12388.706374 kJ/mol
# Density = 2.448430 g / cm^3
# Si number density = 24.540155 Si / 1000 Ang^3
#
#
#
# Elastic Constant Matrix: (Units=GPa)
#
#
# Indices 1 2 3 4 5 6 
#
# 1 137.3517 37.0899 26.6749 -15.7406 -14.7077 4.7787
# 2 37.0899 74.7976 21.2590 -9.5635 -5.7367 5.6276
# 3 26.6749 21.2590 69.0552 -22.6889 -9.3403 9.2223
# 4 -15.7406 -9.5635 -22.6889 31.2732 2.9023 -0.7152
# 5 -14.7077 -5.7367 -9.3403 2.9023 28.8665 0.6991
# 6 4.7787 5.6276 9.2223 -0.7152 0.6991 40.3118
#
#
#
# Elastic Compliance Matrix: (Units=1/GPa)
#
#
# Indices 1 2 3 4 5 6 
#
# 1 0.009115 -0.003615 -0.001147 0.002334 0.003328 -0.000330
# 2 -0.003615 0.016270 -0.003154 0.000813 0.000316 -0.001112
# 3 -0.001147 -0.003154 0.021515 0.013555 0.004489 -0.004183
# 4 0.002334 0.000813 0.013555 0.043034 0.001476 -0.002753
# 5 0.003328 0.000316 0.004489 0.001476 0.037755 -0.002094
# 6 -0.000330 -0.001112 -0.004183 -0.002753 -0.002094 0.025945
#
#
# Mechanical properties :
#
#
# Convention : Reuss Voigt Hill
#
# Bulk Modulus (GPa) = 32.18837 50.13913 41.16375
# Shear Modulus (GPa) = 27.80514 33.16902 30.48708
#
# Velocity S-wave (km/s) = 3.36973 3.68043 3.52850
# Velocity P-wave (km/s) = 5.31838 6.20778 5.78021
#
# Compressibility (1/GPa) = 0.03106712
#
# Stress axis : x y z
#
# Youngs Moduli (GPa) = 109.71077 61.46106 46.47992
#
# Poissons Ratio (x) = 0.22221 0.05331
# Poissons Ratio (y) = 0.39665 0.14660
# Poissons Ratio (z) = 0.12584 0.19385
#
# Static dielectric constant tensor:
#      x y z
#    x 4.507930 0.023870 -0.026250 
#    y 0.023870 4.554380 -0.290080 
#    z -0.026250 -0.290080 4.512010 
# 
# 
# High freq. dielectric constant tensor:
#      x y z
#    x 1.981050 -0.005460 -0.002580 
#    y -0.005460 1.972010 -0.004460 
#    z -0.002580 -0.004460 1.954860 
# 
# From -- ./inp_files/495901.got.cif
#   From: 2010.06.25/outbox.cif.g09.slc.cpg/sg2_248_cif.got.tgz:495901.got - 2010.06.27 13:26:56.
