data_PCOD8005727
_publ_section_title
;
Structure prediction by ZEFSAII (Michael W. Deem and Ramdas Pophale) SiO2 
 PCOD8005727
Probable space group: P -1
;
_chemical_formula_sum "Si O2"
_cell_formula_units_Z 16
_cell_length_a 12.096535
_cell_length_b 14.326338
_cell_length_c 11.819481
_cell_angle_alpha 117.664936
_cell_angle_beta 97.591074
_cell_angle_gamma 30.705667
_cell_volume 747.525195
_symmetry_space_group_name_H-M "P -1"
_symmetry_group_IT_number 2
_symmetry_cell_setting 'triclinic'
loop_
_space_group_symop_operation_xyz
x,y,z
-x,-y,-z
loop_
_atom_site_type_symbol
_atom_site_label
_atom_site_fract_x
_atom_site_fract_y
_atom_site_fract_z
Si Si1 0.436606 0.857512 0.447714
Si Si2 0.659209 0.094431 0.122460
Si Si3 0.927228 0.284246 0.234918
Si Si4 0.084175 0.808980 0.384494
Si Si5 0.329843 0.078170 0.773579
Si Si6 0.372424 0.652592 0.682131
Si Si7 0.591944 0.065544 0.761698
Si Si8 0.763422 0.504896 0.895797
O O1 0.651285 0.580956 0.339900
O O2 0.467222 0.908509 0.586353
O O3 0.475819 0.887068 0.353140
O O4 0.139427 0.064636 0.507499
O O5 0.623374 0.031468 0.170466
O O6 0.738673 0.132780 0.224441
O O7 0.377674 0.346129 0.159015
O O8 0.899854 0.863789 0.938872
O O9 0.859358 0.223862 0.231845
O O10 0.093308 0.196627 0.310567
O O11 0.388794 0.540616 0.308268
O O12 0.111880 0.723259 0.218044
O O13 0.000000 0.000000 0.500000
O O14 0.014418 0.367380 0.870927
O O15 0.470625 0.068628 0.810666
O O16 0.500000 0.500000 0.500000
O O17 0.447568 0.296134 0.919298
#
# Coordination Sequence:
#
# PCOD8005727 Si02
#       8
#     2   2   2   2   2   2   2   2
#     4  11  23  40  62  93 125 160 210 255 313 367
#     4  10  23  40  62  94 122 163 209 254 310 367
#     4  11  23  40  61  92 129 160 203 257 313 371
#     4  10  20  39  62  87 122 159 204 248 303 375
#     4  11  23  41  66  88 124 167 213 254 305 365
#     4  11  21  38  64  89 125 163 201 255 310 373
#     4  11  24  42  61  94 125 165 209 257 307 366
#     4   9  22  40  63  89 124 157 212 252 305 364
#
# _framework density 21.403960999999999
#
# number of rings (size 3 to 8) (size 9 to 14) (size 15 to 20)
#    0.000    1.500    1.250    3.375    1.750    5.500 
#    0.000    0.625    0.000    0.000    0.000    0.000 
#    0.000    0.000    0.000    0.000    0.000    0.000 
#
# Total GULP energy -198232.194900 kJ/mol
# GULP energy per Si atom -12389.512181 kJ/mol
# Density = 2.135524 g / cm^3
# Si number density = 21.403961 Si / 1000 Ang^3
#
#
#
# Elastic Constant Matrix: (Units=GPa)
#
#
# Indices 1 2 3 4 5 6 
#
# 1 103.9241 39.9603 16.7912 5.0230 -4.7110 -5.4768
# 2 39.9603 91.3300 25.4039 -0.8302 -10.6924 -6.4935
# 3 16.7912 25.4039 94.3672 -11.2945 3.1013 8.5107
# 4 5.0230 -0.8302 -11.2945 33.2777 -0.3750 -9.0487
# 5 -4.7110 -10.6924 3.1013 -0.3750 25.6314 -0.2681
# 6 -5.4768 -6.4935 8.5107 -9.0487 -0.2681 36.8000
#
#
#
# Elastic Compliance Matrix: (Units=1/GPa)
#
#
# Indices 1 2 3 4 5 6 
#
# 1 0.011794 -0.004785 -0.001131 -0.002101 0.000285 0.000658
# 2 -0.004785 0.014925 -0.003533 0.000768 0.005816 0.002970
# 3 -0.001131 -0.003533 0.012532 0.003526 -0.003176 -0.002846
# 4 -0.002101 0.000768 0.003526 0.033558 0.000075 0.007259
# 5 0.000285 0.005816 -0.003176 0.000075 0.041901 0.002127
# 6 0.000658 0.002970 -0.002846 0.007259 0.002127 0.030255
#
#
# Mechanical properties :
#
#
# Convention : Reuss Voigt Hill
#
# Bulk Modulus (GPa) = 49.13180 50.43688 49.78434
# Shear Modulus (GPa) = 29.30019 32.97288 31.13653
#
# Velocity S-wave (km/s) = 3.70390 3.92918 3.81820
# Velocity P-wave (km/s) = 6.42621 6.64831 6.53821
#
# Compressibility (1/GPa) = 0.02035342
#
# Stress axis : x y z
#
# Youngs Moduli (GPa) = 84.78840 67.00252 79.79302
#
# Poissons Ratio (x) = 0.32060 0.09022
# Poissons Ratio (y) = 0.40570 0.28194
# Poissons Ratio (z) = 0.09587 0.23675
#
# Static dielectric constant tensor:
#      x y z
#    x 3.255300 -0.334220 -0.602630 
#    y -0.334220 3.725180 -0.171930 
#    z -0.602630 -0.171930 2.988000 
# 
# 
# High freq. dielectric constant tensor:
#      x y z
#    x 1.834350 -0.018750 0.012830 
#    y -0.018750 1.839110 0.007470 
#    z 0.012830 0.007470 1.852510 
# 
# From -- ./inp_files/308783.got.cif
#   From: 2010.06.25/outbox.cif.g09.slc.cpg/sg2_155_cif.got.tgz:308783.got - 2010.06.27 13:26:56.
