data_PCOD8005629
_publ_section_title
;
Structure prediction by ZEFSAII (Michael W. Deem and Ramdas Pophale) SiO2 
 PCOD8005629
Probable space group: P -1
;
_chemical_formula_sum "Si O2"
_cell_formula_units_Z 14
_cell_length_a 6.594484
_cell_length_b 8.639722
_cell_length_c 17.547814
_cell_angle_alpha 109.587111
_cell_angle_beta 47.682188
_cell_angle_gamma 100.195063
_cell_volume 694.775242
_symmetry_space_group_name_H-M "P -1"
_symmetry_group_IT_number 2
_symmetry_cell_setting 'triclinic'
loop_
_space_group_symop_operation_xyz
x,y,z
-x,-y,-z
loop_
_atom_site_type_symbol
_atom_site_label
_atom_site_fract_x
_atom_site_fract_y
_atom_site_fract_z
Si Si1 0.924778 0.266571 0.231989
Si Si2 0.769136 0.989093 0.330309
Si Si3 0.154813 0.096835 0.537442
Si Si4 0.038520 0.664282 0.163946
Si Si5 0.336324 0.610467 0.826104
Si Si6 0.101887 0.564841 0.300489
Si Si7 0.529340 0.194131 0.031954
O O1 0.689226 0.288621 0.230695
O O2 0.894320 0.417493 0.324874
O O3 0.222332 0.278411 0.118529
O O4 0.929913 0.096884 0.248312
O O5 0.909950 0.978715 0.376100
O O6 0.785582 0.805061 0.260683
O O7 0.470208 0.075978 0.430908
O O8 0.052461 0.288092 0.589045
O O9 0.000000 0.000000 0.500000
O O10 0.163330 0.616768 0.206871
O O11 0.915071 0.510710 0.126005
O O12 0.293473 0.736435 0.068930
O O13 0.618724 0.496593 0.737345
O O14 0.324224 0.749937 0.917719
O O15 0.500000 0.000000 0.000000
#
# Coordination Sequence:
#
# PCOD8005629 Si02
#       7
#     2   2   2   2   2   2   2
#     4  10  22  40  58  86 120 151 191 241 291 339
#     4  10  21  39  60  86 115 149 192 246 287 338
#     4  10  21  38  62  86 111 149 197 238 291 348
#     4  10  20  39  61  83 117 159 195 235 285 341
#     4  10  22  38  59  85 118 159 196 228 287 351
#     4   9  21  39  59  84 118 153 190 243 286 343
#     4  11  22  38  58  89 121 151 193 244 286 335
#
# _framework density 20.150400999999999
#
# number of rings (size 3 to 8) (size 9 to 14) (size 15 to 20)
#    0.000    2.000    1.429    1.286    0.000   10.857 
#    2.571    1.429    0.000    0.000    0.000    0.000 
#    0.000    0.000    0.000    0.000    0.000    0.000 
#
# Total GULP energy -173517.051513 kJ/mol
# GULP energy per Si atom -12394.075108 kJ/mol
# Density = 2.010454 g / cm^3
# Si number density = 20.150401 Si / 1000 Ang^3
#
#
#
# Elastic Constant Matrix: (Units=GPa)
#
#
# Indices 1 2 3 4 5 6 
#
# 1 118.8596 45.6202 33.6916 12.6602 6.9781 4.1526
# 2 45.6202 118.4436 36.6082 14.9275 10.6433 8.1093
# 3 33.6916 36.6082 75.9325 14.7882 0.9298 2.1734
# 4 12.6602 14.9275 14.7882 38.7689 3.0475 5.8314
# 5 6.9781 10.6433 0.9298 3.0475 22.8359 10.9990
# 6 4.1526 8.1093 2.1734 5.8314 10.9990 31.1080
#
#
#
# Elastic Compliance Matrix: (Units=1/GPa)
#
#
# Indices 1 2 3 4 5 6 
#
# 1 0.010596 -0.002846 -0.003105 -0.001096 -0.001830 0.000397
# 2 -0.002846 0.011295 -0.003811 -0.001570 -0.003694 -0.000698
# 3 -0.003105 -0.003811 0.017186 -0.004291 0.002544 0.000112
# 4 -0.001096 -0.001570 -0.004291 0.029098 -0.000514 -0.004417
# 5 -0.001830 -0.003694 0.002544 -0.000514 0.054832 -0.018261
# 6 0.000397 -0.000698 0.000112 -0.004417 -0.018261 0.039552
#
#
# Mechanical properties :
#
#
# Convention : Reuss Voigt Hill
#
# Bulk Modulus (GPa) = 51.14609 60.56397 55.85503
# Shear Modulus (GPa) = 26.51095 31.69694 29.10395
#
# Velocity S-wave (km/s) = 3.63113 3.97043 3.80456
# Velocity P-wave (km/s) = 6.55877 7.15125 6.86140
#
# Compressibility (1/GPa) = 0.01955184
#
# Stress axis : x y z
#
# Youngs Moduli (GPa) = 94.37451 88.53692 58.18652
#
# Poissons Ratio (x) = 0.25200 0.18066
# Poissons Ratio (y) = 0.26861 0.22178
# Poissons Ratio (z) = 0.29302 0.33745
#
# Static dielectric constant tensor:
#      x y z
#    x 3.575080 0.000560 0.138540 
#    y 0.000560 3.902360 0.245430 
#    z 0.138540 0.245430 3.552890 
# 
# 
# High freq. dielectric constant tensor:
#      x y z
#    x 1.786250 -0.005660 0.002200 
#    y -0.005660 1.798110 0.021340 
#    z 0.002200 0.021340 1.776770 
# 
# From -- ./inp_files/26717.got.cif
#   From: 2010.06.25/outbox.cif.g09.slc.cpg/sg2_14_cif.got.tgz:26717.got - 2010.06.27 13:26:56.
