data_PCOD8005668
_publ_section_title
;
Structure prediction by ZEFSAII (Michael W. Deem and Ramdas Pophale) SiO2 
 PCOD8005668
Probable space group: P -1
;
_chemical_formula_sum "Si O2"
_cell_formula_units_Z 14
_cell_length_a 8.104111
_cell_length_b 8.851384
_cell_length_c 20.549845
_cell_angle_alpha 143.603698
_cell_angle_beta 45.362132
_cell_angle_gamma 132.374773
_cell_volume 601.520648
_symmetry_space_group_name_H-M "P -1"
_symmetry_group_IT_number 2
_symmetry_cell_setting 'triclinic'
loop_
_space_group_symop_operation_xyz
x,y,z
-x,-y,-z
loop_
_atom_site_type_symbol
_atom_site_label
_atom_site_fract_x
_atom_site_fract_y
_atom_site_fract_z
Si Si1 0.396881 0.842861 0.239233
Si Si2 0.509038 0.850852 0.808282
Si Si3 0.643428 0.390209 0.019280
Si Si4 0.542925 0.267508 0.451933
Si Si5 0.970009 0.150329 0.356685
Si Si6 0.861320 0.548495 0.151834
Si Si7 0.918987 0.924663 0.422920
O O1 0.465726 0.571070 0.116782
O O2 0.104951 0.765724 0.287608
O O3 0.519633 0.049071 0.221464
O O4 0.487139 0.990384 0.332871
O O5 0.279098 0.611999 0.803976
O O6 0.755932 0.755016 0.711387
O O7 0.509839 0.085254 0.940161
O O8 0.725736 0.421441 0.081045
O O9 0.864349 0.471000 0.934975
O O10 0.500000 0.500000 0.500000
O O11 0.357419 0.242533 0.555362
O O12 0.811744 0.328947 0.428618
O O13 0.852395 0.848984 0.264677
O O14 0.947418 0.168530 0.448456
O O15 0.000000 0.000000 0.500000
#
# Coordination Sequence:
#
# PCOD8005668 Si02
#       7
#     2   2   2   2   2   2   2
#     4  10  21  41  58  87 126 158 200 256 301 358
#     4  10  22  38  63  95 119 159 205 244 308 377
#     4  10  20  39  61  89 129 156 197 251 308 364
#     4  11  23  40  61  91 119 160 212 255 303 362
#     4  10  21  42  64  87 127 162 198 260 309 356
#     4  10  21  37  63  93 120 158 202 246 308 376
#     4   9  21  41  62  86 121 162 204 251 310 356
#
# _framework density 23.274346000000001
#
# number of rings (size 3 to 8) (size 9 to 14) (size 15 to 20)
#    0.000    2.000    1.429    1.286    2.000    1.714 
#    5.143    3.571    0.000    0.000    0.000    0.000 
#    0.000    0.000    0.000    0.000    0.000    0.000 
#
# Total GULP energy -173537.962022 kJ/mol
# GULP energy per Si atom -12395.568716 kJ/mol
# Density = 2.322137 g / cm^3
# Si number density = 23.274346 Si / 1000 Ang^3
#
#
#
# Elastic Constant Matrix: (Units=GPa)
#
#
# Indices 1 2 3 4 5 6 
#
# 1 66.8104 -3.7234 23.4375 7.9562 -24.5835 -18.3654
# 2 -3.7234 86.3148 35.2800 -13.1297 -17.0685 3.3313
# 3 23.4375 35.2800 105.2894 -4.1951 -14.6019 -10.9942
# 4 7.9562 -13.1297 -4.1951 25.6549 -6.4078 -1.5352
# 5 -24.5835 -17.0685 -14.6019 -6.4078 49.8916 0.5164
# 6 -18.3654 3.3313 -10.9942 -1.5352 0.5164 28.6995
#
#
#
# Elastic Compliance Matrix: (Units=1/GPa)
#
#
# Indices 1 2 3 4 5 6 
#
# 1 0.025166 0.004237 -0.003987 -0.002411 0.012231 0.013736
# 2 0.004237 0.016636 -0.005283 0.008099 0.007283 -0.000941
# 3 -0.003987 -0.005283 0.012478 0.000732 -0.000056 0.002882
# 4 -0.002411 0.008099 0.000732 0.045920 0.007693 0.000115
# 5 0.012231 0.007283 -0.000056 0.007693 0.029463 0.006841
# 6 0.013736 -0.000941 0.002882 0.000115 0.006841 0.044730
#
#
# Mechanical properties :
#
#
# Convention : Reuss Voigt Hill
#
# Bulk Modulus (GPa) = 22.61759 40.93367 31.77563
# Shear Modulus (GPa) = 25.10081 34.41056 29.75569
#
# Velocity S-wave (km/s) = 3.28758 3.84927 3.57946
# Velocity P-wave (km/s) = 4.91425 6.11404 5.54668
#
# Compressibility (1/GPa) = 0.04421337
#
# Stress axis : x y z
#
# Youngs Moduli (GPa) = 39.73585 60.11004 80.14267
#
# Poissons Ratio (x) = -0.25469 0.31955
# Poissons Ratio (y) = -0.16836 0.42341
# Poissons Ratio (z) = 0.15844 0.31757
#
# Static dielectric constant tensor:
#      x y z
#    x 4.300990 0.072910 0.042330 
#    y 0.072910 3.946340 -0.339110 
#    z 0.042330 -0.339110 4.551180 
# 
# 
# High freq. dielectric constant tensor:
#      x y z
#    x 1.927000 0.001860 0.008140 
#    y 0.001860 1.899860 -0.012290 
#    z 0.008140 -0.012290 1.934400 
# 
# From -- ./inp_files/177207.got.cif
#   From: 2010.06.25/outbox.cif.g09.slc.cpg/sg2_89_cif.got.tgz:177207.got - 2010.06.27 13:26:56.
