data_PCOD8005701
_publ_section_title
;
Structure prediction by ZEFSAII (Michael W. Deem and Ramdas Pophale) SiO2 
 PCOD8005701
Probable space group: P -1
;
_chemical_formula_sum "Si O2"
_cell_formula_units_Z 16
_cell_length_a 10.824995
_cell_length_b 12.534163
_cell_length_c 11.240900
_cell_angle_alpha 76.882396
_cell_angle_beta 50.037932
_cell_angle_gamma 110.383914
_cell_volume 853.435488
_symmetry_space_group_name_H-M "P -1"
_symmetry_group_IT_number 2
_symmetry_cell_setting 'triclinic'
loop_
_space_group_symop_operation_xyz
x,y,z
-x,-y,-z
loop_
_atom_site_type_symbol
_atom_site_label
_atom_site_fract_x
_atom_site_fract_y
_atom_site_fract_z
Si Si1 0.405288 0.915294 0.200676
Si Si2 0.697334 0.562554 0.191633
Si Si3 0.441737 0.632079 0.462439
Si Si4 0.013425 0.875518 0.545380
Si Si5 0.238023 0.597697 0.367106
Si Si6 0.128082 0.829502 0.733247
Si Si7 0.547425 0.916075 0.353588
Si Si8 0.383079 0.443824 0.208521
O O1 0.221854 0.918988 0.344859
O O2 0.340638 0.762534 0.249963
O O3 0.570625 0.986531 0.192683
O O4 0.500000 0.000000 0.000000
O O5 0.620976 0.630093 0.301753
O O6 0.681408 0.453241 0.318407
O O7 0.534817 0.462044 0.211188
O O8 0.938036 0.684763 0.960672
O O9 0.250483 0.562643 0.503928
O O10 0.582543 0.803369 0.349390
O O11 0.019509 0.853526 0.689394
O O12 0.821382 0.726878 0.634306
O O13 0.000000 0.000000 0.500000
O O14 0.343453 0.554003 0.229581
O O15 0.000000 0.500000 0.500000
O O16 0.299810 0.821286 0.575020
O O17 0.265718 0.964153 0.704279
O O18 0.500000 0.500000 0.000000
#
# Coordination Sequence:
#
# PCOD8005701 Si02
#       8
#     2   2   2   2   2   2   2   2
#     4  10  22  40  60  87 117 151 194 239 287 344
#     4  10  21  38  59  85 116 147 191 234 286 341
#     4   9  21  37  57  86 115 145 190 237 278 341
#     4  11  24  38  59  88 119 151 194 240 288 345
#     4  10  20  39  62  83 116 155 190 240 288 337
#     4  10  21  40  58  82 115 154 189 232 285 340
#     4   9  21  40  59  81 116 150 191 235 280 338
#     4  11  22  38  60  88 116 153 193 240 289 341
#
# _framework density 18.747755999999999
#
# number of rings (size 3 to 8) (size 9 to 14) (size 15 to 20)
#    0.000    2.000    2.500    0.000    3.500    3.000 
#    2.250    0.000    0.000    0.000    0.000    0.000 
#    0.000    0.000    0.000    0.000    0.000    0.000 
#
# Total GULP energy -198273.707882 kJ/mol
# GULP energy per Si atom -12392.106743 kJ/mol
# Density = 1.870508 g / cm^3
# Si number density = 18.747756 Si / 1000 Ang^3
#
#
#
# Elastic Constant Matrix: (Units=GPa)
#
#
# Indices 1 2 3 4 5 6 
#
# 1 123.6186 54.2601 61.9306 1.0414 14.6368 10.1272
# 2 54.2601 107.9097 24.2932 6.4308 5.5242 3.5534
# 3 61.9306 24.2932 100.8533 6.4912 23.1296 8.8071
# 4 1.0414 6.4308 6.4912 17.0439 9.8112 2.6416
# 5 14.6368 5.5242 23.1296 9.8112 33.2869 -4.0680
# 6 10.1272 3.5534 8.8071 2.6416 -4.0680 34.3399
#
#
#
# Elastic Compliance Matrix: (Units=1/GPa)
#
#
# Indices 1 2 3 4 5 6 
#
# 1 0.014785 -0.005949 -0.007202 0.005996 -0.002603 -0.002667
# 2 -0.005949 0.012357 0.000485 -0.005842 0.002078 0.001047
# 3 -0.007202 0.000485 0.016502 -0.000600 -0.008586 -0.003129
# 4 0.005996 -0.005842 -0.000600 0.076697 -0.025063 -0.009879
# 5 -0.002603 0.002078 -0.008586 -0.025063 0.045424 0.010063
# 6 -0.002667 0.001047 -0.003129 -0.009879 0.010063 0.032554
#
#
# Mechanical properties :
#
#
# Convention : Reuss Voigt Hill
#
# Bulk Modulus (GPa) = 54.61313 68.14991 61.38152
# Shear Modulus (GPa) = 21.76236 29.72732 25.74484
#
# Velocity S-wave (km/s) = 3.41075 3.98634 3.70972
# Velocity P-wave (km/s) = 6.68615 7.59064 7.15271
#
# Compressibility (1/GPa) = 0.01831061
#
# Stress axis : x y z
#
# Youngs Moduli (GPa) = 67.63666 80.92853 60.59840
#
# Poissons Ratio (x) = 0.48146 0.43643
# Poissons Ratio (y) = 0.40238 -0.02937
# Poissons Ratio (z) = 0.48712 -0.03922
#
# Static dielectric constant tensor:
#      x y z
#    x 3.712820 0.392110 -0.188300 
#    y 0.392110 3.697900 -0.020690 
#    z -0.188300 -0.020690 3.588360 
# 
# 
# High freq. dielectric constant tensor:
#      x y z
#    x 1.742580 0.008650 0.005250 
#    y 0.008650 1.740100 0.009880 
#    z 0.005250 0.009880 1.716090 
# 
# From -- ./inp_files/227514.got.cif
#   From: 2010.06.25/outbox.cif.g09.slc.cpg/sg2_114_cif.got.tgz:227514.got - 2010.06.27 13:26:56.
