data_PCOD8005315
_publ_section_title
;
Structure prediction by ZEFSAII (Michael W. Deem and Ramdas Pophale) SiO2 
 PCOD8005315
Probable space group: P -1
;
_chemical_formula_sum "Si O2"
_cell_formula_units_Z 16
_cell_length_a 10.757943
_cell_length_b 9.339433
_cell_length_c 10.819378
_cell_angle_alpha 122.896883
_cell_angle_beta 115.114483
_cell_angle_gamma 95.161603
_cell_volume 749.438897
_symmetry_space_group_name_H-M "P -1"
_symmetry_group_IT_number 2
_symmetry_cell_setting 'triclinic'
loop_
_space_group_symop_operation_xyz
x,y,z
-x,-y,-z
loop_
_atom_site_type_symbol
_atom_site_label
_atom_site_fract_x
_atom_site_fract_y
_atom_site_fract_z
Si Si1 0.791283 0.313518 0.530559
Si Si2 0.777321 0.465107 0.858614
Si Si3 0.623539 0.211173 0.174504
Si Si4 0.441404 0.383602 0.042739
Si Si5 0.910446 0.906200 0.617944
Si Si6 0.046201 0.693691 0.745143
Si Si7 0.908384 0.221732 0.919582
Si Si8 0.805614 0.929089 0.342312
O O1 0.744839 0.385051 0.669011
O O2 0.648289 0.257417 0.352201
O O3 0.948783 0.470033 0.613845
O O4 0.822481 0.133409 0.486320
O O5 0.786778 0.309039 0.883619
O O6 0.642367 0.519016 0.864801
O O7 0.934360 0.648429 0.019194
O O8 0.786652 0.246196 0.206865
O O9 0.573277 0.365258 0.168731
O O10 0.500000 0.000000 0.000000
O O11 0.335449 0.172936 0.854652
O O12 0.500000 0.500000 0.000000
O O13 0.789616 0.812431 0.410436
O O14 0.950285 0.758002 0.640079
O O15 0.848699 0.014495 0.738870
O O16 0.052504 0.057078 0.672864
O O17 0.066695 0.796887 0.933608
#
# Coordination Sequence:
#
# PCOD8005315 Si02
#       8
#     2   2   2   2   2   2   2   2
#     4  11  23  45  70  96 132 174 224 280 331 380
#     4  10  22  42  65  96 131 174 224 270 328 393
#     4  12  25  44  66  94 139 180 213 266 336 401
#     4  12  26  44  67  94 134 180 225 260 331 411
#     4  11  21  37  67 100 133 158 221 278 330 382
#     4  11  24  39  69 104 131 168 228 280 323 387
#     4  10  20  38  66  97 137 167 214 285 335 374
#     4  11  23  40  66  96 131 177 212 272 333 388
#
# _framework density 21.349304
#
# number of rings (size 3 to 8) (size 9 to 14) (size 15 to 20)
#    0.000    1.000    5.000    1.500    1.750    1.500 
#    0.000    1.875    0.000    0.000    0.000    0.000 
#    0.000    0.000    0.000    0.000    0.000    0.000 
#
# Total GULP energy -198371.655828 kJ/mol
# GULP energy per Si atom -12398.228489 kJ/mol
# Density = 2.130071 g / cm^3
# Si number density = 21.349304 Si / 1000 Ang^3
#
#
#
# Elastic Constant Matrix: (Units=GPa)
#
#
# Indices 1 2 3 4 5 6 
#
# 1 70.0057 47.8871 34.7905 8.0798 -12.1616 -11.9825
# 2 47.8871 134.8794 36.1292 -24.1101 -11.7892 -17.3847
# 3 34.7905 36.1292 113.2477 -11.0090 -10.8414 -3.0442
# 4 8.0798 -24.1101 -11.0090 41.4424 -4.8034 -0.6069
# 5 -12.1616 -11.7892 -10.8414 -4.8034 25.6998 -0.6250
# 6 -11.9825 -17.3847 -3.0442 -0.6069 -0.6250 34.1461
#
#
#
# Elastic Compliance Matrix: (Units=1/GPa)
#
#
# Indices 1 2 3 4 5 6 
#
# 1 0.025735 -0.008759 -0.005729 -0.011142 0.003757 0.003931
# 2 -0.008759 0.013124 -0.000078 0.009816 0.003771 0.003845
# 3 -0.005729 -0.000078 0.011286 0.004382 0.002811 -0.000915
# 4 -0.011142 0.009816 0.004382 0.034079 0.007502 0.002221
# 5 0.003757 0.003771 0.002811 0.007502 0.045114 0.004448
# 6 0.003931 0.003845 -0.000915 0.002221 0.004448 0.032662
#
#
# Mechanical properties :
#
#
# Convention : Reuss Voigt Hill
#
# Bulk Modulus (GPa) = 47.58979 61.74959 54.66969
# Shear Modulus (GPa) = 25.23520 33.54606 29.39063
#
# Velocity S-wave (km/s) = 3.44177 3.96826 3.71436
# Velocity P-wave (km/s) = 6.17526 7.06982 6.63763
#
# Compressibility (1/GPa) = 0.02101291
#
# Stress axis : x y z
#
# Youngs Moduli (GPa) = 38.85807 76.19492 88.60849
#
# Poissons Ratio (x) = 0.66736 0.50768
# Poissons Ratio (y) = 0.34034 0.00689
# Poissons Ratio (z) = 0.22264 0.00592
#
# Static dielectric constant tensor:
#      x y z
#    x 3.731370 -0.026570 0.034630 
#    y -0.026570 3.976130 -0.339580 
#    z 0.034630 -0.339580 4.405850 
# 
# 
# High freq. dielectric constant tensor:
#      x y z
#    x 1.811690 -0.006730 -0.014680 
#    y -0.006730 1.849860 -0.015300 
#    z -0.014680 -0.015300 1.851980 
# 
# From -- ./inp_files/420102.got.cif
#   From: 2010.06.25/outbox.cif.g09.slc.cpg/sg2_211_cif.got.tgz:420102.got - 2010.06.27 13:26:56.
