data_PCOD8005683
_publ_section_title
;
Structure prediction by ZEFSAII (Michael W. Deem and Ramdas Pophale) SiO2 
 PCOD8005683
Probable space group: P -1
;
_chemical_formula_sum "Si O2"
_cell_formula_units_Z 16
_cell_length_a 8.754992
_cell_length_b 14.222319
_cell_length_c 13.665392
_cell_angle_alpha 30.688463
_cell_angle_beta 124.627849
_cell_angle_gamma 119.720226
_cell_volume 714.491724
_symmetry_space_group_name_H-M "P -1"
_symmetry_group_IT_number 2
_symmetry_cell_setting 'triclinic'
loop_
_space_group_symop_operation_xyz
x,y,z
-x,-y,-z
loop_
_atom_site_type_symbol
_atom_site_label
_atom_site_fract_x
_atom_site_fract_y
_atom_site_fract_z
Si Si1 0.916128 0.021873 0.658216
Si Si2 0.424018 0.271036 0.472064
Si Si3 0.747410 0.332553 0.208627
Si Si4 0.892742 0.861692 0.198521
Si Si5 0.635938 0.711407 0.787565
Si Si6 0.291244 0.439196 0.460796
Si Si7 0.822368 0.070807 0.312296
Si Si8 0.808349 0.235017 0.749850
O O1 0.900345 0.230975 0.421901
O O2 0.938636 0.041918 0.764284
O O3 0.735233 0.909047 0.658410
O O4 0.102696 0.919909 0.779856
O O5 0.412975 0.346451 0.289959
O O6 0.282280 0.378891 0.397038
O O7 0.635522 0.287819 0.570879
O O8 0.358380 0.059497 0.631973
O O9 0.545998 0.276552 0.225145
O O10 0.763804 0.265740 0.161381
O O11 0.771820 0.553574 0.020764
O O12 0.763321 0.732158 0.334707
O O13 0.996522 0.749808 0.251299
O O14 0.771877 0.027444 0.962140
O O15 0.500000 0.500000 0.500000
O O16 0.168968 0.616766 0.285661
O O17 0.000000 0.000000 0.500000
#
# Coordination Sequence:
#
# PCOD8005683 Si02
#       8
#     2   2   2   2   2   2   2   2
#     4  11  22  40  64  92 129 167 200 264 314 374
#     4  11  21  42  65  92 131 163 209 260 318 372
#     4  10  23  39  60  91 134 164 207 252 307 388
#     4  11  23  44  68  94 127 168 218 263 320 375
#     4  11  23  40  62  99 125 166 209 251 323 382
#     4  10  23  43  64  91 127 167 214 265 315 372
#     4  10  20  39  61  92 127 165 202 251 312 377
#     4  10  25  43  66  96 122 171 217 268 315 373
#
# _framework density 22.393542
#
# number of rings (size 3 to 8) (size 9 to 14) (size 15 to 20)
#    0.000    1.500    3.750    1.500    1.750    4.500 
#    4.500    2.500    0.000    0.000    0.000    0.000 
#    0.000    0.000    0.000    0.000    0.000    0.000 
#
# Total GULP energy -198283.172927 kJ/mol
# GULP energy per Si atom -12392.698308 kJ/mol
# Density = 2.234257 g / cm^3
# Si number density = 22.393542 Si / 1000 Ang^3
#
#
#
# Elastic Constant Matrix: (Units=GPa)
#
#
# Indices 1 2 3 4 5 6 
#
# 1 99.6137 15.4497 40.4056 -5.9690 9.3558 -22.5103
# 2 15.4497 73.1904 24.9211 -0.2613 9.7200 -12.4089
# 3 40.4056 24.9211 84.2686 -2.4748 1.4640 -11.1465
# 4 -5.9690 -0.2613 -2.4748 24.7646 -2.6316 1.6566
# 5 9.3558 9.7200 1.4640 -2.6316 19.9661 -14.0709
# 6 -22.5103 -12.4089 -11.1465 1.6566 -14.0709 37.2591
#
#
#
# Elastic Compliance Matrix: (Units=1/GPa)
#
#
# Indices 1 2 3 4 5 6 
#
# 1 0.014067 0.000323 -0.005942 0.002209 -0.001742 0.006072
# 2 0.000323 0.016369 -0.004675 -0.001044 -0.006661 0.001779
# 3 -0.005942 -0.004675 0.016239 0.000573 0.005074 0.001602
# 4 0.002209 -0.001044 0.000573 0.041492 0.006018 0.001586
# 5 -0.001742 -0.006661 0.005074 0.006018 0.072414 0.025326
# 6 0.006072 0.001779 0.001602 0.001586 0.025326 0.041073
#
#
# Mechanical properties :
#
#
# Convention : Reuss Voigt Hill
#
# Bulk Modulus (GPa) = 38.33450 46.51396 42.42423
# Shear Modulus (GPa) = 21.65066 28.15106 24.90086
#
# Velocity S-wave (km/s) = 3.11276 3.54942 3.33823
# Velocity P-wave (km/s) = 5.48404 6.13303 5.81759
#
# Compressibility (1/GPa) = 0.02608616
#
# Stress axis : x y z
#
# Youngs Moduli (GPa) = 71.08735 61.08988 61.57935
#
# Poissons Ratio (x) = -0.01971 0.36591
# Poissons Ratio (y) = -0.02294 0.28790
# Poissons Ratio (z) = 0.42241 0.28562
#
# Static dielectric constant tensor:
#      x y z
#    x 4.457070 -0.581860 0.074000 
#    y -0.581860 4.192450 -0.196460 
#    z 0.074000 -0.196460 3.869070 
# 
# 
# High freq. dielectric constant tensor:
#      x y z
#    x 1.898550 -0.022020 0.001010 
#    y -0.022020 1.877410 -0.013210 
#    z 0.001010 -0.013210 1.859390 
# 
# From -- ./inp_files/503733.got.cif
#   From: 2010.06.25/outbox.cif.g09.slc.cpg/sg2_252_cif.got.tgz:503733.got - 2010.06.27 13:26:56.
