data_PCOD8005249
_publ_section_title
;
Structure prediction by ZEFSAII (Michael W. Deem and Ramdas Pophale) SiO2 
 PCOD8005249
Probable space group: P -1
;
_chemical_formula_sum "Si O2"
_cell_formula_units_Z 16
_cell_length_a 12.504440
_cell_length_b 21.198792
_cell_length_c 9.037558
_cell_angle_alpha 151.518569
_cell_angle_beta 131.682462
_cell_angle_gamma 36.861771
_cell_volume 679.175153
_symmetry_space_group_name_H-M "P -1"
_symmetry_group_IT_number 2
_symmetry_cell_setting 'triclinic'
loop_
_space_group_symop_operation_xyz
x,y,z
-x,-y,-z
loop_
_atom_site_type_symbol
_atom_site_label
_atom_site_fract_x
_atom_site_fract_y
_atom_site_fract_z
Si Si1 0.773185 0.262105 0.781366
Si Si2 0.536267 0.741920 0.565446
Si Si3 0.672195 0.214497 0.106438
Si Si4 0.287004 0.511714 0.285909
Si Si5 0.209074 0.346725 0.648066
Si Si6 0.943452 0.036701 0.739177
Si Si7 0.263989 0.027696 0.083435
Si Si8 0.830266 0.480202 0.478390
O O1 0.571542 0.339356 0.699577
O O2 0.813630 0.131041 0.675518
O O3 0.798275 0.394289 0.138236
O O4 0.916596 0.161089 0.571054
O O5 0.626492 0.708817 0.421035
O O6 0.682363 0.671015 0.687511
O O7 0.389869 0.938954 0.871002
O O8 0.486253 0.337603 0.101509
O O9 0.721401 0.332715 0.460279
O O10 0.826117 0.070306 0.844267
O O11 0.654771 0.115507 0.013590
O O12 0.213716 0.554970 0.474434
O O13 0.169014 0.485166 0.014947
O O14 0.030111 0.427892 0.551762
O O15 0.260360 0.183455 0.447214
O O16 0.058247 0.106796 0.016851
#
# Coordination Sequence:
#
# PCOD8005249 Si02
#       8
#     2   2   2   2   2   2   2   2
#     4  10  21  40  71 100 132 180 233 284 334 403
#     4  11  25  43  69 100 139 186 232 281 345 413
#     4  11  22  43  71 103 136 180 236 283 340 411
#     4  11  25  43  72 101 140 184 226 286 346 415
#     4  12  26  44  69 101 143 186 226 283 355 406
#     4  10  20  38  66 102 136 172 229 290 338 395
#     4  11  23  44  69 100 140 182 230 287 343 409
#     4  12  23  47  68 103 142 182 228 290 342 416
#
# _framework density 23.557988999999999
#
# number of rings (size 3 to 8) (size 9 to 14) (size 15 to 20)
#    0.000    1.000    3.750    2.625    1.750    2.500 
#    2.250    1.250    0.000    0.000    0.000    0.000 
#    0.000    0.000    0.000    0.000    0.000    0.000 
#
# Total GULP energy -198377.244554 kJ/mol
# GULP energy per Si atom -12398.577785 kJ/mol
# Density = 2.350437 g / cm^3
# Si number density = 23.557989 Si / 1000 Ang^3
#
#
#
# Elastic Constant Matrix: (Units=GPa)
#
#
# Indices 1 2 3 4 5 6 
#
# 1 95.7148 28.6382 39.8353 8.0180 -21.0014 -16.9913
# 2 28.6382 90.7899 28.2908 -2.8734 1.6327 -8.3002
# 3 39.8353 28.2908 121.0176 -11.6060 -2.3548 -8.2206
# 4 8.0180 -2.8734 -11.6060 26.2353 -3.1060 3.6162
# 5 -21.0014 1.6327 -2.3548 -3.1060 30.1673 6.5467
# 6 -16.9913 -8.3002 -8.2206 3.6162 6.5467 40.2800
#
#
#
# Elastic Compliance Matrix: (Units=1/GPa)
#
#
# Indices 1 2 3 4 5 6 
#
# 1 0.017344 -0.003919 -0.004995 -0.007356 0.010163 0.004498
# 2 -0.003919 0.012966 -0.001608 0.001310 -0.003674 0.001170
# 3 -0.004995 -0.001608 0.010788 0.005972 -0.001830 -0.000475
# 4 -0.007356 0.001310 0.005972 0.044067 0.001057 -0.005742
# 5 0.010163 -0.003674 -0.001830 0.001057 0.041176 -0.003631
# 6 0.004498 0.001170 -0.000475 -0.005742 -0.003631 0.027973
#
#
# Mechanical properties :
#
#
# Convention : Reuss Voigt Hill
#
# Bulk Modulus (GPa) = 49.86268 55.67234 52.76751
# Shear Modulus (GPa) = 27.46625 33.38708 30.42666
#
# Velocity S-wave (km/s) = 3.41823 3.76869 3.59773
# Velocity P-wave (km/s) = 6.06555 6.52846 6.30126
#
# Compressibility (1/GPa) = 0.02005508
#
# Stress axis : x y z
#
# Youngs Moduli (GPa) = 57.65809 77.12502 92.69442
#
# Poissons Ratio (x) = 0.30222 0.46302
# Poissons Ratio (y) = 0.22594 0.14901
# Poissons Ratio (z) = 0.28801 0.12398
#
# Static dielectric constant tensor:
#      x y z
#    x 4.061470 -0.262040 -0.152560 
#    y -0.262040 4.240240 0.012860 
#    z -0.152560 0.012860 4.161840 
# 
# 
# High freq. dielectric constant tensor:
#      x y z
#    x 1.925270 -0.016570 -0.018800 
#    y -0.016570 1.937130 0.005460 
#    z -0.018800 0.005460 1.925170 
# 
# From -- ./inp_files/283517.got.cif
#   From: 2010.06.25/outbox.cif.g09.slc.cpg/sg2_142_cif.got.tgz:283517.got - 2010.06.27 13:26:56.
