data_PCOD8005028
_publ_section_title
;
Structure prediction by ZEFSAII (Michael W. Deem and Ramdas Pophale) SiO2 
 PCOD8005028
Probable space group: P -1
;
_chemical_formula_sum "Si O2"
_cell_formula_units_Z 14
_cell_length_a 14.585695
_cell_length_b 7.978648
_cell_length_c 12.721021
_cell_angle_alpha 76.746749
_cell_angle_beta 50.581533
_cell_angle_gamma 117.214242
_cell_volume 665.283423
_symmetry_space_group_name_H-M "P -1"
_symmetry_group_IT_number 2
_symmetry_cell_setting 'triclinic'
loop_
_space_group_symop_operation_xyz
x,y,z
-x,-y,-z
loop_
_atom_site_type_symbol
_atom_site_label
_atom_site_fract_x
_atom_site_fract_y
_atom_site_fract_z
Si Si1 0.582386 0.318810 0.684629
Si Si2 0.077512 0.406605 0.322527
Si Si3 0.932979 0.669463 0.054152
Si Si4 0.593212 0.441832 0.888306
Si Si5 0.829005 0.312278 0.999223
Si Si6 0.273276 0.843640 0.293371
Si Si7 0.716907 0.687912 0.343741
O O1 0.547477 0.391489 0.804848
O O2 0.712068 0.301496 0.618800
O O3 0.711558 0.583799 0.473570
O O4 0.375320 0.023491 0.826411
O O5 0.174561 0.331374 0.288846
O O6 0.170531 0.671076 0.284038
O O7 0.845253 0.137463 0.565083
O O8 0.098910 0.479133 0.175428
O O9 0.805035 0.404463 0.105855
O O10 0.785897 0.644604 0.205546
O O11 0.005324 0.639587 0.104789
O O12 0.125995 0.973239 0.810593
O O13 0.500000 0.500000 0.000000
O O14 0.491928 0.160194 0.058852
O O15 0.500000 0.500000 0.500000
#
# Coordination Sequence:
#
# PCOD8005028 Si02
#       7
#     2   2   2   2   2   2   2
#     4  11  21  41  68  87 123 168 204 249 310 360
#     4  10  20  38  64  87 117 162 202 244 302 365
#     4  10  25  41  62  92 127 156 212 257 299 360
#     4  11  23  39  59  95 128 152 200 255 305 364
#     4  11  20  42  65  91 121 167 206 253 300 363
#     4  10  20  39  64  88 117 161 207 242 297 372
#     4  11  23  44  62  90 124 164 201 259 310 357
#
# _framework density 21.043662000000001
#
# number of rings (size 3 to 8) (size 9 to 14) (size 15 to 20)
#    0.000    1.429    4.286    1.714    0.000    3.429 
#    2.571    0.000    0.000    0.000    0.000    0.000 
#    0.000    0.000    0.000    0.000    0.000    0.000 
#
# Total GULP energy -173595.500380 kJ/mol
# GULP energy per Si atom -12399.678599 kJ/mol
# Density = 2.099577 g / cm^3
# Si number density = 21.043662 Si / 1000 Ang^3
#
#
#
# Elastic Constant Matrix: (Units=GPa)
#
#
# Indices 1 2 3 4 5 6 
#
# 1 114.2534 39.2814 42.9551 16.3742 2.4353 9.6056
# 2 39.2814 85.3540 30.5706 17.6990 -6.9749 5.3695
# 3 42.9551 30.5706 99.8244 14.3690 -2.3185 2.5644
# 4 16.3742 17.6990 14.3690 25.1527 -10.6939 -5.9015
# 5 2.4353 -6.9749 -2.3185 -10.6939 44.3673 4.9954
# 6 9.6056 5.3695 2.5644 -5.9015 4.9954 31.8400
#
#
#
# Elastic Compliance Matrix: (Units=1/GPa)
#
#
# Indices 1 2 3 4 5 6 
#
# 1 0.012317 -0.003234 -0.003469 -0.005579 -0.002309 -0.003563
# 2 -0.003234 0.015983 -0.002214 -0.008225 0.000954 -0.003216
# 3 -0.003469 -0.002214 0.012711 -0.003645 -0.000347 -0.000225
# 4 -0.005579 -0.008225 -0.003645 0.059154 0.011674 0.012496
# 5 -0.002309 0.000954 -0.000347 0.011674 0.025759 -0.001314
# 6 -0.003563 -0.003216 -0.000225 0.012496 -0.001314 0.035565
#
#
# Mechanical properties :
#
#
# Convention : Reuss Voigt Hill
#
# Bulk Modulus (GPa) = 43.14673 58.33845 50.74259
# Shear Modulus (GPa) = 26.73104 32.71363 29.72234
#
# Velocity S-wave (km/s) = 3.56795 3.94707 3.76229
# Velocity P-wave (km/s) = 6.12549 6.96816 6.56037
#
# Compressibility (1/GPa) = 0.02317673
#
# Stress axis : x y z
#
# Youngs Moduli (GPa) = 81.19106 62.56580 78.67326
#
# Poissons Ratio (x) = 0.20232 0.27289
# Poissons Ratio (y) = 0.26255 0.17422
# Poissons Ratio (z) = 0.28163 0.13855
#
# Static dielectric constant tensor:
#      x y z
#    x 3.878390 -0.001030 0.031160 
#    y -0.001030 3.607870 0.008840 
#    z 0.031160 0.008840 3.964680 
# 
# 
# High freq. dielectric constant tensor:
#      x y z
#    x 1.833670 -0.000910 -0.002440 
#    y -0.000910 1.808120 0.006830 
#    z -0.002440 0.006830 1.830940 
# 
# From -- ./inp_files/424971.got.cif
#   From: 2010.06.25/outbox.cif.g09.slc.cpg/sg2_213_cif.got.tgz:424971.got - 2010.06.27 13:26:56.
