data_PCOD8005109
_publ_section_title
;
Structure prediction by ZEFSAII (Michael W. Deem and Ramdas Pophale) SiO2 
 PCOD8005109
Probable space group: P -1
;
_chemical_formula_sum "Si O2"
_cell_formula_units_Z 16
_cell_length_a 8.651174
_cell_length_b 11.590421
_cell_length_c 13.117763
_cell_angle_alpha 128.716246
_cell_angle_beta 58.014641
_cell_angle_gamma 130.144725
_cell_volume 766.679400
_symmetry_space_group_name_H-M "P -1"
_symmetry_group_IT_number 2
_symmetry_cell_setting 'triclinic'
loop_
_space_group_symop_operation_xyz
x,y,z
-x,-y,-z
loop_
_atom_site_type_symbol
_atom_site_label
_atom_site_fract_x
_atom_site_fract_y
_atom_site_fract_z
Si Si1 0.939114 0.051759 0.653479
Si Si2 0.346825 0.336901 0.682487
Si Si3 0.038729 0.451619 0.569375
Si Si4 0.700845 0.265696 0.226204
Si Si5 0.408907 0.816275 0.380366
Si Si6 0.563805 0.111364 0.812632
Si Si7 0.320277 0.301629 0.428359
Si Si8 0.236849 0.611824 0.942589
O O1 0.784142 0.123217 0.720906
O O2 0.135391 0.187597 0.720940
O O3 0.826230 0.884010 0.666862
O O4 0.000000 0.000000 0.500000
O O5 0.531174 0.307279 0.645242
O O6 0.331004 0.319097 0.556478
O O7 0.353912 0.506161 0.813384
O O8 0.096175 0.611725 0.711463
O O9 0.238539 0.420942 0.473403
O O10 0.000000 0.500000 0.500000
O O11 0.842157 0.283294 0.587351
O O12 0.546817 0.347596 0.334619
O O13 0.769153 0.279569 0.092290
O O14 0.605097 0.073492 0.191886
O O15 0.501831 0.844623 0.249006
O O16 0.500000 0.000000 0.500000
O O17 0.605373 0.257593 0.958811
O O18 0.000000 0.500000 0.000000
#
# Coordination Sequence:
#
# PCOD8005109 Si02
#       8
#     2   2   2   2   2   2   2   2
#     4   9  17  34  62  91 119 159 211 266 312 371
#     4  11  21  38  67  96 130 170 216 262 327 381
#     4  12  23  36  62 100 134 162 205 271 339 379
#     4  11  24  42  68  92 130 172 221 267 322 380
#     4  12  24  41  66  99 136 167 209 273 333 383
#     4  11  23  42  63  94 128 172 218 266 322 380
#     4  10  20  38  64  95 127 163 218 271 322 379
#     4  12  24  42  68  92 129 175 224 264 312 392
#
# _framework density 20.869219999999999
#
# number of rings (size 3 to 8) (size 9 to 14) (size 15 to 20)
#    0.000    1.000    2.500    7.500    1.750    0.500 
#    0.000    0.000    0.000    1.500    0.000    0.000 
#    0.000    0.000    0.000    0.000    0.000    0.000 
#
# Total GULP energy -198289.694453 kJ/mol
# GULP energy per Si atom -12393.105903 kJ/mol
# Density = 2.082172 g / cm^3
# Si number density = 20.869220 Si / 1000 Ang^3
#
#
#
# Elastic Constant Matrix: (Units=GPa)
#
#
# Indices 1 2 3 4 5 6 
#
# 1 65.8530 31.5649 27.2713 -1.1912 15.3738 -14.7013
# 2 31.5649 129.8439 49.0623 8.0750 20.2401 7.7197
# 3 27.2713 49.0623 111.1214 9.6523 24.3636 -6.4152
# 4 -1.1912 8.0750 9.6523 41.0095 0.0633 9.6097
# 5 15.3738 20.2401 24.3636 0.0633 40.8726 0.4414
# 6 -14.7013 7.7197 -6.4152 9.6097 0.4414 42.3857
#
#
#
# Elastic Compliance Matrix: (Units=1/GPa)
#
#
# Indices 1 2 3 4 5 6 
#
# 1 0.020717 -0.004071 -0.001795 0.000029 -0.004790 0.007699
# 2 -0.004071 0.010495 -0.003464 -0.000495 -0.001560 -0.003719
# 3 -0.001795 -0.003464 0.012486 -0.002913 -0.005076 0.002611
# 4 0.000029 -0.000495 -0.002913 0.026667 0.001999 -0.006407
# 5 -0.004790 -0.001560 -0.005076 0.001999 0.030094 -0.002912
# 6 0.007699 -0.003719 0.002611 -0.006407 -0.002912 0.028819
#
#
# Mechanical properties :
#
#
# Convention : Reuss Voigt Hill
#
# Bulk Modulus (GPa) = 39.93928 58.06836 49.00382
# Shear Modulus (GPa) = 31.99270 38.11490 35.05380
#
# Velocity S-wave (km/s) = 3.91961 4.27824 4.10285
# Velocity P-wave (km/s) = 6.29793 7.23116 6.78062
#
# Compressibility (1/GPa) = 0.02503801
#
# Stress axis : x y z
#
# Youngs Moduli (GPa) = 48.26840 95.27976 80.09029
#
# Poissons Ratio (x) = 0.38789 0.14375
# Poissons Ratio (y) = 0.19650 0.27747
# Poissons Ratio (z) = 0.08664 0.33009
#
# Static dielectric constant tensor:
#      x y z
#    x 3.705490 0.401890 0.061260 
#    y 0.401890 5.598960 0.240050 
#    z 0.061260 0.240050 3.659860 
# 
# 
# High freq. dielectric constant tensor:
#      x y z
#    x 1.799500 0.007780 0.007500 
#    y 0.007780 1.848090 0.010240 
#    z 0.007500 0.010240 1.801930 
# 
# From -- ./inp_files/393028.got.cif
#   From: 2010.06.25/outbox.cif.g09.slc.cpg/sg2_197_cif.got.tgz:393028.got - 2010.06.27 13:26:56.
