data_PCOD8005884
_publ_section_title
;
Structure prediction by ZEFSAII (Michael W. Deem and Ramdas Pophale) SiO2 
 PCOD8005884
Probable space group: P -1
;
_chemical_formula_sum "Si O2"
_cell_formula_units_Z 14
_cell_length_a 15.981083
_cell_length_b 18.725649
_cell_length_c 8.065213
_cell_angle_alpha 121.156322
_cell_angle_beta 133.255296
_cell_angle_gamma 22.375981
_cell_volume 607.474668
_symmetry_space_group_name_H-M "P -1"
_symmetry_group_IT_number 2
_symmetry_cell_setting 'triclinic'
loop_
_space_group_symop_operation_xyz
x,y,z
-x,-y,-z
loop_
_atom_site_type_symbol
_atom_site_label
_atom_site_fract_x
_atom_site_fract_y
_atom_site_fract_z
Si Si1 0.272588 0.871199 0.258539
Si Si2 0.605687 0.784499 0.457181
Si Si3 0.406169 0.750413 0.797959
Si Si4 0.966876 0.136622 0.465054
Si Si5 0.758989 0.668284 0.188304
Si Si6 0.697269 0.803818 0.945228
Si Si7 0.727682 0.480159 0.602437
O O1 0.361503 0.875475 0.237803
O O2 0.541216 0.632987 0.375454
O O3 0.188165 0.987736 0.435970
O O4 0.000000 0.000000 0.000000
O O5 0.606453 0.824542 0.319145
O O6 0.907684 0.538031 0.593674
O O7 0.572875 0.867874 0.670086
O O8 0.294497 0.756535 0.788526
O O9 0.511198 0.624108 0.635043
O O10 0.671674 0.630843 0.072106
O O11 0.143815 0.987988 0.687181
O O12 0.850689 0.306577 0.533192
O O13 0.674056 0.742398 0.971058
O O14 0.018331 0.622788 0.146564
O O15 0.500000 0.000000 0.000000
#
# Coordination Sequence:
#
# PCOD8005884 Si02
#       7
#     2   2   2   2   2   2   2
#     4  11  23  41  63  90 131 175 223 276 331 397
#     4  11  23  41  66  96 128 173 223 269 334 394
#     4  10  20  39  63  92 133 169 221 270 329 399
#     4  10  22  38  62  96 125 177 223 268 332 397
#     4  11  22  40  67  94 127 175 219 271 331 396
#     4  12  23  41  68  99 137 171 219 277 335 403
#     4  11  21  39  64  94 130 173 220 274 335 393
#
# _framework density 23.046227999999999
#
# number of rings (size 3 to 8) (size 9 to 14) (size 15 to 20)
#    0.000    1.143    2.857    5.143    0.000    1.143 
#    0.000    1.429    0.000    0.000    0.000    0.000 
#    0.000    0.000    0.000    0.000    0.000    0.000 
#
# Total GULP energy -173442.166202 kJ/mol
# GULP energy per Si atom -12388.726157 kJ/mol
# Density = 2.299377 g / cm^3
# Si number density = 23.046228 Si / 1000 Ang^3
#
#
#
# Elastic Constant Matrix: (Units=GPa)
#
#
# Indices 1 2 3 4 5 6 
#
# 1 94.4747 30.7586 14.8170 9.6646 17.6997 -14.6949
# 2 30.7586 121.4349 13.1384 11.0466 1.4435 1.1478
# 3 14.8170 13.1384 87.7132 -1.1317 23.8711 -0.4829
# 4 9.6646 11.0466 -1.1317 34.1541 -13.0054 1.1607
# 5 17.6997 1.4435 23.8711 -13.0054 41.1473 2.6291
# 6 -14.6949 1.1478 -0.4829 1.1607 2.6291 33.5328
#
#
#
# Elastic Compliance Matrix: (Units=1/GPa)
#
#
# Indices 1 2 3 4 5 6 
#
# 1 0.015287 -0.003230 0.000428 -0.007136 -0.009465 0.007805
# 2 -0.003230 0.009331 -0.001270 -0.001540 0.001428 -0.001812
# 3 0.000428 -0.001270 0.014001 -0.002803 -0.009228 0.001253
# 4 -0.007136 -0.001540 -0.002803 0.038482 0.017283 -0.005802
# 5 -0.009465 0.001428 -0.009228 0.017283 0.039654 -0.008037
# 6 0.007805 -0.001812 0.001253 -0.005802 -0.008037 0.034153
#
#
# Mechanical properties :
#
#
# Convention : Reuss Voigt Hill
#
# Bulk Modulus (GPa) = 32.81564 46.78343 39.79953
# Shear Modulus (GPa) = 29.54899 38.09408 33.82153
#
# Velocity S-wave (km/s) = 3.58461 4.07005 3.83502
# Velocity P-wave (km/s) = 5.60380 6.51391 6.07592
#
# Compressibility (1/GPa) = 0.03047328
#
# Stress axis : x y z
#
# Youngs Moduli (GPa) = 65.41651 107.17118 71.42393
#
# Poissons Ratio (x) = 0.34621 -0.03060
# Poissons Ratio (y) = 0.21133 0.09074
# Poissons Ratio (z) = -0.02802 0.13616
#
# Static dielectric constant tensor:
#      x y z
#    x 5.447230 -0.680420 -0.318540 
#    y -0.680420 4.238010 -0.019460 
#    z -0.318540 -0.019460 4.408960 
# 
# 
# High freq. dielectric constant tensor:
#      x y z
#    x 1.913520 -0.039740 0.015960 
#    y -0.039740 1.901400 0.004150 
#    z 0.015960 0.004150 1.909520 
# 
# From -- ./inp_files/281638.got.cif
#   From: 2010.06.25/outbox.cif.g09.slc.cpg/sg2_141_cif.got.tgz:281638.got - 2010.06.27 13:26:56.
