data_PCOD8005713
_publ_section_title
;
Structure prediction by ZEFSAII (Michael W. Deem and Ramdas Pophale) SiO2 
 PCOD8005713
Probable space group: P -1
;
_chemical_formula_sum "Si O2"
_cell_formula_units_Z 14
_cell_length_a 10.622338
_cell_length_b 10.638910
_cell_length_c 9.621796
_cell_angle_alpha 81.535180
_cell_angle_beta 104.916030
_cell_angle_gamma 44.718228
_cell_volume 646.325191
_symmetry_space_group_name_H-M "P -1"
_symmetry_group_IT_number 2
_symmetry_cell_setting 'triclinic'
loop_
_space_group_symop_operation_xyz
x,y,z
-x,-y,-z
loop_
_atom_site_type_symbol
_atom_site_label
_atom_site_fract_x
_atom_site_fract_y
_atom_site_fract_z
Si Si1 0.057195 0.285284 0.407159
Si Si2 0.286906 0.515406 0.920380
Si Si3 0.483383 0.878174 0.088153
Si Si4 0.499805 0.528798 0.777418
Si Si5 0.802631 0.083400 0.862543
Si Si6 0.663999 0.145880 0.525250
Si Si7 0.739824 0.621272 0.463049
O O1 0.134833 0.370885 0.413537
O O2 0.943099 0.353038 0.214390
O O3 0.895623 0.394802 0.475846
O O4 0.250717 0.038304 0.512095
O O5 0.449739 0.278010 0.978787
O O6 0.340055 0.604002 0.837619
O O7 0.311168 0.531739 0.088404
O O8 0.254460 0.005549 0.059244
O O9 0.636305 0.772659 0.279673
O O10 0.500000 0.000000 0.000000
O O11 0.598092 0.330282 0.765353
O O12 0.356172 0.716410 0.599839
O O13 0.835592 0.034763 0.715349
O O14 0.000000 0.000000 0.000000
O O15 0.432230 0.304296 0.495654
#
# Coordination Sequence:
#
# PCOD8005713 Si02
#       7
#     2   2   2   2   2   2   2
#     4  10  20  39  62  85 123 160 199 250 305 359
#     4   9  20  39  58  85 125 158 200 254 301 360
#     4   9  19  37  61  84 120 166 200 247 315 365
#     4  10  21  39  59  87 125 163 199 252 311 359
#     4  10  21  40  59  88 126 158 202 262 305 360
#     4  11  22  38  65  89 119 162 205 248 309 365
#     4   9  21  40  59  87 128 156 197 259 302 360
#
# _framework density 21.660924000000001
#
# number of rings (size 3 to 8) (size 9 to 14) (size 15 to 20)
#    0.000    2.286    0.000    2.571    2.000    0.571 
#   10.286    0.714    0.000    0.000    0.000    0.000 
#    0.000    0.000    0.000    0.000    0.000    0.000 
#
# Total GULP energy -173485.170182 kJ/mol
# GULP energy per Si atom -12391.797870 kJ/mol
# Density = 2.161162 g / cm^3
# Si number density = 21.660924 Si / 1000 Ang^3
#
#
#
# Elastic Constant Matrix: (Units=GPa)
#
#
# Indices 1 2 3 4 5 6 
#
# 1 113.0096 29.9767 61.7674 -3.6343 0.7221 7.4292
# 2 29.9767 111.1151 22.1743 1.3948 -13.9168 -0.5481
# 3 61.7674 22.1743 85.5043 4.8955 -4.9775 8.4870
# 4 -3.6343 1.3948 4.8955 21.4473 8.5405 4.0279
# 5 0.7221 -13.9168 -4.9775 8.5405 44.0307 -5.7125
# 6 7.4292 -0.5481 8.4870 4.0279 -5.7125 29.5983
#
#
#
# Elastic Compliance Matrix: (Units=1/GPa)
#
#
# Indices 1 2 3 4 5 6 
#
# 1 0.016328 -0.002761 -0.011505 0.007804 -0.004311 -0.002745
# 2 -0.002761 0.010420 -0.000511 -0.003118 0.004179 0.002263
# 3 -0.011505 -0.000511 0.020944 -0.007949 0.003765 -0.001319
# 4 0.007804 -0.003118 -0.007949 0.057715 -0.014556 -0.010401
# 5 -0.004311 0.004179 0.003765 -0.014556 0.028329 0.007528
# 6 -0.002745 0.002263 -0.001319 -0.010401 0.007528 0.037763
#
#
# Mechanical properties :
#
#
# Convention : Reuss Voigt Hill
#
# Bulk Modulus (GPa) = 55.12746 59.71842 57.42294
# Shear Modulus (GPa) = 24.14309 32.06263 28.10286
#
# Velocity S-wave (km/s) = 3.34217 3.85152 3.60585
# Velocity P-wave (km/s) = 6.35601 6.88538 6.62599
#
# Compressibility (1/GPa) = 0.01813978
#
# Stress axis : x y z
#
# Youngs Moduli (GPa) = 61.24400 95.96794 47.74656
#
# Poissons Ratio (x) = 0.26492 0.54931
# Poissons Ratio (y) = 0.16907 0.02440
# Poissons Ratio (z) = 0.70460 0.04904
#
# Static dielectric constant tensor:
#      x y z
#    x 3.839270 0.016690 0.285550 
#    y 0.016690 4.099470 0.255730 
#    z 0.285550 0.255730 3.826970 
# 
# 
# High freq. dielectric constant tensor:
#      x y z
#    x 1.840970 0.008400 0.026020 
#    y 0.008400 1.854040 0.013650 
#    z 0.026020 0.013650 1.835150 
# 
# From -- ./inp_files/258090.got.cif
#   From: 2010.06.25/outbox.cif.g09.slc.cpg/sg2_130_cif.got.tgz:258090.got - 2010.06.27 13:26:56.
