data_PCOD8005639
_publ_section_title
;
Structure prediction by ZEFSAII (Michael W. Deem and Ramdas Pophale) SiO2 
 PCOD8005639
Probable space group: P -1
;
_chemical_formula_sum "Si O2"
_cell_formula_units_Z 14
_cell_length_a 23.394109
_cell_length_b 5.961862
_cell_length_c 4.982149
_cell_angle_alpha 94.060264
_cell_angle_beta 60.639133
_cell_angle_gamma 105.022131
_cell_volume 583.610205
_symmetry_space_group_name_H-M "P -1"
_symmetry_group_IT_number 2
_symmetry_cell_setting 'triclinic'
loop_
_space_group_symop_operation_xyz
x,y,z
-x,-y,-z
loop_
_atom_site_type_symbol
_atom_site_label
_atom_site_fract_x
_atom_site_fract_y
_atom_site_fract_z
Si Si1 0.364737 0.862834 0.926038
Si Si2 0.922877 0.843607 0.403335
Si Si3 0.950878 0.273763 0.715695
Si Si4 0.485942 0.686248 0.747982
Si Si5 0.608907 0.708131 0.759609
Si Si6 0.140626 0.427729 0.964757
Si Si7 0.300180 0.590673 0.559489
O O1 0.320064 0.676628 0.219351
O O2 0.364040 0.124361 0.035561
O O3 0.443988 0.854929 0.728789
O O4 0.330344 0.804793 0.710101
O O5 0.888866 0.789312 0.185349
O O6 0.002837 0.839939 0.202706
O O7 0.918763 0.096513 0.535020
O O8 0.880052 0.651721 0.691808
O O9 0.000000 0.500000 0.500000
O O10 0.891162 0.354454 0.016634
O O11 0.500000 0.500000 0.500000
O O12 0.561226 0.830169 0.693638
O O13 0.439108 0.545318 0.079267
O O14 0.671483 0.637520 0.460613
O O15 0.220356 0.513019 0.762955
#
# Coordination Sequence:
#
# PCOD8005639 Si02
#       7
#     2   2   2   2   2   2   2
#     4  11  24  40  63  86 117 157 197 242 301 343
#     4  10  22  39  63  90 117 158 196 240 295 342
#     4   9  21  39  63  92 122 151 197 246 290 342
#     4  10  20  39  61  86 117 148 198 247 295 351
#     4  10  23  39  59  87 119 153 193 249 295 352
#     4  11  23  40  61  86 123 158 197 240 289 348
#     4  11  25  41  58  89 120 156 200 241 285 356
#
# _framework density 23.988613000000001
#
# number of rings (size 3 to 8) (size 9 to 14) (size 15 to 20)
#    0.000    1.714    1.429    1.714    2.000   10.286 
#    0.000    0.000    0.000    0.000    0.000    0.000 
#    0.000    0.000    0.000    0.000    0.000    0.000 
#
# Total GULP energy -173575.987533 kJ/mol
# GULP energy per Si atom -12398.284824 kJ/mol
# Density = 2.393401 g / cm^3
# Si number density = 23.988613 Si / 1000 Ang^3
#
#
#
# Elastic Constant Matrix: (Units=GPa)
#
#
# Indices 1 2 3 4 5 6 
#
# 1 116.3264 28.8842 48.3895 16.5843 -29.0203 26.8651
# 2 28.8842 85.3273 17.5603 36.1027 -21.9579 22.7317
# 3 48.3895 17.5603 97.5040 21.3155 -30.7567 15.2231
# 4 16.5843 36.1027 21.3155 42.6677 5.6957 9.5558
# 5 -29.0203 -21.9579 -30.7567 5.6957 51.2945 1.6036
# 6 26.8651 22.7317 15.2231 9.5558 1.6036 33.1054
#
#
#
# Elastic Compliance Matrix: (Units=1/GPa)
#
#
# Indices 1 2 3 4 5 6 
#
# 1 0.014729 0.005131 -0.000761 -0.008229 0.011403 -0.013303
# 2 0.005131 0.042591 0.015420 -0.043944 0.036185 -0.029568
# 3 -0.000761 0.015420 0.022506 -0.023773 0.022760 -0.014561
# 4 -0.008229 -0.043944 -0.023773 0.075647 -0.047003 0.028225
# 5 0.011403 0.036185 0.022760 -0.047003 0.061365 -0.033971
# 6 -0.013303 -0.029568 -0.014561 0.028225 -0.033971 0.061498
#
#
# Mechanical properties :
#
#
# Convention : Reuss Voigt Hill
#
# Bulk Modulus (GPa) = 8.37476 54.31397 31.34436
# Shear Modulus (GPa) = 17.94947 39.03510 28.49228
#
# Velocity S-wave (km/s) = 2.73838 4.03828 3.45010
# Velocity P-wave (km/s) = 3.67383 6.66590 5.38198
#
# Compressibility (1/GPa) = 0.11940645
#
# Stress axis : x y z
#
# Youngs Moduli (GPa) = 67.89224 23.47909 44.43176
#
# Poissons Ratio (x) = -0.12046 0.03382
# Poissons Ratio (y) = -0.34833 -0.68516
# Poissons Ratio (z) = 0.05168 -0.36206
#
# Static dielectric constant tensor:
#      x y z
#    x 4.629380 -0.153460 -0.396620 
#    y -0.153460 4.472530 0.241910 
#    z -0.396620 0.241910 4.541080 
# 
# 
# High freq. dielectric constant tensor:
#      x y z
#    x 1.937550 0.004140 -0.003020 
#    y 0.004140 1.949680 0.013010 
#    z -0.003020 0.013010 1.954740 
# 
# From -- ./inp_files/7415.got.cif
#   From: 2010.06.25/outbox.cif.g09.slc.cpg/sg2_4_cif.got.tgz:7415.got - 2010.06.27 13:26:56.
