data_PCOD8005684
_publ_section_title
;
Structure prediction by ZEFSAII (Michael W. Deem and Ramdas Pophale) SiO2 
 PCOD8005684
Probable space group: P -1
;
_chemical_formula_sum "Si O2"
_cell_formula_units_Z 16
_cell_length_a 13.972888
_cell_length_b 5.896853
_cell_length_c 16.041254
_cell_angle_alpha 122.852177
_cell_angle_beta 41.057311
_cell_angle_gamma 105.863591
_cell_volume 706.894857
_symmetry_space_group_name_H-M "P -1"
_symmetry_group_IT_number 2
_symmetry_cell_setting 'triclinic'
loop_
_space_group_symop_operation_xyz
x,y,z
-x,-y,-z
loop_
_atom_site_type_symbol
_atom_site_label
_atom_site_fract_x
_atom_site_fract_y
_atom_site_fract_z
Si Si1 0.901364 0.282417 0.924916
Si Si2 0.635410 0.706393 0.418935
Si Si3 0.086348 0.687191 0.885855
Si Si4 0.917365 0.257723 0.544495
Si Si5 0.403478 0.809908 0.920843
Si Si6 0.382662 0.396165 0.113067
Si Si7 0.441565 0.451978 0.393783
Si Si8 0.832101 0.128461 0.395952
O O1 0.982022 0.504307 0.875419
O O2 0.874306 0.377438 0.056513
O O3 0.741783 0.310330 0.990399
O O4 0.010294 0.969113 0.777457
O O5 0.753445 0.397337 0.282853
O O6 0.519560 0.705840 0.417910
O O7 0.548899 0.744703 0.571098
O O8 0.728418 0.933619 0.392385
O O9 0.000000 0.000000 0.000000
O O10 0.776523 0.393464 0.722748
O O11 0.864740 0.110734 0.469691
O O12 0.000000 0.500000 0.500000
O O13 0.000000 0.000000 0.500000
O O14 0.541461 0.675991 0.861974
O O15 0.461054 0.750339 0.777783
O O16 0.347306 0.137239 0.037156
O O17 0.500000 0.500000 0.000000
O O18 0.267881 0.563650 0.499893
#
# Coordination Sequence:
#
# PCOD8005684 Si02
#       8
#     2   2   2   2   2   2   2   2
#     4  10  22  40  63  95 132 179 232 286 362 437
#     4  10  23  40  64 102 137 184 239 291 362 449
#     4  10  20  39  61  92 134 176 228 289 350 432
#     4  12  30  52  81 112 153 202 259 319 387 456
#     4  11  24  46  71  99 145 182 244 303 386 436
#     4  11  28  47  75 107 143 191 254 321 379 456
#     4  11  22  42  67  99 141 188 236 293 371 444
#     4  11  24  42  70  96 142 186 240 302 365 447
#
# _framework density 22.634201999999998
#
# number of rings (size 3 to 8) (size 9 to 14) (size 15 to 20)
#    0.000    1.250    2.500    1.875    8.750    1.000 
#    6.750    0.000    0.000    0.000    0.000    0.000 
#    0.000    0.000    0.000    0.000    0.000    0.000 
#
# Total GULP energy -198213.784915 kJ/mol
# GULP energy per Si atom -12388.361557 kJ/mol
# Density = 2.258269 g / cm^3
# Si number density = 22.634202 Si / 1000 Ang^3
#
#
#
# Elastic Constant Matrix: (Units=GPa)
#
#
# Indices 1 2 3 4 5 6 
#
# 1 110.8562 24.6676 55.9549 7.0392 6.1077 6.6290
# 2 24.6676 69.2973 29.8461 -4.5415 -6.0336 4.5598
# 3 55.9549 29.8461 160.3177 -9.7068 -5.2535 4.2395
# 4 7.0392 -4.5415 -9.7068 33.9956 -5.8380 -0.2536
# 5 6.1077 -6.0336 -5.2535 -5.8380 41.1983 -1.9700
# 6 6.6290 4.5598 4.2395 -0.2536 -1.9700 26.6431
#
#
#
# Elastic Compliance Matrix: (Units=1/GPa)
#
#
# Indices 1 2 3 4 5 6 
#
# 1 0.012427 -0.003140 -0.004103 -0.004801 -0.003611 -0.002214
# 2 -0.003140 0.016851 -0.001723 0.002922 0.003052 -0.001575
# 3 -0.004103 -0.001723 0.008247 0.003299 0.001884 0.000174
# 4 -0.004801 0.002922 0.003299 0.032823 0.006257 0.000944
# 5 -0.003611 0.003052 0.001884 0.006257 0.026482 0.002094
# 6 -0.002214 -0.001575 0.000174 0.000944 0.002094 0.038490
#
#
# Mechanical properties :
#
#
# Convention : Reuss Voigt Hill
#
# Bulk Modulus (GPa) = 51.03622 62.37870 56.70746
# Shear Modulus (GPa) = 31.29245 35.70090 33.49668
#
# Velocity S-wave (km/s) = 3.72227 3.97583 3.85114
# Velocity P-wave (km/s) = 6.40866 6.97823 6.69950
#
# Compressibility (1/GPa) = 0.01959393
#
# Stress axis : x y z
#
# Youngs Moduli (GPa) = 80.47223 59.34341 121.25152
#
# Poissons Ratio (x) = 0.18632 0.49752
# Poissons Ratio (y) = 0.25265 0.20889
# Poissons Ratio (z) = 0.33019 0.10223
#
# Static dielectric constant tensor:
#      x y z
#    x 3.991670 1.035010 -0.160310 
#    y 1.035010 2.065620 0.264280 
#    z -0.160310 0.264280 4.586180 
# 
# 
# High freq. dielectric constant tensor:
#      x y z
#    x 1.902340 0.014840 -0.000120 
#    y 0.014840 1.865490 -0.003480 
#    z -0.000120 -0.003480 1.918150 
# 
# From -- ./inp_files/571805.got.cif
#   From: 2010.06.25/outbox.cif.g09.slc.cpg/sg2_286_cif.got.tgz:571805.got - 2010.06.27 13:26:56.
