data_PCOD8005990
_publ_section_title
;
Structure prediction by ZEFSAII (Michael W. Deem and Ramdas Pophale) SiO2 
 PCOD8005990
Probable space group: P -1
;
_chemical_formula_sum "Si O2"
_cell_formula_units_Z 16
_cell_length_a 13.982895
_cell_length_b 8.446177
_cell_length_c 14.816425
_cell_angle_alpha 128.913786
_cell_angle_beta 44.331646
_cell_angle_gamma 96.607504
_cell_volume 750.452710
_symmetry_space_group_name_H-M "P -1"
_symmetry_group_IT_number 2
_symmetry_cell_setting 'triclinic'
loop_
_space_group_symop_operation_xyz
x,y,z
-x,-y,-z
loop_
_atom_site_type_symbol
_atom_site_label
_atom_site_fract_x
_atom_site_fract_y
_atom_site_fract_z
Si Si1 0.564279 0.099028 0.859541
Si Si2 0.072249 0.135201 0.265969
Si Si3 0.738945 0.654447 0.717291
Si Si4 0.532345 0.734091 0.373081
Si Si5 0.848480 0.228488 0.074110
Si Si6 0.644033 0.734784 0.111940
Si Si7 0.780372 0.022096 0.211150
Si Si8 0.831984 0.183112 0.737853
O O1 0.497625 0.078294 0.800850
O O2 0.677235 0.197226 0.801514
O O3 0.675226 0.813280 0.724007
O O4 0.415927 0.297790 0.102460
O O5 0.167561 0.264292 0.253741
O O6 0.866803 0.355178 0.496688
O O7 0.140641 0.915408 0.214432
O O8 0.116762 0.003212 0.091860
O O9 0.704988 0.508741 0.229442
O O10 0.556856 0.675003 0.228378
O O11 0.500000 0.000000 0.500000
O O12 0.361056 0.783155 0.547467
O O13 0.782527 0.209366 0.208238
O O14 0.030116 0.184089 0.945951
O O15 0.729590 0.859384 0.137844
O O16 0.788100 0.462538 0.868592
O O17 0.000000 0.000000 0.500000
#
# Coordination Sequence:
#
# PCOD8005990 Si02
#       8
#     2   2   2   2   2   2   2   2
#     4  10  21  38  62  91 127 168 210 258 313 381
#     4  10  20  39  64  91 129 166 209 261 318 377
#     4   9  20  39  63  95 128 165 211 262 313 376
#     4  10  23  44  65  93 129 166 213 271 323 379
#     4  11  22  45  67  96 126 169 219 268 321 379
#     4  11  22  43  62  92 130 167 207 262 320 383
#     4  10  25  43  69  94 125 169 219 273 317 378
#     4  11  23  38  60  92 128 168 207 255 316 389
#
# _framework density 21.320461999999999
#
# number of rings (size 3 to 8) (size 9 to 14) (size 15 to 20)
#    0.000    1.750    1.250    2.250    0.000    6.000 
#   18.000    0.000    0.000    0.000    0.000    0.000 
#    0.000    0.000    0.000    0.000    0.000    0.000 
#
# Total GULP energy -198424.168360 kJ/mol
# GULP energy per Si atom -12401.510523 kJ/mol
# Density = 2.127194 g / cm^3
# Si number density = 21.320462 Si / 1000 Ang^3
#
#
#
# Elastic Constant Matrix: (Units=GPa)
#
#
# Indices 1 2 3 4 5 6 
#
# 1 113.9865 44.7299 59.0212 -0.3117 -14.8123 -12.5755
# 2 44.7299 67.9292 36.1455 1.8437 -11.0522 -6.2675
# 3 59.0212 36.1455 113.8680 -0.5013 -16.4613 7.3878
# 4 -0.3117 1.8437 -0.5013 41.6735 -0.4065 -3.1555
# 5 -14.8123 -11.0522 -16.4613 -0.4065 32.7945 -0.7604
# 6 -12.5755 -6.2675 7.3878 -3.1555 -0.7604 28.9003
#
#
#
# Elastic Compliance Matrix: (Units=1/GPa)
#
#
# Indices 1 2 3 4 5 6 
#
# 1 0.015364 -0.005802 -0.006295 0.000859 0.002002 0.007183
# 2 -0.005802 0.021152 -0.003495 -0.000771 0.002812 0.002945
# 3 -0.006295 -0.003495 0.014022 -0.000228 0.002851 -0.007031
# 4 0.000859 -0.000771 -0.000228 0.024259 0.000382 0.002924
# 5 0.002002 0.002812 0.002851 0.000382 0.033820 0.001683
# 6 0.007183 0.002945 -0.007031 0.002924 0.001683 0.040527
#
#
# Mechanical properties :
#
#
# Convention : Reuss Voigt Hill
#
# Bulk Modulus (GPa) = 51.66922 63.95300 57.81111
# Shear Modulus (GPa) = 26.76977 31.06613 28.91795
#
# Velocity S-wave (km/s) = 3.54728 3.82134 3.68686
# Velocity P-wave (km/s) = 6.40818 7.03786 6.73038
#
# Compressibility (1/GPa) = 0.01935388
#
# Stress axis : x y z
#
# Youngs Moduli (GPa) = 65.08663 47.27735 71.31897
#
# Poissons Ratio (x) = 0.27433 0.44893
# Poissons Ratio (y) = 0.37766 0.24923
# Poissons Ratio (z) = 0.40970 0.16522
#
# Static dielectric constant tensor:
#      x y z
#    x 3.993990 -0.344060 -0.007680 
#    y -0.344060 3.965270 -0.315440 
#    z -0.007680 -0.315440 4.239840 
# 
# 
# High freq. dielectric constant tensor:
#      x y z
#    x 1.830830 -0.014820 -0.006140 
#    y -0.014820 1.837740 -0.005860 
#    z -0.006140 -0.005860 1.845520 
# 
# From -- ./inp_files/417371.got.cif
#   From: 2010.06.25/outbox.cif.g09.slc.cpg/sg2_209_cif.got.tgz:417371.got - 2010.06.27 13:26:56.
