data_PCOD8005061
_publ_section_title
;
Structure prediction by ZEFSAII (Michael W. Deem and Ramdas Pophale) SiO2 
 PCOD8005061
Probable space group: P -1
;
_chemical_formula_sum "Si O2"
_cell_formula_units_Z 14
_cell_length_a 8.551209
_cell_length_b 11.034459
_cell_length_c 22.315169
_cell_angle_alpha 34.132587
_cell_angle_beta 35.749254
_cell_angle_gamma 41.468198
_cell_volume 670.678329
_symmetry_space_group_name_H-M "P -1"
_symmetry_group_IT_number 2
_symmetry_cell_setting 'triclinic'
loop_
_space_group_symop_operation_xyz
x,y,z
-x,-y,-z
loop_
_atom_site_type_symbol
_atom_site_label
_atom_site_fract_x
_atom_site_fract_y
_atom_site_fract_z
Si Si1 0.995381 0.627605 0.861855
Si Si2 0.516790 0.215145 0.119784
Si Si3 0.322849 0.786749 0.380039
Si Si4 0.634704 0.759894 0.030365
Si Si5 0.289892 0.558140 0.136024
Si Si6 0.230172 0.929816 0.595817
Si Si7 0.761364 0.362055 0.401106
O O1 0.158671 0.377102 0.928234
O O2 0.789939 0.643881 0.862775
O O3 0.230627 0.748778 0.720667
O O4 0.823588 0.771609 0.909579
O O5 0.536852 0.350188 0.120270
O O6 0.519241 0.960853 0.238274
O O7 0.737264 0.243681 0.987824
O O8 0.483556 0.551896 0.399713
O O9 0.246629 0.760939 0.483270
O O10 0.040368 0.866926 0.398079
O O11 0.394334 0.641018 0.132324
O O12 0.500000 0.000000 0.000000
O O13 0.014042 0.481115 0.268301
O O14 0.229177 0.829322 0.571292
O O15 0.500000 0.000000 0.500000
#
# Coordination Sequence:
#
# PCOD8005061 Si02
#       7
#     2   2   2   2   2   2   2
#     4   9  20  41  59  87 121 154 207 244 293 367
#     4   9  19  40  64  89 121 158 204 252 300 359
#     4  10  23  42  63  91 126 158 209 252 300 370
#     4  10  22  40  59  89 126 158 192 249 308 357
#     4  10  20  38  64  91 118 160 200 249 301 362
#     4  11  24  41  66  87 120 168 199 251 308 354
#     4  11  23  42  63  94 123 159 209 253 300 368
#
# _framework density 20.874388
#
# number of rings (size 3 to 8) (size 9 to 14) (size 15 to 20)
#    0.000    2.000    2.857    0.429    2.000    4.571 
#   15.429    0.000    0.000    0.000    0.000    0.000 
#    0.000    0.000    0.000    0.000    0.000    0.000 
#
# Total GULP energy -173460.480958 kJ/mol
# GULP energy per Si atom -12390.034354 kJ/mol
# Density = 2.082688 g / cm^3
# Si number density = 20.874388 Si / 1000 Ang^3
#
#
#
# Elastic Constant Matrix: (Units=GPa)
#
#
# Indices 1 2 3 4 5 6 
#
# 1 65.9443 17.7991 11.3619 -7.0083 -11.3881 4.8877
# 2 17.7991 81.2282 -0.4563 -14.0450 6.3191 -1.6279
# 3 11.3619 -0.4563 120.4927 7.7436 0.4265 -3.6829
# 4 -7.0083 -14.0450 7.7436 29.1074 -3.0192 -0.3584
# 5 -11.3881 6.3191 0.4265 -3.0192 34.3016 -3.6703
# 6 4.8877 -1.6279 -3.6829 -0.3584 -3.6703 16.4659
#
#
#
# Elastic Compliance Matrix: (Units=1/GPa)
#
#
# Indices 1 2 3 4 5 6 
#
# 1 0.018551 -0.004054 -0.002175 0.003730 0.006746 -0.004809
# 2 -0.004054 0.014475 0.000148 0.005652 -0.003297 0.002056
# 3 -0.002175 0.000148 0.008763 -0.002843 -0.000855 0.002368
# 4 0.003730 0.005652 -0.002843 0.039131 0.003730 0.000499
# 5 0.006746 -0.003297 -0.000855 0.003730 0.032862 0.004886
# 6 -0.004809 0.002056 0.002368 0.000499 0.004886 0.063992
#
#
# Mechanical properties :
#
#
# Convention : Reuss Voigt Hill
#
# Bulk Modulus (GPa) = 33.75147 36.11943 34.93545
# Shear Modulus (GPa) = 25.02367 31.90567 28.46467
#
# Velocity S-wave (km/s) = 3.46609 3.91379 3.69672
# Velocity P-wave (km/s) = 5.67647 6.14528 5.91552
#
# Compressibility (1/GPa) = 0.02962834
#
# Stress axis : x y z
#
# Youngs Moduli (GPa) = 53.90513 69.08429 114.11565
#
# Poissons Ratio (x) = 0.28003 0.24823
# Poissons Ratio (y) = 0.21850 -0.01692
# Poissons Ratio (z) = 0.11726 -0.01024
#
# Static dielectric constant tensor:
#      x y z
#    x 4.434950 0.009100 0.474560 
#    y 0.009100 3.651580 0.088390 
#    z 0.474560 0.088390 4.349760 
# 
# 
# High freq. dielectric constant tensor:
#      x y z
#    x 1.801660 0.002380 0.003800 
#    y 0.002380 1.805680 0.005460 
#    z 0.003800 0.005460 1.835720 
# 
# From -- ./inp_files/606977.got.cif
#   From: 2010.06.25/outbox.cif.g09.slc.cpg/sg2_304_cif.got.tgz:606977.got - 2010.06.27 13:26:56.
