data_PCOD8005008
_publ_section_title
;
Structure prediction by ZEFSAII (Michael W. Deem and Ramdas Pophale) SiO2 
 PCOD8005008
Probable space group: P -1
;
_chemical_formula_sum "Si O2"
_cell_formula_units_Z 14
_cell_length_a 14.670524
_cell_length_b 6.880067
_cell_length_c 8.763466
_cell_angle_alpha 87.780608
_cell_angle_beta 113.576057
_cell_angle_gamma 117.194092
_cell_volume 709.740846
_symmetry_space_group_name_H-M "P -1"
_symmetry_group_IT_number 2
_symmetry_cell_setting 'triclinic'
loop_
_space_group_symop_operation_xyz
x,y,z
-x,-y,-z
loop_
_atom_site_type_symbol
_atom_site_label
_atom_site_fract_x
_atom_site_fract_y
_atom_site_fract_z
Si Si1 0.181454 0.639180 0.167449
Si Si2 0.988363 0.199231 0.913678
Si Si3 0.384477 0.781568 0.082577
Si Si4 0.060723 0.215431 0.635678
Si Si5 0.210004 0.612519 0.539192
Si Si6 0.634865 0.964947 0.216123
Si Si7 0.692896 0.597818 0.186893
O O1 0.307191 0.742521 0.180085
O O2 0.188614 0.576031 0.347710
O O3 0.127930 0.805227 0.110771
O O4 0.100189 0.420708 0.027174
O O5 0.980192 0.190355 0.724438
O O6 0.000000 0.000000 0.000000
O O7 0.516076 0.917302 0.216580
O O8 0.366235 0.556301 0.994442
O O9 0.351205 0.922954 0.942103
O O10 0.092533 0.441543 0.553214
O O11 0.177029 0.229129 0.777462
O O12 0.000000 0.000000 0.500000
O O13 0.306789 0.550788 0.663338
O O14 0.257903 0.871316 0.610755
O O15 0.629015 0.729543 0.193688
#
# Coordination Sequence:
#
# PCOD8005008 Si02
#       7
#     2   2   2   2   2   2   2
#     4  11  23  39  56  84 123 146 186 243 280 340
#     4  11  24  39  58  85 113 156 189 230 290 339
#     4  10  21  39  59  88 114 149 196 236 286 339
#     4  10  21  40  59  84 116 147 193 233 279 345
#     4   9  22  38  57  88 117 145 197 228 287 341
#     4  10  20  38  64  83 112 155 192 239 284 331
#     4   9  20  39  59  84 114 150 194 235 276 342
#
# _framework density 19.725508999999999
#
# number of rings (size 3 to 8) (size 9 to 14) (size 15 to 20)
#    0.857    1.143    1.429    1.286    4.000    1.143 
#    0.000    0.714    0.000    0.000    0.000    0.000 
#    0.000    0.000    0.000    0.000    0.000    0.000 
#
# Total GULP energy -173518.071066 kJ/mol
# GULP energy per Si atom -12394.147933 kJ/mol
# Density = 1.968061 g / cm^3
# Si number density = 19.725509 Si / 1000 Ang^3
#
#
#
# Elastic Constant Matrix: (Units=GPa)
#
#
# Indices 1 2 3 4 5 6 
#
# 1 85.2783 43.1400 26.6586 -1.5698 -20.1833 3.9410
# 2 43.1400 103.3719 42.8949 8.8169 -13.1932 -4.5109
# 3 26.6586 42.8949 96.0751 7.1451 -19.3888 2.3400
# 4 -1.5698 8.8169 7.1451 31.0491 9.0998 -0.1968
# 5 -20.1833 -13.1932 -19.3888 9.0998 26.5629 2.8228
# 6 3.9410 -4.5109 2.3400 -0.1968 2.8228 30.8151
#
#
#
# Elastic Compliance Matrix: (Units=1/GPa)
#
#
# Indices 1 2 3 4 5 6 
#
# 1 0.017580 -0.006143 0.000287 -0.000747 0.011218 -0.004202
# 2 -0.006143 0.014592 -0.004639 -0.003366 0.000001 0.003252
# 3 0.000287 -0.004639 0.015118 -0.005424 0.011117 -0.002917
# 4 -0.000747 -0.003366 -0.005424 0.040318 -0.020236 0.002126
# 5 0.011218 0.000001 0.011117 -0.020236 0.062078 -0.008095
# 6 -0.004202 0.003252 -0.002917 0.002126 -0.008095 0.034442
#
#
# Mechanical properties :
#
#
# Convention : Reuss Voigt Hill
#
# Bulk Modulus (GPa) = 38.02496 56.67914 47.35205
# Shear Modulus (GPa) = 23.37712 29.15420 26.26566
#
# Velocity S-wave (km/s) = 3.44629 3.84864 3.65301
# Velocity P-wave (km/s) = 5.92915 6.96747 6.46918
#
# Compressibility (1/GPa) = 0.02629851
#
# Stress axis : x y z
#
# Youngs Moduli (GPa) = 56.88272 68.53185 66.14663
#
# Poissons Ratio (x) = 0.42102 -0.01896
# Poissons Ratio (y) = 0.34946 0.30684
# Poissons Ratio (z) = -0.01631 0.31791
#
# Static dielectric constant tensor:
#      x y z
#    x 3.505060 0.040910 0.069160 
#    y 0.040910 3.542840 0.122520 
#    z 0.069160 0.122520 3.426450 
# 
# 
# High freq. dielectric constant tensor:
#      x y z
#    x 1.760620 0.000390 0.006050 
#    y 0.000390 1.766160 0.013540 
#    z 0.006050 0.013540 1.759750 
# 
# From -- ./inp_files/288016.got.cif
#   From: 2010.06.25/outbox.cif.g09.slc.cpg/sg2_145_cif.got.tgz:288016.got - 2010.06.27 13:26:56.
