data_PCOD8005449
_publ_section_title
;
Structure prediction by ZEFSAII (Michael W. Deem and Ramdas Pophale) SiO2 
 PCOD8005449
Probable space group: P -1
;
_chemical_formula_sum "Si O2"
_cell_formula_units_Z 14
_cell_length_a 9.630532
_cell_length_b 9.037706
_cell_length_c 12.274894
_cell_angle_alpha 67.534988
_cell_angle_beta 59.496686
_cell_angle_gamma 112.247008
_cell_volume 591.129595
_symmetry_space_group_name_H-M "P -1"
_symmetry_group_IT_number 2
_symmetry_cell_setting 'triclinic'
loop_
_space_group_symop_operation_xyz
x,y,z
-x,-y,-z
loop_
_atom_site_type_symbol
_atom_site_label
_atom_site_fract_x
_atom_site_fract_y
_atom_site_fract_z
Si Si1 0.909118 0.114122 0.984287
Si Si2 0.390763 0.008333 0.440545
Si Si3 0.078699 0.185632 0.266769
Si Si4 0.721005 0.512644 0.112001
Si Si5 0.377374 0.799304 0.307803
Si Si6 0.253033 0.999945 0.149526
Si Si7 0.634018 0.478913 0.750186
O O1 0.068784 0.350080 0.923999
O O2 0.919987 0.160210 0.837890
O O3 0.647823 0.951802 0.174918
O O4 0.000000 0.000000 0.000000
O O5 0.589647 0.249463 0.229288
O O6 0.500000 0.000000 0.500000
O O7 0.282321 0.797820 0.460986
O O8 0.195364 0.985776 0.571924
O O9 0.124635 0.030571 0.274237
O O10 0.174695 0.300541 0.314404
O O11 0.194229 0.376449 0.073061
O O12 0.541829 0.515588 0.229232
O O13 0.253428 0.544050 0.388820
O O14 0.328626 0.893924 0.207984
O O15 0.489047 0.248281 0.943366
#
# Coordination Sequence:
#
# PCOD8005449 Si02
#       7
#     2   2   2   2   2   2   2
#     4  11  19  39  73 101 134 180 224 276 342 394
#     4  12  29  44  66 102 138 175 233 282 332 410
#     4  11  23  44  69  95 137 179 226 274 344 399
#     4  11  23  44  71  97 133 185 222 279 342 398
#     4  11  23  41  65 101 141 170 230 286 325 404
#     4  10  21  38  70 104 133 176 228 277 333 407
#     4  10  20  38  70  98 131 178 229 271 338 405
#
# _framework density 23.683471000000001
#
# number of rings (size 3 to 8) (size 9 to 14) (size 15 to 20)
#    0.000    1.143    4.286    6.000    0.000    7.429 
#    0.000    2.857    0.000    0.000    0.000    0.000 
#    0.000    0.000    0.000    0.000    0.000    0.000 
#
# Total GULP energy -173590.057339 kJ/mol
# GULP energy per Si atom -12399.289810 kJ/mol
# Density = 2.362957 g / cm^3
# Si number density = 23.683471 Si / 1000 Ang^3
#
#
#
# Elastic Constant Matrix: (Units=GPa)
#
#
# Indices 1 2 3 4 5 6 
#
# 1 123.0785 15.9409 13.1114 1.0069 -5.8831 5.3619
# 2 15.9409 123.7901 8.3215 17.4437 -2.9611 8.9680
# 3 13.1114 8.3215 41.3823 6.7770 -4.6288 -8.2014
# 4 1.0069 17.4437 6.7770 28.8738 1.3296 -7.3674
# 5 -5.8831 -2.9611 -4.6288 1.3296 32.4948 7.4253
# 6 5.3619 8.9680 -8.2014 -7.3674 7.4253 36.4646
#
#
#
# Elastic Compliance Matrix: (Units=1/GPa)
#
#
# Indices 1 2 3 4 5 6 
#
# 1 0.008689 -0.000783 -0.002861 0.000263 0.001538 -0.001989
# 2 -0.000783 0.009539 -0.001222 -0.006603 0.001784 -0.004203
# 3 -0.002861 -0.001222 0.027362 -0.004262 0.002169 0.005573
# 4 0.000263 -0.006603 -0.004262 0.042478 -0.005248 0.010278
# 5 0.001538 0.001784 0.002169 -0.005248 0.033584 -0.008076
# 6 -0.001989 -0.004203 0.005573 0.010278 -0.008076 0.033724
#
#
# Mechanical properties :
#
#
# Convention : Reuss Voigt Hill
#
# Bulk Modulus (GPa) = 27.88748 40.33314 34.11031
# Shear Modulus (GPa) = 28.23887 36.29179 32.26533
#
# Velocity S-wave (km/s) = 3.45678 3.91879 3.69502
# Velocity P-wave (km/s) = 5.26622 6.12723 5.71297
#
# Compressibility (1/GPa) = 0.03585839
#
# Stress axis : x y z
#
# Youngs Moduli (GPa) = 115.08765 104.83492 36.54689
#
# Poissons Ratio (x) = 0.08207 0.10455
# Poissons Ratio (y) = 0.09010 0.04467
# Poissons Ratio (z) = 0.32924 0.12813
#
# Static dielectric constant tensor:
#      x y z
#    x 4.420290 0.017330 -0.245730 
#    y 0.017330 5.022960 0.199680 
#    z -0.245730 0.199680 4.142870 
# 
# 
# High freq. dielectric constant tensor:
#      x y z
#    x 1.954160 0.000750 -0.012430 
#    y 0.000750 1.952620 0.015800 
#    z -0.012430 0.015800 1.907260 
# 
# From -- ./inp_files/381621.got.cif
#   From: 2010.06.25/outbox.cif.g09.slc.cpg/sg2_191_cif.got.tgz:381621.got - 2010.06.27 13:26:56.
