data_PCOD8005261
_publ_section_title
;
Structure prediction by ZEFSAII (Michael W. Deem and Ramdas Pophale) SiO2 
 PCOD8005261
Probable space group: P -1
;
_chemical_formula_sum "Si O2"
_cell_formula_units_Z 16
_cell_length_a 16.319377
_cell_length_b 21.887467
_cell_length_c 9.387821
_cell_angle_alpha 43.995112
_cell_angle_beta 44.538157
_cell_angle_gamma 19.816872
_cell_volume 780.340336
_symmetry_space_group_name_H-M "P -1"
_symmetry_group_IT_number 2
_symmetry_cell_setting 'triclinic'
loop_
_space_group_symop_operation_xyz
x,y,z
-x,-y,-z
loop_
_atom_site_type_symbol
_atom_site_label
_atom_site_fract_x
_atom_site_fract_y
_atom_site_fract_z
Si Si1 0.080486 0.067255 0.824070
Si Si2 0.698076 0.241072 0.823844
Si Si3 0.697444 0.898003 0.811257
Si Si4 0.603825 0.149054 0.461008
Si Si5 0.242987 0.161040 0.473911
Si Si6 0.927267 0.454627 0.601659
Si Si7 0.973353 0.106787 0.435842
Si Si8 0.133536 0.636135 0.919833
O O1 0.236966 0.919264 0.750580
O O2 0.128327 0.138502 0.671039
O O3 0.177278 0.939387 0.044577
O O4 0.801185 0.231824 0.845075
O O5 0.770350 0.240676 0.587685
O O6 0.406362 0.427045 0.889671
O O7 0.739808 0.814381 0.752815
O O8 0.961804 0.734379 0.829922
O O9 0.573697 0.065306 0.613194
O O10 0.500000 0.000000 0.000000
O O11 0.348510 0.366993 0.411793
O O12 0.748019 0.063842 0.572360
O O13 0.075811 0.339317 0.467870
O O14 0.500000 0.000000 0.500000
O O15 0.000000 0.500000 0.500000
O O16 0.967434 0.353188 0.840688
O O17 0.890042 0.244725 0.209389
O O18 0.000000 0.000000 0.500000
#
# Coordination Sequence:
#
# PCOD8005261 Si02
#       8
#     2   2   2   2   2   2   2   2
#     4   9  19  39  62  92 121 168 211 262 314 383
#     4  10  20  38  66  88 128 168 212 257 325 381
#     4  10  21  43  64  89 127 168 211 266 327 379
#     4   9  19  39  60  84 121 166 202 255 316 374
#     4  11  24  40  66  93 129 170 221 264 326 384
#     4  12  24  41  65  95 126 166 219 270 314 384
#     4  10  23  38  58  91 132 160 204 262 323 383
#     4  11  23  40  67  93 124 173 212 265 329 383
#
# _framework density 20.503875000000001
#
# number of rings (size 3 to 8) (size 9 to 14) (size 15 to 20)
#    0.000    1.750    1.250    4.125    1.750    2.000 
#    0.000    3.750    0.000    0.000    0.000    0.000 
#    0.000    0.000    0.000    0.000    0.000    0.000 
#
# Total GULP energy -198244.805222 kJ/mol
# GULP energy per Si atom -12390.300326 kJ/mol
# Density = 2.045721 g / cm^3
# Si number density = 20.503875 Si / 1000 Ang^3
#
#
#
# Elastic Constant Matrix: (Units=GPa)
#
#
# Indices 1 2 3 4 5 6 
#
# 1 103.5096 44.6293 36.1963 3.9387 -1.2585 10.6037
# 2 44.6293 105.2725 26.3827 2.4248 11.3150 -3.6414
# 3 36.1963 26.3827 114.6558 -2.2349 1.2662 8.4547
# 4 3.9387 2.4248 -2.2349 30.6358 0.3402 -0.6255
# 5 -1.2585 11.3150 1.2662 0.3402 30.9815 0.7194
# 6 10.6037 -3.6414 8.4547 -0.6255 0.7194 33.4136
#
#
#
# Elastic Compliance Matrix: (Units=1/GPa)
#
#
# Indices 1 2 3 4 5 6 
#
# 1 0.013505 -0.005441 -0.002759 -0.001625 0.002766 -0.004271
# 2 -0.005441 0.012830 -0.001451 -0.000294 -0.004928 0.003593
# 3 -0.002759 -0.001451 0.010082 0.001168 0.000035 -0.001813
# 4 -0.001625 -0.000294 0.001168 0.032980 -0.000387 0.000814
# 5 0.002766 -0.004928 0.000035 -0.000387 0.034243 -0.002168
# 6 -0.004271 0.003593 -0.001813 0.000814 -0.002168 0.032195
#
#
# Mechanical properties :
#
#
# Convention : Reuss Voigt Hill
#
# Bulk Modulus (GPa) = 58.42464 59.76159 59.09312
# Shear Modulus (GPa) = 31.08646 33.42147 32.25397
#
# Velocity S-wave (km/s) = 3.89797 4.04172 3.97049
# Velocity P-wave (km/s) = 6.98679 7.14075 7.06419
#
# Compressibility (1/GPa) = 0.01711607
#
# Stress axis : x y z
#
# Youngs Moduli (GPa) = 74.04865 77.94093 99.18196
#
# Poissons Ratio (x) = 0.42411 0.27360
# Poissons Ratio (y) = 0.40293 0.14388
# Poissons Ratio (z) = 0.20427 0.11307
#
# Static dielectric constant tensor:
#      x y z
#    x 3.855460 -0.136680 0.102570 
#    y -0.136680 4.024350 0.179540 
#    z 0.102570 0.179540 4.172540 
# 
# 
# High freq. dielectric constant tensor:
#      x y z
#    x 1.787200 -0.015840 -0.005020 
#    y -0.015840 1.801010 -0.000080 
#    z -0.005020 -0.000080 1.812530 
# 
# From -- ./inp_files/225190.got.cif
#   From: 2010.06.25/outbox.cif.g09.slc.cpg/sg2_113_cif.got.tgz:225190.got - 2010.06.27 13:26:56.
