data_PCOD8005855
_publ_section_title
;
Structure prediction by ZEFSAII (Michael W. Deem and Ramdas Pophale) SiO2 
 PCOD8005855
Probable space group: P -1
;
_chemical_formula_sum "Si O2"
_cell_formula_units_Z 16
_cell_length_a 9.582575
_cell_length_b 25.369509
_cell_length_c 11.318625
_cell_angle_alpha 158.397255
_cell_angle_beta 55.089607
_cell_angle_gamma 123.419486
_cell_volume 829.168458
_symmetry_space_group_name_H-M "P -1"
_symmetry_group_IT_number 2
_symmetry_cell_setting 'triclinic'
loop_
_space_group_symop_operation_xyz
x,y,z
-x,-y,-z
loop_
_atom_site_type_symbol
_atom_site_label
_atom_site_fract_x
_atom_site_fract_y
_atom_site_fract_z
Si Si1 0.946670 0.627542 0.126271
Si Si2 0.122268 0.575122 0.691700
Si Si3 0.674554 0.169325 0.249698
Si Si4 0.282194 0.153010 0.428270
Si Si5 0.844654 0.166080 0.933848
Si Si6 0.554782 0.584667 0.767122
Si Si7 0.234928 0.618992 0.153482
Si Si8 0.235332 0.152125 0.714157
O O1 0.845162 0.765796 0.426304
O O2 0.085368 0.668709 0.245082
O O3 0.815069 0.508976 0.998813
O O4 0.045325 0.559500 0.827279
O O5 0.294174 0.499152 0.427662
O O6 0.000000 0.500000 0.500000
O O7 0.161597 0.742522 0.992242
O O8 0.474090 0.170338 0.324095
O O9 0.713772 0.243008 0.507715
O O10 0.760487 0.245294 0.250832
O O11 0.761302 0.017099 0.901374
O O12 0.262522 0.215436 0.700173
O O13 0.040281 0.155700 0.856971
O O14 0.732560 0.017268 0.651550
O O15 0.500000 0.500000 0.500000
O O16 0.393927 0.572654 0.905211
O O17 0.633225 0.751942 0.064766
#
# Coordination Sequence:
#
# PCOD8005855 Si02
#       8
#     2   2   2   2   2   2   2   2
#     4  11  24  41  60  87 124 163 202 248 300 365
#     4  12  22  39  63  93 121 159 210 254 300 362
#     4  10  22  37  64  91 119 157 196 252 305 357
#     4  10  20  40  62  90 119 154 204 251 302 353
#     4  10  21  37  65  94 120 157 206 254 303 358
#     4  12  24  41  62  88 125 165 203 253 310 360
#     4  11  25  42  59  87 127 162 202 246 306 367
#     4  10  20  39  63  90 123 157 204 258 301 359
#
# _framework density 19.296441999999999
#
# number of rings (size 3 to 8) (size 9 to 14) (size 15 to 20)
#    0.000    1.250    5.000    0.750    1.750    1.000 
#    0.000    0.625    2.750    0.000    0.000    0.000 
#    0.000    0.000    0.000    0.000    0.000    0.000 
#
# Total GULP energy -198306.674550 kJ/mol
# GULP energy per Si atom -12394.167159 kJ/mol
# Density = 1.925252 g / cm^3
# Si number density = 19.296442 Si / 1000 Ang^3
#
#
#
# Elastic Constant Matrix: (Units=GPa)
#
#
# Indices 1 2 3 4 5 6 
#
# 1 90.3589 37.7012 42.6909 5.3567 -7.1923 -2.5661
# 2 37.7012 118.6417 48.9151 -9.3441 2.4811 9.1965
# 3 42.6909 48.9151 104.4944 -9.0095 5.9109 -1.5250
# 4 5.3567 -9.3441 -9.0095 36.8621 0.9258 -5.9743
# 5 -7.1923 2.4811 5.9109 0.9258 38.3293 -2.8772
# 6 -2.5661 9.1965 -1.5250 -5.9743 -2.8772 25.4609
#
#
#
# Elastic Compliance Matrix: (Units=1/GPa)
#
#
# Indices 1 2 3 4 5 6 
#
# 1 0.015652 -0.003311 -0.005421 -0.004232 0.004235 0.001934
# 2 -0.003311 0.011612 -0.003931 0.001767 -0.001145 -0.004478
# 3 -0.005421 -0.003931 0.014138 0.003685 -0.002862 0.002262
# 4 -0.004232 0.001767 0.003685 0.030112 -0.001752 0.006024
# 5 0.004235 -0.001145 -0.002862 -0.001752 0.027697 0.003388
# 6 0.001934 -0.004478 0.002262 0.006024 0.003388 0.043020
#
#
# Mechanical properties :
#
#
# Convention : Reuss Voigt Hill
#
# Bulk Modulus (GPa) = 62.20587 63.56773 62.88680
# Shear Modulus (GPa) = 28.91588 32.40965 30.66276
#
# Velocity S-wave (km/s) = 3.87526 4.10270 3.99060
# Velocity P-wave (km/s) = 7.23398 7.44695 7.34124
#
# Compressibility (1/GPa) = 0.01607565
#
# Stress axis : x y z
#
# Youngs Moduli (GPa) = 63.88773 86.11893 70.73304
#
# Poissons Ratio (x) = 0.28510 0.38346
# Poissons Ratio (y) = 0.21151 0.27808
# Poissons Ratio (z) = 0.34635 0.33856
#
# Static dielectric constant tensor:
#      x y z
#    x 3.400520 0.297330 -0.112400 
#    y 0.297330 4.328740 -0.433970 
#    z -0.112400 -0.433970 4.000770 
# 
# 
# High freq. dielectric constant tensor:
#      x y z
#    x 1.736860 0.018870 -0.005160 
#    y 0.018870 1.759150 -0.010280 
#    z -0.005160 -0.010280 1.759650 
# 
# From -- ./inp_files/224345.got.cif
#   From: 2010.06.25/outbox.cif.g09.slc.cpg/sg2_113_cif.got.tgz:224345.got - 2010.06.27 13:26:56.
