data_PCOD8005269
_publ_section_title
;
Structure prediction by ZEFSAII (Michael W. Deem and Ramdas Pophale) SiO2 
 PCOD8005269
Probable space group: P -1
;
_chemical_formula_sum "Si O2"
_cell_formula_units_Z 16
_cell_length_a 13.265843
_cell_length_b 23.979898
_cell_length_c 15.756215
_cell_angle_alpha 157.666480
_cell_angle_beta 154.053784
_cell_angle_gamma 24.463241
_cell_volume 734.669328
_symmetry_space_group_name_H-M "P -1"
_symmetry_group_IT_number 2
_symmetry_cell_setting 'triclinic'
loop_
_space_group_symop_operation_xyz
x,y,z
-x,-y,-z
loop_
_atom_site_type_symbol
_atom_site_label
_atom_site_fract_x
_atom_site_fract_y
_atom_site_fract_z
Si Si1 0.363112 0.754405 0.386672
Si Si2 0.431305 0.589127 0.871240
Si Si3 0.091265 0.129739 0.534981
Si Si4 0.392843 0.803504 0.836209
Si Si5 0.909098 0.898064 0.851274
Si Si6 0.292174 0.371799 0.020823
Si Si7 0.497840 0.218450 0.657203
Si Si8 0.816671 0.881011 0.214186
O O1 0.556246 0.589159 0.352831
O O2 0.489850 0.720963 0.342692
O O3 0.061901 0.783947 0.199758
O O4 0.346718 0.921088 0.651909
O O5 0.146172 0.732884 0.835904
O O6 0.620452 0.557544 0.891292
O O7 0.550114 0.636156 0.109039
O O8 0.804070 0.231945 0.420317
O O9 0.287081 0.200437 0.752859
O O10 0.066169 0.139002 0.630370
O O11 0.222910 0.941048 0.335494
O O12 0.514452 0.659566 0.797088
O O13 0.623550 0.800081 0.946935
O O14 0.250447 0.984468 0.026751
O O15 0.729313 0.834163 0.576906
O O16 0.000000 0.000000 0.000000
O O17 0.000000 0.500000 0.000000
#
# Coordination Sequence:
#
# PCOD8005269 Si02
#       8
#     2   2   2   2   2   2   2   2
#     4  10  21  43  63  87 126 168 203 255 301 358
#     4  12  24  37  64  92 124 162 206 251 308 362
#     4  10  20  38  66  90 119 161 205 249 305 370
#     4  11  20  40  65  93 121 159 207 252 306 368
#     4  12  23  40  62  92 126 160 202 255 311 366
#     4  11  24  41  61  91 128 161 200 256 307 364
#     4  11  23  41  62  91 123 163 206 251 306 361
#     4   9  20  43  66  87 125 164 206 250 307 358
#
# _framework density 21.778506
#
# number of rings (size 3 to 8) (size 9 to 14) (size 15 to 20)
#    0.000    1.250    6.250    1.875    1.750    2.000 
#    0.000   10.625    0.000    0.000    0.000    0.000 
#    0.000    0.000    0.000    0.000    0.000    0.000 
#
# Total GULP energy -198374.879399 kJ/mol
# GULP energy per Si atom -12398.429962 kJ/mol
# Density = 2.172894 g / cm^3
# Si number density = 21.778506 Si / 1000 Ang^3
#
#
#
# Elastic Constant Matrix: (Units=GPa)
#
#
# Indices 1 2 3 4 5 6 
#
# 1 90.7996 38.1215 29.1392 -1.9539 30.5194 8.5163
# 2 38.1215 135.0007 17.4091 0.7774 1.7997 21.9020
# 3 29.1392 17.4091 66.5116 -19.8320 6.0520 17.6692
# 4 -1.9539 0.7774 -19.8320 37.6200 0.9236 7.6069
# 5 30.5194 1.7997 6.0520 0.9236 29.1630 2.5775
# 6 8.5163 21.9020 17.6692 7.6069 2.5775 35.0145
#
#
#
# Elastic Compliance Matrix: (Units=1/GPa)
#
#
# Indices 1 2 3 4 5 6 
#
# 1 0.023550 -0.005978 -0.009294 -0.004058 -0.022684 0.005253
# 2 -0.005978 0.009814 0.001614 0.001457 0.005821 -0.006245
# 3 -0.009294 0.001614 0.028032 0.017596 0.004761 -0.017068
# 4 -0.004058 0.001457 0.017596 0.039107 0.000801 -0.017359
# 5 -0.022684 0.005821 0.004761 0.000801 0.057089 -0.004903
# 6 0.005253 -0.006245 -0.017068 -0.017359 -0.004903 0.043933
#
#
# Mechanical properties :
#
#
# Convention : Reuss Voigt Hill
#
# Bulk Modulus (GPa) = 29.34308 51.29461 40.31885
# Shear Modulus (GPa) = 20.81575 34.20230 27.50903
#
# Velocity S-wave (km/s) = 3.09494 3.96720 3.55791
# Velocity P-wave (km/s) = 5.12584 6.67749 5.95244
#
# Compressibility (1/GPa) = 0.03407958
#
# Stress axis : x y z
#
# Youngs Moduli (GPa) = 42.46258 101.89091 35.67347
#
# Poissons Ratio (x) = 0.60910 0.33156
# Poissons Ratio (y) = 0.25384 -0.05757
# Poissons Ratio (z) = 0.39466 -0.16444
#
# Static dielectric constant tensor:
#      x y z
#    x 4.059640 0.164630 0.533760 
#    y 0.164630 4.165820 0.232240 
#    z 0.533760 0.232240 4.154800 
# 
# 
# High freq. dielectric constant tensor:
#      x y z
#    x 1.851660 -0.000540 0.020680 
#    y -0.000540 1.867400 0.005260 
#    z 0.020680 0.005260 1.834280 
# 
# From -- ./inp_files/451449.got.cif
#   From: 2010.06.25/outbox.cif.g09.slc.cpg/sg2_226_cif.got.tgz:451449.got - 2010.06.27 13:26:56.
