data_PCOD8005980
_publ_section_title
;
Structure prediction by ZEFSAII (Michael W. Deem and Ramdas Pophale) SiO2 
 PCOD8005980
Probable space group: P -1
;
_chemical_formula_sum "Si O2"
_cell_formula_units_Z 16
_cell_length_a 8.530873
_cell_length_b 8.360009
_cell_length_c 13.798438
_cell_angle_alpha 113.152921
_cell_angle_beta 96.086064
_cell_angle_gamma 118.713925
_cell_volume 738.576873
_symmetry_space_group_name_H-M "P -1"
_symmetry_group_IT_number 2
_symmetry_cell_setting 'triclinic'
loop_
_space_group_symop_operation_xyz
x,y,z
-x,-y,-z
loop_
_atom_site_type_symbol
_atom_site_label
_atom_site_fract_x
_atom_site_fract_y
_atom_site_fract_z
Si Si1 0.549915 0.832903 0.452667
Si Si2 0.806250 0.948668 0.681579
Si Si3 0.336507 0.538411 0.992303
Si Si4 0.147094 0.160613 0.625531
Si Si5 0.008144 0.208036 0.027601
Si Si6 0.397549 0.613171 0.795848
Si Si7 0.645394 0.073573 0.860181
Si Si8 0.265150 0.394233 0.255321
O O1 0.663117 0.831888 0.553635
O O2 0.680403 0.873846 0.375232
O O3 0.348917 0.608469 0.371768
O O4 0.500000 0.000000 0.500000
O O5 0.803323 0.783510 0.711764
O O6 0.741246 0.080420 0.766037
O O7 0.031049 0.101893 0.704171
O O8 0.309711 0.576092 0.887898
O O9 0.500000 0.500000 0.000000
O O10 0.138646 0.337897 0.974041
O O11 0.404224 0.753646 0.107046
O O12 0.240007 0.411169 0.670687
O O13 0.000000 0.000000 0.500000
O O14 0.091175 0.351187 0.164928
O O15 0.794109 0.138539 0.974403
O O16 0.000000 0.000000 0.000000
O O17 0.586671 0.609515 0.808399
O O18 0.452565 0.836945 0.809432
#
# Coordination Sequence:
#
# PCOD8005980 Si02
#       8
#     2   2   2   2   2   2   2   2
#     4  10  22  39  65  94 125 163 216 263 316 385
#     4  10  20  40  67  88 124 166 215 261 323 374
#     4  12  24  40  64  92 132 176 212 262 324 383
#     4   9  20  39  65  91 122 161 209 262 324 373
#     4  12  22  41  61  94 132 164 220 262 321 384
#     4  10  20  39  64  90 127 163 216 262 320 377
#     4  11  24  40  64  99 127 170 219 264 323 392
#     4  10  21  39  64  89 127 170 208 259 324 378
#
# _framework density 21.663284999999998
#
# number of rings (size 3 to 8) (size 9 to 14) (size 15 to 20)
#    0.000    1.500    3.750    1.875    1.750    1.000 
#    2.250    0.625    5.500    0.000    0.000    0.000 
#    0.000    0.000    0.000    0.000    0.000    0.000 
#
# Total GULP energy -198280.983889 kJ/mol
# GULP energy per Si atom -12392.561493 kJ/mol
# Density = 2.161398 g / cm^3
# Si number density = 21.663285 Si / 1000 Ang^3
#
#
#
# Elastic Constant Matrix: (Units=GPa)
#
#
# Indices 1 2 3 4 5 6 
#
# 1 76.2301 54.0661 41.8926 13.7102 -16.9138 2.1291
# 2 54.0661 135.5781 51.6026 17.4658 -26.0517 19.9566
# 3 41.8926 51.6026 117.3471 15.8707 -6.3237 7.7412
# 4 13.7102 17.4658 15.8707 46.6247 -3.5411 -3.6381
# 5 -16.9138 -26.0517 -6.3237 -3.5411 41.8253 5.1365
# 6 2.1291 19.9566 7.7412 -3.6381 5.1365 26.7531
#
#
#
# Elastic Compliance Matrix: (Units=1/GPa)
#
#
# Indices 1 2 3 4 5 6 
#
# 1 0.021050 -0.006308 -0.004554 -0.001754 0.003320 0.003472
# 2 -0.006308 0.014209 -0.002482 -0.002957 0.007041 -0.011133
# 3 -0.004554 -0.002482 0.011465 -0.001842 -0.001684 -0.001031
# 4 -0.001754 -0.002957 -0.001842 0.024082 -0.001583 0.006457
# 5 0.003320 0.007041 -0.001684 -0.001583 0.030614 -0.011122
# 6 0.003472 -0.011133 -0.001031 0.006457 -0.011122 0.048719
#
#
# Mechanical properties :
#
#
# Convention : Reuss Voigt Hill
#
# Bulk Modulus (GPa) = 49.91285 69.36421 59.63853
# Shear Modulus (GPa) = 27.24709 35.14689 31.19699
#
# Velocity S-wave (km/s) = 3.55033 4.03229 3.79896
# Velocity P-wave (km/s) = 6.31639 7.33266 6.84342
#
# Compressibility (1/GPa) = 0.02003492
#
# Stress axis : x y z
#
# Youngs Moduli (GPa) = 47.50620 70.37885 87.21891
#
# Poissons Ratio (x) = 0.44398 0.39716
# Poissons Ratio (y) = 0.29969 0.21652
# Poissons Ratio (z) = 0.21633 0.17471
#
# Static dielectric constant tensor:
#      x y z
#    x 4.004640 0.448100 -0.087640 
#    y 0.448100 4.141580 0.134100 
#    z -0.087640 0.134100 4.324900 
# 
# 
# High freq. dielectric constant tensor:
#      x y z
#    x 1.827600 0.018980 -0.008790 
#    y 0.018980 1.850080 0.016120 
#    z -0.008790 0.016120 1.865240 
# 
# From -- ./inp_files/297593.got.cif
#   From: 2010.06.25/outbox.cif.g09.slc.cpg/sg2_149_cif.got.tgz:297593.got - 2010.06.27 13:26:56.
