data_PCOD8005770
_publ_section_title
;
Structure prediction by ZEFSAII (Michael W. Deem and Ramdas Pophale) SiO2 
 PCOD8005770
Probable space group: P -1
;
_chemical_formula_sum "Si O2"
_cell_formula_units_Z 16
_cell_length_a 25.164363
_cell_length_b 6.783814
_cell_length_c 17.698258
_cell_angle_alpha 57.160813
_cell_angle_beta 17.202521
_cell_angle_gamma 61.553767
_cell_volume 740.109083
_symmetry_space_group_name_H-M "P -1"
_symmetry_group_IT_number 2
_symmetry_cell_setting 'triclinic'
loop_
_space_group_symop_operation_xyz
x,y,z
-x,-y,-z
loop_
_atom_site_type_symbol
_atom_site_label
_atom_site_fract_x
_atom_site_fract_y
_atom_site_fract_z
Si Si1 0.129668 0.870342 0.017484
Si Si2 0.002053 0.237109 0.524018
Si Si3 0.698172 0.060856 0.075456
Si Si4 0.546747 0.832313 0.733692
Si Si5 0.040906 0.384033 0.046582
Si Si6 0.337193 0.778638 0.608703
Si Si7 0.746990 0.095560 0.766738
Si Si8 0.813593 0.483323 0.475113
O O1 0.967457 0.647499 0.281086
O O2 0.249802 0.891861 0.774975
O O3 0.041818 0.106519 0.096497
O O4 0.258789 0.839048 0.919920
O O5 0.915993 0.223992 0.560549
O O6 0.000000 0.500000 0.500000
O O7 0.205247 0.167778 0.261461
O O8 0.885104 0.043947 0.780645
O O9 0.557171 0.805363 0.319871
O O10 0.597553 0.242383 0.124146
O O11 0.639593 0.611216 0.674951
O O12 0.693523 0.057463 0.457052
O O13 0.444653 0.920821 0.926608
O O14 0.886102 0.426722 0.306541
O O15 0.000000 0.500000 0.000000
O O16 0.240588 0.509773 0.779825
O O17 0.740349 0.240593 0.668549
#
# Coordination Sequence:
#
# PCOD8005770 Si02
#       8
#     2   2   2   2   2   2   2   2
#     4  11  21  38  64  89 124 164 212 255 306 366
#     4  10  20  39  62  92 122 160 205 253 307 369
#     4   9  20  38  61  89 121 159 204 253 313 362
#     4   9  20  39  60  88 127 163 201 252 311 362
#     4  11  23  38  62  90 122 167 211 256 310 371
#     4   9  21  40  58  90 124 161 204 255 311 363
#     4  10  21  38  63  89 122 163 204 249 314 366
#     4  11  22  39  64  91 126 164 205 257 305 371
#
# _framework density 21.618434000000001
#
# number of rings (size 3 to 8) (size 9 to 14) (size 15 to 20)
#    0.750    1.250    0.000    3.750    0.000    2.500 
#    2.250    3.750    0.000    8.250    0.000    0.000 
#    0.000    0.000    0.000    0.000    0.000    0.000 
#
# Total GULP energy -198276.805739 kJ/mol
# GULP energy per Si atom -12392.300359 kJ/mol
# Density = 2.156923 g / cm^3
# Si number density = 21.618434 Si / 1000 Ang^3
#
#
#
# Elastic Constant Matrix: (Units=GPa)
#
#
# Indices 1 2 3 4 5 6 
#
# 1 94.2538 18.2459 39.4962 3.2017 20.4924 -3.9893
# 2 18.2459 88.2969 31.9837 18.4144 14.8920 3.0283
# 3 39.4962 31.9837 116.3104 19.4199 24.5689 -0.6290
# 4 3.2017 18.4144 19.4199 22.7246 0.6119 -0.0919
# 5 20.4924 14.8920 24.5689 0.6119 34.0304 -1.2634
# 6 -3.9893 3.0283 -0.6290 -0.0919 -1.2634 29.6819
#
#
#
# Elastic Compliance Matrix: (Units=1/GPa)
#
#
# Indices 1 2 3 4 5 6 
#
# 1 0.013395 -0.001166 -0.003538 0.002222 -0.004981 0.001639
# 2 -0.001166 0.015163 -0.000790 -0.011315 -0.005233 -0.001978
# 3 -0.003538 -0.000790 0.013105 -0.009879 -0.006824 -0.000438
# 4 0.002222 -0.011315 -0.009879 0.061049 0.009716 0.001846
# 5 -0.004981 -0.005233 -0.006824 0.009716 0.039480 0.001430
# 6 0.001639 -0.001978 -0.000438 0.001846 0.001430 0.034170
#
#
# Mechanical properties :
#
#
# Convention : Reuss Voigt Hill
#
# Bulk Modulus (GPa) = 32.60007 53.14584 42.87296
# Shear Modulus (GPa) = 25.30723 31.22973 28.26848
#
# Velocity S-wave (km/s) = 3.42516 3.80490 3.62001
# Velocity P-wave (km/s) = 5.54570 6.62872 6.11125
#
# Compressibility (1/GPa) = 0.03067478
#
# Stress axis : x y z
#
# Youngs Moduli (GPa) = 74.65664 65.95216 76.30857
#
# Poissons Ratio (x) = 0.07690 0.26997
# Poissons Ratio (y) = 0.08704 0.06026
# Poissons Ratio (z) = 0.26413 0.05208
#
# Static dielectric constant tensor:
#      x y z
#    x 4.003950 0.014300 0.148280 
#    y 0.014300 3.597890 0.017920 
#    z 0.148280 0.017920 4.108250 
# 
# 
# High freq. dielectric constant tensor:
#      x y z
#    x 1.853600 -0.004020 0.014760 
#    y -0.004020 1.824310 0.003010 
#    z 0.014760 0.003010 1.855190 
# 
# From -- ./inp_files/579456.got.cif
#   From: 2010.06.25/outbox.cif.g09.slc.cpg/sg2_290_cif.got.tgz:579456.got - 2010.06.27 13:26:56.
