data_PCOD8005458
_publ_section_title
;
Structure prediction by ZEFSAII (Michael W. Deem and Ramdas Pophale) SiO2 
 PCOD8005458
Probable space group: P -1
;
_chemical_formula_sum "Si O2"
_cell_formula_units_Z 16
_cell_length_a 25.723031
_cell_length_b 15.298908
_cell_length_c 9.660026
_cell_angle_alpha 141.539271
_cell_angle_beta 129.490252
_cell_angle_gamma 19.990881
_cell_volume 713.563967
_symmetry_space_group_name_H-M "P -1"
_symmetry_group_IT_number 2
_symmetry_cell_setting 'triclinic'
loop_
_space_group_symop_operation_xyz
x,y,z
-x,-y,-z
loop_
_atom_site_type_symbol
_atom_site_label
_atom_site_fract_x
_atom_site_fract_y
_atom_site_fract_z
Si Si1 0.693067 0.048289 0.509788
Si Si2 0.834084 0.296007 0.677775
Si Si3 0.442914 0.383649 0.019504
Si Si4 0.908572 0.855357 0.243861
Si Si5 0.698640 0.826379 0.004725
Si Si6 0.025501 0.506657 0.281172
Si Si7 0.170230 0.678627 0.978861
Si Si8 0.315983 0.110565 0.432395
O O1 0.634808 0.053330 0.297564
O O2 0.651864 0.061560 0.604725
O O3 0.585219 0.396888 0.739964
O O4 0.899299 0.681707 0.399176
O O5 0.883992 0.223727 0.831982
O O6 0.685769 0.689532 0.868317
O O7 0.000000 0.000000 0.500000
O O8 0.779769 0.236566 0.488897
O O9 0.515770 0.211670 0.777585
O O10 0.265121 0.641614 0.056801
O O11 0.576891 0.071830 0.972326
O O12 0.896508 0.816614 0.330029
O O13 0.106866 0.515205 0.132704
O O14 0.854084 0.844753 0.023199
O O15 0.146413 0.392709 0.408592
O O16 0.292381 0.312210 0.699723
O O17 0.000000 0.000000 0.000000
#
# Coordination Sequence:
#
# PCOD8005458 Si02
#       8
#     2   2   2   2   2   2   2   2
#     4  11  23  43  66 101 137 176 231 278 336 399
#     4  10  21  42  69 103 131 174 225 283 336 393
#     4  12  26  45  68  96 137 190 223 275 347 400
#     4   9  18  37  66 103 132 170 231 270 333 396
#     4  10  21  42  68  95 138 175 225 283 331 400
#     4  10  20  38  71  99 132 181 223 280 327 400
#     4  12  27  47  71  99 137 180 227 279 341 416
#     4  12  24  46  65 101 142 178 223 281 339 407
#
# _framework density 22.422657000000001
#
# number of rings (size 3 to 8) (size 9 to 14) (size 15 to 20)
#    0.000    1.250    2.500    3.750    1.750    0.500 
#    2.250    0.000    0.000    0.000    0.000    0.000 
#    0.000    0.000    0.000    0.000    0.000    0.000 
#
# Total GULP energy -198434.853203 kJ/mol
# GULP energy per Si atom -12402.178325 kJ/mol
# Density = 2.237162 g / cm^3
# Si number density = 22.422657 Si / 1000 Ang^3
#
#
#
# Elastic Constant Matrix: (Units=GPa)
#
#
# Indices 1 2 3 4 5 6 
#
# 1 126.5408 40.9288 65.8654 2.2834 -2.7388 27.5381
# 2 40.9288 56.3942 22.5837 1.9011 -5.6181 15.4792
# 3 65.8654 22.5837 160.1026 2.8087 15.3200 24.7142
# 4 2.2834 1.9011 2.8087 25.1223 12.6540 4.1636
# 5 -2.7388 -5.6181 15.3200 12.6540 58.1410 5.3199
# 6 27.5381 15.4792 24.7142 4.1636 5.3199 37.1383
#
#
#
# Elastic Compliance Matrix: (Units=1/GPa)
#
#
# Indices 1 2 3 4 5 6 
#
# 1 0.013064 -0.006514 -0.003888 -0.000249 0.001483 -0.004569
# 2 -0.006514 0.024383 -0.000174 -0.001840 0.002993 -0.005439
# 3 -0.003888 -0.000174 0.008462 0.001052 -0.002435 -0.002445
# 4 -0.000249 -0.001840 0.001052 0.045478 -0.010053 -0.003407
# 5 0.001483 0.002993 -0.002435 -0.010053 0.020622 -0.002554
# 6 -0.004569 -0.005439 -0.002445 -0.003407 -0.002554 0.034956
#
#
# Mechanical properties :
#
#
# Convention : Reuss Voigt Hill
#
# Bulk Modulus (GPa) = 40.39280 66.86592 53.62936
# Shear Modulus (GPa) = 28.34958 38.32432 33.33695
#
# Velocity S-wave (km/s) = 3.55960 4.13871 3.86003
# Velocity P-wave (km/s) = 5.91166 7.26113 6.62086
#
# Compressibility (1/GPa) = 0.02475689
#
# Stress axis : x y z
#
# Youngs Moduli (GPa) = 76.54519 41.01218 118.17661
#
# Poissons Ratio (x) = 0.26716 0.45945
# Poissons Ratio (y) = 0.49864 0.02056
# Poissons Ratio (z) = 0.29759 0.00714
#
# Static dielectric constant tensor:
#      x y z
#    x 4.556850 0.139330 0.295490 
#    y 0.139330 3.585050 -0.044070 
#    z 0.295490 -0.044070 4.576090 
# 
# 
# High freq. dielectric constant tensor:
#      x y z
#    x 1.901450 0.011490 0.003410 
#    y 0.011490 1.847660 -0.003460 
#    z 0.003410 -0.003460 1.907720 
# 
# From -- ./inp_files/357464.got.cif
#   From: 2010.06.25/outbox.cif.g09.slc.cpg/sg2_179_cif.got.tgz:357464.got - 2010.06.27 13:26:56.
