data_PCOD8005141
_publ_section_title
;
Structure prediction by ZEFSAII (Michael W. Deem and Ramdas Pophale) SiO2 
 PCOD8005141
Probable space group: P -1
;
_chemical_formula_sum "Si O2"
_cell_formula_units_Z 16
_cell_length_a 8.730571
_cell_length_b 14.217668
_cell_length_c 9.572866
_cell_angle_alpha 122.647201
_cell_angle_beta 59.787974
_cell_angle_gamma 80.939043
_cell_volume 698.415444
_symmetry_space_group_name_H-M "P -1"
_symmetry_group_IT_number 2
_symmetry_cell_setting 'triclinic'
loop_
_space_group_symop_operation_xyz
x,y,z
-x,-y,-z
loop_
_atom_site_type_symbol
_atom_site_label
_atom_site_fract_x
_atom_site_fract_y
_atom_site_fract_z
Si Si1 0.046109 0.801586 0.453360
Si Si2 0.098402 0.384834 0.978836
Si Si3 0.472529 0.877185 0.507561
Si Si4 0.618015 0.032565 0.682639
Si Si5 0.868504 0.146181 0.250659
Si Si6 0.301210 0.501001 0.150846
Si Si7 0.739097 0.359924 0.254744
Si Si8 0.396430 0.732232 0.006483
O O1 0.017488 0.878289 0.672079
O O2 0.084902 0.657936 0.368680
O O3 0.245191 0.771889 0.244162
O O4 0.831625 0.893412 0.533537
O O5 0.254321 0.402450 0.016750
O O6 0.899455 0.397750 0.158772
O O7 0.264147 0.231124 0.718137
O O8 0.000000 0.500000 0.000000
O O9 0.341791 0.936351 0.468189
O O10 0.380434 0.804236 0.572213
O O11 0.434679 0.002984 0.721706
O O12 0.543459 0.157550 0.926320
O O13 0.845902 0.268906 0.272555
O O14 0.000000 0.000000 0.000000
O O15 0.500000 0.500000 0.000000
O O16 0.384287 0.427074 0.206054
O O17 0.500000 0.500000 0.500000
O O18 0.725064 0.261545 0.072921
#
# Coordination Sequence:
#
# PCOD8005141 Si02
#       8
#     2   2   2   2   2   2   2   2
#     4  11  22  41  67 101 133 187 238 278 350 431
#     4  12  23  44  75 104 138 190 242 295 354 429
#     4  11  24  43  69 104 140 183 247 294 353 427
#     4  11  22  38  72  99 130 178 255 293 326 416
#     4  12  27  45  67 103 153 186 227 299 378 414
#     4  10  20  38  65 101 130 171 232 301 338 400
#     4  12  28  47  72 108 147 186 235 304 374 424
#     4  11  21  42  70  97 135 188 243 286 345 429
#
# _framework density 22.909001
#
# number of rings (size 3 to 8) (size 9 to 14) (size 15 to 20)
#    0.000    0.750    2.500    6.375    5.250    0.000 
#    0.000    7.500    0.000    0.000    0.000    0.000 
#    0.000    0.000    0.000    0.000    0.000    0.000 
#
# Total GULP energy -198261.762757 kJ/mol
# GULP energy per Si atom -12391.360172 kJ/mol
# Density = 2.285686 g / cm^3
# Si number density = 22.909001 Si / 1000 Ang^3
#
#
#
# Elastic Constant Matrix: (Units=GPa)
#
#
# Indices 1 2 3 4 5 6 
#
# 1 129.5114 44.2881 38.5230 -4.8311 14.4830 8.6487
# 2 44.2881 127.6191 36.7185 5.1674 -14.2457 -9.4925
# 3 38.5230 36.7185 87.6812 5.5630 3.9200 -1.4741
# 4 -4.8311 5.1674 5.5630 40.0759 0.6428 -4.1338
# 5 14.4830 -14.2457 3.9200 0.6428 43.0206 5.8102
# 6 8.6487 -9.4925 -1.4741 -4.1338 5.8102 51.5603
#
#
#
# Elastic Compliance Matrix: (Units=1/GPa)
#
#
# Indices 1 2 3 4 5 6 
#
# 1 0.010491 -0.003417 -0.003151 0.002019 -0.004157 -0.001849
# 2 -0.003417 0.010608 -0.003042 -0.001247 0.004715 0.001808
# 3 -0.003151 -0.003042 0.014247 -0.001907 -0.001266 0.000366
# 4 0.002019 -0.001247 -0.001907 0.025813 -0.001523 0.001618
# 5 -0.004157 0.004715 -0.001266 -0.001523 0.026558 -0.001586
# 6 -0.001849 0.001808 0.000366 0.001618 -0.001586 0.020357
#
#
# Mechanical properties :
#
#
# Convention : Reuss Voigt Hill
#
# Bulk Modulus (GPa) = 62.01791 64.87454 63.44622
# Shear Modulus (GPa) = 37.68733 41.95018 39.81875
#
# Velocity S-wave (km/s) = 4.06037 4.28385 4.17361
# Velocity P-wave (km/s) = 7.00802 7.26969 7.14005
#
# Compressibility (1/GPa) = 0.01612437
#
# Stress axis : x y z
#
# Youngs Moduli (GPa) = 95.32100 94.26567 70.18824
#
# Poissons Ratio (x) = 0.32212 0.22120
# Poissons Ratio (y) = 0.32573 0.21354
# Poissons Ratio (z) = 0.30040 0.28680
#
# Static dielectric constant tensor:
#      x y z
#    x 2.733420 0.190340 0.147610 
#    y 0.190340 4.487190 0.252440 
#    z 0.147610 0.252440 3.994920 
# 
# 
# High freq. dielectric constant tensor:
#      x y z
#    x 1.918530 -0.005600 0.018790 
#    y -0.005600 1.919140 0.026490 
#    z 0.018790 0.026490 1.873130 
# 
# From -- ./inp_files/208621.got.cif
#   From: 2010.06.25/outbox.cif.g09.slc.cpg/sg2_105_cif.got.tgz:208621.got - 2010.06.27 13:26:56.
