data_PCOD8005541
_publ_section_title
;
Structure prediction by ZEFSAII (Michael W. Deem and Ramdas Pophale) SiO2 
 PCOD8005541
Probable space group: P -1
;
_chemical_formula_sum "Si O2"
_cell_formula_units_Z 16
_cell_length_a 8.730926
_cell_length_b 12.252895
_cell_length_c 17.088353
_cell_angle_alpha 139.052275
_cell_angle_beta 39.014157
_cell_angle_gamma 137.750407
_cell_volume 700.165249
_symmetry_space_group_name_H-M "P -1"
_symmetry_group_IT_number 2
_symmetry_cell_setting 'triclinic'
loop_
_space_group_symop_operation_xyz
x,y,z
-x,-y,-z
loop_
_atom_site_type_symbol
_atom_site_label
_atom_site_fract_x
_atom_site_fract_y
_atom_site_fract_z
Si Si1 0.103889 0.164007 0.486346
Si Si2 0.896868 0.604397 0.253098
Si Si3 0.216895 0.359971 0.015491
Si Si4 0.636260 0.526091 0.697789
Si Si5 0.281600 0.046567 0.757841
Si Si6 0.220827 0.192495 0.081395
Si Si7 0.867445 0.226632 0.460256
Si Si8 0.608243 0.058823 0.780909
O O1 0.187473 0.349364 0.602067
O O2 0.896273 0.165999 0.504070
O O3 0.350356 0.131062 0.328769
O O4 0.000000 0.000000 0.500000
O O5 0.646259 0.538646 0.263043
O O6 0.005755 0.445596 0.128161
O O7 0.118763 0.777932 0.221327
O O8 0.119695 0.226888 0.055847
O O9 0.500000 0.500000 0.000000
O O10 0.240771 0.235794 0.865898
O O11 0.614967 0.621635 0.839399
O O12 0.701509 0.352532 0.597524
O O13 0.848032 0.663107 0.629794
O O14 0.533454 0.080067 0.731506
O O15 0.301425 0.956546 0.618582
O O16 0.031548 0.903817 0.820549
O O17 0.397592 0.071727 0.934158
#
# Coordination Sequence:
#
# PCOD8005541 Si02
#       8
#     2   2   2   2   2   2   2   2
#     4  10  23  41  62  90 124 166 212 260 319 374
#     4  11  22  39  59  93 126 164 216 259 315 378
#     4  11  20  38  61  94 127 166 207 255 319 375
#     4  10  23  40  65  95 126 169 212 260 322 372
#     4  10  21  39  66  91 123 171 211 256 322 376
#     4  10  21  39  63  91 127 170 210 257 315 383
#     4  10  22  44  64  91 129 166 215 265 312 378
#     4  10  20  39  59  89 129 160 211 261 312 378
#
# _framework density 22.851748000000001
#
# number of rings (size 3 to 8) (size 9 to 14) (size 15 to 20)
#    0.000    1.750    2.500    3.000    0.000    4.000 
#    4.500    7.500    0.000    0.000    0.000    0.000 
#    0.000    0.000    0.000    0.000    0.000    0.000 
#
# Total GULP energy -198358.417973 kJ/mol
# GULP energy per Si atom -12397.401123 kJ/mol
# Density = 2.279974 g / cm^3
# Si number density = 22.851748 Si / 1000 Ang^3
#
#
#
# Elastic Constant Matrix: (Units=GPa)
#
#
# Indices 1 2 3 4 5 6 
#
# 1 144.3461 28.2288 64.0016 22.5245 -11.5547 15.7256
# 2 28.2288 39.7945 21.1560 20.1993 -3.4203 8.9246
# 3 64.0016 21.1560 138.9614 40.9548 -4.4839 2.9169
# 4 22.5245 20.1993 40.9548 43.0114 2.1002 1.0864
# 5 -11.5547 -3.4203 -4.4839 2.1002 48.6197 6.0731
# 6 15.7256 8.9246 2.9169 1.0864 6.0731 36.9899
#
#
#
# Elastic Compliance Matrix: (Units=1/GPa)
#
#
# Indices 1 2 3 4 5 6 
#
# 1 0.009963 -0.004352 -0.003962 0.000579 0.002075 -0.003231
# 2 -0.004352 0.038020 0.001487 -0.016970 0.003448 -0.007508
# 3 -0.003962 0.001487 0.011689 -0.009797 0.000590 0.000595
# 4 0.000579 -0.016970 -0.009797 0.040346 -0.004218 0.004128
# 5 0.002075 0.003448 0.000590 -0.004218 0.022200 -0.005281
# 6 -0.003231 -0.007508 0.000595 0.004128 -0.005281 0.030918
#
#
# Mechanical properties :
#
#
# Convention : Reuss Voigt Hill
#
# Bulk Modulus (GPa) = 21.73143 61.09718 41.41430
# Shear Modulus (GPa) = 27.45272 39.70524 33.57898
#
# Velocity S-wave (km/s) = 3.46980 4.17287 3.83747
# Velocity P-wave (km/s) = 5.05797 7.07188 6.14795
#
# Compressibility (1/GPa) = 0.04601631
#
# Stress axis : x y z
#
# Youngs Moduli (GPa) = 100.36691 26.30175 85.55299
#
# Poissons Ratio (x) = 0.11448 0.33898
# Poissons Ratio (y) = 0.43684 -0.12719
# Poissons Ratio (z) = 0.39768 -0.03910
#
# Static dielectric constant tensor:
#      x y z
#    x 3.379780 0.446800 -0.088360 
#    y 0.446800 3.844280 0.414260 
#    z -0.088360 0.414260 4.955290 
# 
# 
# High freq. dielectric constant tensor:
#      x y z
#    x 1.887580 0.015210 -0.002140 
#    y 0.015210 1.890260 0.011910 
#    z -0.002140 0.011910 1.931220 
# 
# From -- ./inp_files/560005.got.cif
#   From: 2010.06.25/outbox.cif.g09.slc.cpg/sg2_281_cif.got.tgz:560005.got - 2010.06.27 13:26:56.
