data_PCOD8005883
_publ_section_title
;
Structure prediction by ZEFSAII (Michael W. Deem and Ramdas Pophale) SiO2 
 PCOD8005883
Probable space group: P -1
;
_chemical_formula_sum "Si O2"
_cell_formula_units_Z 16
_cell_length_a 11.902638
_cell_length_b 17.579749
_cell_length_c 20.405961
_cell_angle_alpha 151.842743
_cell_angle_beta 157.571062
_cell_angle_gamma 28.653433
_cell_volume 720.841232
_symmetry_space_group_name_H-M "P -1"
_symmetry_group_IT_number 2
_symmetry_cell_setting 'triclinic'
loop_
_space_group_symop_operation_xyz
x,y,z
-x,-y,-z
loop_
_atom_site_type_symbol
_atom_site_label
_atom_site_fract_x
_atom_site_fract_y
_atom_site_fract_z
Si Si1 0.133241 0.252845 0.167535
Si Si2 0.477367 0.841984 0.457671
Si Si3 0.958783 0.316674 0.832777
Si Si4 0.133923 0.581913 0.378705
Si Si5 0.335185 0.886842 0.943937
Si Si6 0.928549 0.808914 0.561024
Si Si7 0.171604 0.803855 0.460709
Si Si8 0.010622 0.166925 0.169351
O O1 0.992402 0.426043 0.179182
O O2 0.498627 0.211878 0.344363
O O3 0.961829 0.294903 0.178302
O O4 0.121310 0.085967 0.995392
O O5 0.713684 0.762534 0.464697
O O6 0.660400 0.857290 0.634616
O O7 0.267827 0.720622 0.263158
O O8 0.261438 0.033000 0.467096
O O9 0.292737 0.159506 0.896154
O O10 0.793562 0.316396 0.674500
O O11 0.000000 0.500000 0.000000
O O12 0.500000 0.500000 0.500000
O O13 0.078940 0.646347 0.472503
O O14 0.979960 0.734759 0.359529
O O15 0.215296 0.845404 0.778529
O O16 0.267093 0.773413 0.880799
O O17 0.000000 0.000000 0.500000
O O18 0.000000 0.000000 0.000000
#
# Coordination Sequence:
#
# PCOD8005883 Si02
#       8
#     2   2   2   2   2   2   2   2
#     4  10  20  39  63  92 130 172 217 271 332 387
#     4  10  22  43  67  96 133 181 219 276 340 400
#     4  12  26  39  64  99 133 171 226 277 333 399
#     4  10  24  37  62  98 128 169 219 272 329 392
#     4  10  23  39  63 100 127 178 225 271 335 402
#     4  10  23  43  68  94 134 176 225 274 338 399
#     4  11  21  41  64  90 127 175 214 267 335 394
#     4   9  19  38  68  95 126 169 233 269 323 407
#
# _framework density 22.196287999999999
#
# number of rings (size 3 to 8) (size 9 to 14) (size 15 to 20)
#    0.000    1.750    2.500    0.750    5.250    2.500 
#    0.000    2.500    0.000   13.500    0.000    0.000 
#    0.000    0.000    0.000    0.000    0.000    0.000 
#
# Total GULP energy -198245.358067 kJ/mol
# GULP energy per Si atom -12390.334879 kJ/mol
# Density = 2.214577 g / cm^3
# Si number density = 22.196288 Si / 1000 Ang^3
#
#
#
# Elastic Constant Matrix: (Units=GPa)
#
#
# Indices 1 2 3 4 5 6 
#
# 1 127.5792 54.5714 33.3543 19.6698 16.3458 7.6988
# 2 54.5714 81.3921 26.3606 24.7196 7.3394 9.7454
# 3 33.3543 26.3606 76.6105 10.4177 17.7826 2.5388
# 4 19.6698 24.7196 10.4177 35.2628 1.1292 6.8947
# 5 16.3458 7.3394 17.7826 1.1292 33.2086 10.6901
# 6 7.6988 9.7454 2.5388 6.8947 10.6901 41.0692
#
#
#
# Elastic Compliance Matrix: (Units=1/GPa)
#
#
# Indices 1 2 3 4 5 6 
#
# 1 0.011789 -0.006639 -0.001872 -0.001378 -0.003486 0.000620
# 2 -0.006639 0.020826 -0.003241 -0.009540 0.001457 -0.002275
# 3 -0.001872 -0.003241 0.017084 -0.001964 -0.008263 0.002544
# 4 -0.001378 -0.009540 -0.001964 0.037175 0.004074 -0.004658
# 5 -0.003486 0.001457 -0.008263 0.004074 0.039018 -0.010022
# 6 0.000620 -0.002275 0.002544 -0.004658 -0.010022 0.028006
#
#
# Mechanical properties :
#
#
# Convention : Reuss Voigt Hill
#
# Bulk Modulus (GPa) = 38.17672 57.12825 47.65249
# Shear Modulus (GPa) = 26.86217 33.32782 30.09500
#
# Velocity S-wave (km/s) = 3.48258 3.87913 3.68619
# Velocity P-wave (km/s) = 5.77997 6.77179 6.29544
#
# Compressibility (1/GPa) = 0.02619397
#
# Stress axis : x y z
#
# Youngs Moduli (GPa) = 84.82158 48.01761 58.53448
#
# Poissons Ratio (x) = 0.31881 0.10960
# Poissons Ratio (y) = 0.56317 0.18970
# Poissons Ratio (z) = 0.15881 0.15562
#
# Static dielectric constant tensor:
#      x y z
#    x 3.852410 -1.415150 -0.202670 
#    y -1.415150 0.197550 -0.630750 
#    z -0.202670 -0.630750 3.917210 
# 
# 
# High freq. dielectric constant tensor:
#      x y z
#    x 1.893210 0.009030 0.006970 
#    y 0.009030 1.851150 0.013400 
#    z 0.006970 0.013400 1.868600 
# 
# From -- ./inp_files/596013.got.cif
#   From: 2010.06.25/outbox.cif.g09.slc.cpg/sg2_299_cif.got.tgz:596013.got - 2010.06.27 13:26:56.
