data_PCOD8005519
_publ_section_title
;
Structure prediction by ZEFSAII (Michael W. Deem and Ramdas Pophale) SiO2 
 PCOD8005519
Probable space group: P -1
;
_chemical_formula_sum "Si O2"
_cell_formula_units_Z 14
_cell_length_a 8.391612
_cell_length_b 15.953202
_cell_length_c 5.265504
_cell_angle_alpha 68.650666
_cell_angle_beta 102.290326
_cell_angle_gamma 118.283520
_cell_volume 577.454933
_symmetry_space_group_name_H-M "P -1"
_symmetry_group_IT_number 2
_symmetry_cell_setting 'triclinic'
loop_
_space_group_symop_operation_xyz
x,y,z
-x,-y,-z
loop_
_atom_site_type_symbol
_atom_site_label
_atom_site_fract_x
_atom_site_fract_y
_atom_site_fract_z
Si Si1 0.652851 0.645309 0.731414
Si Si2 0.792124 0.272122 0.414967
Si Si3 0.074456 0.595286 0.095994
Si Si4 0.187560 0.095761 0.977467
Si Si5 0.860595 0.703055 0.245042
Si Si6 0.262263 0.550449 0.623401
Si Si7 0.606782 0.846513 0.513804
O O1 0.760721 0.636232 0.529916
O O2 0.455222 0.549584 0.746593
O O3 0.620666 0.743476 0.607177
O O4 0.764255 0.644379 0.019654
O O5 0.753947 0.370279 0.274750
O O6 0.603018 0.173695 0.491831
O O7 0.924773 0.272623 0.687295
O O8 0.888019 0.295502 0.139648
O O9 0.253816 0.599716 0.292918
O O10 0.906224 0.561955 0.286811
O O11 0.000000 0.500000 0.000000
O O12 0.149229 0.192175 0.854665
O O13 0.313717 0.094030 0.786533
O O14 0.281773 0.089189 0.279713
O O15 0.000000 0.000000 0.000000
#
# Coordination Sequence:
#
# PCOD8005519 Si02
#       7
#     2   2   2   2   2   2   2
#     4   9  20  35  56  78 112 147 191 227 272 334
#     4  10  21  34  57  81 115 142 189 236 277 324
#     4   9  19  33  56  81 107 146 192 234 275 322
#     4  10  20  39  59  83 114 147 183 224 274 338
#     4  10  22  36  55  86 113 146 182 236 282 323
#     4   9  19  35  58  77 107 150 199 228 273 329
#     4   9  20  34  60  83 105 150 190 218 270 339
#
# _framework density 24.244313999999999
#
# number of rings (size 3 to 8) (size 9 to 14) (size 15 to 20)
#    0.000    2.571    0.000    0.429   14.000    0.000 
#    0.000    2.857    0.000    0.000    0.000    0.000 
#    0.000    0.000    0.000    0.000    0.000    0.000 
#
# Total GULP energy -173436.393668 kJ/mol
# GULP energy per Si atom -12388.313833 kJ/mol
# Density = 2.418913 g / cm^3
# Si number density = 24.244314 Si / 1000 Ang^3
#
#
#
# Elastic Constant Matrix: (Units=GPa)
#
#
# Indices 1 2 3 4 5 6 
#
# 1 99.3095 34.8485 59.1184 14.5816 -1.4712 41.9408
# 2 34.8485 96.3987 45.4811 19.1732 -6.5689 45.1154
# 3 59.1184 45.4811 164.7310 35.2265 -14.2339 30.4056
# 4 14.5816 19.1732 35.2265 36.5924 7.5175 8.9992
# 5 -1.4712 -6.5689 -14.2339 7.5175 46.7425 0.4797
# 6 41.9408 45.1154 30.4056 8.9992 0.4797 42.8301
#
#
#
# Elastic Compliance Matrix: (Units=1/GPa)
#
#
# Indices 1 2 3 4 5 6 
#
# 1 0.020395 0.005449 -0.004354 -0.001409 0.000537 -0.022330
# 2 0.005449 0.024028 -0.001410 -0.007430 0.004603 -0.028136
# 3 -0.004354 -0.001410 0.010052 -0.008096 0.004025 0.000269
# 4 -0.001409 -0.007430 -0.008096 0.040004 -0.010056 0.006661
# 5 0.000537 0.004603 0.004025 -0.010056 0.024966 -0.006399
# 6 -0.022330 -0.028136 0.000269 0.006661 -0.006399 0.073332
#
#
# Mechanical properties :
#
#
# Convention : Reuss Voigt Hill
#
# Bulk Modulus (GPa) = 18.57192 71.03725 44.80458
# Shear Modulus (GPa) = 23.65681 39.96574 31.81128
#
# Velocity S-wave (km/s) = 3.12712 4.06453 3.62624
# Velocity P-wave (km/s) = 4.55142 7.16878 6.00445
#
# Compressibility (1/GPa) = 0.05384473
#
# Stress axis : x y z
#
# Youngs Moduli (GPa) = 49.03186 41.61812 99.48486
#
# Poissons Ratio (x) = -0.22678 0.43319
# Poissons Ratio (y) = -0.26718 0.14025
# Poissons Ratio (z) = 0.21350 0.05867
#
# Static dielectric constant tensor:
#      x y z
#    x 5.160500 0.453050 -0.603390 
#    y 0.453050 4.086440 0.041430 
#    z -0.603390 0.041430 4.868780 
# 
# 
# High freq. dielectric constant tensor:
#      x y z
#    x 1.966480 0.022230 -0.010250 
#    y 0.022230 1.932330 0.020570 
#    z -0.010250 0.020570 1.979440 
# 
# From -- ./inp_files/34787.got.cif
#   From: 2010.06.25/outbox.cif.g09.slc.cpg/sg2_18_cif.got.tgz:34787.got - 2010.06.27 13:26:56.
