data_PCOD8005831
_publ_section_title
;
Structure prediction by ZEFSAII (Michael W. Deem and Ramdas Pophale) SiO2 
 PCOD8005831
Probable space group: P -1
;
_chemical_formula_sum "Si O2"
_cell_formula_units_Z 16
_cell_length_a 8.674004
_cell_length_b 11.636961
_cell_length_c 17.342961
_cell_angle_alpha 135.306253
_cell_angle_beta 146.423487
_cell_angle_gamma 56.025995
_cell_volume 678.400851
_symmetry_space_group_name_H-M "P -1"
_symmetry_group_IT_number 2
_symmetry_cell_setting 'triclinic'
loop_
_space_group_symop_operation_xyz
x,y,z
-x,-y,-z
loop_
_atom_site_type_symbol
_atom_site_label
_atom_site_fract_x
_atom_site_fract_y
_atom_site_fract_z
Si Si1 0.261901 0.295330 0.720589
Si Si2 0.759636 0.949450 0.534205
Si Si3 0.740723 0.920627 0.107088
Si Si4 0.696758 0.215513 0.520395
Si Si5 0.396895 0.950025 0.168617
Si Si6 0.184931 0.157964 0.061146
Si Si7 0.348161 0.432501 0.048158
Si Si8 0.726971 0.493916 0.775548
O O1 0.388081 0.184700 0.787863
O O2 0.413880 0.479013 0.866431
O O3 0.933973 0.304176 0.605517
O O4 0.312590 0.220453 0.621209
O O5 0.846919 0.085596 0.571736
O O6 0.043921 0.943734 0.698694
O O7 0.500000 0.000000 0.500000
O O8 0.913934 0.854035 0.074810
O O9 0.631600 0.764132 0.039488
O O10 0.500000 0.000000 0.000000
O O11 0.573619 0.346125 0.590086
O O12 0.449584 0.115076 0.321723
O O13 0.405965 0.024883 0.119370
O O14 0.087657 0.866153 0.011473
O O15 0.325434 0.342981 0.217101
O O16 0.398114 0.502302 0.188941
O O17 0.055751 0.471019 0.907658
#
# Coordination Sequence:
#
# PCOD8005831 Si02
#       8
#     2   2   2   2   2   2   2   2
#     4  11  23  39  64  93 126 159 204 265 310 368
#     4  11  22  40  68  95 122 170 219 254 304 378
#     4  11  24  40  67  94 124 160 209 267 315 362
#     4  11  23  37  63  93 126 162 206 259 314 362
#     4  10  21  39  60  88 125 163 200 246 313 377
#     4  10  22  39  62  89 123 162 203 256 308 373
#     4  10  21  41  64  89 122 161 215 254 307 375
#     4  10  20  39  63  88 119 164 212 255 298 371
#
# _framework density 23.584875
#
# number of rings (size 3 to 8) (size 9 to 14) (size 15 to 20)
#    0.000    1.500    2.500    3.750    5.250    1.000 
#    4.500    0.625    2.750    0.000    0.000    0.000 
#    0.000    0.000    0.000    0.000    0.000    0.000 
#
# Total GULP energy -198298.933301 kJ/mol
# GULP energy per Si atom -12393.683331 kJ/mol
# Density = 2.353120 g / cm^3
# Si number density = 23.584875 Si / 1000 Ang^3
#
#
#
# Elastic Constant Matrix: (Units=GPa)
#
#
# Indices 1 2 3 4 5 6 
#
# 1 48.4624 7.5316 16.5320 2.1441 1.7474 20.3632
# 2 7.5316 122.2667 28.5212 3.3578 3.4822 25.2472
# 3 16.5320 28.5212 79.8744 -1.2488 -2.0904 19.8363
# 4 2.1441 3.3578 -1.2488 30.6752 3.1611 4.1720
# 5 1.7474 3.4822 -2.0904 3.1611 38.8563 -0.6102
# 6 20.3632 25.2472 19.8363 4.1720 -0.6102 32.2989
#
#
#
# Elastic Compliance Matrix: (Units=1/GPa)
#
#
# Indices 1 2 3 4 5 6 
#
# 1 0.029102 0.002748 -0.002288 0.000388 -0.002011 -0.019178
# 2 0.002748 0.010305 -0.002185 -0.000127 -0.001287 -0.008454
# 3 -0.002288 -0.002185 0.015454 0.001830 0.000878 -0.006561
# 4 0.000388 -0.000127 0.001830 0.033715 -0.002740 -0.005676
# 5 -0.002011 -0.001287 0.000878 -0.002740 0.026252 0.002584
# 6 -0.019178 -0.008454 -0.006561 -0.005676 0.002584 0.054471
#
#
# Mechanical properties :
#
#
# Convention : Reuss Voigt Hill
#
# Bulk Modulus (GPa) = 19.45101 39.53033 29.49067
# Shear Modulus (GPa) = 26.33143 33.56733 29.94938
#
# Velocity S-wave (km/s) = 3.34496 3.77670 3.56737
# Velocity P-wave (km/s) = 4.81493 5.98458 5.43133
#
# Compressibility (1/GPa) = 0.05141122
#
# Stress axis : x y z
#
# Youngs Moduli (GPa) = 34.36193 97.04050 64.70716
#
# Poissons Ratio (x) = -0.26666 0.14807
# Poissons Ratio (y) = -0.09443 0.14136
# Poissons Ratio (z) = 0.07863 0.21199
#
# Static dielectric constant tensor:
#      x y z
#    x 5.020090 0.275060 -0.676030 
#    y 0.275060 4.263900 0.109730 
#    z -0.676030 0.109730 4.292790 
# 
# 
# High freq. dielectric constant tensor:
#      x y z
#    x 1.944290 0.017080 -0.014630 
#    y 0.017080 1.920670 0.014910 
#    z -0.014630 0.014910 1.922500 
# 
# From -- ./inp_files/263567.got.cif
#   From: 2010.06.25/outbox.cif.g09.slc.cpg/sg2_132_cif.got.tgz:263567.got - 2010.06.27 13:26:56.
