data_PCOD8005198
_publ_section_title
;
Structure prediction by ZEFSAII (Michael W. Deem and Ramdas Pophale) SiO2 
 PCOD8005198
Probable space group: P -1
;
_chemical_formula_sum "Si O2"
_cell_formula_units_Z 14
_cell_length_a 9.220464
_cell_length_b 14.684609
_cell_length_c 14.193997
_cell_angle_alpha 29.882413
_cell_angle_beta 104.426563
_cell_angle_gamma 124.893939
_cell_volume 625.858901
_symmetry_space_group_name_H-M "P -1"
_symmetry_group_IT_number 2
_symmetry_cell_setting 'triclinic'
loop_
_space_group_symop_operation_xyz
x,y,z
-x,-y,-z
loop_
_atom_site_type_symbol
_atom_site_label
_atom_site_fract_x
_atom_site_fract_y
_atom_site_fract_z
Si Si1 0.806220 0.770748 0.606630
Si Si2 0.771944 0.006756 0.829808
Si Si3 0.298768 0.073645 0.909575
Si Si4 0.226024 0.595438 0.324872
Si Si5 0.696490 0.279511 0.986489
Si Si6 0.614085 0.569014 0.056911
Si Si7 0.922017 0.116481 0.150859
O O1 0.773125 0.523792 0.840342
O O2 0.579760 0.671404 0.688793
O O3 0.860735 0.878096 0.412623
O O4 0.000000 0.000000 0.500000
O O5 0.750012 0.868639 0.049533
O O6 0.570754 0.974446 0.826951
O O7 0.739939 0.856262 0.866243
O O8 0.012150 0.315640 0.589616
O O9 0.552877 0.326968 0.686858
O O10 0.138362 0.982841 0.878883
O O11 0.260439 0.830927 0.156901
O O12 0.195814 0.583447 0.219685
O O13 0.795791 0.173331 0.128277
O O14 0.500000 0.500000 0.000000
O O15 0.813788 0.602050 0.050363
#
# Coordination Sequence:
#
# PCOD8005198 Si02
#       7
#     2   2   2   2   2   2   2
#     4  11  23  43  66  86 127 170 209 265 324 364
#     4  10  20  38  65  92 133 171 206 262 322 374
#     4   9  20  35  59 100 129 161 211 261 315 391
#     4   9  17  35  63  92 135 166 199 262 324 373
#     4   9  22  40  62  97 125 164 216 257 312 386
#     4  11  24  43  62  91 127 169 219 266 310 376
#     4  11  23  42  67  93 130 164 212 269 317 385
#
# _framework density 22.369260000000001
#
# number of rings (size 3 to 8) (size 9 to 14) (size 15 to 20)
#    0.000    2.000    1.429    2.143    0.000    4.571 
#    0.000   10.714    0.000    0.000    0.000    0.000 
#    0.000    0.000    0.000    0.000    0.000    0.000 
#
# Total GULP energy -173451.713846 kJ/mol
# GULP energy per Si atom -12389.408132 kJ/mol
# Density = 2.231835 g / cm^3
# Si number density = 22.369260 Si / 1000 Ang^3
#
#
#
# Elastic Constant Matrix: (Units=GPa)
#
#
# Indices 1 2 3 4 5 6 
#
# 1 97.7886 45.3452 47.4841 -6.9484 -27.5140 18.4407
# 2 45.3452 138.8335 34.6918 -6.5978 -9.9598 9.6465
# 3 47.4841 34.6918 98.8588 -15.4021 -34.8199 8.5128
# 4 -6.9484 -6.5978 -15.4021 34.2522 4.1508 -7.9993
# 5 -27.5140 -9.9598 -34.8199 4.1508 42.3797 -6.8368
# 6 18.4407 9.6465 8.5128 -7.9993 -6.8368 35.8696
#
#
#
# Elastic Compliance Matrix: (Units=1/GPa)
#
#
# Indices 1 2 3 4 5 6 
#
# 1 0.016592 -0.003563 -0.004525 -0.001359 0.005419 -0.005768
# 2 -0.003563 0.008759 -0.001990 0.000220 -0.001973 -0.000378
# 3 -0.004525 -0.001990 0.017484 0.005736 0.010726 0.002036
# 4 -0.001359 0.000220 0.005736 0.032953 0.001779 0.006966
# 5 0.005419 -0.001973 0.010726 0.001779 0.035675 0.002396
# 6 -0.005768 -0.000378 0.002036 0.006966 0.002396 0.032473
#
#
# Mechanical properties :
#
#
# Convention : Reuss Voigt Hill
#
# Bulk Modulus (GPa) = 44.09801 65.61369 54.85585
# Shear Modulus (GPa) = 29.12869 36.36428 32.74649
#
# Velocity S-wave (km/s) = 3.61248 4.03629 3.83025
# Velocity P-wave (km/s) = 6.09561 7.14968 6.64359
#
# Compressibility (1/GPa) = 0.02267676
#
# Stress axis : x y z
#
# Youngs Moduli (GPa) = 60.27118 114.16480 57.19618
#
# Poissons Ratio (x) = 0.40681 0.25883
# Poissons Ratio (y) = 0.21477 0.11383
# Poissons Ratio (z) = 0.27275 0.22721
#
# Static dielectric constant tensor:
#      x y z
#    x 4.478740 -0.130060 -0.228250 
#    y -0.130060 4.088140 -0.063090 
#    z -0.228250 -0.063090 3.938480 
# 
# 
# High freq. dielectric constant tensor:
#      x y z
#    x 1.882360 -0.007480 -0.035430 
#    y -0.007480 1.887680 -0.010100 
#    z -0.035430 -0.010100 1.857320 
# 
# From -- ./inp_files/202759.got.cif
#   From: 2010.06.25/outbox.cif.g09.slc.cpg/sg2_102_cif.got.tgz:202759.got - 2010.06.27 13:26:56.
