data_PCOD8005789
_publ_section_title
;
Structure prediction by ZEFSAII (Michael W. Deem and Ramdas Pophale) SiO2 
 PCOD8005789
Probable space group: P -1
;
_chemical_formula_sum "Si O2"
_cell_formula_units_Z 16
_cell_length_a 11.994084
_cell_length_b 7.730532
_cell_length_c 14.101702
_cell_angle_alpha 137.613606
_cell_angle_beta 99.043229
_cell_angle_gamma 103.003740
_cell_volume 747.534922
_symmetry_space_group_name_H-M "P -1"
_symmetry_group_IT_number 2
_symmetry_cell_setting 'triclinic'
loop_
_space_group_symop_operation_xyz
x,y,z
-x,-y,-z
loop_
_atom_site_type_symbol
_atom_site_label
_atom_site_fract_x
_atom_site_fract_y
_atom_site_fract_z
Si Si1 0.297181 0.327284 0.968316
Si Si2 0.498833 0.296873 0.503960
Si Si3 0.219668 0.591571 0.407886
Si Si4 0.463419 0.727716 0.987459
Si Si5 0.232522 0.701168 0.239745
Si Si6 0.139936 0.145602 0.382547
Si Si7 0.394371 0.610065 0.722390
Si Si8 0.901067 0.165918 0.380144
O O1 0.420601 0.343393 0.044839
O O2 0.215256 0.434658 0.062943
O O3 0.349312 0.514819 0.955787
O O4 0.192627 0.992029 0.786236
O O5 0.500000 0.500000 0.500000
O O6 0.625539 0.269368 0.508774
O O7 0.483285 0.458121 0.660247
O O8 0.383820 0.955785 0.352769
O O9 0.182497 0.553368 0.276796
O O10 0.149135 0.283031 0.333838
O O11 0.184994 0.834930 0.542484
O O12 0.383530 0.672654 0.856788
O O13 0.528566 0.057264 0.176952
O O14 0.148429 0.848730 0.253867
O O15 0.253894 0.399603 0.567704
O O16 0.995710 0.033575 0.363095
O O17 0.000000 0.500000 0.500000
#
# Coordination Sequence:
#
# PCOD8005789 Si02
#       8
#     2   2   2   2   2   2   2   2
#     4  11  24  39  62  95 131 163 212 269 321 380
#     4  11  20  35  63  91 132 166 205 261 327 378
#     4  11  22  40  66  94 126 173 216 260 322 380
#     4  10  22  36  62  94 134 161 209 264 331 381
#     4  11  24  38  65  97 129 166 214 269 323 383
#     4  10  23  44  66  91 133 170 225 258 314 384
#     4  10  20  39  62  95 127 171 205 263 328 383
#     4  10  24  44  69  88 128 179 215 266 316 378
#
# _framework density 21.403684999999999
#
# number of rings (size 3 to 8) (size 9 to 14) (size 15 to 20)
#    0.000    1.500    2.500    3.375    7.000    1.000 
#    0.000    2.500    0.000    0.000    0.000    0.000 
#    0.000    0.000    0.000    0.000    0.000    0.000 
#
# Total GULP energy -198290.220571 kJ/mol
# GULP energy per Si atom -12393.138786 kJ/mol
# Density = 2.135497 g / cm^3
# Si number density = 21.403685 Si / 1000 Ang^3
#
#
#
# Elastic Constant Matrix: (Units=GPa)
#
#
# Indices 1 2 3 4 5 6 
#
# 1 149.3935 27.4129 22.5409 -10.3170 -26.8814 8.2475
# 2 27.4129 91.9613 34.4010 -10.9968 -0.0814 -7.1537
# 3 22.5409 34.4010 99.2755 -9.9487 -20.1416 6.9211
# 4 -10.3170 -10.9968 -9.9487 21.1668 -0.0431 -5.4210
# 5 -26.8814 -0.0814 -20.1416 -0.0431 28.3668 -0.9648
# 6 8.2475 -7.1537 6.9211 -5.4210 -0.9648 19.7658
#
#
#
# Elastic Compliance Matrix: (Units=1/GPa)
#
#
# Indices 1 2 3 4 5 6 
#
# 1 0.009245 -0.003426 0.001617 0.002342 0.009749 -0.004546
# 2 -0.003426 0.015843 -0.006309 0.006335 -0.007305 0.010753
# 3 0.001617 -0.006309 0.015094 0.002870 0.012002 -0.006871
# 4 0.002342 0.006335 0.002870 0.057194 0.004915 0.016237
# 5 0.009749 -0.007305 0.012002 0.004915 0.052762 -0.006991
# 6 -0.004546 0.010753 -0.006871 0.016237 -0.006991 0.062899
#
#
# Mechanical properties :
#
#
# Convention : Reuss Voigt Hill
#
# Bulk Modulus (GPa) = 41.75898 56.59330 49.17614
# Shear Modulus (GPa) = 21.07454 30.94492 26.00973
#
# Velocity S-wave (km/s) = 3.14127 3.80646 3.48975
# Velocity P-wave (km/s) = 5.71921 6.76884 6.26604
#
# Compressibility (1/GPa) = 0.02394695
#
# Stress axis : x y z
#
# Youngs Moduli (GPa) = 108.16469 63.11916 66.25312
#
# Poissons Ratio (x) = 0.21624 -0.10716
# Poissons Ratio (y) = 0.37056 0.41800
# Poissons Ratio (z) = -0.17495 0.39822
#
# Static dielectric constant tensor:
#      x y z
#    x 4.804840 -0.180000 -0.278990 
#    y -0.180000 4.100310 0.014200 
#    z -0.278990 0.014200 3.751780 
# 
# 
# High freq. dielectric constant tensor:
#      x y z
#    x 1.848710 -0.000380 -0.018960 
#    y -0.000380 1.832120 0.000940 
#    z -0.018960 0.000940 1.827380 
# 
# From -- ./inp_files/516395.got.cif
#   From: 2010.06.25/outbox.cif.g09.slc.cpg/sg2_259_cif.got.tgz:516395.got - 2010.06.27 13:26:56.
