data_PCOD8005615
_publ_section_title
;
Structure prediction by ZEFSAII (Michael W. Deem and Ramdas Pophale) SiO2 
 PCOD8005615
Probable space group: P -1
;
_chemical_formula_sum "Si O2"
_cell_formula_units_Z 16
_cell_length_a 11.427196
_cell_length_b 18.171490
_cell_length_c 14.237652
_cell_angle_alpha 148.129377
_cell_angle_beta 30.358596
_cell_angle_gamma 128.901662
_cell_volume 725.554168
_symmetry_space_group_name_H-M "P -1"
_symmetry_group_IT_number 2
_symmetry_cell_setting 'triclinic'
loop_
_space_group_symop_operation_xyz
x,y,z
-x,-y,-z
loop_
_atom_site_type_symbol
_atom_site_label
_atom_site_fract_x
_atom_site_fract_y
_atom_site_fract_z
Si Si1 0.553081 0.089887 0.789114
Si Si2 0.995904 0.429932 0.185360
Si Si3 0.483700 0.853769 0.706880
Si Si4 0.046071 0.148082 0.104237
Si Si5 0.765276 0.567636 0.302108
Si Si6 0.514701 0.374411 0.703942
Si Si7 0.522527 0.586456 0.777743
Si Si8 0.954122 0.887606 0.148987
O O1 0.589295 0.976826 0.730038
O O2 0.731672 0.016741 0.497806
O O3 0.267885 0.154407 0.020840
O O4 0.608687 0.232013 0.941950
O O5 0.864192 0.535966 0.303986
O O6 0.828450 0.519946 0.486981
O O7 0.289581 0.405514 0.968986
O O8 0.976441 0.268086 0.010741
O O9 0.644095 0.750982 0.570303
O O10 0.508181 0.740891 0.482150
O O11 0.193527 0.934650 0.028381
O O12 0.794948 0.295149 0.466565
O O13 0.123940 0.141713 0.933884
O O14 0.000000 0.000000 0.000000
O O15 0.572885 0.488225 0.323076
O O16 0.000000 0.500000 0.000000
O O17 0.464637 0.534873 0.863768
#
# Coordination Sequence:
#
# PCOD8005615 Si02
#       8
#     2   2   2   2   2   2   2   2
#     4  12  24  41  64  93 138 160 200 275 315 350
#     4  12  20  41  73  87 122 173 214 254 307 376
#     4  10  20  39  60  94 125 160 216 253 294 385
#     4  11  20  41  68  92 123 170 214 249 305 383
#     4  11  20  41  71  88 121 173 212 252 311 379
#     4  10  20  40  62  91 125 159 219 252 292 384
#     4  11  25  40  60 101 129 156 212 267 313 364
#     4  11  21  39  68  91 121 170 220 242 303 387
#
# _framework density 22.052109000000002
#
# number of rings (size 3 to 8) (size 9 to 14) (size 15 to 20)
#    0.000    1.000   10.000    0.750    0.000    1.500 
#    0.000    3.750    0.000    0.000    0.000    0.000 
#    0.000    0.000    0.000    0.000    0.000    0.000 
#
# Total GULP energy -198350.840402 kJ/mol
# GULP energy per Si atom -12396.927525 kJ/mol
# Density = 2.200192 g / cm^3
# Si number density = 22.052109 Si / 1000 Ang^3
#
#
#
# Elastic Constant Matrix: (Units=GPa)
#
#
# Indices 1 2 3 4 5 6 
#
# 1 37.4288 13.0365 18.6271 6.0387 -16.1500 -7.1497
# 2 13.0365 132.0284 57.1136 7.3088 0.5170 -9.2261
# 3 18.6271 57.1136 111.1902 -5.1162 -7.4079 4.5044
# 4 6.0387 7.3088 -5.1162 53.4906 -3.9113 -3.9379
# 5 -16.1500 0.5170 -7.4079 -3.9113 24.3758 3.6084
# 6 -7.1497 -9.2261 4.5044 -3.9379 3.6084 17.5198
#
#
#
# Elastic Compliance Matrix: (Units=1/GPa)
#
#
# Indices 1 2 3 4 5 6 
#
# 1 0.043515 -0.000774 -0.005902 -0.002595 0.024683 0.013201
# 2 -0.000774 0.010938 -0.006136 -0.001737 -0.003992 0.007453
# 3 -0.005902 -0.006136 0.013750 0.002305 0.002114 -0.009092
# 4 -0.002595 -0.001737 0.002305 0.019696 0.001963 0.001456
# 5 0.024683 -0.003992 0.002114 0.001963 0.059056 -0.004295
# 6 0.013201 0.007453 -0.009092 0.001456 -0.004295 0.069940
#
#
# Mechanical properties :
#
#
# Convention : Reuss Voigt Hill
#
# Bulk Modulus (GPa) = 23.48675 50.91131 37.19903
# Shear Modulus (GPa) = 19.47716 31.86859 25.67287
#
# Velocity S-wave (km/s) = 2.97515 3.80564 3.41573
# Velocity P-wave (km/s) = 4.74085 6.51517 5.69751
#
# Compressibility (1/GPa) = 0.04257720
#
# Stress axis : x y z
#
# Youngs Moduli (GPa) = 22.98079 91.42685 72.72968
#
# Poissons Ratio (x) = 0.07078 0.42924
# Poissons Ratio (y) = 0.01779 0.44630
# Poissons Ratio (z) = 0.13563 0.56103
#
# Static dielectric constant tensor:
#      x y z
#    x 3.104710 0.438310 -0.515980 
#    y 0.438310 4.113220 -0.219250 
#    z -0.515980 -0.219250 4.285830 
# 
# 
# High freq. dielectric constant tensor:
#      x y z
#    x 1.818240 -0.019420 -0.025950 
#    y -0.019420 1.883290 -0.011640 
#    z -0.025950 -0.011640 1.872890 
# 
# From -- ./inp_files/492989.got.cif
#   From: 2010.06.25/outbox.cif.g09.slc.cpg/sg2_247_cif.got.tgz:492989.got - 2010.06.27 13:26:56.
