data_PCOD8005670
_publ_section_title
;
Structure prediction by ZEFSAII (Michael W. Deem and Ramdas Pophale) SiO2 
 PCOD8005670
Probable space group: P -1
;
_chemical_formula_sum "Si O2"
_cell_formula_units_Z 16
_cell_length_a 29.456146
_cell_length_b 11.897359
_cell_length_c 9.668000
_cell_angle_alpha 127.946899
_cell_angle_beta 33.363935
_cell_angle_gamma 152.118562
_cell_volume 764.682454
_symmetry_space_group_name_H-M "P -1"
_symmetry_group_IT_number 2
_symmetry_cell_setting 'triclinic'
loop_
_space_group_symop_operation_xyz
x,y,z
-x,-y,-z
loop_
_atom_site_type_symbol
_atom_site_label
_atom_site_fract_x
_atom_site_fract_y
_atom_site_fract_z
Si Si1 0.177188 0.430015 0.806372
Si Si2 0.327394 0.320473 0.954133
Si Si3 0.313516 0.151059 0.597199
Si Si4 0.671714 0.373128 0.723632
Si Si5 0.296272 0.822793 0.293368
Si Si6 0.665651 0.798549 0.864058
Si Si7 0.828944 0.320015 0.786252
Si Si8 0.819280 0.855316 0.298323
O O1 0.276896 0.588298 0.532878
O O2 0.237432 0.391093 0.723231
O O3 0.194870 0.601814 0.973372
O O4 0.996501 0.128822 0.996394
O O5 0.235080 0.105076 0.900198
O O6 0.501867 0.609201 0.669521
O O7 0.254921 0.366570 0.217449
O O8 0.324976 0.207426 0.001017
O O9 0.299211 0.242850 0.579393
O O10 0.233747 0.881735 0.559021
O O11 0.740678 0.355799 0.638296
O O12 0.482159 0.099612 0.995755
O O13 0.195513 0.644697 0.275518
O O14 0.807768 0.917364 0.522830
O O15 0.689178 0.998275 0.918174
O O16 0.500000 0.500000 0.000000
O O17 0.000000 0.500000 0.500000
#
# Coordination Sequence:
#
# PCOD8005670 Si02
#       8
#     2   2   2   2   2   2   2   2
#     4  11  25  41  64  94 129 170 210 266 327 387
#     4  10  21  36  64  91 120 165 214 262 309 382
#     4  10  20  39  61  90 122 165 214 258 317 375
#     4  10  22  42  60  94 132 164 213 262 329 380
#     4  10  22  41  64  90 133 168 204 276 318 377
#     4  12  21  42  69  92 125 172 219 270 315 379
#     4  12  25  44  66  96 129 168 218 268 326 386
#     4  11  22  43  64  88 132 169 212 268 323 377
#
# _framework density 20.923718000000001
#
# number of rings (size 3 to 8) (size 9 to 14) (size 15 to 20)
#    0.000    1.250    5.000    0.750    3.500    0.500 
#    2.250    1.875    0.000    0.000    0.000    0.000 
#    0.000    0.000    0.000    0.000    0.000    0.000 
#
# Total GULP energy -198409.590073 kJ/mol
# GULP energy per Si atom -12400.599380 kJ/mol
# Density = 2.087610 g / cm^3
# Si number density = 20.923718 Si / 1000 Ang^3
#
#
#
# Elastic Constant Matrix: (Units=GPa)
#
#
# Indices 1 2 3 4 5 6 
#
# 1 143.0262 54.9765 49.3045 18.4791 8.6671 -11.9048
# 2 54.9765 94.8441 48.2605 25.8434 8.0620 -15.0641
# 3 49.3045 48.2605 97.0202 34.8948 13.8669 -0.5325
# 4 18.4791 25.8434 34.8948 41.5188 2.7217 0.3802
# 5 8.6671 8.0620 13.8669 2.7217 31.7370 8.1339
# 6 -11.9048 -15.0641 -0.5325 0.3802 8.1339 32.5332
#
#
#
# Elastic Compliance Matrix: (Units=1/GPa)
#
#
# Indices 1 2 3 4 5 6 
#
# 1 0.009661 -0.003832 -0.003149 0.000770 -0.000845 0.001912
# 2 -0.003832 0.018100 -0.004564 -0.005596 -0.003060 0.007735
# 3 -0.003149 -0.004564 0.018947 -0.011347 -0.004875 -0.001604
# 4 0.000770 -0.005596 -0.011347 0.036534 0.004044 -0.003933
# 5 -0.000845 -0.003060 -0.004875 0.004044 0.037156 -0.011143
# 6 0.001912 0.007735 -0.001604 -0.003933 -0.011143 0.037824
#
#
# Mechanical properties :
#
#
# Convention : Reuss Voigt Hill
#
# Bulk Modulus (GPa) = 42.34021 71.10817 56.72419
# Shear Modulus (GPa) = 26.42909 33.31439 29.87174
#
# Velocity S-wave (km/s) = 3.55789 3.99455 3.78252
# Velocity P-wave (km/s) = 6.09570 7.43865 6.80040
#
# Compressibility (1/GPa) = 0.02361821
#
# Stress axis : x y z
#
# Youngs Moduli (GPa) = 103.50779 55.24724 52.77886
#
# Poissons Ratio (x) = 0.21171 0.16621
# Poissons Ratio (y) = 0.39664 0.24088
# Poissons Ratio (z) = 0.32596 0.25215
#
# Static dielectric constant tensor:
#      x y z
#    x 3.802320 -0.137040 0.044880 
#    y -0.137040 3.772200 0.279850 
#    z 0.044880 0.279850 3.925320 
# 
# 
# High freq. dielectric constant tensor:
#      x y z
#    x 1.823010 -0.011700 0.006410 
#    y -0.011700 1.806720 0.020080 
#    z 0.006410 0.020080 1.819760 
# 
# From -- ./inp_files/358624.got.cif
#   From: 2010.06.25/outbox.cif.g09.slc.cpg/sg2_180_cif.got.tgz:358624.got - 2010.06.27 13:26:56.
