data_PCOD8005188
_publ_section_title
;
Structure prediction by ZEFSAII (Michael W. Deem and Ramdas Pophale) SiO2 
 PCOD8005188
Probable space group: P -1
;
_chemical_formula_sum "Si O2"
_cell_formula_units_Z 16
_cell_length_a 13.050217
_cell_length_b 11.688540
_cell_length_c 8.731403
_cell_angle_alpha 85.397200
_cell_angle_beta 127.864220
_cell_angle_gamma 123.022782
_cell_volume 813.978884
_symmetry_space_group_name_H-M "P -1"
_symmetry_group_IT_number 2
_symmetry_cell_setting 'triclinic'
loop_
_space_group_symop_operation_xyz
x,y,z
-x,-y,-z
loop_
_atom_site_type_symbol
_atom_site_label
_atom_site_fract_x
_atom_site_fract_y
_atom_site_fract_z
Si Si1 0.673659 0.581177 0.531536
Si Si2 0.905540 0.451850 0.078688
Si Si3 0.847085 0.777148 0.943741
Si Si4 0.552292 0.342439 0.655510
Si Si5 0.856143 0.019461 0.015104
Si Si6 0.065805 0.741783 0.361016
Si Si7 0.363680 0.006943 0.439981
Si Si8 0.976766 0.257817 0.320361
O O1 0.587656 0.409029 0.506052
O O2 0.555951 0.619084 0.356505
O O3 0.828976 0.648252 0.555971
O O4 0.708792 0.628751 0.741209
O O5 0.892335 0.317694 0.150155
O O6 0.022000 0.588524 0.286858
O O7 0.720894 0.403102 0.895797
O O8 0.000000 0.500000 0.000000
O O9 0.941272 0.754179 0.155291
O O10 0.776077 0.847307 0.966138
O O11 0.957249 0.886194 0.891619
O O12 0.437127 0.165683 0.556210
O O13 0.754319 0.043634 0.807628
O O14 0.871477 0.086856 0.188915
O O15 0.035144 0.736644 0.511901
O O16 0.257589 0.882764 0.487613
O O17 0.500000 0.000000 0.500000
#
# Coordination Sequence:
#
# PCOD8005188 Si02
#       8
#     2   2   2   2   2   2   2   2
#     4  10  20  38  65  92 119 154 210 260 299 355
#     4  12  21  42  66  90 116 164 216 249 291 369
#     4   9  16  36  60  85 114 153 208 245 285 354
#     4  11  21  37  67  93 118 154 212 263 297 344
#     4   9  18  34  59  87 115 154 203 247 286 357
#     4  11  24  39  62  91 124 163 198 253 306 369
#     4  11  22  38  62  91 121 158 211 251 303 361
#     4  11  23  39  63  91 125 162 204 247 312 368
#
# _framework density 19.656528999999999
#
# number of rings (size 3 to 8) (size 9 to 14) (size 15 to 20)
#    0.000    1.500    3.750    3.375    1.750    0.500 
#    0.000    3.125    0.000    0.000    0.000    0.000 
#    0.000    0.000    0.000    0.000    0.000    0.000 
#
# Total GULP energy -198255.853641 kJ/mol
# GULP energy per Si atom -12390.990853 kJ/mol
# Density = 1.961179 g / cm^3
# Si number density = 19.656529 Si / 1000 Ang^3
#
#
#
# Elastic Constant Matrix: (Units=GPa)
#
#
# Indices 1 2 3 4 5 6 
#
# 1 120.4523 45.3448 50.7205 -2.5236 1.2706 -1.1831
# 2 45.3448 77.2397 25.0688 13.2633 -5.6531 -5.1886
# 3 50.7205 25.0688 75.1336 2.2423 -5.3628 4.9547
# 4 -2.5236 13.2633 2.2423 29.3414 -5.4094 0.1511
# 5 1.2706 -5.6531 -5.3628 -5.4094 49.2258 2.0846
# 6 -1.1831 -5.1886 4.9547 0.1511 2.0846 32.4796
#
#
#
# Elastic Compliance Matrix: (Units=1/GPa)
#
#
# Indices 1 2 3 4 5 6 
#
# 1 0.014131 -0.006671 -0.007600 0.004533 -0.001490 0.000683
# 2 -0.006671 0.019267 -0.001784 -0.008964 0.001075 0.003080
# 3 -0.007600 -0.001784 0.019459 -0.000916 0.002166 -0.003665
# 4 0.004533 -0.008964 -0.000916 0.039177 0.003123 -0.001510
# 5 -0.001490 0.001075 0.002166 0.003123 0.021123 -0.001583
# 6 0.000683 0.003080 -0.003665 -0.001510 -0.001583 0.031973
#
#
# Mechanical properties :
#
#
# Convention : Reuss Voigt Hill
#
# Bulk Modulus (GPa) = 48.20040 57.23264 52.71652
# Shear Modulus (GPa) = 27.15092 32.32216 29.73654
#
# Velocity S-wave (km/s) = 3.72057 4.05945 3.89370
# Velocity P-wave (km/s) = 6.55983 7.15205 6.86233
#
# Compressibility (1/GPa) = 0.02074671
#
# Stress axis : x y z
#
# Youngs Moduli (GPa) = 70.76619 51.90292 51.38925
#
# Poissons Ratio (x) = 0.34623 0.39058
# Poissons Ratio (y) = 0.47206 0.09168
# Poissons Ratio (z) = 0.53785 0.09260
#
# Static dielectric constant tensor:
#      x y z
#    x 3.602320 -0.318430 0.098720 
#    y -0.318430 4.264350 0.285030 
#    z 0.098720 0.285030 3.401830 
# 
# 
# High freq. dielectric constant tensor:
#      x y z
#    x 1.757980 -0.027420 0.021310 
#    y -0.027420 1.770990 0.017480 
#    z 0.021310 0.017480 1.753980 
# 
# From -- ./inp_files/262410.got.cif
#   From: 2010.06.25/outbox.cif.g09.slc.cpg/sg2_132_cif.got.tgz:262410.got - 2010.06.27 13:26:56.
