data_PCOD8005678
_publ_section_title
;
Structure prediction by ZEFSAII (Michael W. Deem and Ramdas Pophale) SiO2 
 PCOD8005678
Probable space group: P -1
;
_chemical_formula_sum "Si O2"
_cell_formula_units_Z 14
_cell_length_a 15.070330
_cell_length_b 14.795880
_cell_length_c 5.300903
_cell_angle_alpha 70.889845
_cell_angle_beta 100.740850
_cell_angle_gamma 46.678710
_cell_volume 651.324710
_symmetry_space_group_name_H-M "P -1"
_symmetry_group_IT_number 2
_symmetry_cell_setting 'triclinic'
loop_
_space_group_symop_operation_xyz
x,y,z
-x,-y,-z
loop_
_atom_site_type_symbol
_atom_site_label
_atom_site_fract_x
_atom_site_fract_y
_atom_site_fract_z
Si Si1 0.725027 0.614487 0.075182
Si Si2 0.765674 0.420359 0.901907
Si Si3 0.519824 0.255597 0.843255
Si Si4 0.287118 0.075223 0.942546
Si Si5 0.257278 0.203129 0.299821
Si Si6 0.409916 0.604378 0.107719
Si Si7 0.013584 0.653712 0.217049
O O1 0.557606 0.744796 0.984523
O O2 0.853171 0.528698 0.434437
O O3 0.783126 0.464651 0.128290
O O4 0.719998 0.701940 0.783318
O O5 0.609289 0.590355 0.541182
O O6 0.748418 0.321579 0.041672
O O7 0.910097 0.316932 0.893816
O O8 0.617276 0.257874 0.025849
O O9 0.632377 0.095553 0.882736
O O10 0.320606 0.111968 0.682145
O O11 0.105815 0.210684 0.754692
O O12 0.348563 0.078051 0.223420
O O13 0.077802 0.329326 0.059058
O O14 0.500000 0.500000 0.500000
O O15 0.500000 0.500000 0.000000
#
# Coordination Sequence:
#
# PCOD8005678 Si02
#       7
#     2   2   2   2   2   2   2
#     4  11  21  36  64  88 116 158 203 249 286 345
#     4  10  21  37  64  92 117 148 205 248 294 346
#     4  10  23  39  61  89 121 155 196 246 302 348
#     4  10  24  41  57  85 126 163 191 239 295 358
#     4  10  24  39  60  85 123 160 202 235 293 348
#     4  10  20  39  61  91 116 149 193 251 295 344
#     4   9  22  39  58  87 123 156 200 242 290 349
#
# _framework density 21.494653
#
# number of rings (size 3 to 8) (size 9 to 14) (size 15 to 20)
#    0.857    1.143    1.429    1.286    6.000    2.286 
#    0.000    0.714    0.000    1.714    0.000    0.000 
#    0.000    0.000    0.000    0.000    0.000    0.000 
#
# Total GULP energy -173508.092991 kJ/mol
# GULP energy per Si atom -12393.435214 kJ/mol
# Density = 2.144573 g / cm^3
# Si number density = 21.494653 Si / 1000 Ang^3
#
#
#
# Elastic Constant Matrix: (Units=GPa)
#
#
# Indices 1 2 3 4 5 6 
#
# 1 131.2683 36.4430 15.2494 -3.0645 -10.6590 0.2949
# 2 36.4430 93.3718 15.4532 8.7610 -2.4862 -5.7027
# 3 15.2494 15.4532 44.0569 17.8986 -11.3120 -3.9199
# 4 -3.0645 8.7610 17.8986 33.0528 -3.2969 -3.4205
# 5 -10.6590 -2.4862 -11.3120 -3.2969 16.6568 12.3954
# 6 0.2949 -5.7027 -3.9199 -3.4205 12.3954 32.2639
#
#
#
# Elastic Compliance Matrix: (Units=1/GPa)
#
#
# Indices 1 2 3 4 5 6 
#
# 1 0.009566 -0.003779 -0.001587 0.003152 0.007786 -0.003605
# 2 -0.003779 0.013079 -0.003778 -0.001990 -0.006545 0.004191
# 3 -0.001587 -0.003778 0.037995 -0.017898 0.026808 -0.008234
# 4 0.003152 -0.001990 -0.017898 0.040638 -0.005177 0.003742
# 5 0.007786 -0.006545 0.026808 -0.005177 0.112198 -0.041625
# 6 -0.003605 0.004191 -0.008234 0.003742 -0.041625 0.047156
#
#
# Mechanical properties :
#
#
# Convention : Reuss Voigt Hill
#
# Bulk Modulus (GPa) = 23.61343 44.77646 34.19494
# Shear Modulus (GPa) = 17.06271 29.83145 23.44708
#
# Velocity S-wave (km/s) = 2.82052 3.72943 3.30636
# Velocity P-wave (km/s) = 4.64938 6.27866 5.52441
#
# Compressibility (1/GPa) = 0.04234878
#
# Stress axis : x y z
#
# Youngs Moduli (GPa) = 104.54234 76.46051 26.31951
#
# Poissons Ratio (x) = 0.28897 0.04178
# Poissons Ratio (y) = 0.39510 0.09944
# Poissons Ratio (z) = 0.16596 0.28889
#
# Static dielectric constant tensor:
#      x y z
#    x 4.387120 0.071490 0.042720 
#    y 0.071490 3.709220 0.263490 
#    z 0.042720 0.263490 3.542050 
# 
# 
# High freq. dielectric constant tensor:
#      x y z
#    x 1.855350 -0.006850 -0.001670 
#    y -0.006850 1.824920 0.029620 
#    z -0.001670 0.029620 1.820480 
# 
# From -- ./inp_files/96327.got.cif
#   From: 2010.06.25/outbox.cif.g09.slc.cpg/sg2_49_cif.got.tgz:96327.got - 2010.06.27 13:26:56.
