data_PCOD8005003
_publ_section_title
;
Structure prediction by ZEFSAII (Michael W. Deem and Ramdas Pophale) SiO2 
 PCOD8005003
Probable space group: P -1
;
_chemical_formula_sum "Si O2"
_cell_formula_units_Z 14
_cell_length_a 8.668944
_cell_length_b 14.455311
_cell_length_c 9.341906
_cell_angle_alpha 123.480287
_cell_angle_beta 146.953092
_cell_angle_gamma 68.707484
_cell_volume 519.625989
_symmetry_space_group_name_H-M "P -1"
_symmetry_group_IT_number 2
_symmetry_cell_setting 'triclinic'
loop_
_space_group_symop_operation_xyz
x,y,z
-x,-y,-z
loop_
_atom_site_type_symbol
_atom_site_label
_atom_site_fract_x
_atom_site_fract_y
_atom_site_fract_z
Si Si1 0.209225 0.729188 0.406664
Si Si2 0.265535 0.555618 0.057703
Si Si3 0.314468 0.846113 0.955849
Si Si4 0.168867 0.116969 0.796009
Si Si5 0.313089 0.245387 0.596035
Si Si6 0.301341 0.095638 0.187427
Si Si7 0.631598 0.441117 0.425151
O O1 0.177678 0.623586 0.183301
O O2 0.376987 0.844989 0.561970
O O3 0.361658 0.688840 0.633777
O O4 0.907285 0.767581 0.233318
O O5 0.499561 0.633050 0.202515
O O6 0.419452 0.451836 0.135569
O O7 0.963812 0.504705 0.699753
O O8 0.490357 0.875259 0.968600
O O9 0.507717 0.800201 0.182481
O O10 0.257891 0.963393 0.076870
O O11 0.015503 0.754167 0.607998
O O12 0.103906 0.113952 0.913367
O O13 0.000000 0.000000 0.500000
O O14 0.228947 0.160412 0.324679
O O15 0.500000 0.500000 0.500000
#
# Coordination Sequence:
#
# PCOD8005003 Si02
#       7
#     2   2   2   2   2   2   2
#     4  10  23  36  67  95 134 171 220 275 347 383
#     4  10  22  40  66  98 134 165 226 282 336 386
#     4  12  25  44  64  97 138 185 223 269 334 407
#     4  12  26  43  65  97 144 181 223 274 334 402
#     4  11  26  43  70  95 134 183 227 277 334 391
#     4  11  25  41  68  96 136 173 236 277 327 396
#     4  10  20  38  64 103 131 164 215 293 341 385
#
# _framework density 26.942453
#
# number of rings (size 3 to 8) (size 9 to 14) (size 15 to 20)
#    0.000    1.143    1.429    4.714   14.000    0.000 
#    0.000    0.000    0.000    5.143    0.000    0.000 
#    0.000    0.000    0.000    0.000    0.000    0.000 
#
# Total GULP energy -173495.982920 kJ/mol
# GULP energy per Si atom -12392.570209 kJ/mol
# Density = 2.688113 g / cm^3
# Si number density = 26.942453 Si / 1000 Ang^3
#
#
#
# Elastic Constant Matrix: (Units=GPa)
#
#
# Indices 1 2 3 4 5 6 
#
# 1 61.4358 29.2341 22.8464 -9.1579 30.7706 17.1839
# 2 29.2341 133.1112 29.0145 -20.8273 13.1258 4.8836
# 3 22.8464 29.0145 110.8146 -28.7870 28.0607 0.6382
# 4 -9.1579 -20.8273 -28.7870 57.8232 9.5177 4.8219
# 5 30.7706 13.1258 28.0607 9.5177 51.6167 2.0475
# 6 17.1839 4.8836 0.6382 4.8219 2.0475 29.7983
#
#
#
# Elastic Compliance Matrix: (Units=1/GPa)
#
#
# Indices 1 2 3 4 5 6 
#
# 1 0.036093 -0.003681 0.002367 0.011078 -0.023098 -0.020467
# 2 -0.003681 0.008842 -0.001071 0.002015 0.000142 0.000361
# 3 0.002367 -0.001071 0.013602 0.008594 -0.010031 -0.002182
# 4 0.011078 0.002015 0.008594 0.027618 -0.016475 -0.010240
# 5 -0.023098 0.000142 -0.010031 -0.016475 0.041068 0.013356
# 6 -0.020467 0.000361 -0.002182 -0.010240 0.013356 0.046089
#
#
# Mechanical properties :
#
#
# Convention : Reuss Voigt Hill
#
# Bulk Modulus (GPa) = 18.59848 51.95018 35.27433
# Shear Modulus (GPa) = 25.50956 42.79875 34.15416
#
# Velocity S-wave (km/s) = 3.08038 3.98995 3.56430
# Velocity P-wave (km/s) = 4.42376 6.36789 5.48269
#
# Compressibility (1/GPa) = 0.05376783
#
# Stress axis : x y z
#
# Youngs Moduli (GPa) = 27.70593 113.09063 73.52090
#
# Poissons Ratio (x) = 0.41629 -0.17403
# Poissons Ratio (y) = 0.10199 0.07872
# Poissons Ratio (z) = -0.06558 0.12109
#
# Static dielectric constant tensor:
#      x y z
#    x 5.098170 0.041010 0.204460 
#    y 0.041010 5.212030 -0.092490 
#    z 0.204460 -0.092490 4.999960 
# 
# 
# High freq. dielectric constant tensor:
#      x y z
#    x 2.081740 0.000610 0.013500 
#    y 0.000610 2.092370 0.005850 
#    z 0.013500 0.005850 2.094020 
# 
# From -- ./inp_files/208577.got.cif
#   From: 2010.06.25/outbox.cif.g09.slc.cpg/sg2_105_cif.got.tgz:208577.got - 2010.06.27 13:26:56.
