data_PCOD8005192
_publ_section_title
;
Structure prediction by ZEFSAII (Michael W. Deem and Ramdas Pophale) SiO2 
 PCOD8005192
Probable space group: P -1
;
_chemical_formula_sum "Si O2"
_cell_formula_units_Z 14
_cell_length_a 8.122909
_cell_length_b 20.023702
_cell_length_c 8.711690
_cell_angle_alpha 145.649869
_cell_angle_beta 129.899060
_cell_angle_gamma 59.558644
_cell_volume 612.511470
_symmetry_space_group_name_H-M "P -1"
_symmetry_group_IT_number 2
_symmetry_cell_setting 'triclinic'
loop_
_space_group_symop_operation_xyz
x,y,z
-x,-y,-z
loop_
_atom_site_type_symbol
_atom_site_label
_atom_site_fract_x
_atom_site_fract_y
_atom_site_fract_z
Si Si1 0.807549 0.652766 0.636868
Si Si2 0.484056 0.796217 0.304861
Si Si3 0.960557 0.368847 0.789449
Si Si4 0.683524 0.751744 0.045562
Si Si5 0.245194 0.603146 0.977908
Si Si6 0.265083 0.986503 0.406949
Si Si7 0.937837 0.812023 0.733560
O O1 0.701667 0.534237 0.270803
O O2 0.858346 0.752080 0.729732
O O3 0.027580 0.627957 0.806862
O O4 0.636219 0.697971 0.745883
O O5 0.474786 0.757752 0.043924
O O6 0.305266 0.896065 0.403443
O O7 0.727021 0.848897 0.582883
O O8 0.437792 0.685582 0.178702
O O9 0.169866 0.337047 0.946694
O O10 0.921462 0.277112 0.451487
O O11 0.764372 0.365418 0.787391
O O12 0.000000 0.500000 0.000000
O O13 0.801070 0.882943 0.335653
O O14 0.500000 0.000000 0.500000
O O15 0.081469 0.931226 0.079360
#
# Coordination Sequence:
#
# PCOD8005192 Si02
#       7
#     2   2   2   2   2   2   2
#     4  10  20  38  65  92 125 172 202 256 318 376
#     4  10  22  41  64  96 126 163 210 263 306 378
#     4  10  20  39  64  94 127 167 205 260 312 377
#     4   9  22  39  63  91 126 169 209 254 318 363
#     4  10  20  39  64  93 132 162 207 256 319 372
#     4  10  22  44  67  88 127 168 213 261 305 371
#     4  11  22  41  68  92 127 167 209 257 320 362
#
# _framework density 22.856715000000001
#
# number of rings (size 3 to 8) (size 9 to 14) (size 15 to 20)
#    0.000    2.000    2.857    0.000    0.000    6.857 
#    5.143    0.714    0.000    0.000    0.000    0.000 
#    0.000    0.000    0.000    0.000    0.000    0.000 
#
# Total GULP energy -173496.945641 kJ/mol
# GULP energy per Si atom -12392.638974 kJ/mol
# Density = 2.280469 g / cm^3
# Si number density = 22.856715 Si / 1000 Ang^3
#
#
#
# Elastic Constant Matrix: (Units=GPa)
#
#
# Indices 1 2 3 4 5 6 
#
# 1 100.0615 26.2164 36.1884 0.7035 -15.8416 30.5555
# 2 26.2164 74.1863 34.0849 13.8431 -16.8711 3.4052
# 3 36.1884 34.0849 98.5061 3.0390 -0.7266 -3.4080
# 4 0.7035 13.8431 3.0390 34.2678 -0.8288 0.0719
# 5 -15.8416 -16.8711 -0.7266 -0.8288 40.2517 -5.8189
# 6 30.5555 3.4052 -3.4080 0.0719 -5.8189 33.8072
#
#
#
# Elastic Compliance Matrix: (Units=1/GPa)
#
#
# Indices 1 2 3 4 5 6 
#
# 1 0.018683 -0.002055 -0.006736 0.001175 0.003983 -0.016675
# 2 -0.002055 0.019894 -0.005830 -0.007301 0.007353 0.000547
# 3 -0.006736 -0.005830 0.014844 0.001071 -0.003716 0.007530
# 4 0.001175 -0.007301 0.001071 0.031965 -0.002011 -0.000633
# 5 0.003983 0.007353 -0.003716 -0.002011 0.029436 0.000355
# 6 -0.016675 0.000547 0.007530 -0.000633 0.000355 0.045417
#
#
# Mechanical properties :
#
#
# Convention : Reuss Voigt Hill
#
# Bulk Modulus (GPa) = 41.36142 51.74814 46.55478
# Shear Modulus (GPa) = 25.31120 33.41628 29.36374
#
# Velocity S-wave (km/s) = 3.33135 3.82775 3.58814
# Velocity P-wave (km/s) = 5.73868 6.49807 6.13014
#
# Compressibility (1/GPa) = 0.02417712
#
# Stress axis : x y z
#
# Youngs Moduli (GPa) = 53.52475 50.26655 67.36853
#
# Poissons Ratio (x) = 0.10332 0.45381
# Poissons Ratio (y) = 0.11002 0.39277
# Poissons Ratio (z) = 0.36055 0.29306
#
# Static dielectric constant tensor:
#      x y z
#    x 4.224320 0.041680 -0.395360 
#    y 0.041680 4.578700 0.310740 
#    z -0.395360 0.310740 4.257520 
# 
# 
# High freq. dielectric constant tensor:
#      x y z
#    x 1.887480 0.008980 -0.006480 
#    y 0.008980 1.920960 0.008940 
#    z -0.006480 0.008940 1.888590 
# 
# From -- ./inp_files/199910.got.cif
#   From: 2010.06.25/outbox.cif.g09.slc.cpg/sg2_100_cif.got.tgz:199910.got - 2010.06.27 13:26:56.
