data_PCOD8005866
_publ_section_title
;
Structure prediction by ZEFSAII (Michael W. Deem and Ramdas Pophale) SiO2 
 PCOD8005866
Probable space group: P -1
;
_chemical_formula_sum "Si O2"
_cell_formula_units_Z 16
_cell_length_a 19.324880
_cell_length_b 10.597026
_cell_length_c 11.555756
_cell_angle_alpha 113.887557
_cell_angle_beta 32.696764
_cell_angle_gamma 136.139889
_cell_volume 745.950005
_symmetry_space_group_name_H-M "P -1"
_symmetry_group_IT_number 2
_symmetry_cell_setting 'triclinic'
loop_
_space_group_symop_operation_xyz
x,y,z
-x,-y,-z
loop_
_atom_site_type_symbol
_atom_site_label
_atom_site_fract_x
_atom_site_fract_y
_atom_site_fract_z
Si Si1 0.300356 0.035259 0.192723
Si Si2 0.563591 0.360483 0.470876
Si Si3 0.931574 0.426321 0.718608
Si Si4 0.086898 0.165487 0.239506
Si Si5 0.203797 0.225522 0.841901
Si Si6 0.680188 0.900371 0.073322
Si Si7 0.723908 0.410711 0.830851
Si Si8 0.836181 0.328159 0.068796
O O1 0.379518 0.142303 0.993051
O O2 0.198498 0.804312 0.238304
O O3 0.489460 0.186835 0.068382
O O4 0.146600 0.010903 0.464143
O O5 0.363243 0.230889 0.630531
O O6 0.726980 0.607431 0.291347
O O7 0.647900 0.275999 0.305851
O O8 0.504390 0.320079 0.675933
O O9 0.811140 0.462171 0.858351
O O10 0.158061 0.603847 0.418680
O O11 0.960994 0.447522 0.820886
O O12 0.130187 0.044173 0.167545
O O13 0.220584 0.385834 0.207613
O O14 0.152317 0.250606 0.046869
O O15 0.000000 0.000000 0.000000
O O16 0.745236 0.098331 0.117018
O O17 0.000000 0.500000 0.000000
#
# Coordination Sequence:
#
# PCOD8005866 Si02
#       8
#     2   2   2   2   2   2   2   2
#     4  10  21  38  67  91 121 171 206 262 333 375
#     4  10  23  42  63  94 128 165 222 262 313 391
#     4   9  21  40  59  92 128 154 221 273 305 388
#     4  10  22  39  60  92 130 159 214 267 309 386
#     4  10  23  43  68  93 126 172 212 272 323 374
#     4  10  23  43  59  94 137 162 219 266 310 398
#     4  10  20  39  63  91 122 165 211 269 326 369
#     4  11  24  40  66  92 132 181 213 265 328 381
#
# _framework density 21.449157
#
# number of rings (size 3 to 8) (size 9 to 14) (size 15 to 20)
#    0.000    2.000    0.000    1.875    5.250    4.500 
#    0.000    1.250    0.000    0.000    0.000    0.000 
#    0.000    0.000    0.000    0.000    0.000    0.000 
#
# Total GULP energy -198236.826557 kJ/mol
# GULP energy per Si atom -12389.801660 kJ/mol
# Density = 2.140034 g / cm^3
# Si number density = 21.449157 Si / 1000 Ang^3
#
#
#
# Elastic Constant Matrix: (Units=GPa)
#
#
# Indices 1 2 3 4 5 6 
#
# 1 95.5302 45.4835 54.9995 4.5923 4.3633 -10.7942
# 2 45.4835 80.0967 52.5731 7.5147 -21.3847 -2.3272
# 3 54.9995 52.5731 123.4606 -5.3436 -12.8255 -4.8333
# 4 4.5923 7.5147 -5.3436 30.4181 -6.9568 -7.0320
# 5 4.3633 -21.3847 -12.8255 -6.9568 47.5801 1.3319
# 6 -10.7942 -2.3272 -4.8333 -7.0320 1.3319 33.3893
#
#
#
# Elastic Compliance Matrix: (Units=1/GPa)
#
#
# Indices 1 2 3 4 5 6 
#
# 1 0.018651 -0.008809 -0.005264 -0.002254 -0.007543 0.004480
# 2 -0.008809 0.024027 -0.005619 -0.004153 0.009576 -0.003243
# 3 -0.005264 -0.005619 0.013336 0.005247 0.002295 0.000851
# 4 -0.002254 -0.004153 0.005247 0.038079 0.005111 0.007557
# 5 -0.007543 0.009576 0.002295 0.005111 0.027419 -0.001456
# 6 0.004480 -0.003243 0.000851 0.007557 -0.001456 0.032945
#
#
# Mechanical properties :
#
#
# Convention : Reuss Voigt Hill
#
# Bulk Modulus (GPa) = 60.12638 67.24442 63.68540
# Shear Modulus (GPa) = 25.07698 32.01292 28.54495
#
# Velocity S-wave (km/s) = 3.42297 3.86748 3.65200
# Velocity P-wave (km/s) = 6.61175 7.16672 6.89482
#
# Compressibility (1/GPa) = 0.01663164
#
# Stress axis : x y z
#
# Youngs Moduli (GPa) = 53.61526 41.61916 74.98297
#
# Poissons Ratio (x) = 0.36661 0.39468
# Poissons Ratio (y) = 0.47229 0.42136
# Poissons Ratio (z) = 0.28221 0.23387
#
# Static dielectric constant tensor:
#      x y z
#    x 3.940730 -0.303580 0.053120 
#    y -0.303580 3.607920 0.138970 
#    z 0.053120 0.138970 4.037290 
# 
# 
# High freq. dielectric constant tensor:
#      x y z
#    x 1.844450 -0.021160 0.005450 
#    y -0.021160 1.822270 0.007670 
#    z 0.005450 0.007670 1.857900 
# 
# From -- ./inp_files/471199.got.cif
#   From: 2010.06.25/outbox.cif.g09.slc.cpg/sg2_236_cif.got.tgz:471199.got - 2010.06.27 13:26:56.
