data_PCOD8005214
_publ_section_title
;
Structure prediction by ZEFSAII (Michael W. Deem and Ramdas Pophale) SiO2 
 PCOD8005214
Probable space group: P -1
;
_chemical_formula_sum "Si O2"
_cell_formula_units_Z 16
_cell_length_a 11.557314
_cell_length_b 10.348954
_cell_length_c 18.008296
_cell_angle_alpha 153.911850
_cell_angle_beta 46.877172
_cell_angle_gamma 125.209569
_cell_volume 686.644021
_symmetry_space_group_name_H-M "P -1"
_symmetry_group_IT_number 2
_symmetry_cell_setting 'triclinic'
loop_
_space_group_symop_operation_xyz
x,y,z
-x,-y,-z
loop_
_atom_site_type_symbol
_atom_site_label
_atom_site_fract_x
_atom_site_fract_y
_atom_site_fract_z
Si Si1 0.456025 0.632159 0.467371
Si Si2 0.385482 0.551102 0.851118
Si Si3 0.856475 0.250678 0.705579
Si Si4 0.850697 0.999272 0.880127
Si Si5 0.672410 0.764110 0.569202
Si Si6 0.792079 0.984088 0.313190
Si Si7 0.928030 0.293649 0.141919
Si Si8 0.279258 0.563771 0.297593
O O1 0.553073 0.572909 0.319294
O O2 0.554339 0.807797 0.573154
O O3 0.417360 0.325372 0.363812
O O4 0.291008 0.833238 0.625111
O O5 0.263965 0.340146 0.829499
O O6 0.534743 0.572981 0.851862
O O7 0.288346 0.875954 0.051699
O O8 0.771871 0.372616 0.730654
O O9 0.925289 0.527977 0.858257
O O10 0.732430 0.085573 0.724016
O O11 0.000000 0.000000 0.500000
O O12 0.019597 0.026791 0.783300
O O13 0.832114 0.661410 0.732793
O O14 0.828890 0.205664 0.069377
O O15 0.814575 0.502382 0.354151
O O16 0.742654 0.132871 0.490541
O O17 0.000000 0.000000 0.000000
#
# Coordination Sequence:
#
# PCOD8005214 Si02
#       8
#     2   2   2   2   2   2   2   2
#     4  10  20  38  67  94 126 170 216 267 319 384
#     4  11  23  44  67  95 129 172 214 274 323 383
#     4  10  22  38  65  98 125 165 217 268 317 379
#     4  12  24  42  64  99 134 169 211 267 334 379
#     4  10  20  38  65  94 125 169 225 255 315 393
#     4  11  24  41  68  96 128 170 222 264 320 389
#     4  11  21  39  63  91 135 168 203 270 331 376
#     4  11  23  43  69  93 131 172 218 263 322 388
#
# _framework density 23.301738
#
# number of rings (size 3 to 8) (size 9 to 14) (size 15 to 20)
#    0.000    1.250    2.500    4.875    3.500    0.000 
#    0.000    1.250    0.000    5.250    0.000    0.000 
#    0.000    0.000    0.000    0.000    0.000    0.000 
#
# Total GULP energy -198409.615618 kJ/mol
# GULP energy per Si atom -12400.600976 kJ/mol
# Density = 2.324870 g / cm^3
# Si number density = 23.301738 Si / 1000 Ang^3
#
#
#
# Elastic Constant Matrix: (Units=GPa)
#
#
# Indices 1 2 3 4 5 6 
#
# 1 104.7821 20.6902 16.6773 10.2189 -25.9989 4.8779
# 2 20.6902 106.4025 8.9148 19.9293 -8.5689 24.6626
# 3 16.6773 8.9148 48.8741 14.3520 -18.9734 2.1625
# 4 10.2189 19.9293 14.3520 31.8378 9.5178 1.5565
# 5 -25.9989 -8.5689 -18.9734 9.5178 41.3573 10.3122
# 6 4.8779 24.6626 2.1625 1.5565 10.3122 43.9842
#
#
#
# Elastic Compliance Matrix: (Units=1/GPa)
#
#
# Indices 1 2 3 4 5 6 
#
# 1 0.013702 0.001806 0.004769 -0.011997 0.015422 -0.005958
# 2 0.001806 0.016033 0.008664 -0.018651 0.015886 -0.012681
# 3 0.004769 0.008664 0.042750 -0.036404 0.036461 -0.014749
# 4 -0.011997 -0.018651 -0.036404 0.077681 -0.051708 0.022952
# 5 0.015422 0.015886 0.036461 -0.051708 0.072680 -0.027621
# 6 -0.005958 -0.012681 -0.014749 0.022952 -0.027621 0.036895
#
#
# Mechanical properties :
#
#
# Convention : Reuss Voigt Hill
#
# Bulk Modulus (GPa) = 9.71212 39.18034 24.44623
# Shear Modulus (GPa) = 18.96924 37.68761 28.32842
#
# Velocity S-wave (km/s) = 2.85629 4.02602 3.49050
# Velocity P-wave (km/s) = 3.88006 6.20183 5.17289
#
# Compressibility (1/GPa) = 0.10296416
#
# Stress axis : x y z
#
# Youngs Moduli (GPa) = 72.98212 62.37091 23.39159
#
# Poissons Ratio (x) = -0.11265 -0.11155
# Poissons Ratio (y) = -0.13182 -0.20268
# Poissons Ratio (z) = -0.34803 -0.54041
#
# Static dielectric constant tensor:
#      x y z
#    x 4.521280 0.320370 -0.103920 
#    y 0.320370 4.291100 0.312470 
#    z -0.103920 0.312470 3.985310 
# 
# 
# High freq. dielectric constant tensor:
#      x y z
#    x 1.936620 0.011270 -0.015880 
#    y 0.011270 1.928460 0.022250 
#    z -0.015880 0.022250 1.899380 
# 
# From -- ./inp_files/349000.got.cif
#   From: 2010.06.25/outbox.cif.g09.slc.cpg/sg2_175_cif.got.tgz:349000.got - 2010.06.27 13:26:56.
