data_PCOD8005208
_publ_section_title
;
Structure prediction by ZEFSAII (Michael W. Deem and Ramdas Pophale) SiO2 
 PCOD8005208
Probable space group: P -1
;
_chemical_formula_sum "Si O2"
_cell_formula_units_Z 16
_cell_length_a 9.707530
_cell_length_b 8.806460
_cell_length_c 13.138291
_cell_angle_alpha 120.485053
_cell_angle_beta 126.020274
_cell_angle_gamma 76.729578
_cell_volume 779.034296
_symmetry_space_group_name_H-M "P -1"
_symmetry_group_IT_number 2
_symmetry_cell_setting 'triclinic'
loop_
_space_group_symop_operation_xyz
x,y,z
-x,-y,-z
loop_
_atom_site_type_symbol
_atom_site_label
_atom_site_fract_x
_atom_site_fract_y
_atom_site_fract_z
Si Si1 0.041131 0.796779 0.797684
Si Si2 0.319865 0.341771 0.965602
Si Si3 0.873683 0.128478 0.535165
Si Si4 0.426508 0.052801 0.774446
Si Si5 0.032862 0.828856 0.178110
Si Si6 0.626977 0.261802 0.210696
Si Si7 0.763783 0.273535 0.947301
Si Si8 0.132141 0.530457 0.477424
O O1 0.206118 0.777467 0.793031
O O2 0.879348 0.654025 0.651597
O O3 0.087659 0.768054 0.924983
O O4 0.975449 0.986199 0.819179
O O5 0.328917 0.217513 0.828452
O O6 0.153498 0.277200 0.936759
O O7 0.489142 0.338370 0.105414
O O8 0.308502 0.541775 0.991515
O O9 0.887056 0.141137 0.665818
O O10 0.922029 0.320097 0.572180
O O11 0.681667 0.049516 0.396644
O O12 0.000000 0.000000 0.500000
O O13 0.610962 0.117323 0.832314
O O14 0.450951 0.922105 0.835456
O O15 0.157600 0.716665 0.128484
O O16 0.681609 0.408289 0.372004
O O17 0.000000 0.500000 0.500000
#
# Coordination Sequence:
#
# PCOD8005208 Si02
#       8
#     2   2   2   2   2   2   2   2
#     4  11  21  40  63  89 128 164 212 260 307 374
#     4  12  22  40  65  89 127 161 210 261 306 371
#     4  11  21  39  67  90 127 164 206 259 310 374
#     4  11  22  40  64  93 122 165 210 257 312 367
#     4  12  25  43  62  91 128 171 204 254 325 374
#     4  10  20  38  65  94 121 159 212 261 310 366
#     4  12  27  39  61  95 128 165 210 260 315 371
#     4   9  20  35  60  98 122 154 206 260 307 357
#
# _framework density 20.538249
#
# number of rings (size 3 to 8) (size 9 to 14) (size 15 to 20)
#    0.000    1.000    3.750    4.500    0.000    2.500 
#    0.000    0.000    0.000    3.750    0.000    0.000 
#    0.000    0.000    0.000    0.000    0.000    0.000 
#
# Total GULP energy -198448.877649 kJ/mol
# GULP energy per Si atom -12403.054853 kJ/mol
# Density = 2.049150 g / cm^3
# Si number density = 20.538249 Si / 1000 Ang^3
#
#
#
# Elastic Constant Matrix: (Units=GPa)
#
#
# Indices 1 2 3 4 5 6 
#
# 1 73.2155 0.7596 23.4676 6.3762 -3.6792 8.5398
# 2 0.7596 106.6346 37.1507 -3.5946 2.0346 6.2256
# 3 23.4676 37.1507 98.5366 -2.4092 0.9306 4.9869
# 4 6.3762 -3.5946 -2.4092 33.2458 10.4717 5.2344
# 5 -3.6792 2.0346 0.9306 10.4717 27.6298 -1.1012
# 6 8.5398 6.2256 4.9869 5.2344 -1.1012 22.2122
#
#
#
# Elastic Compliance Matrix: (Units=1/GPa)
#
#
# Indices 1 2 3 4 5 6 
#
# 1 0.016018 0.001452 -0.004247 -0.003546 0.003329 -0.004611
# 2 0.001452 0.011132 -0.004339 0.001465 -0.001159 -0.003107
# 3 -0.004247 -0.004339 0.012880 0.001799 -0.001383 -0.000535
# 4 -0.003546 0.001465 0.001799 0.037217 -0.015103 -0.008970
# 5 0.003329 -0.001159 -0.001383 -0.015103 0.042693 0.005031
# 6 -0.004611 -0.003107 -0.000535 -0.008970 0.005031 0.050147
#
#
# Mechanical properties :
#
#
# Convention : Reuss Voigt Hill
#
# Bulk Modulus (GPa) = 38.81662 44.57140 41.69401
# Shear Modulus (GPa) = 25.91433 31.08484 28.49958
#
# Velocity S-wave (km/s) = 3.55598 3.89461 3.72914
# Velocity P-wave (km/s) = 5.98337 6.47863 6.23592
#
# Compressibility (1/GPa) = 0.02576216
#
# Stress axis : x y z
#
# Youngs Moduli (GPa) = 62.42788 89.83149 77.64016
#
# Poissons Ratio (x) = -0.13041 0.32974
# Poissons Ratio (y) = -0.09063 0.33686
# Poissons Ratio (z) = 0.26514 0.38976
#
# Static dielectric constant tensor:
#      x y z
#    x 3.455780 0.170670 0.150140 
#    y 0.170670 3.824940 0.185820 
#    z 0.150140 0.185820 4.244940 
# 
# 
# High freq. dielectric constant tensor:
#      x y z
#    x 1.776610 0.018420 0.010010 
#    y 0.018420 1.811780 0.004530 
#    z 0.010010 0.004530 1.819650 
# 
# From -- ./inp_files/261535.got.cif
#   From: 2010.06.25/outbox.cif.g09.slc.cpg/sg2_131_cif.got.tgz:261535.got - 2010.06.27 13:26:56.
