data_PCOD8005803
_publ_section_title
;
Structure prediction by ZEFSAII (Michael W. Deem and Ramdas Pophale) SiO2 
 PCOD8005803
Probable space group: P -1
;
_chemical_formula_sum "Si O2"
_cell_formula_units_Z 16
_cell_length_a 8.073592
_cell_length_b 21.896168
_cell_length_c 11.454358
_cell_angle_alpha 148.684983
_cell_angle_beta 105.248472
_cell_angle_gamma 55.601121
_cell_volume 745.845559
_symmetry_space_group_name_H-M "P -1"
_symmetry_group_IT_number 2
_symmetry_cell_setting 'triclinic'
loop_
_space_group_symop_operation_xyz
x,y,z
-x,-y,-z
loop_
_atom_site_type_symbol
_atom_site_label
_atom_site_fract_x
_atom_site_fract_y
_atom_site_fract_z
Si Si1 0.719096 0.149351 0.079609
Si Si2 0.722638 0.536646 0.944512
Si Si3 0.971361 0.953162 0.240804
Si Si4 0.781389 0.633634 0.602856
Si Si5 0.826746 0.248330 0.820686
Si Si6 0.725372 0.903493 0.962465
Si Si7 0.912667 0.471051 0.117739
Si Si8 0.014194 0.810823 0.653788
O O1 0.448860 0.311995 0.291902
O O2 0.804939 0.168868 0.249122
O O3 0.813955 0.154531 0.984294
O O4 0.790267 0.976957 0.820088
O O5 0.872104 0.346273 0.656592
O O6 0.833601 0.588608 0.967396
O O7 0.453984 0.632833 0.019028
O O8 0.740192 0.569174 0.135702
O O9 0.041921 0.840213 0.178902
O O10 0.910203 0.114864 0.523792
O O11 0.742644 0.009661 0.222524
O O12 0.742729 0.788821 0.866597
O O13 0.804168 0.590979 0.401734
O O14 0.000000 0.500000 0.500000
O O15 0.919618 0.330672 0.926808
O O16 0.944312 0.789732 0.730671
O O17 0.500000 0.000000 0.000000
#
# Coordination Sequence:
#
# PCOD8005803 Si02
#       8
#     2   2   2   2   2   2   2   2
#     4  10  22  39  68  95 132 178 226 283 340 408
#     4  11  24  41  71  98 138 180 227 291 339 415
#     4  10  25  44  66  97 134 182 232 279 352 412
#     4  12  25  41  66 101 139 178 223 288 348 409
#     4  11  24  47  67  97 142 181 227 288 346 420
#     4  11  22  40  67  94 138 175 227 286 337 406
#     4  11  25  42  66 103 134 177 235 275 349 412
#     4  10  20  39  63 100 127 172 229 278 336 403
#
# _framework density 21.452162000000001
#
# number of rings (size 3 to 8) (size 9 to 14) (size 15 to 20)
#    0.000    1.250    2.500    2.625    3.500    0.000 
#    2.250    4.375    0.000    0.000    0.000    0.000 
#    0.000    0.000    0.000    0.000    0.000    0.000 
#
# Total GULP energy -198251.863830 kJ/mol
# GULP energy per Si atom -12390.741489 kJ/mol
# Density = 2.140334 g / cm^3
# Si number density = 21.452162 Si / 1000 Ang^3
#
#
#
# Elastic Constant Matrix: (Units=GPa)
#
#
# Indices 1 2 3 4 5 6 
#
# 1 131.1507 52.1034 59.3739 6.5557 6.3710 -0.4682
# 2 52.1034 105.0615 56.8939 1.1491 -0.2720 -12.7213
# 3 59.3739 56.8939 107.0294 -6.4123 -0.4753 -8.5277
# 4 6.5557 1.1491 -6.4123 41.9464 0.7052 -2.9362
# 5 6.3710 -0.2720 -0.4753 0.7052 34.1186 6.2605
# 6 -0.4682 -12.7213 -8.5277 -2.9362 6.2605 36.3569
#
#
#
# Elastic Compliance Matrix: (Units=1/GPa)
#
#
# Indices 1 2 3 4 5 6 
#
# 1 0.011315 -0.003173 -0.004911 -0.002543 -0.001784 -0.002015
# 2 -0.003173 0.014674 -0.005777 -0.000529 -0.000039 0.003703
# 3 -0.004911 -0.005777 0.015481 0.003400 0.000705 0.001700
# 4 -0.002543 -0.000529 0.003400 0.024967 -0.000490 0.002680
# 5 -0.001784 -0.000039 0.000705 -0.000490 0.030613 -0.005183
# 6 -0.002015 0.003703 0.001700 0.002680 -0.005183 0.030282
#
#
# Mechanical properties :
#
#
# Convention : Reuss Voigt Hill
#
# Bulk Modulus (GPa) = 72.73842 75.55378 74.14610
# Shear Modulus (GPa) = 31.32063 34.14241 32.73152
#
# Velocity S-wave (km/s) = 3.82517 3.99376 3.91038
# Velocity P-wave (km/s) = 7.31369 7.52084 7.41799
#
# Compressibility (1/GPa) = 0.01374789
#
# Stress axis : x y z
#
# Youngs Moduli (GPa) = 88.37538 68.14647 64.59494
#
# Poissons Ratio (x) = 0.21621 0.31725
# Poissons Ratio (y) = 0.28039 0.37318
# Poissons Ratio (z) = 0.43405 0.39370
#
# Static dielectric constant tensor:
#      x y z
#    x 4.295940 -0.014570 0.113030 
#    y -0.014570 3.764970 -0.208600 
#    z 0.113030 -0.208600 3.797620 
# 
# 
# High freq. dielectric constant tensor:
#      x y z
#    x 1.853860 0.005150 0.007090 
#    y 0.005150 1.835570 -0.011400 
#    z 0.007090 -0.011400 1.840320 
# 
# From -- ./inp_files/406787.got.cif
#   From: 2010.06.25/outbox.cif.g09.slc.cpg/sg2_204_cif.got.tgz:406787.got - 2010.06.27 13:26:56.
