data_PCOD8005582
_publ_section_title
;
Structure prediction by ZEFSAII (Michael W. Deem and Ramdas Pophale) SiO2 
 PCOD8005582
Probable space group: P -1
;
_chemical_formula_sum "Si O2"
_cell_formula_units_Z 14
_cell_length_a 18.846070
_cell_length_b 11.968912
_cell_length_c 9.412423
_cell_angle_alpha 37.971888
_cell_angle_beta 40.853554
_cell_angle_gamma 37.839361
_cell_volume 749.292354
_symmetry_space_group_name_H-M "P -1"
_symmetry_group_IT_number 2
_symmetry_cell_setting 'triclinic'
loop_
_space_group_symop_operation_xyz
x,y,z
-x,-y,-z
loop_
_atom_site_type_symbol
_atom_site_label
_atom_site_fract_x
_atom_site_fract_y
_atom_site_fract_z
Si Si1 0.858465 0.625121 0.629229
Si Si2 0.266656 0.963834 0.074845
Si Si3 0.532939 0.624357 0.938492
Si Si4 0.745132 0.685539 0.451395
Si Si5 0.755358 0.324821 0.080665
Si Si6 0.837828 0.968916 0.524367
Si Si7 0.122223 0.794359 0.275476
O O1 0.784474 0.747384 0.478243
O O2 0.836395 0.780713 0.633574
O O3 0.000000 0.500000 0.500000
O O4 0.811735 0.466952 0.911562
O O5 0.186752 0.874361 0.209207
O O6 0.226719 0.012158 0.248227
O O7 0.411101 0.803032 0.014289
O O8 0.244353 0.177562 0.825407
O O9 0.605971 0.723378 0.644126
O O10 0.500000 0.500000 0.000000
O O11 0.615774 0.469644 0.092748
O O12 0.836775 0.445463 0.515355
O O13 0.756037 0.180204 0.350749
O O14 0.838281 0.182858 0.966751
O O15 0.975729 0.933643 0.372851
#
# Coordination Sequence:
#
# PCOD8005582 Si02
#       7
#     2   2   2   2   2   2   2
#     4  10  20  39  60  87 118 158 201 235 289 362
#     4  12  24  38  62  92 123 156 194 253 303 342
#     4  10  20  44  65  85 112 158 214 241 286 357
#     4  10  22  39  66  87 114 160 206 241 289 359
#     4  10  22  39  66  84 117 162 205 243 284 356
#     4  12  24  37  60  96 125 154 192 247 310 348
#     4  10  21  40  60  93 118 158 204 235 295 361
#
# _framework density 18.684297000000001
#
# number of rings (size 3 to 8) (size 9 to 14) (size 15 to 20)
#    0.000    1.714    5.714    2.143    2.000    2.286 
#    0.000    2.857    0.000    0.000    0.000    0.000 
#    0.000    0.000    0.000    0.000    0.000    0.000 
#
# Total GULP energy -173624.449235 kJ/mol
# GULP energy per Si atom -12401.746374 kJ/mol
# Density = 1.864177 g / cm^3
# Si number density = 18.684297 Si / 1000 Ang^3
#
#
#
# Elastic Constant Matrix: (Units=GPa)
#
#
# Indices 1 2 3 4 5 6 
#
# 1 113.4936 47.7763 62.5076 -6.4112 -5.8617 10.7437
# 2 47.7763 79.0968 52.6095 -7.7774 12.9472 1.7364
# 3 62.5076 52.6095 101.3400 -1.8681 25.0751 16.2287
# 4 -6.4112 -7.7774 -1.8681 18.1635 1.2387 -5.0756
# 5 -5.8617 12.9472 25.0751 1.2387 33.3419 4.3157
# 6 10.7437 1.7364 16.2287 -5.0756 4.3157 27.8024
#
#
#
# Elastic Compliance Matrix: (Units=1/GPa)
#
#
# Indices 1 2 3 4 5 6 
#
# 1 0.018790 -0.005598 -0.011980 0.001462 0.014683 -0.001930
# 2 -0.005598 0.023314 -0.008545 0.009781 -0.005044 0.008264
# 3 -0.011980 -0.008545 0.027527 -0.006417 -0.018051 -0.009274
# 4 0.001462 0.009781 -0.006417 0.063381 -0.002960 0.014600
# 5 0.014683 -0.005044 -0.018051 -0.002960 0.048594 -0.002906
# 6 -0.001930 0.008264 -0.009274 0.014600 -0.002906 0.044728
#
#
# Mechanical properties :
#
#
# Convention : Reuss Voigt Hill
#
# Bulk Modulus (GPa) = 57.52757 68.85747 63.19252
# Shear Modulus (GPa) = 17.58249 24.59738 21.08993
#
# Velocity S-wave (km/s) = 3.07095 3.63226 3.36334
# Velocity P-wave (km/s) = 6.59018 7.38405 6.99838
#
# Compressibility (1/GPa) = 0.01738297
#
# Stress axis : x y z
#
# Youngs Moduli (GPa) = 53.22105 42.89335 36.32840
#
# Poissons Ratio (x) = 0.24012 0.43523
# Poissons Ratio (y) = 0.29794 0.31043
# Poissons Ratio (z) = 0.63760 0.36653
#
# Static dielectric constant tensor:
#      x y z
#    x -8.946820 -6.715450 6.534340 
#    y -6.715450 0.042150 3.514940 
#    z 6.534340 3.514940 -0.252570 
# 
# 
# High freq. dielectric constant tensor:
#      x y z
#    x 1.738380 -0.005400 -0.013410 
#    y -0.005400 1.724850 -0.008330 
#    z -0.013410 -0.008330 1.716370 
# 
# From -- ./inp_files/255692.got.cif
#   From: 2010.06.25/outbox.cif.g09.slc.cpg/sg2_128_cif.got.tgz:255692.got - 2010.06.27 13:26:56.
