data_PCOD8005642
_publ_section_title
;
Structure prediction by ZEFSAII (Michael W. Deem and Ramdas Pophale) SiO2 
 PCOD8005642
Probable space group: P -1
;
_chemical_formula_sum "Si O2"
_cell_formula_units_Z 12
_cell_length_a 12.986734
_cell_length_b 8.635322
_cell_length_c 11.413824
_cell_angle_alpha 54.599557
_cell_angle_beta 51.082750
_cell_angle_gamma 96.363850
_cell_volume 538.263496
_symmetry_space_group_name_H-M "P -1"
_symmetry_group_IT_number 2
_symmetry_cell_setting 'triclinic'
loop_
_space_group_symop_operation_xyz
x,y,z
-x,-y,-z
loop_
_atom_site_type_symbol
_atom_site_label
_atom_site_fract_x
_atom_site_fract_y
_atom_site_fract_z
Si Si1 0.895791 0.682180 0.723610
Si Si2 0.956287 0.678046 0.091156
Si Si3 0.000120 0.136992 0.776496
Si Si4 0.649648 0.386777 0.817520
Si Si5 0.733960 0.272501 0.227714
Si Si6 0.228177 0.892260 0.241240
O O1 0.687363 0.450838 0.901331
O O2 0.049965 0.697459 0.549064
O O3 0.836941 0.551856 0.953450
O O4 0.000000 0.000000 0.500000
O O5 0.170119 0.826523 0.831624
O O6 0.946845 0.656482 0.247999
O O7 0.916325 0.852438 0.010679
O O8 0.781422 0.368899 0.287984
O O9 0.829905 0.038950 0.857015
O O10 0.203530 0.307706 0.486172
O O11 0.726641 0.266172 0.769857
O O12 0.422512 0.188243 0.036258
O O13 0.500000 0.000000 0.500000
#
# Coordination Sequence:
#
# PCOD8005642 Si02
#       6
#     2   2   2   2   2   2
#     4  11  23  40  62  90 123 156 196 249 300 352
#     4  10  23  39  60  86 121 162 198 241 299 357
#     4  10  20  39  61  87 119 154 200 252 296 349
#     4  10  21  37  64  90 114 154 203 250 301 351
#     4  11  24  41  61  88 124 163 199 239 296 362
#     4  10  21  38  62  88 117 152 200 253 299 348
#
# _framework density 22.293911999999999
#
# number of rings (size 3 to 8) (size 9 to 14) (size 15 to 20)
#    0.000    1.667    0.000    6.000    0.000   10.000 
#    0.000    3.333    0.000    0.000    0.000    0.000 
#    0.000    0.000    0.000    0.000    0.000    0.000 
#
# Total GULP energy -148751.116817 kJ/mol
# GULP energy per Si atom -12395.926401 kJ/mol
# Density = 2.224317 g / cm^3
# Si number density = 22.293912 Si / 1000 Ang^3
#
#
#
# Elastic Constant Matrix: (Units=GPa)
#
#
# Indices 1 2 3 4 5 6 
#
# 1 112.4311 34.0678 53.7100 -4.4244 -23.5566 17.5789
# 2 34.0678 82.0536 11.5793 -1.2387 -10.7322 20.8532
# 3 53.7100 11.5793 81.4485 -8.1325 -22.8110 8.2289
# 4 -4.4244 -1.2387 -8.1325 24.7681 4.4581 0.4045
# 5 -23.5566 -10.7322 -22.8110 4.4581 41.7803 -16.8848
# 6 17.5789 20.8532 8.2289 0.4045 -16.8848 35.6886
#
#
#
# Elastic Compliance Matrix: (Units=1/GPa)
#
#
# Indices 1 2 3 4 5 6 
#
# 1 0.014982 -0.004259 -0.008601 -0.000675 0.001925 -0.001989
# 2 -0.004259 0.015653 0.001171 0.000707 -0.000961 -0.007781
# 3 -0.008601 0.001171 0.019833 0.003787 0.006733 0.002122
# 4 -0.000675 0.000707 0.003787 0.042305 -0.003987 -0.003319
# 5 0.001925 -0.000961 0.006733 -0.003987 0.034754 0.014549
# 6 -0.001989 -0.007781 0.002122 -0.003319 0.014549 0.039978
#
#
# Mechanical properties :
#
#
# Convention : Reuss Voigt Hill
#
# Bulk Modulus (GPa) = 36.91730 52.73860 44.82795
# Shear Modulus (GPa) = 25.01098 32.21917 28.61508
#
# Velocity S-wave (km/s) = 3.35307 3.80570 3.58654
# Velocity P-wave (km/s) = 5.62015 6.55886 6.10757
#
# Compressibility (1/GPa) = 0.02708757
#
# Stress axis : x y z
#
# Youngs Moduli (GPa) = 66.74849 63.88672 50.42213
#
# Poissons Ratio (x) = 0.27212 0.43369
# Poissons Ratio (y) = 0.28430 -0.05904
# Poissons Ratio (z) = 0.57412 -0.07480
#
# Static dielectric constant tensor:
#      x y z
#    x 4.129930 0.276680 -0.074140 
#    y 0.276680 4.255300 0.026970 
#    z -0.074140 0.026970 3.840740 
# 
# 
# High freq. dielectric constant tensor:
#      x y z
#    x 1.890500 0.012790 0.000160 
#    y 0.012790 1.890960 -0.008180 
#    z 0.000160 -0.008180 1.853210 
# 
# From -- ./inp_files/167254.got.cif
#   From: 2010.06.25/outbox.cif.g09.slc.cpg/sg2_84_cif.got.tgz:167254.got - 2010.06.27 13:26:56.
