data_PCOD8005845
_publ_section_title
;
Structure prediction by ZEFSAII (Michael W. Deem and Ramdas Pophale) SiO2 
 PCOD8005845
Probable space group: P -1
;
_chemical_formula_sum "Si O2"
_cell_formula_units_Z 16
_cell_length_a 18.599668
_cell_length_b 8.275585
_cell_length_c 11.681255
_cell_angle_alpha 124.409272
_cell_angle_beta 52.513760
_cell_angle_gamma 148.277155
_cell_volume 745.320184
_symmetry_space_group_name_H-M "P -1"
_symmetry_group_IT_number 2
_symmetry_cell_setting 'triclinic'
loop_
_space_group_symop_operation_xyz
x,y,z
-x,-y,-z
loop_
_atom_site_type_symbol
_atom_site_label
_atom_site_fract_x
_atom_site_fract_y
_atom_site_fract_z
Si Si1 0.666269 0.850960 0.693461
Si Si2 0.838738 0.184062 0.448126
Si Si3 0.074586 0.797741 0.112466
Si Si4 0.084644 0.124255 0.689481
Si Si5 0.385341 0.837854 0.702956
Si Si6 0.426612 0.167837 0.578718
Si Si7 0.047050 0.835023 0.405398
Si Si8 0.620969 0.852084 0.987501
O O1 0.530604 0.528059 0.633418
O O2 0.620915 0.897292 0.869027
O O3 0.752516 0.114209 0.617255
O O4 0.779385 0.879499 0.641993
O O5 0.977498 0.550313 0.440587
O O6 0.889303 0.042328 0.345834
O O7 0.729372 0.021964 0.383559
O O8 0.996021 0.698870 0.272473
O O9 0.032928 0.939713 0.151993
O O10 0.239475 0.027618 0.053942
O O11 0.000000 0.500000 0.000000
O O12 0.233038 0.487475 0.687734
O O13 0.017668 0.987537 0.567661
O O14 0.507806 0.876983 0.593746
O O15 0.415398 0.055307 0.668837
O O16 0.394144 0.959326 0.866001
O O17 0.500000 0.500000 0.000000
#
# Coordination Sequence:
#
# PCOD8005845 Si02
#       8
#     2   2   2   2   2   2   2   2
#     4  10  20  39  63  89 123 166 205 250 319 374
#     4  11  23  40  68  92 129 164 214 259 313 363
#     4  11  23  39  66  94 127 166 212 258 317 371
#     4  11  21  40  64  93 122 168 215 258 308 372
#     4  11  22  38  65  94 124 159 216 259 315 362
#     4  11  22  38  67  94 123 161 214 260 310 374
#     4  10  22  40  65  90 127 165 213 266 302 366
#     4  11  23  40  62  91 131 160 202 263 321 368
#
# _framework density 21.467282999999998
#
# number of rings (size 3 to 8) (size 9 to 14) (size 15 to 20)
#    0.000    1.250    5.000    3.000    0.000    1.000 
#    0.000    1.250    2.750    0.000    0.000    0.000 
#    0.000    0.000    0.000    0.000    0.000    0.000 
#
# Total GULP energy -198227.573314 kJ/mol
# GULP energy per Si atom -12389.223332 kJ/mol
# Density = 2.141842 g / cm^3
# Si number density = 21.467283 Si / 1000 Ang^3
#
#
#
# Elastic Constant Matrix: (Units=GPa)
#
#
# Indices 1 2 3 4 5 6 
#
# 1 67.7144 13.9323 42.0641 11.1035 -12.8124 15.9381
# 2 13.9323 113.6081 43.6094 14.3442 -3.4700 5.1653
# 3 42.0641 43.6094 159.2113 24.0667 -7.9324 -7.7065
# 4 11.1035 14.3442 24.0667 31.7783 -0.8818 3.7907
# 5 -12.8124 -3.4700 -7.9324 -0.8818 28.4261 -3.1103
# 6 15.9381 5.1653 -7.7065 3.7907 -3.1103 26.3872
#
#
#
# Elastic Compliance Matrix: (Units=1/GPa)
#
#
# Indices 1 2 3 4 5 6 
#
# 1 0.024104 0.000760 -0.006721 -0.001613 0.007327 -0.015575
# 2 0.000760 0.010215 -0.002746 -0.002444 0.000435 -0.002858
# 3 -0.006721 -0.002746 0.009961 -0.004934 0.000163 0.008235
# 4 -0.001613 -0.002444 -0.004934 0.037487 -0.001851 -0.005592
# 5 0.007327 0.000435 0.000163 -0.001851 0.038561 0.000348
# 6 -0.015575 -0.002858 0.008235 -0.005592 0.000348 0.051113
#
#
# Mechanical properties :
#
#
# Convention : Reuss Voigt Hill
#
# Bulk Modulus (GPa) = 37.22332 59.97170 48.59751
# Shear Modulus (GPa) = 25.27662 33.38019 29.32841
#
# Velocity S-wave (km/s) = 3.43512 3.94754 3.70021
# Velocity P-wave (km/s) = 5.75418 6.98387 6.39863
#
# Compressibility (1/GPa) = 0.02686488
#
# Stress axis : x y z
#
# Youngs Moduli (GPa) = 41.48732 97.89670 100.38709
#
# Poissons Ratio (x) = -0.07438 0.67474
# Poissons Ratio (y) = -0.03152 0.27566
# Poissons Ratio (z) = 0.27885 0.26882
#
# Static dielectric constant tensor:
#      x y z
#    x 3.832680 0.103550 0.011260 
#    y 0.103550 3.797980 0.037400 
#    z 0.011260 0.037400 4.271750 
# 
# 
# High freq. dielectric constant tensor:
#      x y z
#    x 1.840560 0.019570 0.001180 
#    y 0.019570 1.843920 0.010150 
#    z 0.001180 0.010150 1.846050 
# 
# From -- ./inp_files/469581.got.cif
#   From: 2010.06.25/outbox.cif.g09.slc.cpg/sg2_235_cif.got.tgz:469581.got - 2010.06.27 13:26:56.
