data_PCOD8005970
_publ_section_title
;
Structure prediction by ZEFSAII (Michael W. Deem and Ramdas Pophale) SiO2 
 PCOD8005970
Probable space group: P -1
;
_chemical_formula_sum "Si O2"
_cell_formula_units_Z 12
_cell_length_a 21.205064
_cell_length_b 10.506949
_cell_length_c 8.932121
_cell_angle_alpha 58.453991
_cell_angle_beta 146.184883
_cell_angle_gamma 146.217088
_cell_volume 517.981690
_symmetry_space_group_name_H-M "P -1"
_symmetry_group_IT_number 2
_symmetry_cell_setting 'triclinic'
loop_
_space_group_symop_operation_xyz
x,y,z
-x,-y,-z
loop_
_atom_site_type_symbol
_atom_site_label
_atom_site_fract_x
_atom_site_fract_y
_atom_site_fract_z
Si Si1 0.790919 0.079386 0.790191
Si Si2 0.681197 0.777284 0.276751
Si Si3 0.908372 0.884675 0.226573
Si Si4 0.435358 0.046493 0.126604
Si Si5 0.480813 0.735113 0.142578
Si Si6 0.206511 0.645785 0.159081
O O1 0.802758 0.197462 0.885766
O O2 0.583255 0.894703 0.403710
O O3 0.983896 0.324986 0.909741
O O4 0.787876 0.902879 0.936592
O O5 0.603813 0.724916 0.326194
O O6 0.500000 0.500000 0.000000
O O7 0.707554 0.964555 0.127554
O O8 0.896967 0.926670 0.616018
O O9 0.755677 0.574293 0.106812
O O10 0.000000 0.000000 0.500000
O O11 0.645568 0.295019 0.484628
O O12 0.299154 0.759971 0.102247
O O13 0.500795 0.108586 0.040713
#
# Coordination Sequence:
#
# PCOD8005970 Si02
#       6
#     2   2   2   2   2   2
#     4  11  24  40  60  95 122 160 211 247 308 360
#     4  10  20  39  64  90 121 161 200 253 302 366
#     4  12  21  40  68  90 122 163 202 251 312 365
#     4   9  21  41  60  92 117 165 211 240 309 358
#     4  10  24  41  61  99 121 155 206 263 303 353
#     4  10  21  41  65  82 126 172 199 248 296 378
#
# _framework density 23.166841999999999
#
# number of rings (size 3 to 8) (size 9 to 14) (size 15 to 20)
#    1.000    0.667    1.667    3.500    0.000    3.333 
#    6.000    0.000    0.000    0.000    0.000    0.000 
#    0.000    0.000    0.000    0.000    0.000    0.000 
#
# Total GULP energy -148693.815483 kJ/mol
# GULP energy per Si atom -12391.151290 kJ/mol
# Density = 2.311411 g / cm^3
# Si number density = 23.166842 Si / 1000 Ang^3
#
#
#
# Elastic Constant Matrix: (Units=GPa)
#
#
# Indices 1 2 3 4 5 6 
#
# 1 44.2027 9.8468 -0.2034 5.1952 4.1751 10.4041
# 2 9.8468 96.6406 43.1854 8.1052 -18.3086 32.2335
# 3 -0.2034 43.1854 105.1834 -0.4405 -4.6801 9.6707
# 4 5.1952 8.1052 -0.4405 49.3738 -0.9049 7.6348
# 5 4.1751 -18.3086 -4.6801 -0.9049 37.0878 2.3332
# 6 10.4041 32.2335 9.6707 7.6348 2.3332 21.2186
#
#
#
# Elastic Compliance Matrix: (Units=1/GPa)
#
#
# Indices 1 2 3 4 5 6 
#
# 1 0.026107 0.002719 0.000462 -0.000589 -0.000491 -0.016876
# 2 0.002719 0.035811 -0.008764 0.002601 0.019781 -0.054851
# 3 0.000462 -0.008764 0.012244 0.000234 -0.003317 0.007787
# 4 -0.000589 0.002601 0.000234 0.021779 0.002660 -0.011899
# 5 -0.000491 0.019781 -0.003317 0.002660 0.038537 -0.033491
# 6 -0.016876 -0.054851 0.007787 -0.011899 -0.033491 0.143144
#
#
# Mechanical properties :
#
#
# Convention : Reuss Voigt Hill
#
# Bulk Modulus (GPa) = 15.87423 39.07602 27.47512
# Shear Modulus (GPa) = 16.14009 34.41589 25.27799
#
# Velocity S-wave (km/s) = 2.64235 3.85849 3.30681
# Velocity P-wave (km/s) = 4.02199 6.06254 5.14445
#
# Compressibility (1/GPa) = 0.06299520
#
# Stress axis : x y z
#
# Youngs Moduli (GPa) = 38.30355 27.92419 81.67494
#
# Poissons Ratio (x) = -0.07592 -0.03769
# Poissons Ratio (y) = -0.10414 0.71577
# Poissons Ratio (z) = -0.01768 0.24472
#
# Static dielectric constant tensor:
#      x y z
#    x 4.084700 0.178500 0.237570 
#    y 0.178500 4.084010 -0.037430 
#    z 0.237570 -0.037430 4.039940 
# 
# 
# High freq. dielectric constant tensor:
#      x y z
#    x 1.902160 0.011570 0.012720 
#    y 0.011570 1.911290 -0.003470 
#    z 0.012720 -0.003470 1.908270 
# 
# From -- ./inp_files/194887.got.cif
#   From: 2010.06.25/outbox.cif.g09.slc.cpg/sg2_98_cif.got.tgz:194887.got - 2010.06.27 13:26:56.
