data_PCOD8005643
_publ_section_title
;
Structure prediction by ZEFSAII (Michael W. Deem and Ramdas Pophale) SiO2 
 PCOD8005643
Probable space group: P -1
;
_chemical_formula_sum "Si O2"
_cell_formula_units_Z 16
_cell_length_a 26.381405
_cell_length_b 21.148719
_cell_length_c 9.173596
_cell_angle_alpha 150.319433
_cell_angle_beta 39.084808
_cell_angle_gamma 160.506490
_cell_volume 816.876909
_symmetry_space_group_name_H-M "P -1"
_symmetry_group_IT_number 2
_symmetry_cell_setting 'triclinic'
loop_
_space_group_symop_operation_xyz
x,y,z
-x,-y,-z
loop_
_atom_site_type_symbol
_atom_site_label
_atom_site_fract_x
_atom_site_fract_y
_atom_site_fract_z
Si Si1 0.397617 0.960715 0.285683
Si Si2 0.892202 0.294064 0.208908
Si Si3 0.972868 0.848056 0.641462
Si Si4 0.586393 0.987787 0.316774
Si Si5 0.756418 0.852643 0.587932
Si Si6 0.920984 0.497111 0.073548
Si Si7 0.622241 0.354732 0.344187
Si Si8 0.460715 0.593314 0.631430
O O1 0.371887 0.982460 0.546846
O O2 0.544356 0.240143 0.449862
O O3 0.259499 0.784685 0.120627
O O4 0.421631 0.842291 0.023477
O O5 0.755727 0.209806 0.301599
O O6 0.000000 0.500000 0.500000
O O7 0.995728 0.392785 0.043807
O O8 0.817437 0.058348 0.954150
O O9 0.952817 0.683274 0.439596
O O10 0.807306 0.639340 0.509488
O O11 0.115378 0.039390 0.588702
O O12 0.000000 0.000000 0.000000
O O13 0.500000 0.000000 0.500000
O O14 0.477284 0.727363 0.981261
O O15 0.605006 0.689489 0.502120
O O16 0.703033 0.690233 0.515335
O O17 0.000000 0.500000 0.000000
O O18 0.549214 0.365624 0.428076
#
# Coordination Sequence:
#
# PCOD8005643 Si02
#       8
#     2   2   2   2   2   2   2   2
#     4  10  21  37  59  93 125 157 205 257 308 367
#     4  10  20  39  61  87 119 156 206 257 303 361
#     4  10  23  43  60  89 128 165 203 259 314 374
#     4  11  21  34  62  90 121 156 203 253 304 365
#     4   9  22  40  64  84 126 159 212 253 308 368
#     4  10  22  40  65  90 126 165 205 260 313 368
#     4  10  22  38  61  86 127 159 202 255 312 364
#     4  10  21  41  63  89 119 169 202 255 313 362
#
# _framework density 19.586794999999999
#
# number of rings (size 3 to 8) (size 9 to 14) (size 15 to 20)
#    0.000    2.000    2.500    0.000    7.000    1.500 
#    2.250    0.625    0.000    0.000    0.000    0.000 
#    0.000    0.000    0.000    0.000    0.000    0.000 
#
# Total GULP energy -198215.424676 kJ/mol
# GULP energy per Si atom -12388.464042 kJ/mol
# Density = 1.954221 g / cm^3
# Si number density = 19.586795 Si / 1000 Ang^3
#
#
#
# Elastic Constant Matrix: (Units=GPa)
#
#
# Indices 1 2 3 4 5 6 
#
# 1 93.0320 24.3377 32.6006 10.0229 -10.0387 0.9730
# 2 24.3377 116.8694 38.0909 10.0426 -5.9535 7.6765
# 3 32.6006 38.0909 107.7076 2.1122 0.4107 1.7589
# 4 10.0229 10.0426 2.1122 30.3069 1.4790 -3.7220
# 5 -10.0387 -5.9535 0.4107 1.4790 21.2958 -1.8562
# 6 0.9730 7.6765 1.7589 -3.7220 -1.8562 25.9361
#
#
#
# Elastic Compliance Matrix: (Units=1/GPa)
#
#
# Indices 1 2 3 4 5 6 
#
# 1 0.013424 -0.000896 -0.003686 -0.004216 0.006430 -0.000133
# 2 -0.000896 0.010456 -0.003317 -0.003448 0.002530 -0.003150
# 3 -0.003686 -0.003317 0.011545 0.001704 -0.002974 0.000369
# 4 -0.004216 -0.003448 0.001704 0.036386 -0.004995 0.005927
# 5 0.006430 0.002530 -0.002974 -0.004995 0.051289 0.002166
# 6 -0.000133 -0.003150 0.000369 0.005927 0.002166 0.040474
#
#
# Mechanical properties :
#
#
# Convention : Reuss Voigt Hill
#
# Bulk Modulus (GPa) = 50.94851 56.40750 53.67801
# Shear Modulus (GPa) = 26.89388 30.34638 28.62013
#
# Velocity S-wave (km/s) = 3.70950 3.94042 3.82671
# Velocity P-wave (km/s) = 6.66449 7.04016 6.85490
#
# Compressibility (1/GPa) = 0.01962766
#
# Stress axis : x y z
#
# Youngs Moduli (GPa) = 74.49070 95.63564 86.61573
#
# Poissons Ratio (x) = 0.08565 0.31929
# Poissons Ratio (y) = 0.06671 0.28734
# Poissons Ratio (z) = 0.27459 0.31726
#
# Static dielectric constant tensor:
#      x y z
#    x 3.405350 0.148010 -0.133120 
#    y 0.148010 3.805570 -0.022740 
#    z -0.133120 -0.022740 3.492320 
# 
# 
# High freq. dielectric constant tensor:
#      x y z
#    x 1.744380 0.009700 -0.005470 
#    y 0.009700 1.779260 0.004100 
#    z -0.005470 0.004100 1.759840 
# 
# From -- ./inp_files/279510.got.cif
#   From: 2010.06.25/outbox.cif.g09.slc.cpg/sg2_140_cif.got.tgz:279510.got - 2010.06.27 13:26:56.
