data_PCOD8005047
_publ_section_title
;
Structure prediction by ZEFSAII (Michael W. Deem and Ramdas Pophale) SiO2 
 PCOD8005047
Probable space group: P -1
;
_chemical_formula_sum "Si O2"
_cell_formula_units_Z 16
_cell_length_a 14.808369
_cell_length_b 12.399051
_cell_length_c 9.092804
_cell_angle_alpha 31.141438
_cell_angle_beta 94.632729
_cell_angle_gamma 80.680251
_cell_volume 769.264896
_symmetry_space_group_name_H-M "P -1"
_symmetry_group_IT_number 2
_symmetry_cell_setting 'triclinic'
loop_
_space_group_symop_operation_xyz
x,y,z
-x,-y,-z
loop_
_atom_site_type_symbol
_atom_site_label
_atom_site_fract_x
_atom_site_fract_y
_atom_site_fract_z
Si Si1 0.162868 0.083761 0.282514
Si Si2 0.838227 0.242301 0.097624
Si Si3 0.090908 0.539699 0.901272
Si Si4 0.989393 0.985962 0.838775
Si Si5 0.448594 0.829021 0.198722
Si Si6 0.505649 0.748466 0.797778
Si Si7 0.381722 0.670174 0.111929
Si Si8 0.368308 0.740079 0.566106
O O1 0.090015 0.116633 0.094053
O O2 0.123852 0.990506 0.526366
O O3 0.274705 0.894644 0.474918
O O4 0.162053 0.323146 0.058137
O O5 0.846718 0.437024 0.976971
O O6 0.905425 0.186819 0.023586
O O7 0.725124 0.331935 0.919827
O O8 0.051721 0.757691 0.532812
O O9 0.000000 0.500000 0.000000
O O10 0.000000 0.000000 0.000000
O O11 0.383967 0.857367 0.010216
O O12 0.540745 0.577889 0.527297
O O13 0.361001 0.872033 0.258393
O O14 0.500000 0.000000 0.000000
O O15 0.478595 0.705663 0.679224
O O16 0.500000 0.000000 0.500000
O O17 0.411790 0.752923 0.870587
O O18 0.613352 0.533999 0.118415
#
# Coordination Sequence:
#
# PCOD8005047 Si02
#       8
#     2   2   2   2   2   2   2   2
#     4  11  22  43  65  94 128 169 216 266 325 392
#     4  11  22  42  67  94 128 168 218 269 326 384
#     4  11  21  44  69  89 127 180 221 264 324 394
#     4  11  25  42  65  96 134 163 208 281 332 379
#     4  10  22  42  60  86 134 172 205 259 330 387
#     4  10  20  38  64  89 125 161 209 262 316 378
#     4  10  22  40  62  93 125 167 213 265 318 389
#     4  10  22  38  59  94 126 158 211 265 310 379
#
# _framework density 20.799078000000002
#
# number of rings (size 3 to 8) (size 9 to 14) (size 15 to 20)
#    0.000    1.500    3.750    1.500    1.750    3.500 
#    2.250    0.000    0.000    0.000    0.000    0.000 
#    0.000    0.000    0.000    0.000    0.000    0.000 
#
# Total GULP energy -198225.918258 kJ/mol
# GULP energy per Si atom -12389.119891 kJ/mol
# Density = 2.075174 g / cm^3
# Si number density = 20.799078 Si / 1000 Ang^3
#
#
#
# Elastic Constant Matrix: (Units=GPa)
#
#
# Indices 1 2 3 4 5 6 
#
# 1 113.0736 66.2471 41.3803 -8.2817 6.5395 6.1481
# 2 66.2471 161.3079 53.0847 -2.7577 0.2646 9.3683
# 3 41.3803 53.0847 81.6765 -16.0513 -9.2358 0.3408
# 4 -8.2817 -2.7577 -16.0513 35.8129 9.7633 4.2680
# 5 6.5395 0.2646 -9.2358 9.7633 24.0739 -3.0709
# 6 6.1481 9.3683 0.3408 4.2680 -3.0709 44.5379
#
#
#
# Elastic Compliance Matrix: (Units=1/GPa)
#
#
# Indices 1 2 3 4 5 6 
#
# 1 0.013452 -0.003890 -0.004480 0.002838 -0.006703 -0.001739
# 2 -0.003890 0.009307 -0.004482 -0.002022 -0.000098 -0.001199
# 3 -0.004480 -0.004482 0.019206 0.005241 0.006684 0.001373
# 4 0.002838 -0.002022 0.005241 0.034952 -0.013460 -0.004284
# 5 -0.006703 -0.000098 0.006684 -0.013460 0.052121 0.005778
# 6 -0.001739 -0.001199 0.001373 -0.004284 0.005778 0.023744
#
#
# Mechanical properties :
#
#
# Convention : Reuss Voigt Hill
#
# Bulk Modulus (GPa) = 61.49311 75.27578 68.38445
# Shear Modulus (GPa) = 27.18772 33.90798 30.54785
#
# Velocity S-wave (km/s) = 3.61939 4.04203 3.83654
# Velocity P-wave (km/s) = 6.86266 7.61935 7.25088
#
# Compressibility (1/GPa) = 0.01626198
#
# Stress axis : x y z
#
# Youngs Moduli (GPa) = 74.33608 107.44683 52.06643
#
# Poissons Ratio (x) = 0.41795 0.23328
# Poissons Ratio (y) = 0.28915 0.23334
# Poissons Ratio (z) = 0.33305 0.48154
#
# Static dielectric constant tensor:
#      x y z
#    x 3.591730 0.092600 -0.092300 
#    y 0.092600 4.228460 -0.079940 
#    z -0.092300 -0.079940 3.722480 
# 
# 
# High freq. dielectric constant tensor:
#      x y z
#    x 1.805880 0.000350 -0.002960 
#    y 0.000350 1.832120 -0.001580 
#    z -0.002960 -0.001580 1.802130 
# 
# From -- ./inp_files/306093.got.cif
#   From: 2010.06.25/outbox.cif.g09.slc.cpg/sg2_154_cif.got.tgz:306093.got - 2010.06.27 13:26:56.
