data_PCOD8005316
_publ_section_title
;
Structure prediction by ZEFSAII (Michael W. Deem and Ramdas Pophale) SiO2 
 PCOD8005316
Probable space group: P -1
;
_chemical_formula_sum "Si O2"
_cell_formula_units_Z 14
_cell_length_a 11.721582
_cell_length_b 14.332884
_cell_length_c 20.502467
_cell_angle_alpha 156.531149
_cell_angle_beta 149.358677
_cell_angle_gamma 46.384864
_cell_volume 609.584302
_symmetry_space_group_name_H-M "P -1"
_symmetry_group_IT_number 2
_symmetry_cell_setting 'triclinic'
loop_
_space_group_symop_operation_xyz
x,y,z
-x,-y,-z
loop_
_atom_site_type_symbol
_atom_site_label
_atom_site_fract_x
_atom_site_fract_y
_atom_site_fract_z
Si Si1 0.272587 0.382603 0.762037
Si Si2 0.977551 0.481572 0.779201
Si Si3 0.527723 0.103034 0.652407
Si Si4 0.242361 0.217192 0.202773
Si Si5 0.204639 0.675589 0.801018
Si Si6 0.516847 0.721569 0.512589
Si Si7 0.370392 0.689602 0.751828
O O1 0.016143 0.298094 0.625232
O O2 0.277819 0.134684 0.568248
O O3 0.320109 0.618230 0.885804
O O4 0.500000 0.500000 0.000000
O O5 0.981648 0.732971 0.903831
O O6 0.717650 0.297378 0.572244
O O7 0.214052 0.609098 0.028528
O O8 0.500000 0.000000 0.500000
O O9 0.557421 0.900318 0.584787
O O10 0.500000 0.500000 0.500000
O O11 0.228319 0.159231 0.237677
O O12 0.251776 0.978191 0.015449
O O13 0.346191 0.636704 0.783344
O O14 0.905794 0.457450 0.512409
O O15 0.455823 0.428961 0.269037
O O16 0.500000 0.000000 0.000000
#
# Coordination Sequence:
#
# PCOD8005316 Si02
#       7
#     2   2   2   2   2   2   2
#     4  10  22  40  62  88 123 168 212 253 306 374
#     4  10  22  40  61  91 125 158 202 259 317 372
#     4  11  24  42  61  87 123 168 217 253 299 371
#     4  10  20  38  66  98 124 154 203 260 321 379
#     4  11  23  42  66  93 132 170 203 262 323 367
#     4  11  23  40  66  94 125 163 206 263 320 371
#     4  11  24  41  65  98 130 165 210 258 320 387
#
# _framework density 22.966470999999999
#
# number of rings (size 3 to 8) (size 9 to 14) (size 15 to 20)
#    0.000    1.429    0.000    6.000    0.000    7.429 
#    0.000    4.286    0.000    0.000    0.000    0.000 
#    0.000    0.000    0.000    0.000    0.000    0.000 
#
# Total GULP energy -173568.891296 kJ/mol
# GULP energy per Si atom -12397.777950 kJ/mol
# Density = 2.291420 g / cm^3
# Si number density = 22.966471 Si / 1000 Ang^3
#
#
#
# Elastic Constant Matrix: (Units=GPa)
#
#
# Indices 1 2 3 4 5 6 
#
# 1 151.0153 53.3215 36.5907 -7.6577 -31.2230 -9.6780
# 2 53.3215 102.3166 34.1975 -2.5659 -19.1211 3.1127
# 3 36.5907 34.1975 94.7753 8.8435 -18.3251 -2.0186
# 4 -7.6577 -2.5659 8.8435 31.9415 -0.1888 -12.2255
# 5 -31.2230 -19.1211 -18.3251 -0.1888 38.0782 8.6102
# 6 -9.6780 3.1127 -2.0186 -12.2255 8.6102 51.1507
#
#
#
# Elastic Compliance Matrix: (Units=1/GPa)
#
#
# Indices 1 2 3 4 5 6 
#
# 1 0.009562 -0.003465 -0.001771 0.003267 0.004831 0.001918
# 2 -0.003465 0.013151 -0.002937 0.000301 0.002797 -0.001970
# 3 -0.001771 -0.002937 0.013469 -0.004922 0.003858 -0.001451
# 4 0.003267 0.000301 -0.004922 0.037116 -0.001510 0.009531
# 5 0.004831 0.002797 0.003858 -0.001510 0.034675 -0.005302
# 6 0.001918 -0.001970 -0.001451 0.009531 -0.005302 0.023146
#
#
# Mechanical properties :
#
#
# Convention : Reuss Voigt Hill
#
# Bulk Modulus (GPa) = 50.41346 66.25851 58.33598
# Shear Modulus (GPa) = 32.45121 39.16726 35.80923
#
# Velocity S-wave (km/s) = 3.76304 4.13414 3.95295
# Velocity P-wave (km/s) = 6.39368 7.19033 6.80368
#
# Compressibility (1/GPa) = 0.01983597
#
# Stress axis : x y z
#
# Youngs Moduli (GPa) = 104.58430 76.04059 74.24249
#
# Poissons Ratio (x) = 0.26345 0.13152
# Poissons Ratio (y) = 0.36234 0.21805
# Poissons Ratio (z) = 0.18526 0.22333
#
# Static dielectric constant tensor:
#      x y z
#    x 16.474550 -32.776980 -20.005560 
#    y -32.776980 93.245250 53.447140 
#    z -20.005560 53.447140 36.337990 
# 
# 
# High freq. dielectric constant tensor:
#      x y z
#    x 1.923670 -0.001480 -0.012960 
#    y -0.001480 1.914840 0.001450 
#    z -0.012960 0.001450 1.890960 
# 
# From -- ./inp_files/263819.got.cif
#   From: 2010.06.25/outbox.cif.g09.slc.cpg/sg2_132_cif.got.tgz:263819.got - 2010.06.27 13:26:56.
