data_PCOD8005042
_publ_section_title
;
Structure prediction by ZEFSAII (Michael W. Deem and Ramdas Pophale) SiO2 
 PCOD8005042
Probable space group: P -1
;
_chemical_formula_sum "Si O2"
_cell_formula_units_Z 12
_cell_length_a 7.592902
_cell_length_b 9.745457
_cell_length_c 8.232738
_cell_angle_alpha 97.789262
_cell_angle_beta 57.676068
_cell_angle_gamma 75.254635
_cell_volume 469.532481
_symmetry_space_group_name_H-M "P -1"
_symmetry_group_IT_number 2
_symmetry_cell_setting 'triclinic'
loop_
_space_group_symop_operation_xyz
x,y,z
-x,-y,-z
loop_
_atom_site_type_symbol
_atom_site_label
_atom_site_fract_x
_atom_site_fract_y
_atom_site_fract_z
Si Si1 0.431519 0.501689 0.348682
Si Si2 0.216170 0.082090 0.736263
Si Si3 0.767524 0.985574 0.640757
Si Si4 0.022291 0.292170 0.291455
Si Si5 0.619634 0.717731 0.115376
Si Si6 0.760208 0.186950 0.129235
O O1 0.500000 0.500000 0.500000
O O2 0.536733 0.592697 0.199285
O O3 0.536760 0.329581 0.204830
O O4 0.157531 0.576783 0.486871
O O5 0.323364 0.030110 0.497644
O O6 0.270592 0.224920 0.781496
O O7 0.317427 0.946355 0.797520
O O8 0.941071 0.131485 0.883146
O O9 0.805147 0.841426 0.707333
O O10 0.587000 0.137957 0.834528
O O11 0.000000 0.000000 0.500000
O O12 0.883745 0.227705 0.228803
O O13 0.182419 0.358527 0.126918
#
# Coordination Sequence:
#
# PCOD8005042 Si02
#       6
#     2   2   2   2   2   2
#     4  10  20  38  64  89 120 161 200 242 299 359
#     4  10  21  37  63  94 117 154 204 252 293 350
#     4  12  20  37  62  90 123 159 197 248 304 354
#     4  10  21  37  60  90 119 158 203 240 297 357
#     4  11  23  39  65  91 119 157 206 247 293 354
#     4   9  19  38  62  90 122 157 200 245 299 358
#
# _framework density 25.557338000000001
#
# number of rings (size 3 to 8) (size 9 to 14) (size 15 to 20)
#    0.000    1.667    3.333    2.000    0.000    6.000 
#    0.000    0.833    0.000   12.000    0.000    0.000 
#    0.000    0.000    0.000    0.000    0.000    0.000 
#
# Total GULP energy -148802.245089 kJ/mol
# GULP energy per Si atom -12400.187091 kJ/mol
# Density = 2.549917 g / cm^3
# Si number density = 25.557338 Si / 1000 Ang^3
#
#
#
# Elastic Constant Matrix: (Units=GPa)
#
#
# Indices 1 2 3 4 5 6 
#
# 1 32.2787 13.0489 3.7854 -11.8493 -13.8835 -5.1252
# 2 13.0489 158.9421 74.7176 8.6761 -17.2877 -22.1330
# 3 3.7854 74.7176 155.8310 -4.6478 -37.2669 4.4562
# 4 -11.8493 8.6761 -4.6478 40.2035 -4.1626 -1.3361
# 5 -13.8835 -17.2877 -37.2669 -4.1626 24.1135 -4.4137
# 6 -5.1252 -22.1330 4.4562 -1.3361 -4.4137 24.0033
#
#
#
# Elastic Compliance Matrix: (Units=1/GPa)
#
#
# Indices 1 2 3 4 5 6 
#
# 1 0.099256 -0.007415 0.027461 0.046271 0.108061 0.031703
# 2 -0.007415 0.010977 -0.007156 -0.005827 -0.006952 0.008264
# 3 0.027461 -0.007156 0.020651 0.016996 0.046430 0.004915
# 4 0.046271 -0.005827 0.016996 0.048430 0.059846 0.015052
# 5 0.108061 -0.006952 0.046430 0.059846 0.189243 0.046172
# 6 0.031703 0.008264 0.004915 0.015052 0.046172 0.064466
#
#
# Mechanical properties :
#
#
# Convention : Reuss Voigt Hill
#
# Bulk Modulus (GPa) = 6.38313 58.90616 32.64464
# Shear Modulus (GPa) = 10.88224 34.69739 22.78981
#
# Velocity S-wave (km/s) = 2.06572 3.68860 2.98940
# Velocity P-wave (km/s) = 2.86227 6.42181 4.97153
#
# Compressibility (1/GPa) = 0.15666296
#
# Stress axis : x y z
#
# Youngs Moduli (GPa) = 10.07500 91.09966 48.42313
#
# Poissons Ratio (x) = 0.67553 -1.32973
# Poissons Ratio (y) = 0.07471 0.34650
# Poissons Ratio (z) = -0.27667 0.65189
#
# Static dielectric constant tensor:
#      x y z
#    x 2.735560 0.374960 -1.283830 
#    y 0.374960 4.427420 0.861400 
#    z -1.283830 0.861400 4.491090 
# 
# 
# High freq. dielectric constant tensor:
#      x y z
#    x 2.007950 -0.009290 -0.024710 
#    y -0.009290 2.008850 0.006850 
#    z -0.024710 0.006850 2.039760 
# 
# From -- ./inp_files/157813.got.cif
#   From: 2010.06.25/outbox.cif.g09.slc.cpg/sg2_79_cif.got.tgz:157813.got - 2010.06.27 13:26:56.
