data_PCOD8005241
_publ_section_title
;
Structure prediction by ZEFSAII (Michael W. Deem and Ramdas Pophale) SiO2 
 PCOD8005241
Probable space group: P -1
;
_chemical_formula_sum "Si O2"
_cell_formula_units_Z 14
_cell_length_a 15.039837
_cell_length_b 17.741396
_cell_length_c 7.692411
_cell_angle_alpha 133.768566
_cell_angle_beta 46.120416
_cell_angle_gamma 157.279815
_cell_volume 561.209600
_symmetry_space_group_name_H-M "P -1"
_symmetry_group_IT_number 2
_symmetry_cell_setting 'triclinic'
loop_
_space_group_symop_operation_xyz
x,y,z
-x,-y,-z
loop_
_atom_site_type_symbol
_atom_site_label
_atom_site_fract_x
_atom_site_fract_y
_atom_site_fract_z
Si Si1 0.752957 0.363669 0.545154
Si Si2 0.677019 0.088323 0.209956
Si Si3 0.114229 0.110915 0.289259
Si Si4 0.033467 0.723164 0.550233
Si Si5 0.532614 0.273618 0.042448
Si Si6 0.241385 0.271480 0.006384
Si Si7 0.035703 0.287879 0.753821
O O1 0.600160 0.150641 0.356233
O O2 0.819831 0.485793 0.486573
O O3 0.000000 0.500000 0.500000
O O4 0.605416 0.324390 0.821542
O O5 0.743431 0.142316 0.413532
O O6 0.904322 0.225046 0.005577
O O7 0.482402 0.858003 0.078536
O O8 0.285679 0.153882 0.225199
O O9 0.234515 0.205383 0.089996
O O10 0.099551 0.211745 0.563602
O O11 0.849367 0.872283 0.252285
O O12 0.946314 0.771743 0.810045
O O13 0.106520 0.785814 0.348082
O O14 0.726351 0.474757 0.209060
O O15 0.500000 0.500000 0.000000
#
# Coordination Sequence:
#
# PCOD8005241 Si02
#       7
#     2   2   2   2   2   2   2
#     4  10  21  43  72  92 128 182 222 274 334 384
#     4  11  24  45  66  98 131 177 226 272 330 391
#     4  10  23  38  63 100 135 172 216 269 327 399
#     4  10  21  44  66  92 133 175 214 279 327 383
#     4  12  22  43  70  96 137 177 220 272 334 392
#     4  10  20  38  65  98 128 173 223 261 329 398
#     4  11  25  42  65 103 137 170 223 272 328 401
#
# _framework density 24.946114000000001
#
# number of rings (size 3 to 8) (size 9 to 14) (size 15 to 20)
#    0.000    1.429    4.286    1.714    0.000    3.429 
#    2.571    0.714    0.000    0.000    0.000    0.000 
#    0.000    0.000    0.000    0.000    0.000    0.000 
#
# Total GULP energy -173507.761415 kJ/mol
# GULP energy per Si atom -12393.411530 kJ/mol
# Density = 2.488934 g / cm^3
# Si number density = 24.946114 Si / 1000 Ang^3
#
#
#
# Elastic Constant Matrix: (Units=GPa)
#
#
# Indices 1 2 3 4 5 6 
#
# 1 45.6099 1.7290 16.9147 5.0219 -4.5319 -14.7120
# 2 1.7290 130.9367 20.9718 37.1525 2.4457 -10.0927
# 3 16.9147 20.9718 100.9473 27.5050 -10.0673 -4.0290
# 4 5.0219 37.1525 27.5050 44.0320 -14.3138 -4.1375
# 5 -4.5319 2.4457 -10.0673 -14.3138 29.2353 6.0576
# 6 -14.7120 -10.0927 -4.0290 -4.1375 6.0576 34.0705
#
#
#
# Elastic Compliance Matrix: (Units=1/GPa)
#
#
# Indices 1 2 3 4 5 6 
#
# 1 0.027248 0.001362 -0.004245 -0.000517 -0.000010 0.011606
# 2 0.001362 0.011396 0.000048 -0.011815 -0.007305 0.003834
# 3 -0.004245 0.000048 0.012619 -0.007464 0.000295 -0.001286
# 4 -0.000517 -0.011815 -0.007464 0.043747 0.020360 -0.002914
# 5 -0.000010 -0.007305 0.000295 0.020360 0.046529 -0.007934
# 6 0.011606 0.003834 -0.001286 -0.002914 -0.007934 0.036403
#
#
# Mechanical properties :
#
#
# Convention : Reuss Voigt Hill
#
# Bulk Modulus (GPa) = 21.93362 39.63610 30.78486
# Shear Modulus (GPa) = 25.14971 37.32612 31.23791
#
# Velocity S-wave (km/s) = 3.17860 3.87236 3.54250
# Velocity P-wave (km/s) = 4.72047 5.99306 5.39442
#
# Compressibility (1/GPa) = 0.04559211
#
# Stress axis : x y z
#
# Youngs Moduli (GPa) = 36.70061 87.74956 79.24332
#
# Poissons Ratio (x) = -0.11950 0.33641
# Poissons Ratio (y) = -0.04998 -0.00381
# Poissons Ratio (z) = 0.15581 -0.00422
#
# Static dielectric constant tensor:
#      x y z
#    x 4.416000 -0.535040 -0.304380 
#    y -0.535040 4.736890 0.331370 
#    z -0.304380 0.331370 4.646100 
# 
# 
# High freq. dielectric constant tensor:
#      x y z
#    x 1.971270 -0.026520 -0.020290 
#    y -0.026520 2.003030 0.010810 
#    z -0.020290 0.010810 1.994600 
# 
# From -- ./inp_files/190480.got.cif
#   From: 2010.06.25/outbox.cif.g09.slc.cpg/sg2_96_cif.got.tgz:190480.got - 2010.06.27 13:26:56.
