data_PCOD8005391
_publ_section_title
;
Structure prediction by ZEFSAII (Michael W. Deem and Ramdas Pophale) SiO2 
 PCOD8005391
Probable space group: P -1
;
_chemical_formula_sum "Si O2"
_cell_formula_units_Z 14
_cell_length_a 9.203930
_cell_length_b 9.523425
_cell_length_c 12.887200
_cell_angle_alpha 35.296316
_cell_angle_beta 77.905837
_cell_angle_gamma 79.056107
_cell_volume 637.847459
_symmetry_space_group_name_H-M "P -1"
_symmetry_group_IT_number 2
_symmetry_cell_setting 'triclinic'
loop_
_space_group_symop_operation_xyz
x,y,z
-x,-y,-z
loop_
_atom_site_type_symbol
_atom_site_label
_atom_site_fract_x
_atom_site_fract_y
_atom_site_fract_z
Si Si1 0.835971 0.213105 0.917746
Si Si2 0.650460 0.966800 0.935377
Si Si3 0.659903 0.632462 0.790949
Si Si4 0.804807 0.308479 0.561638
Si Si5 0.676527 0.467355 0.114207
Si Si6 0.071071 0.212207 0.721657
Si Si7 0.832525 0.106860 0.455942
O O1 0.717961 0.431746 0.820684
O O2 0.982302 0.306369 0.782450
O O3 0.780247 0.004131 0.975333
O O4 0.868029 0.066332 0.108437
O O5 0.669124 0.169628 0.719695
O O6 0.662806 0.699175 0.049885
O O7 0.500000 0.000000 0.000000
O O8 0.482318 0.657026 0.797968
O O9 0.720786 0.889092 0.595424
O O10 0.725285 0.554013 0.940818
O O11 0.795620 0.595669 0.421907
O O12 0.793889 0.267033 0.466049
O O13 0.966900 0.210922 0.636723
O O14 0.800046 0.277911 0.257242
O O15 0.000000 0.000000 0.500000
#
# Coordination Sequence:
#
# PCOD8005391 Si02
#       7
#     2   2   2   2   2   2   2
#     4  10  20  38  68  93 127 174 219 267 337 391
#     4  11  21  42  67  93 126 175 224 274 325 392
#     4  11  24  45  67  96 134 181 218 274 334 398
#     4  10  21  40  62  94 135 166 220 279 321 393
#     4  11  25  46  68  93 139 176 225 273 330 399
#     4   9  20  38  64  95 131 167 217 278 330 394
#     4  12  26  42  68 101 136 176 222 274 334 403
#
# _framework density 21.948820999999999
#
# number of rings (size 3 to 8) (size 9 to 14) (size 15 to 20)
#    0.000    1.429    2.857    2.143    2.000    2.857 
#    0.000    4.286    0.000    0.000    0.000    0.000 
#    0.000    0.000    0.000    0.000    0.000    0.000 
#
# Total GULP energy -173551.063125 kJ/mol
# GULP energy per Si atom -12396.504509 kJ/mol
# Density = 2.189886 g / cm^3
# Si number density = 21.948821 Si / 1000 Ang^3
#
#
#
# Elastic Constant Matrix: (Units=GPa)
#
#
# Indices 1 2 3 4 5 6 
#
# 1 62.4340 15.0365 30.1335 -5.5094 -2.6329 -0.2569
# 2 15.0365 79.4180 18.5998 -3.3340 2.5524 13.5522
# 3 30.1335 18.5998 114.6051 -3.0219 5.2119 9.1940
# 4 -5.5094 -3.3340 -3.0219 32.5619 7.2719 -2.7282
# 5 -2.6329 2.5524 5.2119 7.2719 39.1272 -0.7412
# 6 -0.2569 13.5522 9.1940 -2.7282 -0.7412 31.1292
#
#
#
# Elastic Compliance Matrix: (Units=1/GPa)
#
#
# Indices 1 2 3 4 5 6 
#
# 1 0.019401 -0.003028 -0.004882 0.002390 0.001769 0.003172
# 2 -0.003028 0.014492 -0.001000 0.000655 -0.001252 -0.006012
# 3 -0.004882 -0.001000 0.010475 0.000206 -0.001748 -0.002722
# 4 0.002390 0.000655 0.000206 0.032731 -0.005947 0.002401
# 5 0.001769 -0.001252 -0.001748 -0.005947 0.027119 0.001200
# 6 0.003172 -0.006012 -0.002722 0.002401 0.001200 0.035811
#
#
# Mechanical properties :
#
#
# Convention : Reuss Voigt Hill
#
# Bulk Modulus (GPa) = 37.66429 42.66630 40.16529
# Shear Modulus (GPa) = 29.99473 33.40948 31.70211
#
# Velocity S-wave (km/s) = 3.70073 3.90571 3.80460
# Velocity P-wave (km/s) = 5.95465 6.31036 6.13508
#
# Compressibility (1/GPa) = 0.02655035
#
# Stress axis : x y z
#
# Youngs Moduli (GPa) = 51.54447 69.00130 95.46803
#
# Poissons Ratio (x) = 0.20891 0.46603
# Poissons Ratio (y) = 0.15606 0.09542
# Poissons Ratio (z) = 0.25162 0.06897
#
# Static dielectric constant tensor:
#      x y z
#    x 4.045940 0.349610 -0.386110 
#    y 0.349610 3.976530 -0.101090 
#    z -0.386110 -0.101090 4.410720 
# 
# 
# High freq. dielectric constant tensor:
#      x y z
#    x 1.846250 0.018670 -0.010550 
#    y 0.018670 1.858520 0.000020 
#    z -0.010550 0.000020 1.877510 
# 
# From -- ./inp_files/153804.got.cif
#   From: 2010.06.25/outbox.cif.g09.slc.cpg/sg2_77_cif.got.tgz:153804.got - 2010.06.27 13:26:56.
