data_PCOD8005574
_publ_section_title
;
Structure prediction by ZEFSAII (Michael W. Deem and Ramdas Pophale) SiO2 
 PCOD8005574
Probable space group: P -1
;
_chemical_formula_sum "Si O2"
_cell_formula_units_Z 16
_cell_length_a 9.370619
_cell_length_b 12.065973
_cell_length_c 15.459412
_cell_angle_alpha 152.172153
_cell_angle_beta 79.669008
_cell_angle_gamma 110.374098
_cell_volume 731.166635
_symmetry_space_group_name_H-M "P -1"
_symmetry_group_IT_number 2
_symmetry_cell_setting 'triclinic'
loop_
_space_group_symop_operation_xyz
x,y,z
-x,-y,-z
loop_
_atom_site_type_symbol
_atom_site_label
_atom_site_fract_x
_atom_site_fract_y
_atom_site_fract_z
Si Si1 0.526555 0.792509 0.171957
Si Si2 0.198028 0.654779 0.181050
Si Si3 0.539161 0.679525 0.727972
Si Si4 0.742186 0.747473 0.603823
Si Si5 0.064361 0.580976 0.643194
Si Si6 0.181678 0.788602 0.467386
Si Si7 0.988684 0.847517 0.236033
Si Si8 0.378134 0.039089 0.917422
O O1 0.362829 0.824271 0.230839
O O2 0.661349 0.020999 0.368510
O O3 0.569253 0.837501 0.097164
O O4 0.500000 0.500000 0.000000
O O5 0.228693 0.698449 0.309926
O O6 0.046725 0.719588 0.219638
O O7 0.149747 0.355957 0.949796
O O8 0.709292 0.745718 0.709034
O O9 0.426138 0.374375 0.513972
O O10 0.465394 0.856416 0.808646
O O11 0.565239 0.722692 0.856744
O O12 0.831392 0.570778 0.445412
O O13 0.854259 0.035782 0.760859
O O14 0.184847 0.887098 0.842314
O O15 0.000000 0.500000 0.500000
O O16 0.914124 0.483180 0.657588
O O17 0.071057 0.945962 0.574931
#
# Coordination Sequence:
#
# PCOD8005574 Si02
#       8
#     2   2   2   2   2   2   2   2
#     4  12  24  43  61  91 137 170 208 263 313 385
#     4  11  24  41  65  93 121 179 212 255 320 368
#     4   9  19  38  61  94 115 158 208 258 317 363
#     4   9  19  36  60  87 123 152 197 263 310 365
#     4  10  20  39  60  86 120 158 196 255 318 362
#     4  11  23  43  66  91 128 166 214 262 316 382
#     4  10  22  42  63  93 129 159 215 272 303 377
#     4  10  21  38  64  90 122 161 208 256 313 374
#
# _framework density 21.882836000000001
#
# number of rings (size 3 to 8) (size 9 to 14) (size 15 to 20)
#    0.000    1.750    2.500    1.500    1.750    1.000 
#   13.500    0.625    0.000    0.000    0.000    0.000 
#    0.000    0.000    0.000    0.000    0.000    0.000 
#
# Total GULP energy -198284.458669 kJ/mol
# GULP energy per Si atom -12392.778667 kJ/mol
# Density = 2.183303 g / cm^3
# Si number density = 21.882836 Si / 1000 Ang^3
#
#
#
# Elastic Constant Matrix: (Units=GPa)
#
#
# Indices 1 2 3 4 5 6 
#
# 1 59.0378 33.0677 28.8030 -1.1745 24.1992 17.2910
# 2 33.0677 152.2196 69.9026 -13.7737 30.8073 20.2913
# 3 28.8030 69.9026 93.2909 -21.8882 25.6258 12.0786
# 4 -1.1745 -13.7737 -21.8882 38.7066 -2.1008 6.1891
# 5 24.1992 30.8073 25.6258 -2.1008 31.0720 2.9696
# 6 17.2910 20.2913 12.0786 6.1891 2.9696 37.6436
#
#
#
# Elastic Compliance Matrix: (Units=1/GPa)
#
#
# Indices 1 2 3 4 5 6 
#
# 1 0.029574 0.000255 -0.002094 0.000539 -0.020421 -0.011528
# 2 0.000255 0.011054 -0.006126 0.000774 -0.005692 -0.003788
# 3 -0.002094 -0.006126 0.021071 0.009746 -0.008688 -0.003414
# 4 0.000539 0.000774 0.009746 0.032691 -0.006186 -0.008679
# 5 -0.020421 -0.005692 -0.008688 -0.006186 0.059372 0.011569
# 6 -0.011528 -0.003788 -0.003414 -0.008679 0.011569 0.035512
#
#
# Mechanical properties :
#
#
# Convention : Reuss Voigt Hill
#
# Bulk Modulus (GPa) = 21.84817 63.12166 42.48492
# Shear Modulus (GPa) = 22.67981 33.00278 27.84130
#
# Velocity S-wave (km/s) = 3.22284 3.88771 3.57079
# Velocity P-wave (km/s) = 4.88413 7.00431 6.03801
#
# Compressibility (1/GPa) = 0.04577042
#
# Stress axis : x y z
#
# Youngs Moduli (GPa) = 33.81330 90.46237 47.45835
#
# Poissons Ratio (x) = -0.02310 0.09937
# Poissons Ratio (y) = -0.00863 0.29073
# Poissons Ratio (z) = 0.07080 0.55418
#
# Static dielectric constant tensor:
#      x y z
#    x 3.911230 0.237780 0.258760 
#    y 0.237780 3.937070 0.176030 
#    z 0.258760 0.176030 3.954220 
# 
# 
# High freq. dielectric constant tensor:
#      x y z
#    x 1.862110 0.016410 0.015620 
#    y 0.016410 1.856890 0.001760 
#    z 0.015620 0.001760 1.854290 
# 
# From -- ./inp_files/455256.got.cif
#   From: 2010.06.25/outbox.cif.g09.slc.cpg/sg2_228_cif.got.tgz:455256.got - 2010.06.27 13:26:56.
