data_PCOD8005874
_publ_section_title
;
Structure prediction by ZEFSAII (Michael W. Deem and Ramdas Pophale) SiO2 
 PCOD8005874
Probable space group: P -1
;
_chemical_formula_sum "Si O2"
_cell_formula_units_Z 16
_cell_length_a 9.832335
_cell_length_b 15.731561
_cell_length_c 13.266676
_cell_angle_alpha 154.717398
_cell_angle_beta 104.735525
_cell_angle_gamma 66.097664
_cell_volume 767.562729
_symmetry_space_group_name_H-M "P -1"
_symmetry_group_IT_number 2
_symmetry_cell_setting 'triclinic'
loop_
_space_group_symop_operation_xyz
x,y,z
-x,-y,-z
loop_
_atom_site_type_symbol
_atom_site_label
_atom_site_fract_x
_atom_site_fract_y
_atom_site_fract_z
Si Si1 0.746995 0.139749 0.397676
Si Si2 0.649831 0.476817 0.563352
Si Si3 0.217578 0.490525 0.089720
Si Si4 0.972807 0.249394 0.273184
Si Si5 0.049556 0.753872 0.953677
Si Si6 0.791440 0.940619 0.722263
Si Si7 0.431412 0.141289 0.895866
Si Si8 0.102843 0.436171 0.800818
O O1 0.668158 0.303309 0.467305
O O2 0.783593 0.272254 0.636794
O O3 0.631410 0.044670 0.316812
O O4 0.903348 0.947772 0.182862
O O5 0.500000 0.500000 0.500000
O O6 0.799893 0.399652 0.438877
O O7 0.627911 0.708864 0.855114
O O8 0.076426 0.470389 0.101252
O O9 0.374298 0.292443 0.947248
O O10 0.205277 0.464445 0.940404
O O11 0.101196 0.240610 0.369503
O O12 0.995771 0.331255 0.252533
O O13 0.000000 0.000000 0.000000
O O14 0.123723 0.561229 0.841183
O O15 0.177613 0.842657 0.045276
O O16 0.829934 0.820094 0.491476
O O17 0.615075 0.015976 0.799648
#
# Coordination Sequence:
#
# PCOD8005874 Si02
#       8
#     2   2   2   2   2   2   2   2
#     4  11  22  42  65  94 130 167 218 258 317 388
#     4  11  22  41  65  95 134 172 213 263 311 379
#     4  10  23  44  66  96 127 162 216 278 317 377
#     4  10  20  39  63  91 130 167 204 261 311 371
#     4  11  22  40  68  93 124 172 213 258 320 383
#     4  11  23  43  62  97 133 165 211 269 313 382
#     4  11  25  41  66  95 134 169 212 263 326 373
#     4  11  23  41  70  96 120 168 223 263 324 381
#
# _framework density 20.845202
#
# number of rings (size 3 to 8) (size 9 to 14) (size 15 to 20)
#    0.000    1.250    5.000    2.250    0.000    6.000 
#    0.000    1.250    0.000    0.000    0.000    0.000 
#    0.000    0.000    0.000    0.000    0.000    0.000 
#
# Total GULP energy -198442.549735 kJ/mol
# GULP energy per Si atom -12402.659358 kJ/mol
# Density = 2.079776 g / cm^3
# Si number density = 20.845202 Si / 1000 Ang^3
#
#
#
# Elastic Constant Matrix: (Units=GPa)
#
#
# Indices 1 2 3 4 5 6 
#
# 1 117.1647 44.4450 35.3392 -4.0746 -2.8164 -15.2627
# 2 44.4450 102.3961 35.3500 -14.6133 2.4474 0.4414
# 3 35.3392 35.3500 75.5136 -17.6875 -2.2491 -6.3289
# 4 -4.0746 -14.6133 -17.6875 28.1425 -5.6132 -0.8471
# 5 -2.8164 2.4474 -2.2491 -5.6132 37.0689 4.0191
# 6 -15.2627 0.4414 -6.3289 -0.8471 4.0191 34.2510
#
#
#
# Elastic Compliance Matrix: (Units=1/GPa)
#
#
# Indices 1 2 3 4 5 6 
#
# 1 0.011772 -0.004208 -0.003797 -0.002723 0.000039 0.004527
# 2 -0.004208 0.013427 -0.003637 0.003889 -0.000561 -0.002558
# 3 -0.003797 -0.003637 0.019363 0.010283 0.002478 0.001897
# 4 -0.002723 0.003889 0.010283 0.045021 0.006875 0.000943
# 5 0.000039 -0.000561 0.002478 0.006875 0.028500 -0.002692
# 6 0.004527 -0.002558 0.001897 0.000943 -0.002692 0.031936
#
#
# Mechanical properties :
#
#
# Convention : Reuss Voigt Hill
#
# Bulk Modulus (GPa) = 46.99215 58.37141 52.68178
# Shear Modulus (GPa) = 27.71681 31.88849 29.80265
#
# Velocity S-wave (km/s) = 3.65039 3.91548 3.78526
# Velocity P-wave (km/s) = 6.35291 6.96451 6.66573
#
# Compressibility (1/GPa) = 0.02128015
#
# Stress axis : x y z
#
# Youngs Moduli (GPa) = 84.94502 74.47460 51.64455
#
# Poissons Ratio (x) = 0.31340 0.19607
# Poissons Ratio (y) = 0.35746 0.18782
# Poissons Ratio (z) = 0.32250 0.27084
#
# Static dielectric constant tensor:
#      x y z
#    x 3.720020 -0.005320 0.259490 
#    y -0.005320 4.030120 -0.035770 
#    z 0.259490 -0.035770 4.218280 
# 
# 
# High freq. dielectric constant tensor:
#      x y z
#    x 1.805040 -0.006890 0.006990 
#    y -0.006890 1.814760 -0.003180 
#    z 0.006990 -0.003180 1.834290 
# 
# From -- ./inp_files/312988.got.cif
#   From: 2010.06.25/outbox.cif.g09.slc.cpg/sg2_157_cif.got.tgz:312988.got - 2010.06.27 13:26:56.
