data_PCOD8005503
_publ_section_title
;
Structure prediction by ZEFSAII (Michael W. Deem and Ramdas Pophale) SiO2 
 PCOD8005503
Probable space group: P -1
;
_chemical_formula_sum "Si O2"
_cell_formula_units_Z 14
_cell_length_a 17.354745
_cell_length_b 9.160729
_cell_length_c 14.145024
_cell_angle_alpha 86.085606
_cell_angle_beta 157.621528
_cell_angle_gamma 108.630042
_cell_volume 630.342584
_symmetry_space_group_name_H-M "P -1"
_symmetry_group_IT_number 2
_symmetry_cell_setting 'triclinic'
loop_
_space_group_symop_operation_xyz
x,y,z
-x,-y,-z
loop_
_atom_site_type_symbol
_atom_site_label
_atom_site_fract_x
_atom_site_fract_y
_atom_site_fract_z
Si Si1 0.102793 0.927110 0.229619
Si Si2 0.318953 0.017213 0.855102
Si Si3 0.318921 0.508779 0.431634
Si Si4 0.448110 0.299499 0.494932
Si Si5 0.997824 0.165867 0.209842
Si Si6 0.553966 0.161427 0.314917
Si Si7 0.764322 0.711808 0.328838
O O1 0.372986 0.110031 0.467110
O O2 0.040370 0.018597 0.233710
O O3 0.176331 0.806839 0.365285
O O4 0.837207 0.776991 0.870316
O O5 0.039643 0.798032 0.580530
O O6 0.255211 0.123987 0.712655
O O7 0.500000 0.000000 0.000000
O O8 0.496304 0.156260 0.139706
O O9 0.522612 0.466699 0.646805
O O10 0.315988 0.598586 0.323867
O O11 0.038014 0.299239 0.161917
O O12 0.423617 0.666071 0.624644
O O13 0.208154 0.306004 0.527312
O O14 0.693165 0.043347 0.905683
O O15 0.500000 0.500000 0.000000
#
# Coordination Sequence:
#
# PCOD8005503 Si02
#       7
#     2   2   2   2   2   2   2
#     4  10  20  39  60  83 117 159 189 241 293 334
#     4  10  22  40  61  91 120 154 199 245 297 358
#     4  10  20  39  58  85 118 150 194 242 281 343
#     4   9  20  39  59  83 119 155 195 238 288 345
#     4  10  21  40  58  85 120 151 194 239 290 348
#     4  11  22  38  61  86 117 152 195 242 291 344
#     4  10  21  39  64  87 118 161 194 242 302 354
#
# _framework density 22.210144
#
# number of rings (size 3 to 8) (size 9 to 14) (size 15 to 20)
#    0.000    2.000    1.429    1.714    0.000    1.714 
#   10.286    0.000    0.000    0.000    0.000    0.000 
#    0.000    0.000    0.000    0.000    0.000    0.000 
#
# Total GULP energy -173444.126211 kJ/mol
# GULP energy per Si atom -12388.866158 kJ/mol
# Density = 2.215959 g / cm^3
# Si number density = 22.210144 Si / 1000 Ang^3
#
#
#
# Elastic Constant Matrix: (Units=GPa)
#
#
# Indices 1 2 3 4 5 6 
#
# 1 117.9422 32.3861 25.4427 3.6455 11.9514 -16.4289
# 2 32.3861 71.2891 23.7669 9.0902 -0.9952 -6.2570
# 3 25.4427 23.7669 67.6080 -5.8162 -2.7917 -18.7446
# 4 3.6455 9.0902 -5.8162 20.7919 -0.3930 -10.3822
# 5 11.9514 -0.9952 -2.7917 -0.3930 25.4422 9.0916
# 6 -16.4289 -6.2570 -18.7446 -10.3822 9.0916 37.2929
#
#
#
# Elastic Compliance Matrix: (Units=1/GPa)
#
#
# Indices 1 2 3 4 5 6 
#
# 1 0.011687 -0.004932 -0.000874 0.003063 -0.008131 0.006716
# 2 -0.004932 0.020343 -0.008660 -0.014532 0.004925 -0.008359
# 3 -0.000874 -0.008660 0.024150 0.018727 -0.002774 0.016190
# 4 0.003063 -0.014532 0.018727 0.074733 -0.010086 0.031588
# 5 -0.008131 0.004925 -0.002774 -0.010086 0.049670 -0.019067
# 6 0.006716 -0.008359 0.016190 0.031588 -0.019067 0.049951
#
#
# Mechanical properties :
#
#
# Convention : Reuss Voigt Hill
#
# Bulk Modulus (GPa) = 36.70096 46.67007 41.68552
# Shear Modulus (GPa) = 18.61865 28.38833 23.50349
#
# Velocity S-wave (km/s) = 2.89847 3.57903 3.25658
# Velocity P-wave (km/s) = 5.26895 6.17558 5.74019
#
# Compressibility (1/GPa) = 0.02724724
#
# Stress axis : x y z
#
# Youngs Moduli (GPa) = 85.56863 49.15635 41.40867
#
# Poissons Ratio (x) = 0.24245 0.03620
# Poissons Ratio (y) = 0.42204 0.35858
# Poissons Ratio (z) = 0.07480 0.42568
#
# Static dielectric constant tensor:
#      x y z
#    x 4.052820 -0.038730 0.275480 
#    y -0.038730 3.744060 0.459040 
#    z 0.275480 0.459040 3.485050 
# 
# 
# High freq. dielectric constant tensor:
#      x y z
#    x 1.888000 0.004190 0.004670 
#    y 0.004190 1.875240 0.017690 
#    z 0.004670 0.017690 1.843140 
# 
# From -- ./inp_files/45888.got.cif
#   From: 2010.06.25/outbox.cif.g09.slc.cpg/sg2_23_cif.got.tgz:45888.got - 2010.06.27 13:26:56.
