data_PCOD8005891
_publ_section_title
;
Structure prediction by ZEFSAII (Michael W. Deem and Ramdas Pophale) SiO2 
 PCOD8005891
Probable space group: P -1
;
_chemical_formula_sum "Si O2"
_cell_formula_units_Z 16
_cell_length_a 15.719614
_cell_length_b 11.951204
_cell_length_c 9.240080
_cell_angle_alpha 50.879127
_cell_angle_beta 49.496215
_cell_angle_gamma 40.536791
_cell_volume 824.071379
_symmetry_space_group_name_H-M "P -1"
_symmetry_group_IT_number 2
_symmetry_cell_setting 'triclinic'
loop_
_space_group_symop_operation_xyz
x,y,z
-x,-y,-z
loop_
_atom_site_type_symbol
_atom_site_label
_atom_site_fract_x
_atom_site_fract_y
_atom_site_fract_z
Si Si1 0.359144 0.693867 0.989601
Si Si2 0.882922 0.068575 0.368989
Si Si3 0.827374 0.110836 0.703868
Si Si4 0.642553 0.970366 0.332860
Si Si5 0.894089 0.564533 0.851770
Si Si6 0.878370 0.800799 0.429544
Si Si7 0.165355 0.225734 0.974421
Si Si8 0.143476 0.684039 0.044243
O O1 0.301912 0.744266 0.174505
O O2 0.258730 0.679213 0.010423
O O3 0.500000 0.500000 0.000000
O O4 0.378307 0.840872 0.788624
O O5 0.790227 0.178274 0.523282
O O6 0.812619 0.987951 0.432053
O O7 0.903423 0.185974 0.145229
O O8 0.036926 0.902608 0.387445
O O9 0.868566 0.911409 0.833073
O O10 0.757581 0.831419 0.435338
O O11 0.694678 0.879568 0.190901
O O12 0.500000 0.000000 0.500000
O O13 0.929320 0.645670 0.616111
O O14 0.800431 0.508709 0.929887
O O15 0.039632 0.389204 0.888826
O O16 0.809939 0.702550 0.963746
O O17 0.008272 0.756475 0.229658
#
# Coordination Sequence:
#
# PCOD8005891 Si02
#       8
#     2   2   2   2   2   2   2   2
#     4  11  25  43  64  90 124 164 208 259 306 365
#     4  11  20  37  65  94 122 160 204 257 314 363
#     4  10  20  39  63  93 126 162 201 252 317 362
#     4  11  25  44  63  88 127 167 206 251 312 370
#     4  11  23  37  63  97 129 158 203 258 306 365
#     4  12  22  39  65  96 123 163 210 252 305 369
#     4  10  21  40  60  92 131 161 200 251 313 364
#     4  12  22  40  63  97 124 157 210 261 303 360
#
# _framework density 19.415796
#
# number of rings (size 3 to 8) (size 9 to 14) (size 15 to 20)
#    0.000    1.000    6.250    1.500    1.750    0.000 
#    2.250    2.500    0.000    0.000    0.000    0.000 
#    0.000    0.000    0.000    0.000    0.000    0.000 
#
# Total GULP energy -198371.812065 kJ/mol
# GULP energy per Si atom -12398.238254 kJ/mol
# Density = 1.937160 g / cm^3
# Si number density = 19.415796 Si / 1000 Ang^3
#
#
#
# Elastic Constant Matrix: (Units=GPa)
#
#
# Indices 1 2 3 4 5 6 
#
# 1 128.8897 56.9170 73.1367 16.8329 -1.4806 16.7050
# 2 56.9170 104.1757 51.2579 7.4470 5.4805 10.9451
# 3 73.1367 51.2579 128.4103 -0.1132 13.5440 2.8938
# 4 16.8329 7.4470 -0.1132 29.9799 -0.1273 -2.0355
# 5 -1.4806 5.4805 13.5440 -0.1273 35.4031 2.1807
# 6 16.7050 10.9451 2.8938 -2.0355 2.1807 34.2581
#
#
#
# Elastic Compliance Matrix: (Units=1/GPa)
#
#
# Indices 1 2 3 4 5 6 
#
# 1 0.015947 -0.003740 -0.007938 -0.008491 0.004666 -0.006712
# 2 -0.003740 0.013580 -0.003143 -0.001444 -0.000921 -0.002276
# 3 -0.007938 -0.003143 0.014047 0.005564 -0.005468 0.004367
# 4 -0.008491 -0.001444 0.005564 0.038940 -0.002527 0.006606
# 5 0.004666 -0.000921 -0.005468 -0.002527 0.030891 -0.003635
# 6 -0.006712 -0.002276 0.004367 0.006606 -0.003635 0.033445
#
#
# Mechanical properties :
#
#
# Convention : Reuss Voigt Hill
#
# Bulk Modulus (GPa) = 71.78483 80.45544 76.12014
# Shear Modulus (GPa) = 27.60348 31.93917 29.77132
#
# Velocity S-wave (km/s) = 3.77464 4.06027 3.92006
# Velocity P-wave (km/s) = 7.48664 7.96926 7.73172
#
# Compressibility (1/GPa) = 0.01393052
#
# Stress axis : x y z
#
# Youngs Moduli (GPa) = 62.70810 73.63690 71.19153
#
# Poissons Ratio (x) = 0.27542 0.56511
# Poissons Ratio (y) = 0.23454 0.22378
# Poissons Ratio (z) = 0.49777 0.23147
#
# Static dielectric constant tensor:
#      x y z
#    x 3.987780 0.312280 0.260390 
#    y 0.312280 3.532820 -0.077000 
#    z 0.260390 -0.077000 3.744110 
# 
# 
# High freq. dielectric constant tensor:
#      x y z
#    x 1.756990 0.031190 0.014460 
#    y 0.031190 1.735110 -0.006160 
#    z 0.014460 -0.006160 1.769600 
# 
# From -- ./inp_files/175305.got.cif
#   From: 2010.06.25/outbox.cif.g09.slc.cpg/sg2_88_cif.got.tgz:175305.got - 2010.06.27 13:26:56.
