data_PCOD8005666
_publ_section_title
;
Structure prediction by ZEFSAII (Michael W. Deem and Ramdas Pophale) SiO2 
 PCOD8005666
Probable space group: P -1
;
_chemical_formula_sum "Si O2"
_cell_formula_units_Z 16
_cell_length_a 7.846371
_cell_length_b 17.075255
_cell_length_c 13.882959
_cell_angle_alpha 150.093226
_cell_angle_beta 82.542630
_cell_angle_gamma 114.215915
_cell_volume 734.171099
_symmetry_space_group_name_H-M "P -1"
_symmetry_group_IT_number 2
_symmetry_cell_setting 'triclinic'
loop_
_space_group_symop_operation_xyz
x,y,z
-x,-y,-z
loop_
_atom_site_type_symbol
_atom_site_label
_atom_site_fract_x
_atom_site_fract_y
_atom_site_fract_z
Si Si1 0.103587 0.695417 0.981628
Si Si2 0.490643 0.364398 0.552653
Si Si3 0.458521 0.112291 0.446153
Si Si4 0.962904 0.820875 0.647776
Si Si5 0.090627 0.585317 0.480477
Si Si6 0.785975 0.789971 0.060395
Si Si7 0.933010 0.318727 0.679617
Si Si8 0.803706 0.985539 0.455061
O O1 0.951666 0.763261 0.071225
O O2 0.346973 0.890684 0.180359
O O3 0.066438 0.583495 0.765400
O O4 0.053986 0.553161 0.925101
O O5 0.395578 0.225263 0.505458
O O6 0.283034 0.274273 0.401716
O O7 0.667562 0.350401 0.473850
O O8 0.586480 0.585830 0.812515
O O9 0.711731 0.228030 0.541189
O O10 0.392892 0.115246 0.563784
O O11 0.080452 0.768254 0.658497
O O12 0.929265 0.722978 0.441206
O O13 0.105584 0.056405 0.873070
O O14 0.000000 0.500000 0.500000
O O15 0.712739 0.865555 0.233053
O O16 0.888509 0.211096 0.670360
O O17 0.000000 0.000000 0.500000
#
# Coordination Sequence:
#
# PCOD8005666 Si02
#       8
#     2   2   2   2   2   2   2   2
#     4  10  20  40  65  84 123 164 200 247 320 356
#     4  11  22  41  67  87 124 166 199 251 311 361
#     4  12  20  38  63  86 122 168 202 251 302 353
#     4  10  20  40  67  89 124 161 199 249 310 363
#     4  10  23  44  66  93 124 153 203 257 303 378
#     4  10  20  39  61  89 124 165 202 249 299 355
#     4  10  22  39  57  89 124 166 206 254 296 358
#     4  11  22  36  56  88 126 162 217 251 287 355
#
# _framework density 21.793284
#
# number of rings (size 3 to 8) (size 9 to 14) (size 15 to 20)
#    0.000    1.500    6.250    1.125    0.000    5.500 
#    0.000    3.125    0.000    0.000    0.000    0.000 
#    0.000    0.000    0.000    0.000    0.000    0.000 
#
# Total GULP energy -198344.329651 kJ/mol
# GULP energy per Si atom -12396.520603 kJ/mol
# Density = 2.174368 g / cm^3
# Si number density = 21.793284 Si / 1000 Ang^3
#
#
#
# Elastic Constant Matrix: (Units=GPa)
#
#
# Indices 1 2 3 4 5 6 
#
# 1 91.3747 33.6146 31.0218 13.1541 -6.7462 -0.5943
# 2 33.6146 113.8742 41.0833 23.7686 -18.2723 -0.6567
# 3 31.0218 41.0833 124.1595 39.6161 -6.5854 -4.8265
# 4 13.1541 23.7686 39.6161 35.4663 -5.3140 -8.3395
# 5 -6.7462 -18.2723 -6.5854 -5.3140 30.3122 13.9966
# 6 -0.5943 -0.6567 -4.8265 -8.3395 13.9966 27.0590
#
#
#
# Elastic Compliance Matrix: (Units=1/GPa)
#
#
# Indices 1 2 3 4 5 6 
#
# 1 0.012819 -0.002735 -0.002063 -0.000672 0.001057 -0.000907
# 2 -0.002735 0.012713 -0.001326 -0.006230 0.008613 -0.006363
# 3 -0.002063 -0.001326 0.013290 -0.013636 0.000158 -0.001991
# 4 -0.000672 -0.006230 -0.013636 0.050773 -0.005245 0.015763
# 5 0.001057 0.008613 0.000158 -0.005245 0.050132 -0.027288
# 6 -0.000907 -0.006363 -0.001991 0.015763 -0.027288 0.055400
#
#
# Mechanical properties :
#
#
# Convention : Reuss Voigt Hill
#
# Bulk Modulus (GPa) = 37.62902 60.09422 48.86162
# Shear Modulus (GPa) = 23.12321 33.48007 28.30164
#
# Velocity S-wave (km/s) = 3.26087 3.92376 3.60757
# Velocity P-wave (km/s) = 5.61084 6.93991 6.31046
#
# Compressibility (1/GPa) = 0.02657524
#
# Stress axis : x y z
#
# Youngs Moduli (GPa) = 78.00689 78.65874 75.24379
#
# Poissons Ratio (x) = 0.21516 0.15519
# Poissons Ratio (y) = 0.21338 0.09976
# Poissons Ratio (z) = 0.16089 0.10429
#
# Static dielectric constant tensor:
#      x y z
#    x 4.028900 -0.055970 -0.315660 
#    y -0.055970 3.839780 0.355410 
#    z -0.315660 0.355410 3.981940 
# 
# 
# High freq. dielectric constant tensor:
#      x y z
#    x 1.865430 -0.005420 -0.014890 
#    y -0.005420 1.840780 0.032900 
#    z -0.014890 0.032900 1.841240 
# 
# From -- ./inp_files/214819.got.cif
#   From: 2010.06.25/outbox.cif.g09.slc.cpg/sg2_108_cif.got.tgz:214819.got - 2010.06.27 13:26:56.
