data_PCOD8005466
_publ_section_title
;
Structure prediction by ZEFSAII (Michael W. Deem and Ramdas Pophale) SiO2 
 PCOD8005466
Probable space group: P -1
;
_chemical_formula_sum "Si O2"
_cell_formula_units_Z 12
_cell_length_a 7.333898
_cell_length_b 19.615446
_cell_length_c 9.808163
_cell_angle_alpha 148.933642
_cell_angle_beta 99.117695
_cell_angle_gamma 60.296796
_cell_volume 509.057779
_symmetry_space_group_name_H-M "P -1"
_symmetry_group_IT_number 2
_symmetry_cell_setting 'triclinic'
loop_
_space_group_symop_operation_xyz
x,y,z
-x,-y,-z
loop_
_atom_site_type_symbol
_atom_site_label
_atom_site_fract_x
_atom_site_fract_y
_atom_site_fract_z
Si Si1 0.879346 0.200876 0.290963
Si Si2 0.479588 0.774682 0.264681
Si Si3 0.961228 0.806442 0.003766
Si Si4 0.331027 0.568056 0.880411
Si Si5 0.474276 0.130078 0.829685
Si Si6 0.103679 0.232245 0.615653
O O1 0.564944 0.344378 0.509137
O O2 0.975815 0.269799 0.519482
O O3 0.955217 0.215247 0.177459
O O4 0.000000 0.000000 0.000000
O O5 0.545193 0.732164 0.034735
O O6 0.699196 0.742115 0.322284
O O7 0.198882 0.984552 0.609516
O O8 0.455674 0.638013 0.081813
O O9 0.780330 0.765490 0.927671
O O10 0.214355 0.660335 0.876851
O O11 0.111130 0.623326 0.049068
O O12 0.500000 0.000000 0.500000
O O13 0.738671 0.984091 0.699891
#
# Coordination Sequence:
#
# PCOD8005466 Si02
#       6
#     2   2   2   2   2   2
#     4  12  28  41  59  96 139 174 203 265 331 369
#     4  10  20  38  76  98 117 164 218 272 309 368
#     4  10  20  42  67  97 127 166 212 259 323 384
#     4  12  22  42  71  94 123 173 223 255 308 391
#     4   8  16  36  67  94 121 157 208 262 312 365
#     4  10  21  43  65  96 130 160 218 262 315 384
#
# _framework density 23.572963000000001
#
# number of rings (size 3 to 8) (size 9 to 14) (size 15 to 20)
#    0.000    2.000    5.000    2.500    2.333    3.333 
#    0.000    5.833    0.000    0.000    0.000    0.000 
#    0.000    0.000    0.000    0.000    0.000    0.000 
#
# Total GULP energy -148721.386165 kJ/mol
# GULP energy per Si atom -12393.448847 kJ/mol
# Density = 2.351931 g / cm^3
# Si number density = 23.572963 Si / 1000 Ang^3
#
#
#
# Elastic Constant Matrix: (Units=GPa)
#
#
# Indices 1 2 3 4 5 6 
#
# 1 64.2401 27.8250 35.8648 9.1595 -20.7324 -13.8639
# 2 27.8250 128.4132 61.4555 -9.8084 -16.3700 -22.4098
# 3 35.8648 61.4555 101.0612 19.1918 -26.6902 -4.8991
# 4 9.1595 -9.8084 19.1918 44.5818 1.7832 -9.5424
# 5 -20.7324 -16.3700 -26.6902 1.7832 21.1564 11.1544
# 6 -13.8639 -22.4098 -4.8991 -9.5424 11.1544 20.3940
#
#
#
# Elastic Compliance Matrix: (Units=1/GPa)
#
#
# Indices 1 2 3 4 5 6 
#
# 1 0.022018 0.018470 -0.031831 0.028199 -0.039603 0.062472
# 2 0.018470 -0.131967 0.206139 -0.227175 0.414488 -0.415933
# 3 -0.031831 0.206139 -0.296775 0.336362 -0.601224 0.619804
# 4 0.028199 -0.227175 0.336362 -0.349000 0.661316 -0.674659
# 5 -0.039603 0.414488 -0.601224 0.661316 -1.121342 1.206851
# 6 0.062472 -0.415933 0.619804 -0.674659 1.206851 -1.192407
#
#
# Mechanical properties :
#
#
# Convention : Reuss Voigt Hill
#
# Bulk Modulus (GPa) = -47.24023 60.44500 6.60238
# Shear Modulus (GPa) = -1.44422 28.46438 13.51008
#
# Velocity S-wave (km/s) = -0.78357 3.47868 2.39658
# Velocity P-wave (km/s) = 4.57189 6.46779 3.23498
#
# Compressibility (1/GPa) = -0.02116840
#
# Stress axis : x y z
#
# Youngs Moduli (GPa) = 45.41706 -7.57765 -3.36956
#
# Poissons Ratio (x) = 0.13996 -0.10726
# Poissons Ratio (y) = -0.83886 0.69460
# Poissons Ratio (z) = 1.44568 1.56205
#
# Static dielectric constant tensor:
#      x y z
#    x 4.578650 0.342210 -0.320890 
#    y 0.342210 4.951730 0.124250 
#    z -0.320890 0.124250 4.044240 
# 
# 
# High freq. dielectric constant tensor:
#      x y z
#    x 1.927280 -0.003800 -0.026150 
#    y -0.003800 1.942150 0.008030 
#    z -0.026150 0.008030 1.906940 
# 
# From -- ./inp_files/224244.got.cif
#   From: 2010.06.25/outbox.cif.g09.slc.cpg/sg2_113_cif.got.tgz:224244.got - 2010.06.27 13:26:56.
