data_PCOD8005598
_publ_section_title
;
Structure prediction by ZEFSAII (Michael W. Deem and Ramdas Pophale) SiO2 
 PCOD8005598
Probable space group: P -1
;
_chemical_formula_sum "Si O2"
_cell_formula_units_Z 16
_cell_length_a 9.044389
_cell_length_b 17.578265
_cell_length_c 8.993188
_cell_angle_alpha 49.762733
_cell_angle_beta 116.608515
_cell_angle_gamma 131.600873
_cell_volume 815.726832
_symmetry_space_group_name_H-M "P -1"
_symmetry_group_IT_number 2
_symmetry_cell_setting 'triclinic'
loop_
_space_group_symop_operation_xyz
x,y,z
-x,-y,-z
loop_
_atom_site_type_symbol
_atom_site_label
_atom_site_fract_x
_atom_site_fract_y
_atom_site_fract_z
Si Si1 0.809881 0.051386 0.798076
Si Si2 0.312234 0.200253 0.346343
Si Si3 0.422703 0.007669 0.616111
Si Si4 0.629584 0.465345 0.190800
Si Si5 0.142501 0.458777 0.075762
Si Si6 0.021436 0.812702 0.605176
Si Si7 0.548124 0.567861 0.283166
Si Si8 0.814862 0.828912 0.003544
O O1 0.604831 0.039295 0.766836
O O2 0.922114 0.136143 0.600413
O O3 0.952675 0.106177 0.935759
O O4 0.747918 0.917852 0.902118
O O5 0.372052 0.106122 0.482872
O O6 0.512741 0.322894 0.326839
O O7 0.145434 0.165950 0.438534
O O8 0.223561 0.208365 0.139318
O O9 0.500000 0.000000 0.500000
O O10 0.216440 0.881747 0.711469
O O11 0.666039 0.522807 0.297749
O O12 0.500000 0.500000 0.000000
O O13 0.832044 0.523152 0.114885
O O14 0.351480 0.542649 0.145563
O O15 0.055636 0.324766 0.255452
O O16 0.000000 0.500000 0.000000
O O17 0.500000 0.500000 0.500000
O O18 0.688328 0.709248 0.195512
#
# Coordination Sequence:
#
# PCOD8005598 Si02
#       8
#     2   2   2   2   2   2   2   2
#     4  10  24  39  58  91 120 161 202 251 296 365
#     4  12  20  39  67  87 119 160 202 257 300 366
#     4  10  22  36  61  89 119 157 204 250 295 353
#     4  10  20  39  60  90 122 155 208 246 301 366
#     4  11  23  36  64  95 121 158 205 253 300 366
#     4  11  21  37  62  91 119 156 210 241 302 371
#     4  11  22  41  64  90 120 165 200 250 309 373
#     4  11  21  38  65  82 124 159 199 242 316 351
#
# _framework density 19.614408999999998
#
# number of rings (size 3 to 8) (size 9 to 14) (size 15 to 20)
#    0.000    1.250    7.500    1.125    5.250    0.000 
#    0.000    1.250    2.750    0.000    0.000    0.000 
#    0.000    0.000    0.000    0.000    0.000    0.000 
#
# Total GULP energy -198335.070145 kJ/mol
# GULP energy per Si atom -12395.941884 kJ/mol
# Density = 1.956977 g / cm^3
# Si number density = 19.614409 Si / 1000 Ang^3
#
#
#
# Elastic Constant Matrix: (Units=GPa)
#
#
# Indices 1 2 3 4 5 6 
#
# 1 138.5771 36.4156 39.2432 -9.1400 11.1534 -9.7295
# 2 36.4156 100.0331 33.8240 -25.4357 7.1161 -2.5506
# 3 39.2432 33.8240 57.6823 -1.2309 -6.4992 -1.6908
# 4 -9.1400 -25.4357 -1.2309 32.8285 1.9095 -1.3019
# 5 11.1534 7.1161 -6.4992 1.9095 30.5133 4.5125
# 6 -9.7295 -2.5506 -1.6908 -1.3019 4.5125 26.4253
#
#
#
# Elastic Compliance Matrix: (Units=1/GPa)
#
#
# Indices 1 2 3 4 5 6 
#
# 1 0.010403 0.000261 -0.007745 0.003364 -0.006407 0.004619
# 2 0.000261 0.017938 -0.011205 0.014144 -0.008020 0.003177
# 3 -0.007745 -0.011205 0.030303 -0.010664 0.013274 -0.004786
# 4 0.003364 0.014144 -0.010664 0.042787 -0.010334 0.005794
# 5 -0.006407 -0.008020 0.013274 -0.010334 0.041931 -0.009953
# 6 0.004619 0.003177 -0.004786 0.005794 -0.009953 0.041529
#
#
# Mechanical properties :
#
#
# Convention : Reuss Voigt Hill
#
# Bulk Modulus (GPa) = 47.02221 57.25091 52.13656
# Shear Modulus (GPa) = 21.79995 30.40740 26.10368
#
# Velocity S-wave (km/s) = 3.33742 3.94160 3.65203
# Velocity P-wave (km/s) = 6.23510 7.06870 6.66495
#
# Compressibility (1/GPa) = 0.02126654
#
# Stress axis : x y z
#
# Youngs Moduli (GPa) = 96.12814 55.74643 32.99955
#
# Poissons Ratio (x) = -0.01453 0.25558
# Poissons Ratio (y) = -0.02505 0.36975
# Poissons Ratio (z) = 0.74450 0.62463
#
# Static dielectric constant tensor:
#      x y z
#    x 5.457510 1.469010 -0.007970 
#    y 1.469010 7.409250 0.729880 
#    z -0.007970 0.729880 3.706670 
# 
# 
# High freq. dielectric constant tensor:
#      x y z
#    x 1.761410 -0.000330 -0.002750 
#    y -0.000330 1.773400 -0.020230 
#    z -0.002750 -0.020230 1.749440 
# 
# From -- ./inp_files/214495.got.cif
#   From: 2010.06.25/outbox.cif.g09.slc.cpg/sg2_108_cif.got.tgz:214495.got - 2010.06.27 13:26:56.
