data_PCOD8005336
_publ_section_title
;
Structure prediction by ZEFSAII (Michael W. Deem and Ramdas Pophale) SiO2 
 PCOD8005336
Probable space group: P -1
;
_chemical_formula_sum "Si O2"
_cell_formula_units_Z 16
_cell_length_a 8.451376
_cell_length_b 20.889206
_cell_length_c 8.918314
_cell_angle_alpha 132.393774
_cell_angle_beta 118.902917
_cell_angle_gamma 41.103648
_cell_volume 763.450937
_symmetry_space_group_name_H-M "P -1"
_symmetry_group_IT_number 2
_symmetry_cell_setting 'triclinic'
loop_
_space_group_symop_operation_xyz
x,y,z
-x,-y,-z
loop_
_atom_site_type_symbol
_atom_site_label
_atom_site_fract_x
_atom_site_fract_y
_atom_site_fract_z
Si Si1 0.216129 0.368353 0.663396
Si Si2 0.296550 0.515504 0.337213
Si Si3 0.490611 0.714743 0.059248
Si Si4 0.089128 0.774840 0.180438
Si Si5 0.244174 0.558723 0.041623
Si Si6 0.756586 0.956197 0.081819
Si Si7 0.677761 0.184970 0.406926
Si Si8 0.143162 0.871975 0.915006
O O1 0.327921 0.295647 0.757618
O O2 0.398837 0.291393 0.489496
O O3 0.962944 0.401050 0.564718
O O4 0.166951 0.486291 0.848930
O O5 0.500000 0.500000 0.500000
O O6 0.256880 0.570984 0.244623
O O7 0.370241 0.391919 0.159400
O O8 0.316816 0.708048 0.067586
O O9 0.338915 0.830851 0.071840
O O10 0.055315 0.687014 0.084840
O O11 0.136810 0.823199 0.417151
O O12 0.845066 0.883823 0.161492
O O13 0.500000 0.500000 0.000000
O O14 0.740900 0.064223 0.262872
O O15 0.943185 0.871905 0.898934
O O16 0.500000 0.000000 0.000000
O O17 0.719775 0.208720 0.295139
O O18 0.000000 0.000000 0.000000
#
# Coordination Sequence:
#
# PCOD8005336 Si02
#       8
#     2   2   2   2   2   2   2   2
#     4  10  22  41  62  91 124 165 207 250 310 380
#     4  11  24  39  59  90 128 166 200 252 313 370
#     4   9  18  37  63  81 122 163 200 244 313 357
#     4  10  20  38  67  88 120 168 201 252 307 363
#     4  11  19  41  64  90 125 161 209 252 307 373
#     4  10  22  42  61  89 128 162 205 253 313 366
#     4  10  20  40  66  89 119 158 216 252 301 367
#     4   9  20  38  62  89 118 157 201 256 312 357
#
# _framework density 20.957471000000002
#
# number of rings (size 3 to 8) (size 9 to 14) (size 15 to 20)
#    0.000    2.000    3.750    1.875    1.750    3.000 
#    9.000    1.875    0.000    0.000    0.000    0.000 
#    0.000    0.000    0.000    0.000    0.000    0.000 
#
# Total GULP energy -198286.935518 kJ/mol
# GULP energy per Si atom -12392.933470 kJ/mol
# Density = 2.090977 g / cm^3
# Si number density = 20.957471 Si / 1000 Ang^3
#
#
#
# Elastic Constant Matrix: (Units=GPa)
#
#
# Indices 1 2 3 4 5 6 
#
# 1 106.5992 67.8382 58.3691 -18.5430 -11.6128 -15.8263
# 2 67.8382 144.0898 51.1664 -17.0145 3.9170 5.4554
# 3 58.3691 51.1664 89.0273 -5.3603 -21.2599 -8.6142
# 4 -18.5430 -17.0145 -5.3603 27.1295 0.2382 5.3802
# 5 -11.6128 3.9170 -21.2599 0.2382 30.0280 -2.0682
# 6 -15.8263 5.4554 -8.6142 5.3802 -2.0682 44.6826
#
#
#
# Elastic Compliance Matrix: (Units=1/GPa)
#
#
# Indices 1 2 3 4 5 6 
#
# 1 0.019979 -0.006075 -0.007849 0.007156 0.003290 0.005596
# 2 -0.006075 0.012708 -0.005644 0.003897 -0.008423 -0.005650
# 3 -0.007849 -0.005644 0.023087 -0.005192 0.014339 0.003649
# 4 0.007156 0.003897 -0.005192 0.044048 -0.002065 -0.004342
# 5 0.003290 -0.008423 0.014339 -0.002065 0.046348 0.007352
# 6 0.005596 -0.005650 0.003649 -0.004342 0.007352 0.026618
#
#
# Mechanical properties :
#
#
# Convention : Reuss Voigt Hill
#
# Bulk Modulus (GPa) = 60.10739 77.16262 68.63501
# Shear Modulus (GPa) = 22.99165 31.19085 27.09125
#
# Velocity S-wave (km/s) = 3.31579 3.86203 3.59928
# Velocity P-wave (km/s) = 6.58803 7.53562 7.07770
#
# Compressibility (1/GPa) = 0.01663689
#
# Stress axis : x y z
#
# Youngs Moduli (GPa) = 50.05245 78.69364 43.31475
#
# Poissons Ratio (x) = 0.47808 0.33999
# Poissons Ratio (y) = 0.30408 0.24446
# Poissons Ratio (z) = 0.39287 0.44413
#
# Static dielectric constant tensor:
#      x y z
#    x 4.302380 0.459840 -0.405110 
#    y 0.459840 4.409220 -0.027430 
#    z -0.405110 -0.027430 3.790260 
# 
# 
# High freq. dielectric constant tensor:
#      x y z
#    x 1.810750 0.000120 -0.021720 
#    y 0.000120 1.834200 -0.001550 
#    z -0.021720 -0.001550 1.799750 
# 
# From -- ./inp_files/224120.got.cif
#   From: 2010.06.25/outbox.cif.g09.slc.cpg/sg2_113_cif.got.tgz:224120.got - 2010.06.27 13:26:56.
