data_PCOD8005131
_publ_section_title
;
Structure prediction by ZEFSAII (Michael W. Deem and Ramdas Pophale) SiO2 
 PCOD8005131
Probable space group: P -1
;
_chemical_formula_sum "Si O2"
_cell_formula_units_Z 14
_cell_length_a 11.466275
_cell_length_b 11.012471
_cell_length_c 26.125385
_cell_angle_alpha 32.022354
_cell_angle_beta 27.971210
_cell_angle_gamma 25.394865
_cell_volume 642.731940
_symmetry_space_group_name_H-M "P -1"
_symmetry_group_IT_number 2
_symmetry_cell_setting 'triclinic'
loop_
_space_group_symop_operation_xyz
x,y,z
-x,-y,-z
loop_
_atom_site_type_symbol
_atom_site_label
_atom_site_fract_x
_atom_site_fract_y
_atom_site_fract_z
Si Si1 0.526203 0.516999 0.206514
Si Si2 0.243461 0.127174 0.099063
Si Si3 0.285978 0.218068 0.461294
Si Si4 0.162062 0.981905 0.891568
Si Si5 0.747929 0.166854 0.466992
Si Si6 0.553089 0.193616 0.644038
Si Si7 0.428681 0.640496 0.082237
O O1 0.468732 0.302121 0.328015
O O2 0.418570 0.576064 0.168383
O O3 0.895443 0.361967 0.127081
O O4 0.307510 0.840813 0.202573
O O5 0.328965 0.284823 0.048386
O O6 0.500000 0.000000 0.000000
O O7 0.000000 0.500000 0.500000
O O8 0.500000 0.000000 0.500000
O O9 0.199891 0.058603 0.514564
O O10 0.455977 0.643302 0.892426
O O11 0.303832 0.155703 0.777052
O O12 0.921292 0.094333 0.896895
O O13 0.000000 0.000000 0.000000
O O14 0.555226 0.181018 0.585718
O O15 0.546840 0.498682 0.405744
O O16 0.092634 0.068062 0.382293
#
# Coordination Sequence:
#
# PCOD8005131 Si02
#       7
#     2   2   2   2   2   2   2
#     4  11  22  41  66  93 127 173 219 264 312 388
#     4  10  20  38  64  97 123 157 218 262 309 382
#     4  12  26  44  62 100 139 170 217 269 346 402
#     4  12  25  42  60  98 132 166 212 267 338 389
#     4  10  22  43  69  94 122 170 223 278 313 387
#     4  10  22  43  70  93 123 167 229 273 321 377
#     4  11  22  41  66  90 127 171 215 263 310 380
#
# _framework density 21.782018999999998
#
# number of rings (size 3 to 8) (size 9 to 14) (size 15 to 20)
#    0.000    1.143    0.000    8.143    0.000    3.429 
#   15.429    0.000    0.000    0.000    0.000    0.000 
#    0.000    0.000    0.000    0.000    0.000    0.000 
#
# Total GULP energy -173578.031882 kJ/mol
# GULP energy per Si atom -12398.430849 kJ/mol
# Density = 2.173244 g / cm^3
# Si number density = 21.782019 Si / 1000 Ang^3
#
#
#
# Elastic Constant Matrix: (Units=GPa)
#
#
# Indices 1 2 3 4 5 6 
#
# 1 85.0150 32.6404 55.0332 -6.9001 -8.3326 4.6482
# 2 32.6404 117.1281 28.7318 -10.3919 2.2922 0.8878
# 3 55.0332 28.7318 135.9350 -5.1124 -4.5639 0.8779
# 4 -6.9001 -10.3919 -5.1124 35.2189 -0.6015 -7.0454
# 5 -8.3326 2.2922 -4.5639 -0.6015 25.0075 -4.9892
# 6 4.6482 0.8878 0.8779 -7.0454 -4.9892 49.6657
#
#
#
# Elastic Compliance Matrix: (Units=1/GPa)
#
#
# Indices 1 2 3 4 5 6 
#
# 1 0.017752 -0.003373 -0.006246 0.001505 0.004965 -0.000778
# 2 -0.003373 0.009883 -0.000713 0.002167 -0.002057 0.000252
# 3 -0.006246 -0.000713 0.010034 0.000106 -0.000097 0.000425
# 4 0.001505 0.002167 0.000106 0.030236 0.001907 0.004299
# 5 0.004965 -0.002057 -0.000097 0.001907 0.042683 0.004132
# 6 -0.000778 0.000252 0.000425 0.004299 0.004132 0.021220
#
#
# Mechanical properties :
#
#
# Convention : Reuss Voigt Hill
#
# Bulk Modulus (GPa) = 58.80080 63.43209 61.11645
# Shear Modulus (GPa) = 31.61766 36.75661 34.18713
#
# Velocity S-wave (km/s) = 3.81405 4.11234 3.96600
# Velocity P-wave (km/s) = 6.81540 7.19257 7.00652
#
# Compressibility (1/GPa) = 0.01700657
#
# Stress axis : x y z
#
# Youngs Moduli (GPa) = 56.33193 101.18416 99.66488
#
# Poissons Ratio (x) = 0.34125 0.62247
# Poissons Ratio (y) = 0.18999 0.07103
# Poissons Ratio (z) = 0.35183 0.07211
#
# Static dielectric constant tensor:
#      x y z
#    x 3.985130 0.290010 -0.256240 
#    y 0.290010 4.591930 -0.473730 
#    z -0.256240 -0.473730 4.257570 
# 
# 
# High freq. dielectric constant tensor:
#      x y z
#    x 1.844160 -0.003350 -0.015720 
#    y -0.003350 1.879620 -0.015550 
#    z -0.015720 -0.015550 1.854430 
# 
# From -- ./inp_files/476667.got.cif
#   From: 2010.06.25/outbox.cif.g09.slc.cpg/sg2_239_cif.got.tgz:476667.got - 2010.06.27 13:26:56.
