data_PCOD8005925
_publ_section_title
;
Structure prediction by ZEFSAII (Michael W. Deem and Ramdas Pophale) SiO2 
 PCOD8005925
Probable space group: P -1
;
_chemical_formula_sum "Si O2"
_cell_formula_units_Z 16
_cell_length_a 8.963261
_cell_length_b 12.202896
_cell_length_c 9.250815
_cell_angle_alpha 92.587493
_cell_angle_beta 91.024506
_cell_angle_gamma 45.275539
_cell_volume 718.036167
_symmetry_space_group_name_H-M "P -1"
_symmetry_group_IT_number 2
_symmetry_cell_setting 'triclinic'
loop_
_space_group_symop_operation_xyz
x,y,z
-x,-y,-z
loop_
_atom_site_type_symbol
_atom_site_label
_atom_site_fract_x
_atom_site_fract_y
_atom_site_fract_z
Si Si1 0.534550 0.878177 0.336724
Si Si2 0.289641 0.371171 0.216256
Si Si3 0.617736 0.073996 0.362737
Si Si4 0.226537 0.972183 0.127805
Si Si5 0.020759 0.117299 0.845689
Si Si6 0.012047 0.300382 0.250836
Si Si7 0.719422 0.448076 0.998797
Si Si8 0.001346 0.381975 0.562318
O O1 0.399130 0.891784 0.464436
O O2 0.467013 0.854100 0.183570
O O3 0.781896 0.744133 0.355833
O O4 0.475787 0.037927 0.334291
O O5 0.517073 0.225301 0.278618
O O6 0.315299 0.412800 0.061751
O O7 0.187896 0.521364 0.320846
O O8 0.152870 0.331103 0.205320
O O9 0.859153 0.927859 0.307871
O O10 0.133230 0.905128 0.172168
O O11 0.107995 0.132750 0.211938
O O12 0.208483 0.995092 0.956643
O O13 0.892599 0.290906 0.900061
O O14 0.967943 0.317003 0.423590
O O15 0.796221 0.422870 0.163498
O O16 0.500000 0.500000 0.000000
O O17 0.000000 0.500000 0.500000
#
# Coordination Sequence:
#
# PCOD8005925 Si02
#       8
#     2   2   2   2   2   2   2   2
#     4  11  20  40  68  93 126 164 215 261 314 375
#     4  11  22  42  66  98 128 164 213 265 320 375
#     4  11  22  39  66  96 127 164 213 265 312 377
#     4  10  22  41  67  92 126 171 217 262 307 378
#     4  10  25  44  60  94 132 171 211 261 316 374
#     4  10  20  43  66  97 125 167 210 270 318 365
#     4  11  26  44  66  92 130 173 212 258 319 385
#     4  10  20  39  63  98 131 159 203 268 320 371
#
# _framework density 22.283002
#
# number of rings (size 3 to 8) (size 9 to 14) (size 15 to 20)
#    0.000    1.500    3.750    1.875    5.250    3.000 
#    2.250    0.625    0.000    0.000    0.000    0.000 
#    0.000    0.000    0.000    0.000    0.000    0.000 
#
# Total GULP energy -198313.535656 kJ/mol
# GULP energy per Si atom -12394.595978 kJ/mol
# Density = 2.223229 g / cm^3
# Si number density = 22.283002 Si / 1000 Ang^3
#
#
#
# Elastic Constant Matrix: (Units=GPa)
#
#
# Indices 1 2 3 4 5 6 
#
# 1 54.9610 19.6082 24.0653 -16.1897 10.9004 0.1489
# 2 19.6082 88.5267 34.9688 -15.2863 4.4044 -7.4735
# 3 24.0653 34.9688 62.8437 -14.7681 11.3085 -8.7103
# 4 -16.1897 -15.2863 -14.7681 39.8046 -5.7298 -2.0019
# 5 10.9004 4.4044 11.3085 -5.7298 36.1682 1.3126
# 6 0.1489 -7.4735 -8.7103 -2.0019 1.3126 38.1421
#
#
#
# Elastic Compliance Matrix: (Units=1/GPa)
#
#
# Indices 1 2 3 4 5 6 
#
# 1 0.024210 -0.001711 -0.006327 0.006184 -0.004079 -0.001410
# 2 -0.001711 0.014997 -0.007091 0.002688 0.001281 0.001423
# 3 -0.006327 -0.007091 0.024523 0.003380 -0.004528 0.004569
# 4 0.006184 0.002688 0.003380 0.030274 0.001446 0.002814
# 5 -0.004079 0.001281 -0.004528 0.001446 0.030430 -0.001738
# 6 -0.001410 0.001423 0.004569 0.002814 -0.001738 0.027753
#
#
# Mechanical properties :
#
#
# Convention : Reuss Voigt Hill
#
# Bulk Modulus (GPa) = 29.87605 40.40178 35.13891
# Shear Modulus (GPa) = 25.82616 31.33558 28.58087
#
# Velocity S-wave (km/s) = 3.40811 3.75407 3.58527
# Velocity P-wave (km/s) = 5.37807 6.07958 5.73955
#
# Compressibility (1/GPa) = 0.03347163
#
# Stress axis : x y z
#
# Youngs Moduli (GPa) = 41.30514 66.68156 40.77774
#
# Poissons Ratio (x) = 0.11412 0.25799
# Poissons Ratio (y) = 0.07069 0.28915
# Poissons Ratio (z) = 0.26133 0.47283
#
# Static dielectric constant tensor:
#      x y z
#    x 3.699920 -0.008860 0.136740 
#    y -0.008860 4.053620 0.094020 
#    z 0.136740 0.094020 5.443820 
# 
# 
# High freq. dielectric constant tensor:
#      x y z
#    x 1.845810 0.003460 0.003020 
#    y 0.003460 1.893130 -0.011760 
#    z 0.003020 -0.011760 1.880050 
# 
# From -- ./inp_files/187611.got.cif
#   From: 2010.06.25/outbox.cif.g09.slc.cpg/sg2_94_cif.got.tgz:187611.got - 2010.06.27 13:26:56.
