data_PCOD8005894
_publ_section_title
;
Structure prediction by ZEFSAII (Michael W. Deem and Ramdas Pophale) SiO2 
 PCOD8005894
Probable space group: P -1
;
_chemical_formula_sum "Si O2"
_cell_formula_units_Z 16
_cell_length_a 11.605217
_cell_length_b 12.066655
_cell_length_c 9.303900
_cell_angle_alpha 126.621918
_cell_angle_beta 49.743020
_cell_angle_gamma 122.143810
_cell_volume 774.832916
_symmetry_space_group_name_H-M "P -1"
_symmetry_group_IT_number 2
_symmetry_cell_setting 'triclinic'
loop_
_space_group_symop_operation_xyz
x,y,z
-x,-y,-z
loop_
_atom_site_type_symbol
_atom_site_label
_atom_site_fract_x
_atom_site_fract_y
_atom_site_fract_z
Si Si1 0.402336 0.100606 0.087664
Si Si2 0.860884 0.873073 0.466593
Si Si3 0.332964 0.634794 0.925014
Si Si4 0.336715 0.105514 0.622541
Si Si5 0.668574 0.082551 0.256633
Si Si6 0.739897 0.394085 0.373216
Si Si7 0.534750 0.578243 0.183418
Si Si8 0.998772 0.610020 0.211326
O O1 0.285701 0.145501 0.326355
O O2 0.520570 0.243319 0.047942
O O3 0.500000 0.000000 0.000000
O O4 0.301043 0.018389 0.974386
O O5 0.808094 0.901919 0.371487
O O6 0.917528 0.729184 0.312594
O O7 0.000000 0.000000 0.500000
O O8 0.328455 0.620866 0.745220
O O9 0.347179 0.486657 0.867371
O O10 0.180565 0.675281 0.150399
O O11 0.486258 0.082858 0.397789
O O12 0.383866 0.256876 0.782681
O O13 0.282423 0.978615 0.681865
O O14 0.772645 0.242562 0.275378
O O15 0.622878 0.439443 0.612981
O O16 0.899132 0.518748 0.350230
O O17 0.500000 0.500000 0.000000
O O18 0.000000 0.500000 0.000000
#
# Coordination Sequence:
#
# PCOD8005894 Si02
#       8
#     2   2   2   2   2   2   2   2
#     4  12  20  38  64  99 125 163 227 274 321 390
#     4  12  25  41  67  99 136 171 223 274 332 393
#     4  11  21  38  68  88 124 169 220 273 325 387
#     4  10  21  40  61  95 133 168 213 268 333 390
#     4  10  21  37  66  94 126 170 210 271 330 391
#     4  10  20  39  63  93 127 166 220 264 336 390
#     4  11  22  39  64  98 128 169 219 277 331 396
#     4  10  23  40  64  93 129 172 218 271 331 385
#
# _framework density 20.649614
#
# number of rings (size 3 to 8) (size 9 to 14) (size 15 to 20)
#    0.000    1.250    2.500    4.875    1.750    0.000 
#    0.000    1.250    2.750    0.000    0.000    0.000 
#    0.000    0.000    0.000    0.000    0.000    0.000 
#
# Total GULP energy -198418.312879 kJ/mol
# GULP energy per Si atom -12401.144555 kJ/mol
# Density = 2.060261 g / cm^3
# Si number density = 20.649614 Si / 1000 Ang^3
#
#
#
# Elastic Constant Matrix: (Units=GPa)
#
#
# Indices 1 2 3 4 5 6 
#
# 1 97.6820 72.4376 58.7846 -2.1616 -5.6535 -1.5383
# 2 72.4376 137.3244 41.6357 0.4926 -5.6452 -16.6828
# 3 58.7846 41.6357 114.4347 7.0884 -4.5048 -9.9704
# 4 -2.1616 0.4926 7.0884 31.0476 -1.2839 -4.2881
# 5 -5.6535 -5.6452 -4.5048 -1.2839 35.9999 1.6792
# 6 -1.5383 -16.6828 -9.9704 -4.2881 1.6792 34.6467
#
#
#
# Elastic Compliance Matrix: (Units=1/GPa)
#
#
# Indices 1 2 3 4 5 6 
#
# 1 0.023242 -0.010275 -0.008872 0.003011 0.001323 -0.006160
# 2 -0.010275 0.013136 0.001062 -0.000309 0.000283 0.006123
# 3 -0.008872 0.001062 0.013426 -0.003199 0.000172 0.003577
# 4 0.003011 -0.000309 -0.003199 0.033636 0.001076 0.003175
# 5 0.001323 0.000283 0.000172 0.001076 0.028136 -0.000986
# 6 -0.006160 0.006123 0.003577 0.003175 -0.000986 0.033008
#
#
# Mechanical properties :
#
#
# Convention : Reuss Voigt Hill
#
# Bulk Modulus (GPa) = 73.33766 77.23964 75.28865
# Shear Modulus (GPa) = 26.98334 32.11107 29.54721
#
# Velocity S-wave (km/s) = 3.61879 3.94768 3.78681
# Velocity P-wave (km/s) = 7.28376 7.63315 7.46050
#
# Compressibility (1/GPa) = 0.01363556
#
# Stress axis : x y z
#
# Youngs Moduli (GPa) = 43.02505 76.12406 74.48098
#
# Poissons Ratio (x) = 0.78217 0.66081
# Poissons Ratio (y) = 0.44208 -0.07913
# Poissons Ratio (z) = 0.38173 -0.08087
#
# Static dielectric constant tensor:
#      x y z
#    x 3.346920 0.046720 -0.016250 
#    y 0.046720 4.188700 0.017590 
#    z -0.016250 0.017590 3.941390 
# 
# 
# High freq. dielectric constant tensor:
#      x y z
#    x 1.784740 -0.006720 -0.007120 
#    y -0.006720 1.824430 0.008440 
#    z -0.007120 0.008440 1.809490 
# 
# From -- ./inp_files/243345.got.cif
#   From: 2010.06.25/outbox.cif.g09.slc.cpg/sg2_122_cif.got.tgz:243345.got - 2010.06.27 13:26:56.
