data_PCOD8005150
_publ_section_title
;
Structure prediction by ZEFSAII (Michael W. Deem and Ramdas Pophale) SiO2 
 PCOD8005150
Probable space group: P -1
;
_chemical_formula_sum "Si O2"
_cell_formula_units_Z 16
_cell_length_a 14.572369
_cell_length_b 15.907802
_cell_length_c 9.650097
_cell_angle_alpha 45.523410
_cell_angle_beta 105.529446
_cell_angle_gamma 142.467496
_cell_volume 728.651115
_symmetry_space_group_name_H-M "P -1"
_symmetry_group_IT_number 2
_symmetry_cell_setting 'triclinic'
loop_
_space_group_symop_operation_xyz
x,y,z
-x,-y,-z
loop_
_atom_site_type_symbol
_atom_site_label
_atom_site_fract_x
_atom_site_fract_y
_atom_site_fract_z
Si Si1 0.808186 0.242933 0.880512
Si Si2 0.473579 0.624468 0.190480
Si Si3 0.544280 0.847542 0.452137
Si Si4 0.266205 0.988272 0.371833
Si Si5 0.771479 0.824174 0.253227
Si Si6 0.199550 0.345197 0.765224
Si Si7 0.174363 0.478185 0.348378
Si Si8 0.736334 0.238425 0.556934
O O1 0.789279 0.343445 0.843038
O O2 0.704818 0.142511 0.804432
O O3 0.041538 0.461201 0.707032
O O4 0.688815 0.015237 0.182911
O O5 0.635321 0.787121 0.194472
O O6 0.322664 0.346964 0.454998
O O7 0.349796 0.609702 0.178499
O O8 0.586825 0.756641 0.937048
O O9 0.681753 0.962981 0.503070
O O10 0.387131 0.570353 0.682549
O O11 0.427308 0.840373 0.445151
O O12 0.289707 0.887407 0.425975
O O13 0.038868 0.787262 0.499990
O O14 0.763913 0.728756 0.228065
O O15 0.997905 0.110254 0.047343
O O16 0.173887 0.433559 0.558289
#
# Coordination Sequence:
#
# PCOD8005150 Si02
#       8
#     2   2   2   2   2   2   2   2
#     4  10  22  38  61  94 121 164 208 244 291 351
#     4  10  20  38  66  88 115 157 207 248 313 359
#     4  12  24  39  61  93 130 164 196 249 308 360
#     4  11  24  38  61  94 129 161 198 246 310 365
#     4   9  20  38  66  92 109 157 211 263 298 358
#     4  10  20  39  63  90 120 152 209 257 298 357
#     4  10  20  38  65  87 122 161 203 251 289 370
#     4  10  22  39  61  91 127 163 205 248 281 370
#
# _framework density 21.958383000000001
#
# number of rings (size 3 to 8) (size 9 to 14) (size 15 to 20)
#    0.000    1.750    2.500    1.500    3.500    3.000 
#    2.250    1.250    0.000    0.000    0.000    0.000 
#    0.000    0.000    0.000    0.000    0.000    0.000 
#
# Total GULP energy -198440.919355 kJ/mol
# GULP energy per Si atom -12402.557460 kJ/mol
# Density = 2.190841 g / cm^3
# Si number density = 21.958383 Si / 1000 Ang^3
#
#
#
# Elastic Constant Matrix: (Units=GPa)
#
#
# Indices 1 2 3 4 5 6 
#
# 1 48.3911 13.7128 11.9123 2.3251 -16.9467 12.5770
# 2 13.7128 111.3329 40.3864 -2.9562 -10.6616 5.8632
# 3 11.9123 40.3864 114.6508 -15.1677 -17.6530 -0.5572
# 4 2.3251 -2.9562 -15.1677 26.9150 4.8602 -0.1771
# 5 -16.9467 -10.6616 -17.6530 4.8602 21.6289 -7.3435
# 6 12.5770 5.8632 -0.5572 -0.1771 -7.3435 21.9184
#
#
#
# Elastic Compliance Matrix: (Units=1/GPa)
#
#
# Indices 1 2 3 4 5 6 
#
# 1 0.031991 -0.001282 -0.000490 -0.007228 0.022023 -0.010706
# 2 -0.001282 0.010604 -0.003605 -0.000919 0.000836 -0.001920
# 3 -0.000490 -0.003605 0.011938 0.004975 0.007904 0.004237
# 4 -0.007228 -0.000919 0.004975 0.042517 -0.011237 0.001098
# 5 0.022023 0.000836 0.007904 -0.011237 0.077348 0.013164
# 6 -0.010706 -0.001920 0.004237 0.001098 0.013164 0.056808
#
#
# Mechanical properties :
#
#
# Convention : Reuss Voigt Hill
#
# Bulk Modulus (GPa) = 22.84039 45.15530 33.99785
# Shear Modulus (GPa) = 19.48919 27.98334 23.73626
#
# Velocity S-wave (km/s) = 2.98241 3.57372 3.29137
# Velocity P-wave (km/s) = 4.72059 6.13493 5.47363
#
# Compressibility (1/GPa) = 0.04378209
#
# Stress axis : x y z
#
# Youngs Moduli (GPa) = 31.25857 94.30194 83.76277
#
# Poissons Ratio (x) = 0.12087 0.04101
# Poissons Ratio (y) = 0.04007 0.30193
# Poissons Ratio (z) = 0.01530 0.33991
#
# Static dielectric constant tensor:
#      x y z
#    x 3.936490 0.186490 -0.133590 
#    y 0.186490 3.576330 -0.286530 
#    z -0.133590 -0.286530 4.152350 
# 
# 
# High freq. dielectric constant tensor:
#      x y z
#    x 1.865430 0.012450 -0.010350 
#    y 0.012450 1.824190 -0.027660 
#    z -0.010350 -0.027660 1.871990 
# 
# From -- ./inp_files/314682.got.cif
#   From: 2010.06.25/outbox.cif.g09.slc.cpg/sg2_158_cif.got.tgz:314682.got - 2010.06.27 13:26:56.
