data_PCOD8005392
_publ_section_title
;
Structure prediction by ZEFSAII (Michael W. Deem and Ramdas Pophale) SiO2 
 PCOD8005392
Probable space group: P -1
;
_chemical_formula_sum "Si O2"
_cell_formula_units_Z 16
_cell_length_a 9.835642
_cell_length_b 9.018593
_cell_length_c 13.569176
_cell_angle_alpha 68.347628
_cell_angle_beta 100.151679
_cell_angle_gamma 56.743700
_cell_volume 817.000980
_symmetry_space_group_name_H-M "P -1"
_symmetry_group_IT_number 2
_symmetry_cell_setting 'triclinic'
loop_
_space_group_symop_operation_xyz
x,y,z
-x,-y,-z
loop_
_atom_site_type_symbol
_atom_site_label
_atom_site_fract_x
_atom_site_fract_y
_atom_site_fract_z
Si Si1 0.546120 0.599533 0.405379
Si Si2 0.064236 0.600804 0.423699
Si Si3 0.464626 0.489961 0.223321
Si Si4 0.453235 0.783711 0.008254
Si Si5 0.688482 0.058047 0.259060
Si Si6 0.235100 0.217995 0.990883
Si Si7 0.843850 0.516268 0.763100
Si Si8 0.625473 0.935916 0.743155
O O1 0.500000 0.500000 0.500000
O O2 0.759532 0.473422 0.477760
O O3 0.521140 0.559882 0.301734
O O4 0.408909 0.855293 0.344233
O O5 0.108228 0.521665 0.336252
O O6 0.000000 0.500000 0.500000
O O7 0.907356 0.858500 0.345581
O O8 0.455722 0.605561 0.097131
O O9 0.623184 0.233609 0.290668
O O10 0.266617 0.558339 0.201740
O O11 0.660335 0.697123 0.043083
O O12 0.351613 0.839275 0.878182
O O13 0.335542 0.990466 0.011336
O O14 0.576257 0.979188 0.275063
O O15 0.025911 0.388857 0.884342
O O16 0.235981 0.188184 0.115640
O O17 0.716743 0.770487 0.704237
#
# Coordination Sequence:
#
# PCOD8005392 Si02
#       8
#     2   2   2   2   2   2   2   2
#     4  12  25  44  62  91 127 164 212 261 314 353
#     4  12  25  42  68  89 121 170 220 255 295 378
#     4  11  24  42  65  93 132 161 200 266 318 361
#     4  10  20  38  68  94 128 161 200 258 317 368
#     4  10  22  43  66  95 123 166 211 251 312 375
#     4  10  20  38  68  96 122 164 208 248 312 382
#     4  11  24  42  65  97 124 163 211 254 312 377
#     4  10  22  43  68  90 128 167 203 257 314 372
#
# _framework density 19.583819999999999
#
# number of rings (size 3 to 8) (size 9 to 14) (size 15 to 20)
#    0.000    1.250    5.000    0.750    1.750    2.500 
#    4.500    0.000    0.000    0.000    0.000    0.000 
#    0.000    0.000    0.000    0.000    0.000    0.000 
#
# Total GULP energy -198448.308770 kJ/mol
# GULP energy per Si atom -12403.019298 kJ/mol
# Density = 1.953925 g / cm^3
# Si number density = 19.583820 Si / 1000 Ang^3
#
#
#
# Elastic Constant Matrix: (Units=GPa)
#
#
# Indices 1 2 3 4 5 6 
#
# 1 126.5273 37.2848 72.0727 -17.0567 -2.7356 -0.3408
# 2 37.2848 87.0108 39.7346 -20.8614 -3.3729 -0.9598
# 3 72.0727 39.7346 106.6116 -21.6532 -0.6799 0.2153
# 4 -17.0567 -20.8614 -21.6532 14.1937 -0.7788 -2.1939
# 5 -2.7356 -3.3729 -0.6799 -0.7788 47.2501 -0.5290
# 6 -0.3408 -0.9598 0.2153 -2.1939 -0.5290 29.1903
#
#
#
# Elastic Compliance Matrix: (Units=1/GPa)
#
#
# Indices 1 2 3 4 5 6 
#
# 1 0.013129 -0.001658 -0.008014 0.001184 0.000549 0.000257
# 2 -0.001658 0.018534 -0.000808 0.024488 0.001647 0.002466
# 3 -0.008014 -0.000808 0.018742 0.017945 0.000056 0.001091
# 4 0.001184 0.024488 0.017945 0.137202 0.004460 0.011079
# 5 0.000549 0.001647 0.000056 0.004460 0.021396 0.000783
# 6 0.000257 0.002466 0.001091 0.011079 0.000783 0.035181
#
#
# Mechanical properties :
#
#
# Convention : Reuss Voigt Hill
#
# Bulk Modulus (GPa) = 33.96170 68.70376 51.33273
# Shear Modulus (GPa) = 18.18442 29.53066 23.85754
#
# Velocity S-wave (km/s) = 3.05051 3.88740 3.49410
# Velocity P-wave (km/s) = 5.45773 7.43688 6.52281
#
# Compressibility (1/GPa) = 0.02944494
#
# Stress axis : x y z
#
# Youngs Moduli (GPa) = 76.16485 53.95354 53.35677
#
# Poissons Ratio (x) = 0.08947 0.42762
# Poissons Ratio (y) = 0.12630 0.04310
# Poissons Ratio (z) = 0.61042 0.04358
#
# Static dielectric constant tensor:
#      x y z
#    x 3.601380 -0.044090 -0.019620 
#    y -0.044090 3.743020 0.079170 
#    z -0.019620 0.079170 3.697990 
# 
# 
# High freq. dielectric constant tensor:
#      x y z
#    x 1.762030 0.000710 -0.001360 
#    y 0.000710 1.773420 0.004540 
#    z -0.001360 0.004540 1.766950 
# 
# From -- ./inp_files/180704.got.cif
#   From: 2010.06.25/outbox.cif.g09.slc.cpg/sg2_91_cif.got.tgz:180704.got - 2010.06.27 13:26:56.
