data_PCOD8005115
_publ_section_title
;
Structure prediction by ZEFSAII (Michael W. Deem and Ramdas Pophale) SiO2 
 PCOD8005115
Probable space group: P -1
;
_chemical_formula_sum "Si O2"
_cell_formula_units_Z 16
_cell_length_a 15.662992
_cell_length_b 8.648424
_cell_length_c 11.997497
_cell_angle_alpha 100.626133
_cell_angle_beta 63.310370
_cell_angle_gamma 47.551313
_cell_volume 721.191648
_symmetry_space_group_name_H-M "P -1"
_symmetry_group_IT_number 2
_symmetry_cell_setting 'triclinic'
loop_
_space_group_symop_operation_xyz
x,y,z
-x,-y,-z
loop_
_atom_site_type_symbol
_atom_site_label
_atom_site_fract_x
_atom_site_fract_y
_atom_site_fract_z
Si Si1 0.270539 0.215296 0.501284
Si Si2 0.340645 0.628596 0.174764
Si Si3 0.752998 0.388550 0.400807
Si Si4 0.451473 0.688950 0.769728
Si Si5 0.143200 0.315985 0.138328
Si Si6 0.145691 0.674836 0.127785
Si Si7 0.203205 0.145260 0.318546
Si Si8 0.639459 0.539687 0.242706
O O1 0.259351 0.417030 0.521489
O O2 0.329014 0.054754 0.325805
O O3 0.071944 0.439157 0.697711
O O4 0.445476 0.909917 0.434560
O O5 0.409773 0.462808 0.229848
O O6 0.269251 0.588530 0.135902
O O7 0.182857 0.987520 0.333935
O O8 0.500000 0.500000 0.000000
O O9 0.563700 0.566940 0.574506
O O10 0.764525 0.364267 0.257480
O O11 0.937586 0.044426 0.297067
O O12 0.399172 0.581233 0.791666
O O13 0.257329 0.066394 0.939192
O O14 0.134193 0.512720 0.151357
O O15 0.264733 0.098167 0.149650
O O16 0.240365 0.544525 0.933889
O O17 0.000000 0.500000 0.500000
#
# Coordination Sequence:
#
# PCOD8005115 Si02
#       8
#     2   2   2   2   2   2   2   2
#     4  11  23  45  69  99 137 180 230 276 339 399
#     4  12  22  43  71  99 137 177 218 283 346 403
#     4  12  28  45  69 101 136 184 232 276 332 405
#     4  12  25  44  70 102 139 178 228 279 341 402
#     4  11  25  42  69 104 139 178 220 281 343 408
#     4  12  26  44  70 104 136 177 230 277 342 405
#     4  10  20  38  64  95 135 174 210 270 339 395
#     4  12  24  49  71  96 138 182 228 285 333 397
#
# _framework density 22.185503000000001
#
# number of rings (size 3 to 8) (size 9 to 14) (size 15 to 20)
#    0.000    0.500    3.750    4.875    3.500    1.000 
#    0.000    1.875    0.000    0.000    0.000    0.000 
#    0.000    0.000    0.000    0.000    0.000    0.000 
#
# Total GULP energy -198422.897467 kJ/mol
# GULP energy per Si atom -12401.431092 kJ/mol
# Density = 2.213501 g / cm^3
# Si number density = 22.185503 Si / 1000 Ang^3
#
#
#
# Elastic Constant Matrix: (Units=GPa)
#
#
# Indices 1 2 3 4 5 6 
#
# 1 63.4099 31.6182 17.7933 4.8438 -0.6738 16.2443
# 2 31.6182 87.5693 15.2524 14.4625 7.3511 20.9709
# 3 17.7933 15.2524 93.2929 15.6333 -0.7323 9.1443
# 4 4.8438 14.4625 15.6333 45.0562 3.6072 11.8819
# 5 -0.6738 7.3511 -0.7323 3.6072 31.5994 -1.6649
# 6 16.2443 20.9709 9.1443 11.8819 -1.6649 39.5501
#
#
#
# Elastic Compliance Matrix: (Units=1/GPa)
#
#
# Indices 1 2 3 4 5 6 
#
# 1 0.020846 -0.006251 -0.002770 0.001976 0.001338 -0.005144
# 2 -0.006251 0.015708 -0.000481 -0.002573 -0.003770 -0.005036
# 3 -0.002770 -0.000481 0.011975 -0.003701 0.000740 -0.000233
# 4 0.001976 -0.002573 -0.003701 0.026035 -0.002761 -0.006529
# 5 0.001338 -0.003770 0.000740 -0.002761 0.033069 0.003500
# 6 -0.005144 -0.005036 -0.000233 -0.006529 0.003500 0.032230
#
#
# Mechanical properties :
#
#
# Convention : Reuss Voigt Hill
#
# Bulk Modulus (GPa) = 33.87011 41.51111 37.69061
# Shear Modulus (GPa) = 29.63717 35.21502 32.42609
#
# Velocity S-wave (km/s) = 3.65893 3.98841 3.82722
# Velocity P-wave (km/s) = 5.75763 6.32151 6.04615
#
# Compressibility (1/GPa) = 0.02952456
#
# Stress axis : x y z
#
# Youngs Moduli (GPa) = 47.97129 63.66319 83.50980
#
# Poissons Ratio (x) = 0.39795 0.23135
# Poissons Ratio (y) = 0.29986 0.04014
# Poissons Ratio (z) = 0.13289 0.03060
#
# Static dielectric constant tensor:
#      x y z
#    x -0.735690 5.358840 -4.374870 
#    y 5.358840 -3.117540 5.905720 
#    z -4.374870 5.905720 -0.332690 
# 
# 
# High freq. dielectric constant tensor:
#      x y z
#    x 1.866840 0.004880 0.009400 
#    y 0.004880 1.883650 0.015420 
#    z 0.009400 0.015420 1.887350 
# 
# From -- ./inp_files/245675.got.cif
#   From: 2010.06.25/outbox.cif.g09.slc.cpg/sg2_123_cif.got.tgz:245675.got - 2010.06.27 13:26:56.
