data_PCOD8005488
_publ_section_title
;
Structure prediction by ZEFSAII (Michael W. Deem and Ramdas Pophale) SiO2 
 PCOD8005488
Probable space group: P -1
;
_chemical_formula_sum "Si O2"
_cell_formula_units_Z 16
_cell_length_a 15.297089
_cell_length_b 12.158331
_cell_length_c 7.893705
_cell_angle_alpha 116.924608
_cell_angle_beta 91.243785
_cell_angle_gamma 133.388383
_cell_volume 816.223480
_symmetry_space_group_name_H-M "P -1"
_symmetry_group_IT_number 2
_symmetry_cell_setting 'triclinic'
loop_
_space_group_symop_operation_xyz
x,y,z
-x,-y,-z
loop_
_atom_site_type_symbol
_atom_site_label
_atom_site_fract_x
_atom_site_fract_y
_atom_site_fract_z
Si Si1 0.277599 0.275441 0.859063
Si Si2 0.519700 0.563949 0.300203
Si Si3 0.190572 0.443639 0.850648
Si Si4 0.789371 0.147583 0.130478
Si Si5 0.492866 0.287971 0.294705
Si Si6 0.356707 0.769445 0.843041
Si Si7 0.919146 0.160413 0.460574
Si Si8 0.043299 0.685404 0.092094
O O1 0.382732 0.312430 0.772262
O O2 0.241448 0.363564 0.832300
O O3 0.140346 0.041932 0.716573
O O4 0.355288 0.384231 0.116459
O O5 0.556226 0.476305 0.333438
O O6 0.550806 0.717450 0.523754
O O7 0.320424 0.676260 0.965630
O O8 0.087734 0.331439 0.601816
O O9 0.103761 0.399095 0.978724
O O10 0.765234 0.268280 0.240084
O O11 0.879168 0.204158 0.333897
O O12 0.874261 0.212194 0.007793
O O13 0.641534 0.913063 0.951882
O O14 0.617317 0.322745 0.337888
O O15 0.500000 0.000000 0.000000
O O16 0.864751 0.159893 0.637114
O O17 0.000000 0.500000 0.000000
#
# Coordination Sequence:
#
# PCOD8005488 Si02
#       8
#     2   2   2   2   2   2   2   2
#     4  11  20  41  59  89 124 164 206 251 311 368
#     4  10  21  34  65  82 124 160 203 255 305 363
#     4  10  22  40  59  90 125 160 205 252 306 363
#     4  11  20  42  64  88 126 159 210 246 311 372
#     4  10  20  39  57  94 114 158 204 260 305 355
#     4  10  21  37  65  86 120 161 200 258 308 359
#     4  10  23  38  64  91 122 171 201 248 311 368
#     4  10  22  39  60  90 125 164 202 251 301 366
#
# _framework density 19.602473
#
# number of rings (size 3 to 8) (size 9 to 14) (size 15 to 20)
#    0.750    1.000    3.750    1.125    0.000    2.000 
#    4.500    0.625    0.000    4.500    0.000    0.000 
#    0.000    0.000    0.000    0.000    0.000    0.000 
#
# Total GULP energy -198233.382347 kJ/mol
# GULP energy per Si atom -12389.586397 kJ/mol
# Density = 1.955786 g / cm^3
# Si number density = 19.602473 Si / 1000 Ang^3
#
#
#
# Elastic Constant Matrix: (Units=GPa)
#
#
# Indices 1 2 3 4 5 6 
#
# 1 124.9507 41.0491 42.2026 -9.3655 -11.1143 -12.9076
# 2 41.0491 88.1134 12.1658 -4.0096 -1.6130 -4.6769
# 3 42.2026 12.1658 74.0566 -9.8279 0.0466 -9.1595
# 4 -9.3655 -4.0096 -9.8279 32.0271 -2.4412 -1.6082
# 5 -11.1143 -1.6130 0.0466 -2.4412 24.7563 -0.9423
# 6 -12.9076 -4.6769 -9.1595 -1.6082 -0.9423 36.5191
#
#
#
# Elastic Compliance Matrix: (Units=1/GPa)
#
#
# Indices 1 2 3 4 5 6 
#
# 1 0.012356 -0.004646 -0.005722 0.001826 0.005533 0.002560
# 2 -0.004646 0.013450 0.000517 0.000405 -0.001163 0.000198
# 3 -0.005722 0.000517 0.017489 0.003725 -0.002104 0.002540
# 4 0.001826 0.000405 0.003725 0.033437 0.004259 0.003214
# 5 0.005533 -0.001163 -0.002104 0.004259 0.043324 0.002584
# 6 0.002560 0.000198 0.002540 0.003214 0.002584 0.029158
#
#
# Mechanical properties :
#
#
# Convention : Reuss Voigt Hill
#
# Bulk Modulus (GPa) = 42.38738 53.10619 47.74678
# Shear Modulus (GPa) = 28.28370 31.44072 29.86221
#
# Velocity S-wave (km/s) = 3.80263 4.00924 3.90730
# Velocity P-wave (km/s) = 6.39925 6.97010 6.69077
#
# Compressibility (1/GPa) = 0.02359193
#
# Stress axis : x y z
#
# Youngs Moduli (GPa) = 80.93514 74.35182 57.17833
#
# Poissons Ratio (x) = 0.34542 0.32720
# Poissons Ratio (y) = 0.37600 -0.02956
# Poissons Ratio (z) = 0.46315 -0.03844
#
# Static dielectric constant tensor:
#      x y z
#    x 3.832670 0.101250 -0.182660 
#    y 0.101250 3.607810 0.078180 
#    z -0.182660 0.078180 3.453170 
# 
# 
# High freq. dielectric constant tensor:
#      x y z
#    x 1.769890 -0.003400 -0.012250 
#    y -0.003400 1.765330 0.013110 
#    z -0.012250 0.013110 1.739980 
# 
# From -- ./inp_files/305728.got.cif
#   From: 2010.06.25/outbox.cif.g09.slc.cpg/sg2_153_cif.got.tgz:305728.got - 2010.06.27 13:26:56.
