data_PCOD8005139
_publ_section_title
;
Structure prediction by ZEFSAII (Michael W. Deem and Ramdas Pophale) SiO2 
 PCOD8005139
Probable space group: P -1
;
_chemical_formula_sum "Si O2"
_cell_formula_units_Z 16
_cell_length_a 19.064805
_cell_length_b 8.024159
_cell_length_c 11.935106
_cell_angle_alpha 68.604177
_cell_angle_beta 152.810916
_cell_angle_gamma 101.320724
_cell_volume 740.668787
_symmetry_space_group_name_H-M "P -1"
_symmetry_group_IT_number 2
_symmetry_cell_setting 'triclinic'
loop_
_space_group_symop_operation_xyz
x,y,z
-x,-y,-z
loop_
_atom_site_type_symbol
_atom_site_label
_atom_site_fract_x
_atom_site_fract_y
_atom_site_fract_z
Si Si1 0.111814 0.210966 0.601547
Si Si2 0.294588 0.211620 0.222916
Si Si3 0.358696 0.954704 0.162223
Si Si4 0.018930 0.845043 0.158342
Si Si5 0.727531 0.525744 0.339311
Si Si6 0.372220 0.572469 0.206715
Si Si7 0.903172 0.096068 0.502527
Si Si8 0.434568 0.636340 0.035076
O O1 0.129998 0.396440 0.522697
O O2 0.976414 0.242516 0.500548
O O3 0.050230 0.101398 0.444144
O O4 0.290248 0.103549 0.929696
O O5 0.447679 0.135184 0.542615
O O6 0.270888 0.423296 0.090912
O O7 0.307073 0.057170 0.181646
O O8 0.134205 0.229226 0.060045
O O9 0.277735 0.787050 0.058998
O O10 0.184288 0.673371 0.426544
O O11 0.013781 0.937988 0.250460
O O12 0.000000 0.000000 0.000000
O O13 0.603622 0.655667 0.222025
O O14 0.620836 0.510043 0.084205
O O15 0.500000 0.500000 0.500000
O O16 0.463416 0.563814 0.220503
O O17 0.709960 0.169889 0.219162
#
# Coordination Sequence:
#
# PCOD8005139 Si02
#       8
#     2   2   2   2   2   2   2   2
#     4  11  21  41  66  99 126 161 224 266 331 381
#     4  10  22  38  65  94 129 179 214 260 335 384
#     4  10  20  38  65 100 126 164 216 280 313 387
#     4  11  25  45  61  90 132 171 215 267 332 396
#     4  10  25  40  67  92 126 178 212 265 334 394
#     4  10  21  38  64  98 131 168 219 272 320 390
#     4  10  23  39  68  93 128 170 208 276 318 378
#     4  10  21  42  60  97 128 168 216 267 323 386
#
# _framework density 21.602096
#
# number of rings (size 3 to 8) (size 9 to 14) (size 15 to 20)
#    0.000    1.750    2.500    0.750    1.750    7.500 
#    4.500    0.625    0.000    0.000    0.000    0.000 
#    0.000    0.000    0.000    0.000    0.000    0.000 
#
# Total GULP energy -198216.234545 kJ/mol
# GULP energy per Si atom -12388.514659 kJ/mol
# Density = 2.155293 g / cm^3
# Si number density = 21.602096 Si / 1000 Ang^3
#
#
#
# Elastic Constant Matrix: (Units=GPa)
#
#
# Indices 1 2 3 4 5 6 
#
# 1 118.2913 56.7553 42.8851 7.0419 -9.7524 7.6214
# 2 56.7553 95.8639 17.8071 -9.5628 3.1131 4.8856
# 3 42.8851 17.8071 102.8117 0.2812 -3.7638 2.8031
# 4 7.0419 -9.5628 0.2812 19.0453 11.1519 -2.1897
# 5 -9.7524 3.1131 -3.7638 11.1519 29.5941 -2.8820
# 6 7.6214 4.8856 2.8031 -2.1897 -2.8820 28.9413
#
#
#
# Elastic Compliance Matrix: (Units=1/GPa)
#
#
# Indices 1 2 3 4 5 6 
#
# 1 0.019589 -0.013357 -0.005145 -0.023409 0.015774 -0.002606
# 2 -0.013357 0.021077 0.001272 0.024754 -0.015771 0.000138
# 3 -0.005145 0.001272 0.011582 0.003317 -0.001596 0.000111
# 4 -0.023409 0.024754 0.003317 0.102142 -0.047937 0.004619
# 5 0.015774 -0.015771 -0.001596 -0.047937 0.058593 0.000871
# 6 -0.002606 0.000138 0.000111 0.004619 0.000871 0.035641
#
#
# Mechanical properties :
#
#
# Convention : Reuss Voigt Hill
#
# Bulk Modulus (GPa) = 56.21572 61.31799 58.76686
# Shear Modulus (GPa) = 17.30016 28.81743 23.05879
#
# Velocity S-wave (km/s) = 2.83301 3.65637 3.27070
# Velocity P-wave (km/s) = 6.06474 6.80237 6.44412
#
# Compressibility (1/GPa) = 0.01778862
#
# Stress axis : x y z
#
# Youngs Moduli (GPa) = 51.04807 47.44457 86.34136
#
# Poissons Ratio (x) = 0.63370 0.44425
# Poissons Ratio (y) = 0.68183 -0.10981
# Poissons Ratio (z) = 0.26266 -0.06034
#
# Static dielectric constant tensor:
#      x y z
#    x 4.015450 -0.388590 0.141690 
#    y -0.388590 5.015590 -0.294130 
#    z 0.141690 -0.294130 4.215820 
# 
# 
# High freq. dielectric constant tensor:
#      x y z
#    x 1.832170 -0.011600 -0.002660 
#    y -0.011600 1.836950 0.006630 
#    z -0.002660 0.006630 1.861200 
# 
# From -- ./inp_files/461123.got.cif
#   From: 2010.06.25/outbox.cif.g09.slc.cpg/sg2_231_cif.got.tgz:461123.got - 2010.06.27 13:26:56.
