data_PCOD8005292
_publ_section_title
;
Structure prediction by ZEFSAII (Michael W. Deem and Ramdas Pophale) SiO2 
 PCOD8005292
Probable space group: P -1
;
_chemical_formula_sum "Si O2"
_cell_formula_units_Z 14
_cell_length_a 15.555896
_cell_length_b 12.245368
_cell_length_c 8.159117
_cell_angle_alpha 51.652837
_cell_angle_beta 100.957434
_cell_angle_gamma 143.414383
_cell_volume 546.354723
_symmetry_space_group_name_H-M "P -1"
_symmetry_group_IT_number 2
_symmetry_cell_setting 'triclinic'
loop_
_space_group_symop_operation_xyz
x,y,z
-x,-y,-z
loop_
_atom_site_type_symbol
_atom_site_label
_atom_site_fract_x
_atom_site_fract_y
_atom_site_fract_z
Si Si1 0.960555 0.171902 0.439696
Si Si2 0.687828 0.813335 0.176739
Si Si3 0.373777 0.785125 0.404755
Si Si4 0.214712 0.329831 0.564381
Si Si5 0.871748 0.352742 0.745016
Si Si6 0.729931 0.411744 0.099129
Si Si7 0.604041 0.509115 0.852273
O O1 0.024983 0.151787 0.621990
O O2 0.002982 0.388844 0.313122
O O3 0.265536 0.172629 0.350756
O O4 0.064127 0.286024 0.196528
O O5 0.500000 0.500000 0.500000
O O6 0.835420 0.891170 0.163417
O O7 0.614051 0.745424 0.026317
O O8 0.790782 0.093705 0.032086
O O9 0.352179 0.603611 0.486068
O O10 0.305604 0.803806 0.232233
O O11 0.248755 0.620132 0.681046
O O12 0.597960 0.123859 0.208546
O O13 0.327233 0.470101 0.306683
O O14 0.000000 0.500000 0.500000
O O15 0.622534 0.410875 0.082434
#
# Coordination Sequence:
#
# PCOD8005292 Si02
#       7
#     2   2   2   2   2   2   2
#     4  10  23  41  70  93 127 170 218 268 316 385
#     4  10  22  41  66  94 130 171 216 260 321 391
#     4  10  22  39  63  98 123 172 209 276 307 388
#     4   9  20  38  65  91 123 168 221 254 320 379
#     4  11  25  45  65  96 132 173 213 267 326 386
#     4  10  20  38  66  93 130 160 224 258 326 371
#     4  10  20  40  64  98 125 166 217 269 319 378
#
# _framework density 25.624381
#
# number of rings (size 3 to 8) (size 9 to 14) (size 15 to 20)
#    0.000    2.000    1.429    1.714    4.000    6.286 
#    5.143   10.000    0.000    0.000    0.000    0.000 
#    0.000    0.000    0.000    0.000    0.000    0.000 
#
# Total GULP energy -173553.929903 kJ/mol
# GULP energy per Si atom -12396.709279 kJ/mol
# Density = 2.556606 g / cm^3
# Si number density = 25.624381 Si / 1000 Ang^3
#
#
#
# Elastic Constant Matrix: (Units=GPa)
#
#
# Indices 1 2 3 4 5 6 
#
# 1 59.3166 13.1840 16.6820 -17.5653 37.0459 -12.7904
# 2 13.1840 113.4495 31.5992 -34.6204 19.2793 -21.9672
# 3 16.6820 31.5992 82.1994 -19.1189 40.2158 -14.4136
# 4 -17.5653 -34.6204 -19.1189 39.1605 -12.6696 6.6262
# 5 37.0459 19.2793 40.2158 -12.6696 42.8491 -5.6805
# 6 -12.7904 -21.9672 -14.4136 6.6262 -5.6805 30.2978
#
#
#
# Elastic Compliance Matrix: (Units=1/GPa)
#
#
# Indices 1 2 3 4 5 6 
#
# 1 0.086745 0.012952 0.044499 0.030230 -0.108312 0.040261
# 2 0.012952 0.015689 0.005529 0.014539 -0.017420 0.013028
# 3 0.044499 0.005529 0.047475 0.018747 -0.076401 0.026955
# 4 0.030230 0.014539 0.018747 0.047423 -0.034204 0.015437
# 5 -0.108312 -0.017420 -0.076401 -0.034204 0.179305 -0.053603
# 6 0.040261 0.013028 0.026955 0.015437 -0.053603 0.058845
#
#
# Mechanical properties :
#
#
# Convention : Reuss Voigt Hill
#
# Bulk Modulus (GPa) = 3.62491 41.98843 22.80667
# Shear Modulus (GPa) = 12.45401 35.36151 23.90776
#
# Velocity S-wave (km/s) = 2.20698 3.71886 3.05783
# Velocity P-wave (km/s) = 2.81284 5.90437 4.62459
#
# Compressibility (1/GPa) = 0.27586890
#
# Stress axis : x y z
#
# Youngs Moduli (GPa) = 11.52810 63.73970 21.06372
#
# Poissons Ratio (x) = -0.82557 -0.93731
# Poissons Ratio (y) = -0.14931 -0.11646
# Poissons Ratio (z) = -0.51299 -0.35242
#
# Static dielectric constant tensor:
#      x y z
#    x 5.178350 0.470220 0.945740 
#    y 0.470220 4.940200 0.163180 
#    z 0.945740 0.163180 4.833160 
# 
# 
# High freq. dielectric constant tensor:
#      x y z
#    x 1.997540 0.003420 0.026410 
#    y 0.003420 2.030680 -0.012180 
#    z 0.026410 -0.012180 2.015260 
# 
# From -- ./inp_files/331622.got.cif
#   From: 2010.06.25/outbox.cif.g09.slc.cpg/sg2_166_cif.got.tgz:331622.got - 2010.06.27 13:26:56.
