data_PCOD8005931
_publ_section_title
;
Structure prediction by ZEFSAII (Michael W. Deem and Ramdas Pophale) SiO2 
 PCOD8005931
Probable space group: P -1
;
_chemical_formula_sum "Si O2"
_cell_formula_units_Z 16
_cell_length_a 5.013566
_cell_length_b 24.340008
_cell_length_c 6.021913
_cell_angle_alpha 63.980058
_cell_angle_beta 93.959298
_cell_angle_gamma 94.716588
_cell_volume 657.689013
_symmetry_space_group_name_H-M "P -1"
_symmetry_group_IT_number 2
_symmetry_cell_setting 'triclinic'
loop_
_space_group_symop_operation_xyz
x,y,z
-x,-y,-z
loop_
_atom_site_type_symbol
_atom_site_label
_atom_site_fract_x
_atom_site_fract_y
_atom_site_fract_z
Si Si1 0.401611 0.621534 0.806973
Si Si2 0.072531 0.320738 0.080689
Si Si3 0.970127 0.401641 0.558943
Si Si4 0.285927 0.512544 0.282551
Si Si5 0.155393 0.096116 0.803986
Si Si6 0.803487 0.017681 0.266129
Si Si7 0.475162 0.871134 0.872011
Si Si8 0.048302 0.178079 0.275401
O O1 0.701493 0.651500 0.786276
O O2 0.216425 0.661992 0.878060
O O3 0.297423 0.622279 0.545062
O O4 0.403200 0.550137 0.010334
O O5 0.090037 0.248770 0.207553
O O6 0.113600 0.345227 0.783930
O O7 0.155576 0.444868 0.323937
O O8 0.925937 0.444803 0.691877
O O9 0.500000 0.500000 0.500000
O O10 0.981660 0.139517 0.563641
O O11 0.294555 0.042512 0.769382
O O12 0.395543 0.137557 0.861569
O O13 0.955537 0.067381 0.027014
O O14 0.559333 0.054881 0.290275
O O15 0.000000 0.000000 0.500000
O O16 0.672840 0.847069 0.742778
O O17 0.189647 0.833346 0.896792
#
# Coordination Sequence:
#
# PCOD8005931 Si02
#       8
#     2   2   2   2   2   2   2   2
#     4  11  24  42  69  97 131 179 224 273 339 389
#     4  11  26  46  64  97 131 177 230 276 320 400
#     4  10  23  40  66  96 136 174 217 277 336 394
#     4  10  20  39  64 100 136 168 220 277 334 399
#     4  11  25  43  73 102 139 176 222 276 343 409
#     4  11  23  47  71 106 139 174 219 280 343 410
#     4  12  25  47  69 104 131 179 222 280 339 400
#     4  12  28  46  71  96 140 177 233 280 333 398
#
# _framework density 24.327607
#
# number of rings (size 3 to 8) (size 9 to 14) (size 15 to 20)
#    0.000    1.000    3.750    1.500    3.500    4.500 
#    0.000    0.000    0.000    0.000    0.000    0.000 
#    0.000    0.000    0.000    0.000    0.000    0.000 
#
# Total GULP energy -198374.853229 kJ/mol
# GULP energy per Si atom -12398.428327 kJ/mol
# Density = 2.427224 g / cm^3
# Si number density = 24.327607 Si / 1000 Ang^3
#
#
#
# Elastic Constant Matrix: (Units=GPa)
#
#
# Indices 1 2 3 4 5 6 
#
# 1 74.3111 20.6712 11.5823 -6.7402 21.2614 7.9546
# 2 20.6712 127.4144 56.7601 -14.7947 12.6924 13.6912
# 3 11.5823 56.7601 99.1420 -10.5462 18.4671 5.9313
# 4 -6.7402 -14.7947 -10.5462 38.7013 8.7313 10.4763
# 5 21.2614 12.6924 18.4671 8.7313 30.2069 8.1038
# 6 7.9546 13.6912 5.9313 10.4763 8.1038 47.0350
#
#
#
# Elastic Compliance Matrix: (Units=1/GPa)
#
#
# Indices 1 2 3 4 5 6 
#
# 1 0.018925 -0.001531 0.002543 0.007530 -0.015867 -0.002019
# 2 -0.001531 0.011419 -0.005736 0.003447 -0.000394 -0.003041
# 3 0.002543 -0.005736 0.015488 0.004782 -0.010226 -0.000017
# 4 0.007530 0.003447 0.004782 0.035933 -0.017969 -0.007788
# 5 -0.015867 -0.000394 -0.010226 -0.017969 0.056317 -0.001613
# 6 -0.002019 -0.003041 -0.000017 -0.007788 -0.001613 0.024502
#
#
# Mechanical properties :
#
#
# Convention : Reuss Voigt Hill
#
# Bulk Modulus (GPa) = 27.48569 53.21052 40.34810
# Shear Modulus (GPa) = 27.15007 37.31222 32.23114
#
# Velocity S-wave (km/s) = 3.34431 3.92055 3.64384
# Velocity P-wave (km/s) = 5.12203 6.51262 5.85873
#
# Compressibility (1/GPa) = 0.03638257
#
# Stress axis : x y z
#
# Youngs Moduli (GPa) = 52.83910 87.57647 64.56559
#
# Poissons Ratio (x) = 0.13411 -0.16419
# Poissons Ratio (y) = 0.08092 0.37038
# Poissons Ratio (z) = -0.13437 0.50238
#
# Static dielectric constant tensor:
#      x y z
#    x 4.342480 -0.128630 0.107140 
#    y -0.128630 4.727770 -0.058730 
#    z 0.107140 -0.058730 4.510960 
# 
# 
# High freq. dielectric constant tensor:
#      x y z
#    x 1.963750 -0.002890 0.015880 
#    y -0.002890 1.965680 0.008400 
#    z 0.015880 0.008400 1.962760 
# 
# From -- ./inp_files/12831.got.cif
#   From: 2010.06.25/outbox.cif.g09.slc.cpg/sg2_7_cif.got.tgz:12831.got - 2010.06.27 13:26:56.
