data_PCOD8005069
_publ_section_title
;
Structure prediction by ZEFSAII (Michael W. Deem and Ramdas Pophale) SiO2 
 PCOD8005069
Probable space group: P -1
;
_chemical_formula_sum "Si O2"
_cell_formula_units_Z 16
_cell_length_a 14.054304
_cell_length_b 11.239591
_cell_length_c 11.966639
_cell_angle_alpha 118.580055
_cell_angle_beta 33.439520
_cell_angle_gamma 131.067579
_cell_volume 774.179773
_symmetry_space_group_name_H-M "P -1"
_symmetry_group_IT_number 2
_symmetry_cell_setting 'triclinic'
loop_
_space_group_symop_operation_xyz
x,y,z
-x,-y,-z
loop_
_atom_site_type_symbol
_atom_site_label
_atom_site_fract_x
_atom_site_fract_y
_atom_site_fract_z
Si Si1 0.815263 0.434174 0.940127
Si Si2 0.160019 0.382620 0.559292
Si Si3 0.131332 0.045854 0.714743
Si Si4 0.059557 0.210703 0.045151
Si Si5 0.900876 0.878121 0.641458
Si Si6 0.561841 0.660508 0.575567
Si Si7 0.485511 0.370835 0.802736
Si Si8 0.458592 0.670915 0.031369
O O1 0.977347 0.388825 0.800444
O O2 0.934761 0.625797 0.898123
O O3 0.630773 0.366017 0.178119
O O4 0.730315 0.348794 0.863858
O O5 0.083684 0.275897 0.472862
O O6 0.245655 0.299720 0.518050
O O7 0.340064 0.564195 0.434052
O O8 0.030778 0.133393 0.915792
O O9 0.359525 0.186285 0.514566
O O10 0.002770 0.946631 0.690213
O O11 0.125602 0.915929 0.748756
O O12 0.269979 0.235073 0.901123
O O13 0.666075 0.827011 0.856070
O O14 0.000000 0.000000 0.500000
O O15 0.500000 0.500000 0.500000
O O16 0.459683 0.513364 0.931258
O O17 0.557770 0.310921 0.811125
#
# Coordination Sequence:
#
# PCOD8005069 Si02
#       8
#     2   2   2   2   2   2   2   2
#     4  11  22  40  64  94 125 157 213 256 304 375
#     4  11  23  37  65  94 121 166 204 254 314 367
#     4  11  21  36  67  90 121 171 207 249 319 364
#     4  10  20  38  64  92 122 164 211 258 305 367
#     4  11  19  36  60  88 125 164 204 249 312 373
#     4  12  22  43  65  90 122 165 207 255 309 375
#     4   9  16  34  57  85 117 159 208 245 297 357
#     4   9  17  32  57  84 117 159 201 249 295 358
#
# _framework density 20.667034000000001
#
# number of rings (size 3 to 8) (size 9 to 14) (size 15 to 20)
#    0.000    1.500    7.500    0.000    1.750    1.000 
#    0.000    2.500    2.750    2.250    0.000    0.000 
#    0.000    0.000    0.000    0.000    0.000    0.000 
#
# Total GULP energy -198261.360901 kJ/mol
# GULP energy per Si atom -12391.335056 kJ/mol
# Density = 2.062000 g / cm^3
# Si number density = 20.667034 Si / 1000 Ang^3
#
#
#
# Elastic Constant Matrix: (Units=GPa)
#
#
# Indices 1 2 3 4 5 6 
#
# 1 50.9965 19.8639 45.0037 3.1035 13.3291 7.0597
# 2 19.8639 93.9855 39.5383 -22.5917 6.5400 5.6225
# 3 45.0037 39.5383 111.6923 -12.4610 -0.9651 -16.3831
# 4 3.1035 -22.5917 -12.4610 33.4363 -5.7066 16.0339
# 5 13.3291 6.5400 -0.9651 -5.7066 32.1866 -0.0218
# 6 7.0597 5.6225 -16.3831 16.0339 -0.0218 33.6926
#
#
#
# Elastic Compliance Matrix: (Units=1/GPa)
#
#
# Indices 1 2 3 4 5 6 
#
# 1 0.049485 0.000075 -0.023746 -0.008757 -0.022784 -0.017775
# 2 0.000075 0.018384 -0.006793 0.016542 -0.001047 -0.014260
# 3 -0.023746 -0.006793 0.023611 0.000015 0.011937 0.017590
# 4 -0.008757 0.016542 0.000015 0.057155 0.010380 -0.028111
# 5 -0.022784 -0.001047 0.011937 0.010380 0.042919 0.005841
# 6 -0.017775 -0.014260 0.017590 -0.028111 0.005841 0.057719
#
#
# Mechanical properties :
#
#
# Convention : Reuss Voigt Hill
#
# Bulk Modulus (GPa) = 32.73245 51.72068 42.22656
# Shear Modulus (GPa) = 15.60622 30.01432 22.81027
#
# Velocity S-wave (km/s) = 2.75094 3.81501 3.32581
# Velocity P-wave (km/s) = 5.09535 6.66977 5.93500
#
# Compressibility (1/GPa) = 0.03055072
#
# Stress axis : x y z
#
# Youngs Moduli (GPa) = 20.20832 54.39475 42.35320
#
# Poissons Ratio (x) = -0.00408 1.00573
# Poissons Ratio (y) = -0.00152 0.28771
# Poissons Ratio (z) = 0.47987 0.36952
#
# Static dielectric constant tensor:
#      x y z
#    x 4.222620 0.247840 0.500210 
#    y 0.247840 3.931980 -0.382940 
#    z 0.500210 -0.382940 3.711410 
# 
# 
# High freq. dielectric constant tensor:
#      x y z
#    x 1.793790 0.024970 0.034470 
#    y 0.024970 1.807820 -0.030480 
#    z 0.034470 -0.030480 1.787600 
# 
# From -- ./inp_files/451588.got.cif
#   From: 2010.06.25/outbox.cif.g09.slc.cpg/sg2_226_cif.got.tgz:451588.got - 2010.06.27 13:26:56.
