data_PCOD8005616
_publ_section_title
;
Structure prediction by ZEFSAII (Michael W. Deem and Ramdas Pophale) SiO2 
 PCOD8005616
Probable space group: P -1
;
_chemical_formula_sum "Si O2"
_cell_formula_units_Z 16
_cell_length_a 16.261685
_cell_length_b 7.029087
_cell_length_c 8.080710
_cell_angle_alpha 99.376029
_cell_angle_beta 128.282227
_cell_angle_gamma 84.549479
_cell_volume 715.339762
_symmetry_space_group_name_H-M "P -1"
_symmetry_group_IT_number 2
_symmetry_cell_setting 'triclinic'
loop_
_space_group_symop_operation_xyz
x,y,z
-x,-y,-z
loop_
_atom_site_type_symbol
_atom_site_label
_atom_site_fract_x
_atom_site_fract_y
_atom_site_fract_z
Si Si1 0.081154 0.127170 0.222025
Si Si2 0.974006 0.489658 0.273843
Si Si3 0.332881 0.753613 0.589414
Si Si4 0.566722 0.621332 0.469000
Si Si5 0.219392 0.715551 0.907966
Si Si6 0.886752 0.176903 0.535590
Si Si7 0.707049 0.968311 0.700419
Si Si8 0.428985 0.663229 0.011458
O O1 0.192004 0.129325 0.268618
O O2 0.042887 0.341931 0.232780
O O3 0.090673 0.039323 0.407463
O O4 0.000000 0.000000 0.000000
O O5 0.850679 0.434422 0.091625
O O6 0.000000 0.500000 0.500000
O O7 0.008179 0.697413 0.273372
O O8 0.359874 0.534046 0.548693
O O9 0.209122 0.744303 0.463982
O O10 0.400368 0.813567 0.848409
O O11 0.357990 0.908644 0.499803
O O12 0.500000 0.500000 0.500000
O O13 0.635678 0.793481 0.659176
O O14 0.493291 0.736384 0.261617
O O15 0.143090 0.815993 0.693551
O O16 0.314139 0.594395 0.926965
O O17 0.264589 0.890007 0.095916
O O18 0.500000 0.500000 0.000000
#
# Coordination Sequence:
#
# PCOD8005616 Si02
#       8
#     2   2   2   2   2   2   2   2
#     4  11  22  42  63  96 129 164 215 257 317 383
#     4  10  21  39  62  92 129 167 211 257 312 377
#     4   9  20  41  63  88 121 164 209 257 315 381
#     4  11  23  40  62  92 123 161 212 263 322 373
#     4  10  20  39  60  94 126 164 210 259 318 377
#     4   9  21  40  65  88 128 169 208 256 315 378
#     4  11  23  41  64  93 131 162 208 267 320 378
#     4   9  20  40  63  86 121 161 212 261 307 378
#
# _framework density 22.366993000000001
#
# number of rings (size 3 to 8) (size 9 to 14) (size 15 to 20)
#    0.000    2.000    1.250    1.500    0.000    6.000 
#    4.500   13.750    0.000    0.000    0.000    0.000 
#    0.000    0.000    0.000    0.000    0.000    0.000 
#
# Total GULP energy -198218.077595 kJ/mol
# GULP energy per Si atom -12388.629850 kJ/mol
# Density = 2.231608 g / cm^3
# Si number density = 22.366993 Si / 1000 Ang^3
#
#
#
# Elastic Constant Matrix: (Units=GPa)
#
#
# Indices 1 2 3 4 5 6 
#
# 1 107.5294 49.2396 38.1442 10.8798 11.2965 7.4925
# 2 49.2396 72.1058 40.6044 12.3841 9.3447 19.8400
# 3 38.1442 40.6044 107.5109 9.5578 2.4611 15.8942
# 4 10.8798 12.3841 9.5578 33.7024 3.2010 6.3760
# 5 11.2965 9.3447 2.4611 3.2010 31.8274 2.7859
# 6 7.4925 19.8400 15.8942 6.3760 2.7859 39.0692
#
#
#
# Elastic Compliance Matrix: (Units=1/GPa)
#
#
# Indices 1 2 3 4 5 6 
#
# 1 0.014247 -0.008934 -0.001965 -0.001087 -0.002431 0.002955
# 2 -0.008934 0.026202 -0.005062 -0.003362 -0.003025 -0.008769
# 3 -0.001965 -0.005062 0.012240 -0.000736 0.001488 -0.002018
# 4 -0.001087 -0.003362 -0.000736 0.032167 -0.001549 -0.002924
# 5 -0.002431 -0.003025 0.001488 -0.001549 0.033274 -0.000723
# 6 0.002955 -0.008769 -0.002018 -0.002924 -0.000723 0.030832
#
#
# Mechanical properties :
#
#
# Convention : Reuss Voigt Hill
#
# Bulk Modulus (GPa) = 48.15135 60.34694 54.24914
# Shear Modulus (GPa) = 26.62317 31.53034 29.07675
#
# Velocity S-wave (km/s) = 3.45380 3.75865 3.60944
# Velocity P-wave (km/s) = 6.12206 6.77314 6.45581
#
# Compressibility (1/GPa) = 0.02076785
#
# Stress axis : x y z
#
# Youngs Moduli (GPa) = 70.18831 38.16539 81.69870
#
# Poissons Ratio (x) = 0.34096 0.16056
# Poissons Ratio (y) = 0.62704 0.41353
# Poissons Ratio (z) = 0.13794 0.19318
#
# Static dielectric constant tensor:
#      x y z
#    x 3.668220 0.237460 0.254560 
#    y 0.237460 3.906140 -0.291630 
#    z 0.254560 -0.291630 4.325000 
# 
# 
# High freq. dielectric constant tensor:
#      x y z
#    x 1.899040 -0.002530 0.000990 
#    y -0.002530 1.852960 -0.010280 
#    z 0.000990 -0.010280 1.881840 
# 
# From -- ./inp_files/81515.got.cif
#   From: 2010.06.25/outbox.cif.g09.slc.cpg/sg2_41_cif.got.tgz:81515.got - 2010.06.27 13:26:56.
