data_PCOD8005193
_publ_section_title
;
Structure prediction by ZEFSAII (Michael W. Deem and Ramdas Pophale) SiO2 
 PCOD8005193
Probable space group: P -1
;
_chemical_formula_sum "Si O2"
_cell_formula_units_Z 14
_cell_length_a 8.136289
_cell_length_b 9.548247
_cell_length_c 12.579917
_cell_angle_alpha 53.427139
_cell_angle_beta 115.080704
_cell_angle_gamma 115.290332
_cell_volume 690.074211
_symmetry_space_group_name_H-M "P -1"
_symmetry_group_IT_number 2
_symmetry_cell_setting 'triclinic'
loop_
_space_group_symop_operation_xyz
x,y,z
-x,-y,-z
loop_
_atom_site_type_symbol
_atom_site_label
_atom_site_fract_x
_atom_site_fract_y
_atom_site_fract_z
Si Si1 0.116313 0.576201 0.656974
Si Si2 0.436854 0.215143 0.673930
Si Si3 0.846153 0.752952 0.067147
Si Si4 0.247970 0.902871 0.065366
Si Si5 0.113374 0.898002 0.651232
Si Si6 0.732383 0.464123 0.503990
Si Si7 0.001152 0.708221 0.917149
O O1 0.215232 0.434345 0.803673
O O2 0.180256 0.752619 0.664890
O O3 0.190572 0.620068 0.538619
O O4 0.889863 0.510131 0.619010
O O5 0.571265 0.162563 0.822128
O O6 0.554915 0.313760 0.562179
O O7 0.324022 0.352619 0.629292
O O8 0.297677 0.033769 0.681281
O O9 0.065772 0.834100 0.122787
O O10 0.835714 0.725512 0.947169
O O11 0.714863 0.879614 0.016383
O O12 0.197974 0.822264 0.969720
O O13 0.981631 0.797873 0.757168
O O14 0.000000 0.000000 0.500000
O O15 0.000000 0.500000 0.000000
#
# Coordination Sequence:
#
# PCOD8005193 Si02
#       7
#     2   2   2   2   2   2   2
#     4  11  21  42  63  93 124 173 217 252 325 392
#     4  11  23  42  62  99 128 163 215 272 314 376
#     4   9  19  38  64  90 120 170 216 252 313 385
#     4   9  20  37  63  90 125 163 216 252 311 381
#     4  12  25  39  65  98 129 167 216 267 325 383
#     4  10  23  38  68  89 130 171 206 268 319 381
#     4  10  20  38  65  92 126 171 206 265 315 381
#
# _framework density 20.287673000000002
#
# number of rings (size 3 to 8) (size 9 to 14) (size 15 to 20)
#    0.857    0.857    4.286    0.000    2.000    2.286 
#    0.000    2.143    0.000    0.000    0.000    0.000 
#    0.000    0.000    0.000    0.000    0.000    0.000 
#
# Total GULP energy -173515.790537 kJ/mol
# GULP energy per Si atom -12393.985038 kJ/mol
# Density = 2.024150 g / cm^3
# Si number density = 20.287673 Si / 1000 Ang^3
#
#
#
# Elastic Constant Matrix: (Units=GPa)
#
#
# Indices 1 2 3 4 5 6 
#
# 1 45.5109 23.6102 20.9418 0.5135 -1.0403 -5.7801
# 2 23.6102 128.3149 48.2415 -12.5484 -6.9915 -23.0130
# 3 20.9418 48.2415 129.2590 -12.2773 3.0392 -12.8431
# 4 0.5135 -12.5484 -12.2773 35.2076 -4.9863 0.7697
# 5 -1.0403 -6.9915 3.0392 -4.9863 29.6498 -6.2655
# 6 -5.7801 -23.0130 -12.8431 0.7697 -6.2655 25.7562
#
#
#
# Elastic Compliance Matrix: (Units=1/GPa)
#
#
# Indices 1 2 3 4 5 6 
#
# 1 0.025367 -0.003635 -0.002901 -0.002685 0.000112 0.001106
# 2 -0.003635 0.011904 -0.002640 0.003966 0.005681 0.009767
# 3 -0.002901 -0.002640 0.009575 0.002264 -0.001019 0.001449
# 4 -0.002685 0.003966 0.002264 0.031521 0.006927 0.004813
# 5 0.000112 0.005681 -0.001019 0.006927 0.039286 0.013943
# 6 0.001106 0.009767 0.001449 0.004813 0.013943 0.051771
#
#
# Mechanical properties :
#
#
# Convention : Reuss Voigt Hill
#
# Bulk Modulus (GPa) = 35.09636 54.29686 44.69661
# Shear Modulus (GPa) = 25.34546 32.14214 28.74380
#
# Velocity S-wave (km/s) = 3.53838 3.98467 3.76814
# Velocity P-wave (km/s) = 5.83356 6.92760 6.40399
#
# Compressibility (1/GPa) = 0.02849298
#
# Stress axis : x y z
#
# Youngs Moduli (GPa) = 39.42170 84.00577 104.44159
#
# Poissons Ratio (x) = 0.30537 0.30298
# Poissons Ratio (y) = 0.14330 0.27575
# Poissons Ratio (z) = 0.11436 0.22179
#
# Static dielectric constant tensor:
#      x y z
#    x 3.412430 -0.084520 -0.003560 
#    y -0.084520 3.621390 -0.134080 
#    z -0.003560 -0.134080 3.654790 
# 
# 
# High freq. dielectric constant tensor:
#      x y z
#    x 1.766310 -0.012140 -0.008570 
#    y -0.012140 1.797540 -0.014700 
#    z -0.008570 -0.014700 1.792230 
# 
# From -- ./inp_files/263556.got.cif
#   From: 2010.06.25/outbox.cif.g09.slc.cpg/sg2_132_cif.got.tgz:263556.got - 2010.06.27 13:26:56.
