data_PCOD8005801
_publ_section_title
;
Structure prediction by ZEFSAII (Michael W. Deem and Ramdas Pophale) SiO2 
 PCOD8005801
Probable space group: P -1
;
_chemical_formula_sum "Si O2"
_cell_formula_units_Z 16
_cell_length_a 13.116312
_cell_length_b 9.383318
_cell_length_c 11.865686
_cell_angle_alpha 126.643264
_cell_angle_beta 95.487403
_cell_angle_gamma 46.657982
_cell_volume 718.276134
_symmetry_space_group_name_H-M "P -1"
_symmetry_group_IT_number 2
_symmetry_cell_setting 'triclinic'
loop_
_space_group_symop_operation_xyz
x,y,z
-x,-y,-z
loop_
_atom_site_type_symbol
_atom_site_label
_atom_site_fract_x
_atom_site_fract_y
_atom_site_fract_z
Si Si1 0.843055 0.751803 0.023962
Si Si2 0.776168 0.461621 0.903553
Si Si3 0.778828 0.499380 0.342732
Si Si4 0.174214 0.885921 0.683738
Si Si5 0.758556 0.923745 0.627503
Si Si6 0.128224 0.122618 0.145067
Si Si7 0.169791 0.867371 0.426810
Si Si8 0.380949 0.471070 0.858137
O O1 0.752434 0.050916 0.204577
O O2 0.728561 0.732615 0.006234
O O3 0.896100 0.705105 0.877635
O O4 0.000000 0.500000 0.000000
O O5 0.718540 0.422256 0.771317
O O6 0.673772 0.537942 0.034920
O O7 0.973466 0.161553 0.800280
O O8 0.755521 0.394387 0.393298
O O9 0.650041 0.628383 0.291278
O O10 0.964228 0.225346 0.183055
O O11 0.746630 0.741411 0.495443
O O12 0.248053 0.808130 0.528541
O O13 0.856463 0.915506 0.545170
O O14 0.574763 0.254064 0.780991
O O15 0.853253 0.796695 0.697253
O O16 0.283895 0.785881 0.973746
O O17 0.000000 0.000000 0.500000
#
# Coordination Sequence:
#
# PCOD8005801 Si02
#       8
#     2   2   2   2   2   2   2   2
#     4  10  22  37  64 102 127 170 224 287 332 380
#     4  10  21  38  65  94 130 173 222 278 338 390
#     4  12  24  42  70 104 134 181 234 282 331 405
#     4  10  20  39  62  98 130 171 225 282 326 393
#     4  12  28  43  69 103 142 182 221 283 352 400
#     4  12  23  43  73  97 135 178 241 283 320 407
#     4  10  22  40  63  95 135 174 218 277 333 400
#     4  12  24  47  68  99 143 181 226 281 345 406
#
# _framework density 22.275556000000002
#
# number of rings (size 3 to 8) (size 9 to 14) (size 15 to 20)
#    0.000    1.000    3.750    3.750    8.750    0.000 
#    0.000    2.500    0.000    0.000    0.000    0.000 
#    0.000    0.000    0.000    0.000    0.000    0.000 
#
# Total GULP energy -198395.762565 kJ/mol
# GULP energy per Si atom -12399.735160 kJ/mol
# Density = 2.222486 g / cm^3
# Si number density = 22.275556 Si / 1000 Ang^3
#
#
#
# Elastic Constant Matrix: (Units=GPa)
#
#
# Indices 1 2 3 4 5 6 
#
# 1 91.9415 46.0824 43.5123 -19.2237 14.1510 34.5409
# 2 46.0824 97.0082 47.7412 -36.7238 -14.6557 28.3287
# 3 43.5123 47.7412 99.0510 -35.9689 12.5272 25.1848
# 4 -19.2237 -36.7238 -35.9689 51.3266 0.9379 -0.6248
# 5 14.1510 -14.6557 12.5272 0.9379 36.9260 3.0132
# 6 34.5409 28.3287 25.1848 -0.6248 3.0132 40.1036
#
#
#
# Elastic Compliance Matrix: (Units=1/GPa)
#
#
# Indices 1 2 3 4 5 6 
#
# 1 0.021190 -0.006362 -0.000869 0.002795 -0.009405 -0.012461
# 2 -0.006362 0.025407 -0.003903 0.012664 0.014414 -0.010902
# 3 -0.000869 -0.003903 0.018929 0.010187 -0.007270 -0.007677
# 4 0.002795 0.012664 0.010187 0.036502 0.000980 -0.017256
# 5 -0.009405 0.014414 -0.007270 0.000980 0.038882 -0.000422
# 6 -0.012461 -0.010902 -0.007677 -0.017256 -0.000422 0.047953
#
#
# Mechanical properties :
#
#
# Convention : Reuss Voigt Hill
#
# Bulk Modulus (GPa) = 23.11742 62.51915 42.81829
# Shear Modulus (GPa) = 22.16790 35.71555 28.94173
#
# Velocity S-wave (km/s) = 3.15805 4.00853 3.60843
# Velocity P-wave (km/s) = 4.86808 7.03929 6.05185
#
# Compressibility (1/GPa) = 0.04325742
#
# Stress axis : x y z
#
# Youngs Moduli (GPa) = 47.19242 39.35905 52.82782
#
# Poissons Ratio (x) = 0.25040 0.04593
# Poissons Ratio (y) = 0.30023 0.20620
# Poissons Ratio (z) = 0.04103 0.15363
#
# Static dielectric constant tensor:
#      x y z
#    x 4.263660 0.119220 0.399590 
#    y 0.119220 4.030650 -0.373850 
#    z 0.399590 -0.373850 4.360120 
# 
# 
# High freq. dielectric constant tensor:
#      x y z
#    x 1.878250 0.018960 0.021630 
#    y 0.018960 1.863450 -0.028430 
#    z 0.021630 -0.028430 1.879490 
# 
# From -- ./inp_files/419736.got.cif
#   From: 2010.06.25/outbox.cif.g09.slc.cpg/sg2_210_cif.got.tgz:419736.got - 2010.06.27 13:26:56.
