data_PCOD8005184
_publ_section_title
;
Structure prediction by ZEFSAII (Michael W. Deem and Ramdas Pophale) SiO2 
 PCOD8005184
Probable space group: P -1
;
_chemical_formula_sum "Si O2"
_cell_formula_units_Z 14
_cell_length_a 18.631443
_cell_length_b 8.428670
_cell_length_c 9.904005
_cell_angle_alpha 120.728070
_cell_angle_beta 57.721982
_cell_angle_gamma 148.770305
_cell_volume 676.513578
_symmetry_space_group_name_H-M "P -1"
_symmetry_group_IT_number 2
_symmetry_cell_setting 'triclinic'
loop_
_space_group_symop_operation_xyz
x,y,z
-x,-y,-z
loop_
_atom_site_type_symbol
_atom_site_label
_atom_site_fract_x
_atom_site_fract_y
_atom_site_fract_z
Si Si1 0.088804 0.561665 0.556061
Si Si2 0.183718 0.320724 0.289902
Si Si3 0.071247 0.745174 0.146483
Si Si4 0.635597 0.897109 0.952594
Si Si5 0.462513 0.649526 0.265461
Si Si6 0.372986 0.850888 0.150375
Si Si7 0.589258 0.829903 0.502579
O O1 0.106915 0.372748 0.439027
O O2 0.000000 0.500000 0.500000
O O3 0.997129 0.439313 0.726521
O O4 0.243339 0.928080 0.571702
O O5 0.304512 0.462652 0.337701
O O6 0.260538 0.495256 0.144836
O O7 0.062708 0.953774 0.230194
O O8 0.235649 0.990214 0.065361
O O9 0.000000 0.500000 0.000000
O O10 0.531472 0.563180 0.846393
O O11 0.701127 0.131025 0.866150
O O12 0.555885 0.880590 0.141782
O O13 0.533044 0.816820 0.411816
O O14 0.428691 0.037173 0.314347
O O15 0.500000 0.000000 0.000000
O O16 0.500000 0.500000 0.500000
#
# Coordination Sequence:
#
# PCOD8005184 Si02
#       7
#     2   2   2   2   2   2   2
#     4  11  25  44  65  93 137 179 210 263 337 394
#     4  10  23  41  69  92 131 175 223 265 335 386
#     4  11  23  42  65  91 127 173 225 264 320 399
#     4  10  20  38  65  91 131 170 210 269 335 373
#     4  10  20  38  67  97 125 169 219 276 318 380
#     4  11  21  38  58  94 130 162 204 272 331 374
#     4  11  23  40  66  97 126 166 225 267 316 389
#
# _framework density 20.694337999999998
#
# number of rings (size 3 to 8) (size 9 to 14) (size 15 to 20)
#    0.000    1.429    2.857    3.000    2.000    3.429 
#    2.571    2.857    0.000    0.000    0.000    0.000 
#    0.000    0.000    0.000    0.000    0.000    0.000 
#
# Total GULP energy -173509.356846 kJ/mol
# GULP energy per Si atom -12393.525489 kJ/mol
# Density = 2.064724 g / cm^3
# Si number density = 20.694338 Si / 1000 Ang^3
#
#
#
# Elastic Constant Matrix: (Units=GPa)
#
#
# Indices 1 2 3 4 5 6 
#
# 1 108.7261 36.8775 49.6222 12.2481 13.6128 0.8414
# 2 36.8775 121.0552 46.4638 3.5285 10.5761 -10.8402
# 3 49.6222 46.4638 136.0322 -5.8898 18.0195 2.1636
# 4 12.2481 3.5285 -5.8898 31.4039 0.9958 -0.6534
# 5 13.6128 10.5761 18.0195 0.9958 39.9106 -9.8127
# 6 0.8414 -10.8402 2.1636 -0.6534 -9.8127 34.4680
#
#
#
# Elastic Compliance Matrix: (Units=1/GPa)
#
#
# Indices 1 2 3 4 5 6 
#
# 1 0.012528 -0.002164 -0.003739 -0.005304 -0.002246 -0.001492
# 2 -0.002164 0.010338 -0.002855 -0.000785 0.000172 0.003517
# 3 -0.003739 -0.002855 0.010327 0.003772 -0.003296 -0.002321
# 4 -0.005304 -0.000785 0.003772 0.034727 -0.000514 0.000158
# 5 -0.002246 0.000172 -0.003296 -0.000514 0.029411 0.008679
# 6 -0.001492 0.003517 -0.002321 0.000158 0.008679 0.032775
#
#
# Mechanical properties :
#
#
# Convention : Reuss Voigt Hill
#
# Bulk Modulus (GPa) = 63.78409 70.19340 66.98875
# Shear Modulus (GPa) = 32.71207 36.67984 34.69595
#
# Velocity S-wave (km/s) = 3.98015 4.21462 4.09906
# Velocity P-wave (km/s) = 7.21187 7.59453 7.40567
#
# Compressibility (1/GPa) = 0.01567789
#
# Stress axis : x y z
#
# Youngs Moduli (GPa) = 79.81920 96.72644 96.83262
#
# Poissons Ratio (x) = 0.20932 0.36210
# Poissons Ratio (y) = 0.17273 0.27641
# Poissons Ratio (z) = 0.29848 0.27611
#
# Static dielectric constant tensor:
#      x y z
#    x 4.350230 -0.216530 0.317500 
#    y -0.216530 3.876500 0.003330 
#    z 0.317500 0.003330 4.104810 
# 
# 
# High freq. dielectric constant tensor:
#      x y z
#    x 1.813440 -0.013000 -0.000320 
#    y -0.013000 1.804830 -0.017340 
#    z -0.000320 -0.017340 1.810620 
# 
# From -- ./inp_files/182199.got.cif
#   From: 2010.06.25/outbox.cif.g09.slc.cpg/sg2_92_cif.got.tgz:182199.got - 2010.06.27 13:26:56.
