data_PCOD8005588
_publ_section_title
;
Structure prediction by ZEFSAII (Michael W. Deem and Ramdas Pophale) SiO2 
 PCOD8005588
Probable space group: P -1
;
_chemical_formula_sum "Si O2"
_cell_formula_units_Z 16
_cell_length_a 27.460429
_cell_length_b 20.938924
_cell_length_c 6.703804
_cell_angle_alpha 69.055114
_cell_angle_beta 61.398778
_cell_angle_gamma 15.259759
_cell_volume 794.706225
_symmetry_space_group_name_H-M "P -1"
_symmetry_group_IT_number 2
_symmetry_cell_setting 'triclinic'
loop_
_space_group_symop_operation_xyz
x,y,z
-x,-y,-z
loop_
_atom_site_type_symbol
_atom_site_label
_atom_site_fract_x
_atom_site_fract_y
_atom_site_fract_z
Si Si1 0.471263 0.877672 0.520483
Si Si2 0.273047 0.550678 0.660606
Si Si3 0.719081 0.768330 0.739466
Si Si4 0.014068 0.416263 0.928023
Si Si5 0.293899 0.294287 0.535292
Si Si6 0.896163 0.191391 0.895161
Si Si7 0.567819 0.527728 0.840625
Si Si8 0.831025 0.081941 0.683343
O O1 0.608777 0.663425 0.350263
O O2 0.628811 0.719831 0.564130
O O3 0.347987 0.082699 0.406137
O O4 0.262858 0.090027 0.795279
O O5 0.437712 0.411604 0.399949
O O6 0.220175 0.624391 0.913773
O O7 0.041042 0.826400 0.696804
O O8 0.908248 0.559947 0.760025
O O9 0.804657 0.606745 0.599153
O O10 0.500000 0.000000 0.000000
O O11 0.887716 0.502844 0.168692
O O12 0.000000 0.500000 0.000000
O O13 0.500000 0.000000 0.500000
O O14 0.702059 0.401934 0.894408
O O15 0.084199 0.011078 0.609020
O O16 0.000000 0.000000 0.000000
O O17 0.693753 0.312302 0.750380
O O18 0.326297 0.796027 0.102932
#
# Coordination Sequence:
#
# PCOD8005588 Si02
#       8
#     2   2   2   2   2   2   2   2
#     4  11  24  40  61  90 122 161 195 263 319 346
#     4  11  23  42  58  89 135 156 200 262 312 358
#     4  11  20  40  64  86 115 155 207 247 294 378
#     4  12  21  39  65  87 116 155 210 250 297 373
#     4  10  20  39  60  88 113 153 203 247 300 363
#     4  11  19  38  64  92 122 165 209 247 294 371
#     4  10  21  39  64  93 120 164 212 247 299 368
#     4  10  21  39  66  89 121 167 206 252 298 365
#
# _framework density 20.133227999999999
#
# number of rings (size 3 to 8) (size 9 to 14) (size 15 to 20)
#    0.000    1.250    7.500    1.125    0.000    2.500 
#    9.000    1.250    0.000    0.000    0.000    0.000 
#    0.000    0.000    0.000    0.000    0.000    0.000 
#
# Total GULP energy -198291.450518 kJ/mol
# GULP energy per Si atom -12393.215657 kJ/mol
# Density = 2.008740 g / cm^3
# Si number density = 20.133228 Si / 1000 Ang^3
#
#
#
# Elastic Constant Matrix: (Units=GPa)
#
#
# Indices 1 2 3 4 5 6 
#
# 1 116.2423 32.9839 62.6361 6.8519 11.5254 -6.9136
# 2 32.9839 175.5777 79.0898 70.7627 31.6202 -13.7914
# 3 62.6361 79.0898 174.9710 35.5118 7.9505 -13.0656
# 4 6.8519 70.7627 35.5118 57.5395 3.9215 2.5168
# 5 11.5254 31.6202 7.9505 3.9215 53.6993 7.4878
# 6 -6.9136 -13.7914 -13.0656 2.5168 7.4878 27.9008
#
#
#
# Elastic Compliance Matrix: (Units=1/GPa)
#
#
# Indices 1 2 3 4 5 6 
#
# 1 0.011002 -0.000925 -0.003868 0.002288 -0.001503 0.000655
# 2 -0.000925 0.017835 -0.002252 -0.020269 -0.010176 0.012092
# 3 -0.003868 -0.002252 0.008695 -0.002276 0.000756 0.002003
# 4 0.002288 -0.020269 -0.002276 0.043448 0.011034 -0.017398
# 5 -0.001503 -0.010176 0.000756 0.011034 0.025828 -0.012975
# 6 0.000655 0.012092 0.002003 -0.017398 -0.012975 0.047970
#
#
# Mechanical properties :
#
#
# Convention : Reuss Voigt Hill
#
# Bulk Modulus (GPa) = 42.65503 90.69006 66.67255
# Shear Modulus (GPa) = 28.29972 47.29999 37.79986
#
# Velocity S-wave (km/s) = 3.75323 4.85227 4.33770
# Velocity P-wave (km/s) = 6.32572 8.74845 7.63381
#
# Compressibility (1/GPa) = 0.02344389
#
# Stress axis : x y z
#
# Youngs Moduli (GPa) = 90.89011 56.07017 115.01326
#
# Poissons Ratio (x) = 0.05184 0.44485
# Poissons Ratio (y) = 0.08403 0.25896
# Poissons Ratio (z) = 0.35155 0.12625
#
# Static dielectric constant tensor:
#      x y z
#    x 3.949120 -0.225320 0.038520 
#    y -0.225320 3.333800 -0.108260 
#    z 0.038520 -0.108260 3.981130 
# 
# 
# High freq. dielectric constant tensor:
#      x y z
#    x 1.787660 -0.017310 -0.003840 
#    y -0.017310 1.754910 0.012350 
#    z -0.003840 0.012350 1.806550 
# 
# From -- ./inp_files/124700.got.cif
#   From: 2010.06.25/outbox.cif.g09.slc.cpg/sg2_63_cif.got.tgz:124700.got - 2010.06.27 13:26:56.
