data_PCOD8005282
_publ_section_title
;
Structure prediction by ZEFSAII (Michael W. Deem and Ramdas Pophale) SiO2 
 PCOD8005282
Probable space group: P -1
;
_chemical_formula_sum "Si O2"
_cell_formula_units_Z 16
_cell_length_a 13.699055
_cell_length_b 13.269925
_cell_length_c 8.240892
_cell_angle_alpha 106.884979
_cell_angle_beta 136.280195
_cell_angle_gamma 46.802707
_cell_volume 689.970862
_symmetry_space_group_name_H-M "P -1"
_symmetry_group_IT_number 2
_symmetry_cell_setting 'triclinic'
loop_
_space_group_symop_operation_xyz
x,y,z
-x,-y,-z
loop_
_atom_site_type_symbol
_atom_site_label
_atom_site_fract_x
_atom_site_fract_y
_atom_site_fract_z
Si Si1 0.882890 0.364196 0.533945
Si Si2 0.839893 0.164261 0.963929
Si Si3 0.405840 0.902760 0.831817
Si Si4 0.572845 0.683426 0.450029
Si Si5 0.730386 0.762754 0.893704
Si Si6 0.091289 0.203917 0.395586
Si Si7 0.801901 0.168958 0.300302
Si Si8 0.518965 0.916795 0.312564
O O1 0.684454 0.542093 0.400103
O O2 0.816327 0.279219 0.440091
O O3 0.969051 0.337565 0.443992
O O4 0.047902 0.309737 0.841452
O O5 0.778323 0.178716 0.083941
O O6 0.933919 0.231329 0.095645
O O7 0.617553 0.270072 0.661299
O O8 0.000000 0.000000 0.000000
O O9 0.614928 0.800400 0.939173
O O10 0.379217 0.795861 0.808494
O O11 0.214597 0.044557 0.561704
O O12 0.424040 0.968800 0.040456
O O13 0.735928 0.648124 0.752366
O O14 0.465957 0.835409 0.292736
O O15 0.601292 0.913111 0.687549
O O16 0.237274 0.199648 0.463304
O O17 0.000000 0.000000 0.500000
#
# Coordination Sequence:
#
# PCOD8005282 Si02
#       8
#     2   2   2   2   2   2   2   2
#     4  11  23  42  63  89 130 165 204 253 312 370
#     4  11  23  40  61  91 129 157 200 261 314 355
#     4  11  18  39  68  95 112 161 222 254 286 370
#     4  12  27  39  60  97 130 161 200 261 323 355
#     4  11  22  42  66  86 129 164 208 254 305 367
#     4  10  20  38  66  92 124 162 204 255 306 360
#     4  11  21  39  70  92 114 168 216 244 297 377
#     4  11  20  40  65  98 115 157 221 256 292 371
#
# _framework density 23.189385000000001
#
# number of rings (size 3 to 8) (size 9 to 14) (size 15 to 20)
#    0.000    1.000    6.250    3.000    0.000    2.500 
#    0.000    0.625    0.000    0.000    0.000    0.000 
#    0.000    0.000    0.000    0.000    0.000    0.000 
#
# Total GULP energy -198348.501634 kJ/mol
# GULP energy per Si atom -12396.781352 kJ/mol
# Density = 2.313660 g / cm^3
# Si number density = 23.189385 Si / 1000 Ang^3
#
#
#
# Elastic Constant Matrix: (Units=GPa)
#
#
# Indices 1 2 3 4 5 6 
#
# 1 68.6766 19.5160 23.1705 0.9802 31.5421 0.1068
# 2 19.5160 135.5862 37.7103 15.7553 18.5619 -13.7663
# 3 23.1705 37.7103 100.6500 20.1805 37.8701 3.3853
# 4 0.9802 15.7553 20.1805 31.7331 3.6203 5.8951
# 5 31.5421 18.5619 37.8701 3.6203 38.7025 -0.2391
# 6 0.1068 -13.7663 3.3853 5.8951 -0.2391 28.2753
#
#
#
# Elastic Compliance Matrix: (Units=1/GPa)
#
#
# Indices 1 2 3 4 5 6 
#
# 1 0.024072 -0.001603 0.003291 0.000787 -0.022154 -0.001617
# 2 -0.001603 0.009380 -0.002320 -0.004136 -0.000500 0.005709
# 3 0.003291 -0.002320 0.019185 -0.008583 -0.019550 -0.001815
# 4 0.000787 -0.004136 -0.008583 0.040048 0.005936 -0.009288
# 5 -0.022154 -0.000500 -0.019550 0.005936 0.062716 0.001474
# 6 -0.001617 0.005709 -0.001815 -0.009288 0.001474 0.040318
#
#
# Mechanical properties :
#
#
# Convention : Reuss Voigt Hill
#
# Bulk Modulus (GPa) = 19.46555 51.74516 35.60535
# Shear Modulus (GPa) = 23.35270 34.70993 29.03132
#
# Velocity S-wave (km/s) = 3.17684 3.87305 3.54209
# Velocity P-wave (km/s) = 4.67641 6.50871 5.66710
#
# Compressibility (1/GPa) = 0.05137281
#
# Stress axis : x y z
#
# Youngs Moduli (GPa) = 41.54142 106.60986 52.12497
#
# Poissons Ratio (x) = 0.17090 -0.17154
# Poissons Ratio (y) = 0.06659 0.12093
# Poissons Ratio (z) = -0.13671 0.24734
#
# Static dielectric constant tensor:
#      x y z
#    x 4.451010 -0.031580 0.257490 
#    y -0.031580 3.923400 0.400060 
#    z 0.257490 0.400060 4.343520 
# 
# 
# High freq. dielectric constant tensor:
#      x y z
#    x 1.909460 -0.015130 0.024400 
#    y -0.015130 1.891030 0.032630 
#    z 0.024400 0.032630 1.935260 
# 
# From -- ./inp_files/314044.got.cif
#   From: 2010.06.25/outbox.cif.g09.slc.cpg/sg2_158_cif.got.tgz:314044.got - 2010.06.27 13:26:56.
