data_PCOD8005224
_publ_section_title
;
Structure prediction by ZEFSAII (Michael W. Deem and Ramdas Pophale) SiO2 
 PCOD8005224
Probable space group: P -1
;
_chemical_formula_sum "Si O2"
_cell_formula_units_Z 16
_cell_length_a 16.520113
_cell_length_b 8.281725
_cell_length_c 8.410213
_cell_angle_alpha 73.988850
_cell_angle_beta 56.224248
_cell_angle_gamma 54.079076
_cell_volume 772.381497
_symmetry_space_group_name_H-M "P -1"
_symmetry_group_IT_number 2
_symmetry_cell_setting 'triclinic'
loop_
_space_group_symop_operation_xyz
x,y,z
-x,-y,-z
loop_
_atom_site_type_symbol
_atom_site_label
_atom_site_fract_x
_atom_site_fract_y
_atom_site_fract_z
Si Si1 0.618832 0.987550 0.375700
Si Si2 0.888570 0.547774 0.703524
Si Si3 0.888156 0.179498 0.873562
Si Si4 0.345052 0.136381 0.284863
Si Si5 0.630059 0.302847 0.100146
Si Si6 0.970108 0.240841 0.098854
Si Si7 0.495055 0.736831 0.039511
Si Si8 0.845715 0.665866 0.083499
O O1 0.681339 0.900111 0.498650
O O2 0.708038 0.829412 0.189242
O O3 0.500000 0.000000 0.500000
O O4 0.594151 0.205584 0.304369
O O5 0.885727 0.350159 0.726296
O O6 0.776279 0.743717 0.704039
O O7 0.000000 0.500000 0.500000
O O8 0.892814 0.590953 0.873226
O O9 0.766406 0.200849 0.986151
O O10 0.913351 0.204392 0.020215
O O11 0.988158 0.948707 0.775801
O O12 0.430142 0.920926 0.176863
O O13 0.409678 0.255714 0.174470
O O14 0.560407 0.541610 0.134701
O O15 0.598676 0.262129 0.971553
O O16 0.875126 0.465425 0.205463
O O17 0.086392 0.242517 0.933853
#
# Coordination Sequence:
#
# PCOD8005224 Si02
#       8
#     2   2   2   2   2   2   2   2
#     4  12  25  40  68  98 130 171 222 264 317 387
#     4  11  25  42  68  93 129 172 218 264 324 389
#     4  10  20  38  65  95 126 166 210 265 327 377
#     4  11  24  40  65  99 128 169 222 265 320 385
#     4  11  21  42  69  94 131 174 212 268 327 380
#     4   9  20  36  66  92 122 165 212 259 319 376
#     4  10  23  43  67  92 132 173 215 268 326 382
#     4  10  22  42  67  92 130 172 214 264 323 382
#
# _framework density 20.715153000000001
#
# number of rings (size 3 to 8) (size 9 to 14) (size 15 to 20)
#    0.000    1.500    3.750    0.750    7.000    0.500 
#    0.000    1.875    5.500    0.000    0.000    0.000 
#    0.000    0.000    0.000    0.000    0.000    0.000 
#
# Total GULP energy -198281.977225 kJ/mol
# GULP energy per Si atom -12392.623577 kJ/mol
# Density = 2.066800 g / cm^3
# Si number density = 20.715153 Si / 1000 Ang^3
#
#
#
# Elastic Constant Matrix: (Units=GPa)
#
#
# Indices 1 2 3 4 5 6 
#
# 1 101.2706 30.4770 25.3041 0.4767 -15.7379 -11.5350
# 2 30.4770 164.6177 44.2887 -19.8414 -8.6136 -12.1290
# 3 25.3041 44.2887 92.8038 -6.3317 -12.9913 -3.8246
# 4 0.4767 -19.8414 -6.3317 35.0098 -3.3399 -3.1328
# 5 -15.7379 -8.6136 -12.9913 -3.3399 28.7979 -1.4887
# 6 -11.5350 -12.1290 -3.8246 -3.1328 -1.4887 31.5092
#
#
#
# Elastic Compliance Matrix: (Units=1/GPa)
#
#
# Indices 1 2 3 4 5 6 
#
# 1 0.011994 -0.001193 -0.001778 -0.000276 0.005568 0.003952
# 2 -0.001193 0.007836 -0.002866 0.004280 0.001035 0.002706
# 3 -0.001778 -0.002866 0.013328 0.001241 0.004338 0.000192
# 4 -0.000276 0.004280 0.001241 0.032223 0.005694 0.005170
# 5 0.005568 0.001035 0.004338 0.005694 0.040977 0.005466
# 6 0.003952 0.002706 0.000192 0.005170 0.005466 0.035021
#
#
# Mechanical properties :
#
#
# Convention : Reuss Voigt Hill
#
# Bulk Modulus (GPa) = 46.54401 62.09243 54.31822
# Shear Modulus (GPa) = 31.20836 36.30487 33.75661
#
# Velocity S-wave (km/s) = 3.88564 4.19092 4.04116
# Velocity P-wave (km/s) = 6.53056 7.31149 6.93203
#
# Compressibility (1/GPa) = 0.02148504
#
# Stress axis : x y z
#
# Youngs Moduli (GPa) = 83.37155 127.61616 75.03246
#
# Poissons Ratio (x) = 0.15227 0.13337
# Poissons Ratio (y) = 0.09948 0.21503
# Poissons Ratio (z) = 0.14819 0.36572
#
# Static dielectric constant tensor:
#      x y z
#    x 3.807740 -0.050470 -0.112340 
#    y -0.050470 4.676300 -0.262330 
#    z -0.112340 -0.262330 3.458720 
# 
# 
# High freq. dielectric constant tensor:
#      x y z
#    x 1.821830 -0.010760 -0.013770 
#    y -0.010760 1.845940 -0.011620 
#    z -0.013770 -0.011620 1.762300 
# 
# From -- ./inp_files/273738.got.cif
#   From: 2010.06.25/outbox.cif.g09.slc.cpg/sg2_137_cif.got.tgz:273738.got - 2010.06.27 13:26:56.
