data_PCOD8005956
_publ_section_title
;
Structure prediction by ZEFSAII (Michael W. Deem and Ramdas Pophale) SiO2 
 PCOD8005956
Probable space group: P -1
;
_chemical_formula_sum "Si O2"
_cell_formula_units_Z 16
_cell_length_a 8.004463
_cell_length_b 16.051248
_cell_length_c 9.490428
_cell_angle_alpha 62.290972
_cell_angle_beta 100.026953
_cell_angle_gamma 57.254762
_cell_volume 745.017010
_symmetry_space_group_name_H-M "P -1"
_symmetry_group_IT_number 2
_symmetry_cell_setting 'triclinic'
loop_
_space_group_symop_operation_xyz
x,y,z
-x,-y,-z
loop_
_atom_site_type_symbol
_atom_site_label
_atom_site_fract_x
_atom_site_fract_y
_atom_site_fract_z
Si Si1 0.076272 0.521995 0.673412
Si Si2 0.098214 0.311660 0.982346
Si Si3 0.730052 0.104442 0.686053
Si Si4 0.425163 0.037855 0.119293
Si Si5 0.728218 0.081352 0.144351
Si Si6 0.606976 0.698635 0.303594
Si Si7 0.283107 0.518667 0.982566
Si Si8 0.475542 0.771157 0.737495
O O1 0.043104 0.426767 0.792968
O O2 0.299452 0.432156 0.662731
O O3 0.127104 0.568514 0.777120
O O4 0.836727 0.653740 0.455236
O O5 0.172490 0.195090 0.984674
O O6 0.316059 0.238051 0.184002
O O7 0.868807 0.376905 0.994033
O O8 0.598790 0.237012 0.657744
O O9 0.680017 0.136241 0.490184
O O10 0.620649 0.047370 0.758803
O O11 0.017199 0.005380 0.828543
O O12 0.659155 0.002138 0.249259
O O13 0.500000 0.000000 0.000000
O O14 0.710092 0.161374 0.209849
O O15 0.507495 0.186944 0.919781
O O16 0.500000 0.500000 0.000000
O O17 0.391524 0.377894 0.160694
#
# Coordination Sequence:
#
# PCOD8005956 Si02
#       8
#     2   2   2   2   2   2   2   2
#     4  10  20  40  68  87 128 168 216 269 322 395
#     4  10  20  39  64  88 126 169 210 265 325 384
#     4  12  24  40  69  93 134 173 216 270 327 388
#     4  11  23  41  63  95 127 170 221 259 328 393
#     4  11  23  43  63  97 132 173 217 271 324 394
#     4  11  20  38  69  95 119 178 216 260 337 387
#     4  11  22  39  64  96 133 164 216 277 325 385
#     4  10  22  44  62  94 128 171 222 260 334 386
#
# _framework density 21.476019000000001
#
# number of rings (size 3 to 8) (size 9 to 14) (size 15 to 20)
#    0.000    1.250    5.000    3.750    1.750    2.000 
#    4.500    0.000    2.750    3.000    0.000    0.000 
#    0.000    0.000    0.000    0.000    0.000    0.000 
#
# Total GULP energy -198215.228037 kJ/mol
# GULP energy per Si atom -12388.451752 kJ/mol
# Density = 2.142714 g / cm^3
# Si number density = 21.476019 Si / 1000 Ang^3
#
#
#
# Elastic Constant Matrix: (Units=GPa)
#
#
# Indices 1 2 3 4 5 6 
#
# 1 85.7181 47.2882 32.7772 -3.0190 4.3366 -24.4162
# 2 47.2882 188.1599 41.5623 11.5567 2.3535 -39.5164
# 3 32.7772 41.5623 116.3699 11.6245 13.5178 -6.7909
# 4 -3.0190 11.5567 11.6245 27.7075 -8.2390 3.0368
# 5 4.3366 2.3535 13.5178 -8.2390 11.6412 -1.5457
# 6 -24.4162 -39.5164 -6.7909 3.0368 -1.5457 38.2856
#
#
#
# Elastic Compliance Matrix: (Units=1/GPa)
#
#
# Indices 1 2 3 4 5 6 
#
# 1 0.016562 -0.001934 -0.004447 0.004768 0.003762 0.007551
# 2 -0.001934 0.007787 -0.001272 -0.004078 -0.001353 0.006847
# 3 -0.004447 -0.001272 0.014293 -0.012928 -0.024040 -0.001559
# 4 0.004768 -0.004078 -0.012928 0.061224 0.056590 -0.006033
# 5 0.003762 -0.001353 -0.024040 0.056590 0.152529 -0.001592
# 6 0.007551 0.006847 -0.001559 -0.006033 -0.001592 0.038140
#
#
# Mechanical properties :
#
#
# Convention : Reuss Voigt Hill
#
# Bulk Modulus (GPa) = 42.85291 70.38923 56.62107
# Shear Modulus (GPa) = 15.94284 33.43489 24.68886
#
# Velocity S-wave (km/s) = 2.72758 3.94997 3.39426
# Velocity P-wave (km/s) = 5.46962 7.32461 6.46400
#
# Compressibility (1/GPa) = 0.02333564
#
# Stress axis : x y z
#
# Youngs Moduli (GPa) = 60.37942 128.41670 69.96331
#
# Poissons Ratio (x) = 0.24839 0.31111
# Poissons Ratio (y) = 0.11679 0.08902
# Poissons Ratio (z) = 0.26849 0.16339
#
# Static dielectric constant tensor:
#      x y z
#    x 3.659470 -0.179410 0.020760 
#    y -0.179410 4.569430 0.153500 
#    z 0.020760 0.153500 3.803500 
# 
# 
# High freq. dielectric constant tensor:
#      x y z
#    x 1.803700 -0.023190 0.009350 
#    y -0.023190 1.876230 0.012710 
#    z 0.009350 0.012710 1.830480 
# 
# From -- ./inp_files/217059.got.cif
#   From: 2010.06.25/outbox.cif.g09.slc.cpg/sg2_109_cif.got.tgz:217059.got - 2010.06.27 13:26:56.
