data_PCOD8005731
_publ_section_title
;
Structure prediction by ZEFSAII (Michael W. Deem and Ramdas Pophale) SiO2 
 PCOD8005731
Probable space group: P -1
;
_chemical_formula_sum "Si O2"
_cell_formula_units_Z 12
_cell_length_a 21.525156
_cell_length_b 15.104793
_cell_length_c 18.355964
_cell_angle_alpha 160.370514
_cell_angle_beta 20.860438
_cell_angle_gamma 161.653936
_cell_volume 583.082289
_symmetry_space_group_name_H-M "P -1"
_symmetry_group_IT_number 2
_symmetry_cell_setting 'triclinic'
loop_
_space_group_symop_operation_xyz
x,y,z
-x,-y,-z
loop_
_atom_site_type_symbol
_atom_site_label
_atom_site_fract_x
_atom_site_fract_y
_atom_site_fract_z
Si Si1 0.731004 0.679661 0.354630
Si Si2 0.881738 0.269432 0.883627
Si Si3 0.944563 0.066647 0.280257
Si Si4 0.094814 0.238282 0.487582
Si Si5 0.734916 0.181948 0.473131
Si Si6 0.272309 0.904650 0.749137
O O1 0.500000 0.500000 0.500000
O O2 0.777849 0.871174 0.376410
O O3 0.733114 0.369376 0.093548
O O4 0.886228 0.930364 0.440501
O O5 0.048300 0.346082 0.697084
O O6 0.760662 0.894793 0.752947
O O7 0.000000 0.500000 0.000000
O O8 0.799888 0.006698 0.322031
O O9 0.083604 0.440929 0.437464
O O10 0.101950 0.952701 0.009703
O O11 0.207235 0.539978 0.544430
O O12 0.713047 0.016492 0.291279
O O13 0.508933 0.128049 0.699455
#
# Coordination Sequence:
#
# PCOD8005731 Si02
#       6
#     2   2   2   2   2   2
#     4  11  23  40  60  91 130 171 209 258 324 378
#     4   9  20  38  60  86 118 164 206 256 311 371
#     4  11  22  43  63  92 134 164 208 267 312 380
#     4  10  20  39  62  87 125 161 214 261 311 381
#     4  10  24  40  65  97 122 167 215 257 322 380
#     4  11  21  42  67  93 124 166 211 265 323 371
#
# _framework density 20.580286000000001
#
# number of rings (size 3 to 8) (size 9 to 14) (size 15 to 20)
#    0.000    1.667    3.333    1.000    0.000    4.667 
#    3.000    1.667    0.000    0.000    0.000    0.000 
#    0.000    0.000    0.000    0.000    0.000    0.000 
#
# Total GULP energy -148668.452619 kJ/mol
# GULP energy per Si atom -12389.037718 kJ/mol
# Density = 2.053344 g / cm^3
# Si number density = 20.580286 Si / 1000 Ang^3
#
#
#
# Elastic Constant Matrix: (Units=GPa)
#
#
# Indices 1 2 3 4 5 6 
#
# 1 117.9430 46.8049 44.8741 -3.1234 -9.7483 -18.1386
# 2 46.8049 102.6748 43.7346 -11.3094 -15.1982 -19.1349
# 3 44.8741 43.7346 105.4974 1.8137 -10.5441 -18.3397
# 4 -3.1234 -11.3094 1.8137 30.1491 -4.6767 -2.3511
# 5 -9.7483 -15.1982 -10.5441 -4.6767 36.7454 3.7009
# 6 -18.1386 -19.1349 -18.3397 -2.3511 3.7009 31.2947
#
#
#
# Elastic Compliance Matrix: (Units=1/GPa)
#
#
# Indices 1 2 3 4 5 6 
#
# 1 0.011396 -0.003275 -0.002944 0.000443 0.000594 0.002841
# 2 -0.003275 0.015189 -0.003645 0.006712 0.004698 0.005202
# 3 -0.002944 -0.003645 0.012952 -0.002059 0.000823 0.003403
# 4 0.000443 0.006712 -0.002059 0.037272 0.006525 0.005183
# 5 0.000594 0.004698 0.000823 0.006525 0.030321 0.000604
# 6 0.002841 0.005202 0.003403 0.005183 0.000604 0.039093
#
#
# Mechanical properties :
#
#
# Convention : Reuss Voigt Hill
#
# Bulk Modulus (GPa) = 50.48453 66.32694 58.40573
# Shear Modulus (GPa) = 28.97628 32.35128 30.66378
#
# Velocity S-wave (km/s) = 3.75635 3.96909 3.86419
# Velocity P-wave (km/s) = 6.58767 7.30091 6.95344
#
# Compressibility (1/GPa) = 0.01980805
#
# Stress axis : x y z
#
# Youngs Moduli (GPa) = 87.74890 65.83625 77.21011
#
# Poissons Ratio (x) = 0.21560 0.22733
# Poissons Ratio (y) = 0.28735 0.28147
# Poissons Ratio (z) = 0.25836 0.24000
#
# Static dielectric constant tensor:
#      x y z
#    x 4.065700 -0.138460 -0.254210 
#    y -0.138460 3.610610 0.269880 
#    z -0.254210 0.269880 3.980780 
# 
# 
# High freq. dielectric constant tensor:
#      x y z
#    x 1.821220 -0.015210 -0.005040 
#    y -0.015210 1.787040 0.015500 
#    z -0.005040 0.015500 1.809380 
# 
# From -- ./inp_files/23035.got.cif
#   From: 2010.06.25/outbox.cif.g09.slc.cpg/sg2_12_cif.got.tgz:23035.got - 2010.06.27 13:26:56.
