data_PCOD8005041
_publ_section_title
;
Structure prediction by ZEFSAII (Michael W. Deem and Ramdas Pophale) SiO2 
 PCOD8005041
Probable space group: P -1
;
_chemical_formula_sum "Si O2"
_cell_formula_units_Z 14
_cell_length_a 14.949956
_cell_length_b 10.118795
_cell_length_c 11.973362
_cell_angle_alpha 126.681197
_cell_angle_beta 152.197328
_cell_angle_gamma 61.093387
_cell_volume 672.605121
_symmetry_space_group_name_H-M "P -1"
_symmetry_group_IT_number 2
_symmetry_cell_setting 'triclinic'
loop_
_space_group_symop_operation_xyz
x,y,z
-x,-y,-z
loop_
_atom_site_type_symbol
_atom_site_label
_atom_site_fract_x
_atom_site_fract_y
_atom_site_fract_z
Si Si1 0.466428 0.234960 0.842730
Si Si2 0.991284 0.778558 0.974966
Si Si3 0.221993 0.853035 0.718763
Si Si4 0.219410 0.509415 0.786688
Si Si5 0.020796 0.129854 0.739639
Si Si6 0.064304 0.432696 0.801627
Si Si7 0.309564 0.033286 0.369039
O O1 0.307591 0.352538 0.755219
O O2 0.359414 0.087289 0.577537
O O3 0.552748 0.158115 0.011726
O O4 0.649584 0.323202 0.020119
O O5 0.990899 0.581487 0.866311
O O6 0.783434 0.822399 0.727043
O O7 0.031816 0.841187 0.176943
O O8 0.157564 0.867670 0.122768
O O9 0.178876 0.915069 0.576263
O O10 0.112118 0.665117 0.514935
O O11 0.145564 0.976980 0.788466
O O12 0.000000 0.500000 0.500000
O O13 0.227610 0.501261 0.927263
O O14 0.138067 0.299756 0.903214
O O15 0.500000 0.000000 0.500000
#
# Coordination Sequence:
#
# PCOD8005041 Si02
#       7
#     2   2   2   2   2   2   2
#     4  11  23  37  64  94 122 158 207 254 306 369
#     4  11  23  41  65  86 124 170 202 245 311 365
#     4   9  20  38  64  92 120 157 205 257 302 357
#     4  11  21  37  61  93 125 156 197 257 312 357
#     4   9  20  39  66  88 121 166 206 249 307 367
#     4  10  20  38  64  89 120 160 205 250 301 361
#     4  11  25  40  60  91 126 160 205 251 307 370
#
# _framework density 20.814591
#
# number of rings (size 3 to 8) (size 9 to 14) (size 15 to 20)
#    0.857    0.857    1.429    3.000    4.000    2.286 
#    0.000    4.286    0.000    6.000    0.000    0.000 
#    0.000    0.000    0.000    0.000    0.000    0.000 
#
# Total GULP energy -173523.134597 kJ/mol
# GULP energy per Si atom -12394.509614 kJ/mol
# Density = 2.076722 g / cm^3
# Si number density = 20.814591 Si / 1000 Ang^3
#
#
#
# Elastic Constant Matrix: (Units=GPa)
#
#
# Indices 1 2 3 4 5 6 
#
# 1 89.5283 28.9943 30.6532 -5.8785 -7.0099 -16.1109
# 2 28.9943 119.9867 53.4240 4.4098 -1.7422 -23.4731
# 3 30.6532 53.4240 82.8559 -12.9897 -3.1472 -13.9017
# 4 -5.8785 4.4098 -12.9897 37.1195 -7.1195 -8.2659
# 5 -7.0099 -1.7422 -3.1472 -7.1195 32.3707 -0.7413
# 6 -16.1109 -23.4731 -13.9017 -8.2659 -0.7413 28.0053
#
#
#
# Elastic Compliance Matrix: (Units=1/GPa)
#
#
# Indices 1 2 3 4 5 6 
#
# 1 0.014250 -0.000871 -0.002755 0.003744 0.003762 0.007305
# 2 -0.000871 0.013256 -0.007820 -0.003336 -0.000838 0.005721
# 3 -0.002755 -0.007820 0.020545 0.009382 0.003156 0.004912
# 4 0.003744 -0.003336 0.009382 0.036461 0.009907 0.015039
# 5 0.003762 -0.000838 0.003156 0.009907 0.034305 0.006860
# 6 0.007305 0.005721 0.004912 0.015039 0.006860 0.051764
#
#
# Mechanical properties :
#
#
# Convention : Reuss Voigt Hill
#
# Bulk Modulus (GPa) = 39.74560 57.61264 48.67912
# Shear Modulus (GPa) = 24.76968 31.45240 28.11104
#
# Velocity S-wave (km/s) = 3.45340 3.89147 3.67896
# Velocity P-wave (km/s) = 5.91928 6.92318 6.44082
#
# Compressibility (1/GPa) = 0.02516002
#
# Stress axis : x y z
#
# Youngs Moduli (GPa) = 70.17625 75.43576 48.67264
#
# Poissons Ratio (x) = 0.06568 0.13409
# Poissons Ratio (y) = 0.06110 0.38063
# Poissons Ratio (z) = 0.19332 0.58992
#
# Static dielectric constant tensor:
#      x y z
#    x 3.635610 0.060370 -0.131100 
#    y 0.060370 3.781010 0.004110 
#    z -0.131100 0.004110 3.637990 
# 
# 
# High freq. dielectric constant tensor:
#      x y z
#    x 1.804290 -0.001330 -0.014650 
#    y -0.001330 1.825060 0.002350 
#    z -0.014650 0.002350 1.799640 
# 
# From -- ./inp_files/451873.got.cif
#   From: 2010.06.25/outbox.cif.g09.slc.cpg/sg2_226_cif.got.tgz:451873.got - 2010.06.27 13:26:56.
