data_PCOD8005084
_publ_section_title
;
Structure prediction by ZEFSAII (Michael W. Deem and Ramdas Pophale) SiO2 
 PCOD8005084
Probable space group: P -1
;
_chemical_formula_sum "Si O2"
_cell_formula_units_Z 16
_cell_length_a 15.683914
_cell_length_b 8.845119
_cell_length_c 15.866010
_cell_angle_alpha 100.484509
_cell_angle_beta 153.085510
_cell_angle_gamma 97.066224
_cell_volume 752.012042
_symmetry_space_group_name_H-M "P -1"
_symmetry_group_IT_number 2
_symmetry_cell_setting 'triclinic'
loop_
_space_group_symop_operation_xyz
x,y,z
-x,-y,-z
loop_
_atom_site_type_symbol
_atom_site_label
_atom_site_fract_x
_atom_site_fract_y
_atom_site_fract_z
Si Si1 0.268501 0.497211 0.626588
Si Si2 0.934568 0.250352 0.620566
Si Si3 0.007174 0.719369 0.795427
Si Si4 0.500996 0.509008 0.601086
Si Si5 0.684641 0.454137 0.146203
Si Si6 0.651336 0.810199 0.312904
Si Si7 0.747569 0.430357 0.934307
Si Si8 0.560326 0.819207 0.795986
O O1 0.240872 0.574532 0.698585
O O2 0.249748 0.310137 0.615136
O O3 0.530683 0.683539 0.834715
O O4 0.055090 0.413192 0.358496
O O5 0.676130 0.195504 0.407724
O O6 0.060033 0.371556 0.656938
O O7 0.883551 0.043330 0.541318
O O8 0.118793 0.368787 0.872557
O O9 0.763308 0.673102 0.610854
O O10 0.093591 0.644155 0.936356
O O11 0.197640 0.951853 0.963618
O O12 0.500000 0.500000 0.500000
O O13 0.693976 0.481056 0.801963
O O14 0.569143 0.719684 0.709093
O O15 0.500000 0.500000 0.000000
O O16 0.532426 0.251989 0.934532
O O17 0.504817 0.756055 0.264877
#
# Coordination Sequence:
#
# PCOD8005084 Si02
#       8
#     2   2   2   2   2   2   2   2
#     4  10  21  40  59  94 133 170 221 272 304 374
#     4  11  22  39  68  94 128 179 222 264 325 377
#     4  11  23  42  68  96 130 171 219 259 323 392
#     4  11  26  47  70  99 130 162 207 269 330 395
#     4   9  22  38  59  93 137 172 225 272 317 364
#     4  10  20  38  64  93 124 176 218 263 319 371
#     4  11  21  43  67  93 128 166 210 266 317 390
#     4  11  23  42  65  96 129 170 220 261 324 389
#
# _framework density 21.276254000000002
#
# number of rings (size 3 to 8) (size 9 to 14) (size 15 to 20)
#    0.000    1.500    6.250    0.000    1.750    4.500 
#    0.000    1.875    0.000    0.000    0.000    0.000 
#    0.000    0.000    0.000    0.000    0.000    0.000 
#
# Total GULP energy -198238.485367 kJ/mol
# GULP energy per Si atom -12389.905335 kJ/mol
# Density = 2.122783 g / cm^3
# Si number density = 21.276254 Si / 1000 Ang^3
#
#
#
# Elastic Constant Matrix: (Units=GPa)
#
#
# Indices 1 2 3 4 5 6 
#
# 1 83.1972 39.4046 41.7890 -4.5501 -25.6589 26.0029
# 2 39.4046 110.8294 61.9138 14.3530 -15.1131 8.0288
# 3 41.7890 61.9138 107.6138 15.1854 -4.1208 23.6605
# 4 -4.5501 14.3530 15.1854 52.9139 3.2262 2.8921
# 5 -25.6589 -15.1131 -4.1208 3.2262 32.1015 -10.9262
# 6 26.0029 8.0288 23.6605 2.8921 -10.9262 25.3505
#
#
#
# Elastic Compliance Matrix: (Units=1/GPa)
#
#
# Indices 1 2 3 4 5 6 
#
# 1 0.024879 -0.004768 -0.003534 0.004668 0.011119 -0.016451
# 2 -0.004768 0.016639 -0.009649 -0.003258 0.007235 0.012117
# 3 -0.003534 -0.009649 0.019532 -0.001827 -0.010004 -0.015653
# 4 0.004668 -0.003258 -0.001827 0.021118 -0.001966 -0.005308
# 5 0.011119 0.007235 -0.010004 -0.001966 0.047991 0.016549
# 6 -0.016451 0.012117 -0.015653 -0.005308 0.016549 0.074832
#
#
# Mechanical properties :
#
#
# Convention : Reuss Voigt Hill
#
# Bulk Modulus (GPa) = 39.76258 65.31725 52.53992
# Shear Modulus (GPa) = 20.05810 32.64203 26.35007
#
# Velocity S-wave (km/s) = 3.07375 3.92114 3.52301
# Velocity P-wave (km/s) = 5.59701 7.16007 6.42624
#
# Compressibility (1/GPa) = 0.02514928
#
# Stress axis : x y z
#
# Youngs Moduli (GPa) = 40.19411 60.09967 51.19760
#
# Poissons Ratio (x) = 0.28655 0.18093
# Poissons Ratio (y) = 0.19164 0.49399
# Poissons Ratio (z) = 0.14204 0.57988
#
# Static dielectric constant tensor:
#      x y z
#    x 3.804360 0.091840 -0.178780 
#    y 0.091840 4.059930 -0.095660 
#    z -0.178780 -0.095660 4.104250 
# 
# 
# High freq. dielectric constant tensor:
#      x y z
#    x 1.807590 -0.004500 0.003810 
#    y -0.004500 1.832340 -0.004930 
#    z 0.003810 -0.004930 1.840710 
# 
# From -- ./inp_files/529934.got.cif
#   From: 2010.06.25/outbox.cif.g09.slc.cpg/sg2_265_cif.got.tgz:529934.got - 2010.06.27 13:26:56.
