data_PCOD8005424
_publ_section_title
;
Structure prediction by ZEFSAII (Michael W. Deem and Ramdas Pophale) SiO2 
 PCOD8005424
Probable space group: P -1
;
_chemical_formula_sum "Si O2"
_cell_formula_units_Z 12
_cell_length_a 10.012528
_cell_length_b 8.477396
_cell_length_c 10.365792
_cell_angle_alpha 134.435041
_cell_angle_beta 82.867646
_cell_angle_gamma 113.100895
_cell_volume 562.495265
_symmetry_space_group_name_H-M "P -1"
_symmetry_group_IT_number 2
_symmetry_cell_setting 'triclinic'
loop_
_space_group_symop_operation_xyz
x,y,z
-x,-y,-z
loop_
_atom_site_type_symbol
_atom_site_label
_atom_site_fract_x
_atom_site_fract_y
_atom_site_fract_z
Si Si1 0.931843 0.123130 0.294821
Si Si2 0.826638 0.448408 0.636323
Si Si3 0.685307 0.004244 0.045110
Si Si4 0.372777 0.650472 0.917507
Si Si5 0.439419 0.473673 0.349044
Si Si6 0.109775 0.400572 0.990859
O O1 0.863129 0.216137 0.474777
O O2 0.818031 0.039057 0.142252
O O3 0.086201 0.340829 0.357584
O O4 0.957949 0.888277 0.198732
O O5 0.650683 0.364953 0.579559
O O6 0.874007 0.547758 0.830471
O O7 0.719983 0.264769 0.124482
O O8 0.524466 0.893820 0.076515
O O9 0.677268 0.810604 0.824272
O O10 0.421252 0.456952 0.728076
O O11 0.275542 0.531035 0.985797
O O12 0.500000 0.500000 0.500000
O O13 0.000000 0.500000 0.000000
#
# Coordination Sequence:
#
# PCOD8005424 Si02
#       6
#     2   2   2   2   2   2
#     4  11  24  44  64  95 130 163 225 264 304 389
#     4  11  25  42  68  95 124 175 217 256 320 381
#     4   9  19  40  67  86 129 170 201 269 307 368
#     4   9  21  38  60  97 125 162 214 256 314 381
#     4  10  20  38  69  94 122 167 217 256 313 377
#     4  12  25  42  65  92 134 170 206 269 328 367
#
# _framework density 21.333514999999998
#
# number of rings (size 3 to 8) (size 9 to 14) (size 15 to 20)
#    1.000    0.667    1.667    2.500    2.333    4.667 
#    3.000    1.667    0.000    0.000    0.000    0.000 
#    0.000    0.000    0.000    0.000    0.000    0.000 
#
# Total GULP energy -148728.014854 kJ/mol
# GULP energy per Si atom -12394.001238 kJ/mol
# Density = 2.128496 g / cm^3
# Si number density = 21.333515 Si / 1000 Ang^3
#
#
#
# Elastic Constant Matrix: (Units=GPa)
#
#
# Indices 1 2 3 4 5 6 
#
# 1 106.4604 23.9617 38.9401 -3.8106 -23.3083 -21.1674
# 2 23.9617 69.9490 27.4722 3.4551 -22.1976 -8.3075
# 3 38.9401 27.4722 111.6689 0.5262 -29.9666 -2.9519
# 4 -3.8106 3.4551 0.5262 26.3057 2.2143 -9.6060
# 5 -23.3083 -22.1976 -29.9666 2.2143 38.3098 3.4096
# 6 -21.1674 -8.3075 -2.9519 -9.6060 3.4096 30.5737
#
#
#
# Elastic Compliance Matrix: (Units=1/GPa)
#
#
# Indices 1 2 3 4 5 6 
#
# 1 0.014019 -0.001315 -0.003253 0.005729 0.003967 0.010392
# 2 -0.001315 0.018520 -0.001742 -0.002494 0.008514 0.002221
# 3 -0.003253 -0.001742 0.012343 -0.002181 0.007060 -0.003006
# 4 0.005729 -0.002494 -0.002181 0.046123 -0.003934 0.018009
# 5 0.003967 0.008514 0.007060 -0.003934 0.039188 0.000136
# 6 0.010392 0.002221 -0.003006 0.018009 0.000136 0.045859
#
#
# Mechanical properties :
#
#
# Convention : Reuss Voigt Hill
#
# Bulk Modulus (GPa) = 30.99592 52.09181 41.54387
# Shear Modulus (GPa) = 25.07203 32.21813 28.64508
#
# Velocity S-wave (km/s) = 3.43190 3.89036 3.66830
# Velocity P-wave (km/s) = 5.50133 6.68212 6.12027
#
# Compressibility (1/GPa) = 0.03226231
#
# Stress axis : x y z
#
# Youngs Moduli (GPa) = 71.33325 53.99669 81.01496
#
# Poissons Ratio (x) = 0.07098 0.26352
# Poissons Ratio (y) = 0.09377 0.14116
# Poissons Ratio (z) = 0.23203 0.09408
#
# Static dielectric constant tensor:
#      x y z
#    x 4.092540 0.002550 -0.308380 
#    y 0.002550 3.667860 0.080650 
#    z -0.308380 0.080650 3.786230 
# 
# 
# High freq. dielectric constant tensor:
#      x y z
#    x 1.856950 -0.002250 -0.015690 
#    y -0.002250 1.803040 -0.002170 
#    z -0.015690 -0.002170 1.828620 
# 
# From -- ./inp_files/245897.got.cif
#   From: 2010.06.25/outbox.cif.g09.slc.cpg/sg2_123_cif.got.tgz:245897.got - 2010.06.27 13:26:56.
