data_PCOD8005685
_publ_section_title
;
Structure prediction by ZEFSAII (Michael W. Deem and Ramdas Pophale) SiO2 
 PCOD8005685
Probable space group: P -1
;
_chemical_formula_sum "Si O2"
_cell_formula_units_Z 16
_cell_length_a 7.626256
_cell_length_b 9.183588
_cell_length_c 12.408441
_cell_angle_alpha 57.177247
_cell_angle_beta 92.710370
_cell_angle_gamma 105.874040
_cell_volume 696.948789
_symmetry_space_group_name_H-M "P -1"
_symmetry_group_IT_number 2
_symmetry_cell_setting 'triclinic'
loop_
_space_group_symop_operation_xyz
x,y,z
-x,-y,-z
loop_
_atom_site_type_symbol
_atom_site_label
_atom_site_fract_x
_atom_site_fract_y
_atom_site_fract_z
Si Si1 0.168472 0.344385 0.766009
Si Si2 0.840942 0.480834 0.696371
Si Si3 0.573669 0.283843 0.346979
Si Si4 0.650283 0.119539 0.727282
Si Si5 0.663543 0.767195 0.980306
Si Si6 0.976323 0.801632 0.404219
Si Si7 0.687875 0.968851 0.399038
Si Si8 0.345149 0.432618 0.139563
O O1 0.325968 0.528348 0.667119
O O2 0.118149 0.230223 0.702386
O O3 0.993602 0.398386 0.782423
O O4 0.229186 0.227727 0.906706
O O5 0.679211 0.313032 0.709291
O O6 0.922046 0.620612 0.546355
O O7 0.781166 0.580650 0.754616
O O8 0.404595 0.185983 0.456596
O O9 0.495247 0.326830 0.213259
O O10 0.712322 0.165181 0.374482
O O11 0.446280 0.060073 0.696468
O O12 0.802237 0.132090 0.631015
O O13 0.669939 0.972600 0.874046
O O14 0.759104 0.676710 0.924402
O O15 0.451407 0.642423 0.032871
O O16 0.892880 0.955896 0.388046
#
# Coordination Sequence:
#
# PCOD8005685 Si02
#       8
#     2   2   2   2   2   2   2   2
#     4  10  23  42  63  90 130 167 206 262 315 376
#     4  11  23  41  65  96 124 165 209 266 324 368
#     4  10  20  39  61  93 125 161 214 260 308 379
#     4  11  24  42  62  97 134 161 212 262 309 383
#     4  10  23  43  60  87 130 172 209 259 301 379
#     4  11  24  42  65  99 129 162 209 265 324 374
#     4  11  22  38  66  95 125 167 206 261 325 363
#     4  10  21  42  64  87 129 165 213 256 311 376
#
# _framework density 22.957211000000001
#
# number of rings (size 3 to 8) (size 9 to 14) (size 15 to 20)
#    0.000    1.500    2.500    3.000    3.500    5.000 
#    2.250    2.500    0.000    0.000    0.000    0.000 
#    0.000    0.000    0.000    0.000    0.000    0.000 
#
# Total GULP energy -198355.467148 kJ/mol
# GULP energy per Si atom -12397.216697 kJ/mol
# Density = 2.290496 g / cm^3
# Si number density = 22.957211 Si / 1000 Ang^3
#
#
#
# Elastic Constant Matrix: (Units=GPa)
#
#
# Indices 1 2 3 4 5 6 
#
# 1 39.8266 1.3111 -5.3635 1.1606 -0.3061 -17.1829
# 2 1.3111 36.3926 22.9656 0.2342 1.0114 -14.1005
# 3 -5.3635 22.9656 105.9450 -8.1462 2.7661 1.4893
# 4 1.1606 0.2342 -8.1462 39.9268 -4.5966 -0.9990
# 5 -0.3061 1.0114 2.7661 -4.5966 23.6802 8.2997
# 6 -17.1829 -14.1005 1.4893 -0.9990 8.2997 34.1561
#
#
#
# Elastic Compliance Matrix: (Units=1/GPa)
#
#
# Indices 1 2 3 4 5 6 
#
# 1 0.034522 0.007815 -0.000164 -0.001445 -0.008039 0.022512
# 2 0.007815 0.042639 -0.009154 -0.002855 -0.009688 0.024203
# 3 -0.000164 -0.009154 0.011638 0.002446 0.001104 -0.004566
# 4 -0.001445 -0.002855 0.002446 0.026209 0.005839 -0.002664
# 5 -0.008039 -0.009688 0.001104 0.005839 0.050632 -0.020224
# 6 0.022512 0.024203 -0.004566 -0.002664 -0.020224 0.055630
#
#
# Mechanical properties :
#
#
# Convention : Reuss Voigt Hill
#
# Bulk Modulus (GPa) = 11.65597 24.44339 18.04968
# Shear Modulus (GPa) = 19.77271 30.43601 25.10436
#
# Velocity S-wave (km/s) = 2.93795 3.64506 3.31044
# Velocity P-wave (km/s) = 4.07394 5.32783 4.74251
#
# Compressibility (1/GPa) = 0.08579292
#
# Stress axis : x y z
#
# Youngs Moduli (GPa) = 28.96672 23.45297 85.92354
#
# Poissons Ratio (x) = -0.18328 0.01409
# Poissons Ratio (y) = -0.22637 0.78653
# Poissons Ratio (z) = 0.00475 0.21469
#
# Static dielectric constant tensor:
#      x y z
#    x 4.068940 -0.040410 0.084290 
#    y -0.040410 4.133520 0.000490 
#    z 0.084290 0.000490 4.207540 
# 
# 
# High freq. dielectric constant tensor:
#      x y z
#    x 1.884840 -0.001720 0.008940 
#    y -0.001720 1.907290 -0.001410 
#    z 0.008940 -0.001410 1.917080 
# 
# From -- ./inp_files/262578.got.cif
#   From: 2010.06.25/outbox.cif.g09.slc.cpg/sg2_132_cif.got.tgz:262578.got - 2010.06.27 13:26:56.
