data_PCOD8005870
_publ_section_title
;
Structure prediction by ZEFSAII (Michael W. Deem and Ramdas Pophale) SiO2 
 PCOD8005870
Probable space group: P -1
;
_chemical_formula_sum "Si O2"
_cell_formula_units_Z 10
_cell_length_a 11.818272
_cell_length_b 8.995548
_cell_length_c 7.762361
_cell_angle_alpha 89.487750
_cell_angle_beta 136.122926
_cell_angle_gamma 62.941571
_cell_volume 426.836786
_symmetry_space_group_name_H-M "P -1"
_symmetry_group_IT_number 2
_symmetry_cell_setting 'triclinic'
loop_
_space_group_symop_operation_xyz
x,y,z
-x,-y,-z
loop_
_atom_site_type_symbol
_atom_site_label
_atom_site_fract_x
_atom_site_fract_y
_atom_site_fract_z
Si Si1 0.327116 0.404030 0.244980
Si Si2 0.709503 0.756598 0.109153
Si Si3 0.539395 0.829123 0.275382
Si Si4 0.935722 0.906063 0.307440
Si Si5 0.192833 0.775852 0.267051
O O1 0.207299 0.404967 0.947678
O O2 0.315094 0.299193 0.397395
O O3 0.200425 0.631733 0.147536
O O4 0.576107 0.283535 0.467332
O O5 0.493598 0.972250 0.790082
O O6 0.651546 0.703048 0.221520
O O7 0.894188 0.770345 0.354600
O O8 0.297769 0.901542 0.036884
O O9 0.130883 0.758146 0.389762
O O10 0.000000 0.000000 0.500000
O O11 0.000000 0.000000 0.000000
#
# Coordination Sequence:
#
# PCOD8005870 Si02
#       5
#     2   2   2   2   2
#     4  11  22  41  66  93 127 168 213 255 319 380
#     4   9  20  39  66  93 127 169 205 260 319 369
#     4   9  19  38  65  92 125 170 205 254 322 371
#     4  10  20  39  63  91 127 164 210 257 313 372
#     4  11  23  41  62  95 127 164 212 266 315 370
#
# _framework density 23.428158
#
# number of rings (size 3 to 8) (size 9 to 14) (size 15 to 20)
#    1.200    0.800    2.000    1.800    0.000    0.800 
#    3.600    4.000    0.000    0.000    0.000    0.000 
#    0.000    0.000    0.000    0.000    0.000    0.000 
#
# Total GULP energy -123900.567179 kJ/mol
# GULP energy per Si atom -12390.056718 kJ/mol
# Density = 2.337483 g / cm^3
# Si number density = 23.428158 Si / 1000 Ang^3
#
#
#
# Elastic Constant Matrix: (Units=GPa)
#
#
# Indices 1 2 3 4 5 6 
#
# 1 142.8999 58.4902 26.2217 6.0944 -2.5456 -26.3038
# 2 58.4902 156.5562 42.8471 28.4126 9.2772 -22.1700
# 3 26.2217 42.8471 42.4572 0.1323 1.4746 -9.7227
# 4 6.0944 28.4126 0.1323 43.5339 1.8382 -3.9803
# 5 -2.5456 9.2772 1.4746 1.8382 24.6698 6.6901
# 6 -26.3038 -22.1700 -9.7227 -3.9803 6.6901 33.7373
#
#
#
# Elastic Compliance Matrix: (Units=1/GPa)
#
#
# Indices 1 2 3 4 5 6 
#
# 1 0.009255 -0.002259 -0.002304 0.000624 0.000530 0.005036
# 2 -0.002259 0.011859 -0.009631 -0.006899 -0.004508 0.003336
# 3 -0.002304 -0.009631 0.035328 0.006762 -0.000006 0.002855
# 4 0.000624 -0.006899 0.006762 0.027476 -0.000109 0.001165
# 5 0.000530 -0.004508 -0.000006 -0.000109 0.045432 -0.011573
# 6 0.005036 0.003336 0.002855 0.001165 -0.011573 0.039015
#
#
# Mechanical properties :
#
#
# Convention : Reuss Voigt Hill
#
# Bulk Modulus (GPa) = 35.64311 66.33682 50.98997
# Shear Modulus (GPa) = 24.25983 34.67848 29.46915
#
# Velocity S-wave (km/s) = 3.22141 3.85152 3.55047
# Velocity P-wave (km/s) = 5.39291 6.93941 6.21445
#
# Compressibility (1/GPa) = 0.02805591
#
# Stress axis : x y z
#
# Youngs Moduli (GPa) = 108.05041 84.32659 28.30630
#
# Poissons Ratio (x) = 0.19046 0.06521
# Poissons Ratio (y) = 0.24405 0.27261
# Poissons Ratio (z) = 0.24890 0.81211
#
# Static dielectric constant tensor:
#      x y z
#    x 4.532890 -0.280640 0.077180 
#    y -0.280640 4.119910 -0.058850 
#    z 0.077180 -0.058850 3.705080 
# 
# 
# High freq. dielectric constant tensor:
#      x y z
#    x 1.940420 -0.015610 0.003240 
#    y -0.015610 1.923250 -0.001890 
#    z 0.003240 -0.001890 1.887780 
# 
# From -- ./inp_files/183449.got.cif
#   From: 2010.06.25/outbox.cif.g09.slc.cpg/sg2_92_cif.got.tgz:183449.got - 2010.06.27 13:26:56.
