data_PCOD8005592
_publ_section_title
;
Structure prediction by ZEFSAII (Michael W. Deem and Ramdas Pophale) SiO2 
 PCOD8005592
Probable space group: P -1
;
_chemical_formula_sum "Si O2"
_cell_formula_units_Z 16
_cell_length_a 8.685402
_cell_length_b 19.464006
_cell_length_c 9.251058
_cell_angle_alpha 46.187150
_cell_angle_beta 52.242551
_cell_angle_gamma 44.880629
_cell_volume 773.221333
_symmetry_space_group_name_H-M "P -1"
_symmetry_group_IT_number 2
_symmetry_cell_setting 'triclinic'
loop_
_space_group_symop_operation_xyz
x,y,z
-x,-y,-z
loop_
_atom_site_type_symbol
_atom_site_label
_atom_site_fract_x
_atom_site_fract_y
_atom_site_fract_z
Si Si1 0.214070 0.000238 0.047749
Si Si2 0.318764 0.517830 0.867845
Si Si3 0.730004 0.882710 0.904745
Si Si4 0.582140 0.669814 0.127349
Si Si5 0.083182 0.832647 0.262392
Si Si6 0.160158 0.338801 0.725643
Si Si7 0.109410 0.252640 0.262409
Si Si8 0.301230 0.457824 0.272665
O O1 0.200020 0.037746 0.168623
O O2 0.128218 0.912864 0.221361
O O3 0.064578 0.103770 0.882329
O O4 0.467693 0.946062 0.921915
O O5 0.355260 0.446041 0.810131
O O6 0.493801 0.561636 0.713591
O O7 0.073104 0.623162 0.853578
O O8 0.362261 0.439106 0.095986
O O9 0.874897 0.831146 0.751286
O O10 0.777570 0.786908 0.132224
O O11 0.316129 0.734720 0.211706
O O12 0.713644 0.640712 0.244763
O O13 0.657766 0.742736 0.878314
O O14 0.948150 0.785401 0.499494
O O15 0.233766 0.368307 0.489345
O O16 0.894052 0.416597 0.778660
#
# Coordination Sequence:
#
# PCOD8005592 Si02
#       8
#     2   2   2   2   2   2   2   2
#     4  10  23  43  65  91 121 161 210 262 309 357
#     4  11  23  39  60  93 127 164 203 247 302 373
#     4  10  21  43  66  88 127 161 201 262 312 355
#     4  11  23  43  61  92 131 163 198 255 306 367
#     4  11  24  42  66  93 121 161 211 256 306 366
#     4  10  20  39  60  88 124 162 199 252 305 359
#     4  11  23  41  67  90 127 163 203 251 313 366
#     4  10  22  36  60  90 124 161 206 244 296 371
#
# _framework density 20.692653
#
# number of rings (size 3 to 8) (size 9 to 14) (size 15 to 20)
#    0.000    1.500    5.000    1.125    1.750    4.000 
#    0.000    0.000    0.000    0.000    0.000    0.000 
#    0.000    0.000    0.000    0.000    0.000    0.000 
#
# Total GULP energy -198379.828245 kJ/mol
# GULP energy per Si atom -12398.739265 kJ/mol
# Density = 2.064556 g / cm^3
# Si number density = 20.692653 Si / 1000 Ang^3
#
#
#
# Elastic Constant Matrix: (Units=GPa)
#
#
# Indices 1 2 3 4 5 6 
#
# 1 30.0055 16.2897 6.7260 1.1825 4.8631 2.3193
# 2 16.2897 107.6037 13.5106 11.6540 2.8629 -0.8380
# 3 6.7260 13.5106 67.6605 15.6878 -12.6671 -8.8106
# 4 1.1825 11.6540 15.6878 21.1213 -5.9902 1.6673
# 5 4.8631 2.8629 -12.6671 -5.9902 15.5670 0.8257
# 6 2.3193 -0.8380 -8.8106 1.6673 0.8257 32.3021
#
#
#
# Elastic Compliance Matrix: (Units=1/GPa)
#
#
# Indices 1 2 3 4 5 6 
#
# 1 0.040661 -0.005000 -0.007107 0.001363 -0.016796 -0.004629
# 2 -0.005000 0.010925 -0.000793 -0.006227 -0.003533 0.000838
# 3 -0.007107 -0.000793 0.022151 -0.011750 0.015511 0.006741
# 4 0.001363 -0.006227 -0.011750 0.064660 0.016422 -0.007222
# 5 -0.016796 -0.003533 0.015511 0.016422 0.088958 0.002223
# 6 -0.004629 0.000838 0.006741 -0.007222 0.002223 0.033466
#
#
# Mechanical properties :
#
#
# Convention : Reuss Voigt Hill
#
# Bulk Modulus (GPa) = 20.86070 30.92470 25.89270
# Shear Modulus (GPa) = 16.52348 25.04764 20.78556
#
# Velocity S-wave (km/s) = 2.82887 3.48294 3.17281
# Velocity P-wave (km/s) = 4.55776 5.58137 5.09533
#
# Compressibility (1/GPa) = 0.04793704
#
# Stress axis : x y z
#
# Youngs Moduli (GPa) = 24.59363 91.53484 45.14532
#
# Poissons Ratio (x) = 0.45767 0.32084
# Poissons Ratio (y) = 0.12297 0.03580
# Poissons Ratio (z) = 0.17478 0.07258
#
# Static dielectric constant tensor:
#      x y z
#    x 3.725780 -0.109580 -0.048530 
#    y -0.109580 3.797660 0.030760 
#    z -0.048530 0.030760 3.622310 
# 
# 
# High freq. dielectric constant tensor:
#      x y z
#    x 1.807190 -0.007000 -0.000950 
#    y -0.007000 1.814820 0.001310 
#    z -0.000950 0.001310 1.797290 
# 
# From -- ./inp_files/223164.got.cif
#   From: 2010.06.25/outbox.cif.g09.slc.cpg/sg2_112_cif.got.tgz:223164.got - 2010.06.27 13:26:56.
