data_PCOD8005556
_publ_section_title
;
Structure prediction by ZEFSAII (Michael W. Deem and Ramdas Pophale) SiO2 
 PCOD8005556
Probable space group: P -1
;
_chemical_formula_sum "Si O2"
_cell_formula_units_Z 16
_cell_length_a 14.545208
_cell_length_b 11.056282
_cell_length_c 7.792529
_cell_angle_alpha 138.815938
_cell_angle_beta 104.767755
_cell_angle_gamma 94.054786
_cell_volume 726.933114
_symmetry_space_group_name_H-M "P -1"
_symmetry_group_IT_number 2
_symmetry_cell_setting 'triclinic'
loop_
_space_group_symop_operation_xyz
x,y,z
-x,-y,-z
loop_
_atom_site_type_symbol
_atom_site_label
_atom_site_fract_x
_atom_site_fract_y
_atom_site_fract_z
Si Si1 0.346745 0.064391 0.251610
Si Si2 0.066220 0.079729 0.822804
Si Si3 0.286458 0.943188 0.459189
Si Si4 0.099981 0.683651 0.311385
Si Si5 0.737787 0.334872 0.403612
Si Si6 0.788593 0.686120 0.559337
Si Si7 0.560794 0.141962 0.332829
Si Si8 0.156048 0.175610 0.626090
O O1 0.308455 0.922681 0.249051
O O2 0.298161 0.226249 0.383988
O O3 0.473222 0.188743 0.444855
O O4 0.305571 0.905102 0.907657
O O5 0.076054 0.869359 0.566499
O O6 0.943140 0.031240 0.703039
O O7 0.125192 0.239643 0.865413
O O8 0.112383 0.173352 0.128018
O O9 0.186967 0.750453 0.274214
O O10 0.390287 0.976626 0.649186
O O11 0.259213 0.137859 0.669574
O O12 0.145268 0.597550 0.397845
O O13 0.000000 0.500000 0.000000
O O14 0.737955 0.462727 0.373232
O O15 0.654861 0.345469 0.519079
O O16 0.823043 0.671230 0.362051
O O17 0.500000 0.000000 0.000000
#
# Coordination Sequence:
#
# PCOD8005556 Si02
#       8
#     2   2   2   2   2   2   2   2
#     4  10  20  40  62  83 119 155 193 251 302 339
#     4  10  20  39  60  78 123 168 193 241 302 332
#     4   9  19  36  60  87 115 154 199 242 298 353
#     4  10  21  37  56  85 121 158 202 239 291 356
#     4  10  22  38  57  90 117 152 200 242 293 358
#     4  11  22  38  60  87 123 151 202 246 289 358
#     4   9  19  37  63  85 114 154 194 245 301 354
#     4   9  21  35  57  85 115 156 203 233 290 348
#
# _framework density 22.010276999999999
#
# number of rings (size 3 to 8) (size 9 to 14) (size 15 to 20)
#    0.000    2.250    1.250    0.750    7.000    1.500 
#    2.250    1.250    0.000    6.750    0.000    0.000 
#    0.000    0.000    0.000    0.000    0.000    0.000 
#
# Total GULP energy -198221.358993 kJ/mol
# GULP energy per Si atom -12388.834937 kJ/mol
# Density = 2.196018 g / cm^3
# Si number density = 22.010277 Si / 1000 Ang^3
#
#
#
# Elastic Constant Matrix: (Units=GPa)
#
#
# Indices 1 2 3 4 5 6 
#
# 1 89.3176 35.5245 8.7543 -4.2682 17.4109 -9.3548
# 2 35.5245 149.2336 12.0509 -9.5028 5.0615 0.5326
# 3 8.7543 12.0509 42.4740 -0.1548 7.9556 -14.2232
# 4 -4.2682 -9.5028 -0.1548 29.2596 -4.7161 8.6585
# 5 17.4109 5.0615 7.9556 -4.7161 27.4995 -9.1742
# 6 -9.3548 0.5326 -14.2232 8.6585 -9.1742 35.5693
#
#
#
# Elastic Compliance Matrix: (Units=1/GPa)
#
#
# Indices 1 2 3 4 5 6 
#
# 1 0.014152 -0.003170 0.000122 -0.000824 -0.007891 0.001983
# 2 -0.003170 0.007825 -0.002558 0.002946 0.001001 -0.002433
# 3 0.000122 -0.002558 0.029040 -0.004891 -0.004980 0.011589
# 4 -0.000824 0.002946 -0.004891 0.038827 0.004552 -0.010494
# 5 -0.007891 0.001001 -0.004980 0.004552 0.045589 0.006568
# 6 0.001983 -0.002433 0.011589 -0.010494 0.006568 0.037555
#
#
# Mechanical properties :
#
#
# Convention : Reuss Voigt Hill
#
# Bulk Modulus (GPa) = 25.12344 43.74272 34.43308
# Shear Modulus (GPa) = 25.32053 33.44539 29.38296
#
# Velocity S-wave (km/s) = 3.39543 3.90235 3.65768
# Velocity P-wave (km/s) = 5.17794 6.34203 5.78932
#
# Compressibility (1/GPa) = 0.03980347
#
# Stress axis : x y z
#
# Youngs Moduli (GPa) = 70.66299 127.80284 34.43494
#
# Poissons Ratio (x) = 0.40520 -0.00420
# Poissons Ratio (y) = 0.22404 0.08808
# Poissons Ratio (z) = -0.00862 0.32692
#
# Static dielectric constant tensor:
#      x y z
#    x 4.581680 0.143180 0.229020 
#    y 0.143180 4.273650 -0.249980 
#    z 0.229020 -0.249980 3.441500 
# 
# 
# High freq. dielectric constant tensor:
#      x y z
#    x 1.876380 0.001040 0.014340 
#    y 0.001040 1.879960 -0.022010 
#    z 0.014340 -0.022010 1.821410 
# 
# From -- ./inp_files/274199.got.cif
#   From: 2010.06.25/outbox.cif.g09.slc.cpg/sg2_138_cif.got.tgz:274199.got - 2010.06.27 13:26:56.
