data_PCOD8005743
_publ_section_title
;
Structure prediction by ZEFSAII (Michael W. Deem and Ramdas Pophale) SiO2 
 PCOD8005743
Probable space group: P -1
;
_chemical_formula_sum "Si O2"
_cell_formula_units_Z 14
_cell_length_a 9.150329
_cell_length_b 11.737977
_cell_length_c 8.973829
_cell_angle_alpha 121.763196
_cell_angle_beta 71.190905
_cell_angle_gamma 125.079560
_cell_volume 670.361343
_symmetry_space_group_name_H-M "P -1"
_symmetry_group_IT_number 2
_symmetry_cell_setting 'triclinic'
loop_
_space_group_symop_operation_xyz
x,y,z
-x,-y,-z
loop_
_atom_site_type_symbol
_atom_site_label
_atom_site_fract_x
_atom_site_fract_y
_atom_site_fract_z
Si Si1 0.326555 0.869214 0.669435
Si Si2 0.425442 0.622185 0.954606
Si Si3 0.352864 0.832826 0.317346
Si Si4 0.417568 0.165899 0.219346
Si Si5 0.252542 0.287821 0.875366
Si Si6 0.910430 0.091257 0.025453
Si Si7 0.794309 0.936472 0.509545
O O1 0.308006 0.765888 0.457111
O O2 0.430790 0.855023 0.765460
O O3 0.436169 0.043991 0.687092
O O4 0.132154 0.829696 0.765838
O O5 0.477133 0.680550 0.808650
O O6 0.295603 0.437568 0.865932
O O7 0.314451 0.693081 0.121853
O O8 0.611093 0.665068 0.001335
O O9 0.241779 0.919358 0.373613
O O10 0.299990 0.179482 0.399447
O O11 0.282541 0.019326 0.061947
O O12 0.276527 0.163935 0.685664
O O13 0.049639 0.218184 0.952795
O O14 0.000000 0.000000 0.000000
O O15 0.000000 0.000000 0.500000
#
# Coordination Sequence:
#
# PCOD8005743 Si02
#       7
#     2   2   2   2   2   2   2
#     4  10  21  35  62  89 122 154 216 251 292 361
#     4  11  23  41  62  91 127 166 199 247 321 369
#     4  10  20  39  62  89 120 168 200 245 308 370
#     4  11  22  36  64  90 121 161 210 251 301 365
#     4  11  24  41  61  92 130 161 198 257 313 364
#     4  12  20  36  63  93 118 158 212 255 297 360
#     4  11  23  38  63  96 122 156 214 261 295 356
#
# _framework density 20.884260999999999
#
# number of rings (size 3 to 8) (size 9 to 14) (size 15 to 20)
#    0.000    1.143    4.286    3.857    2.000    0.571 
#    0.000    3.571    0.000    0.000    0.000    0.000 
#    0.000    0.000    0.000    0.000    0.000    0.000 
#
# Total GULP energy -173503.191715 kJ/mol
# GULP energy per Si atom -12393.085123 kJ/mol
# Density = 2.083673 g / cm^3
# Si number density = 20.884261 Si / 1000 Ang^3
#
#
#
# Elastic Constant Matrix: (Units=GPa)
#
#
# Indices 1 2 3 4 5 6 
#
# 1 94.9123 53.5729 45.6585 -14.3194 -15.0155 -7.2392
# 2 53.5729 127.4680 47.5255 -27.5582 -10.8504 -3.8772
# 3 45.6585 47.5255 98.3964 -32.6252 -21.2256 -2.2568
# 4 -14.3194 -27.5582 -32.6252 41.6171 -0.1264 -2.1922
# 5 -15.0155 -10.8504 -21.2256 -0.1264 39.5026 -9.4629
# 6 -7.2392 -3.8772 -2.2568 -2.1922 -9.4629 23.7070
#
#
#
# Elastic Compliance Matrix: (Units=1/GPa)
#
#
# Indices 1 2 3 4 5 6 
#
# 1 0.016341 -0.004884 -0.004662 -0.000988 0.003580 0.005085
# 2 -0.004884 0.011621 -0.001549 0.004856 0.000762 0.001015
# 3 -0.004662 -0.001549 0.019593 0.013035 0.009626 0.005236
# 4 -0.000988 0.004856 0.013035 0.037646 0.010319 0.009333
# 5 0.003580 0.000762 0.009626 0.010319 0.036301 0.017578
# 6 0.005085 0.001015 0.005236 0.009333 0.017578 0.052278
#
#
# Mechanical properties :
#
#
# Convention : Reuss Voigt Hill
#
# Bulk Modulus (GPa) = 39.42458 68.25447 53.83952
# Shear Modulus (GPa) = 24.45893 32.56667 28.51280
#
# Velocity S-wave (km/s) = 3.42594 3.95319 3.69897
# Velocity P-wave (km/s) = 5.87946 7.32053 6.63921
#
# Compressibility (1/GPa) = 0.02536489
#
# Stress axis : x y z
#
# Youngs Moduli (GPa) = 61.19759 86.05312 51.03828
#
# Poissons Ratio (x) = 0.42024 0.23796
# Poissons Ratio (y) = 0.29886 0.07905
# Poissons Ratio (z) = 0.28533 0.13328
#
# Static dielectric constant tensor:
#      x y z
#    x 3.024450 -0.442080 1.237570 
#    y -0.442080 3.455050 0.622960 
#    z 1.237570 0.622960 1.422630 
# 
# 
# High freq. dielectric constant tensor:
#      x y z
#    x 1.818420 -0.007410 -0.008960 
#    y -0.007410 1.786710 -0.035940 
#    z -0.008960 -0.035940 1.824760 
# 
# From -- ./inp_files/182296.got.cif
#   From: 2010.06.25/outbox.cif.g09.slc.cpg/sg2_92_cif.got.tgz:182296.got - 2010.06.27 13:26:56.
