data_PCOD8005077
_publ_section_title
;
Structure prediction by ZEFSAII (Michael W. Deem and Ramdas Pophale) SiO2 
 PCOD8005077
Probable space group: P -1
;
_chemical_formula_sum "Si O2"
_cell_formula_units_Z 14
_cell_length_a 9.675873
_cell_length_b 8.630287
_cell_length_c 7.854333
_cell_angle_alpha 72.260346
_cell_angle_beta 76.556000
_cell_angle_gamma 72.650131
_cell_volume 588.990710
_symmetry_space_group_name_H-M "P -1"
_symmetry_group_IT_number 2
_symmetry_cell_setting 'triclinic'
loop_
_space_group_symop_operation_xyz
x,y,z
-x,-y,-z
loop_
_atom_site_type_symbol
_atom_site_label
_atom_site_fract_x
_atom_site_fract_y
_atom_site_fract_z
Si Si1 0.044543 0.897926 0.285122
Si Si2 0.118703 0.340514 0.443903
Si Si3 0.515992 0.783204 0.910708
Si Si4 0.805904 0.596385 0.979854
Si Si5 0.361972 0.891915 0.246317
Si Si6 0.545322 0.799957 0.532677
Si Si7 0.970052 0.241707 0.020782
O O1 0.194599 0.902212 0.336471
O O2 0.944569 0.825167 0.468553
O O3 0.078473 0.777205 0.151641
O O4 0.958355 0.082589 0.188967
O O5 0.133879 0.380128 0.231708
O O6 0.280912 0.290954 0.503112
O O7 0.000000 0.500000 0.500000
O O8 0.630914 0.631253 0.020964
O O9 0.477860 0.733050 0.746694
O O10 0.605200 0.926715 0.812874
O O11 0.380822 0.832410 0.062039
O O12 0.865522 0.725410 0.041376
O O13 0.864991 0.404208 0.085123
O O14 0.465768 0.763414 0.393006
O O15 0.500000 0.000000 0.500000
#
# Coordination Sequence:
#
# PCOD8005077 Si02
#       7
#     2   2   2   2   2   2   2
#     4  11  23  40  62 103 127 162 226 269 329 384
#     4  11  23  42  69  92 132 174 216 272 329 395
#     4   9  19  37  64  89 124 175 220 253 326 403
#     4  10  20  41  63  94 123 174 219 261 323 397
#     4  10  20  38  64  92 131 172 211 273 329 388
#     4   9  21  39  64  94 125 174 222 259 326 404
#     4  10  22  36  63  90 131 159 215 271 316 387
#
# _framework density 23.769475
#
# number of rings (size 3 to 8) (size 9 to 14) (size 15 to 20)
#    0.000    2.000    2.857    0.000    2.000    4.000 
#    2.571    1.429    3.143    0.000    0.000    0.000 
#    0.000    0.000    0.000    0.000    0.000    0.000 
#
# Total GULP energy -173468.535901 kJ/mol
# GULP energy per Si atom -12390.609707 kJ/mol
# Density = 2.371538 g / cm^3
# Si number density = 23.769475 Si / 1000 Ang^3
#
#
#
# Elastic Constant Matrix: (Units=GPa)
#
#
# Indices 1 2 3 4 5 6 
#
# 1 83.9320 9.9757 46.7642 -4.0916 19.3203 -12.7218
# 2 9.9757 79.3082 21.1116 -10.4208 -2.3627 -7.9960
# 3 46.7642 21.1116 78.2020 3.1010 10.2696 -1.5574
# 4 -4.0916 -10.4208 3.1010 31.6356 -0.0220 1.5750
# 5 19.3203 -2.3627 10.2696 -0.0220 32.3373 -6.8481
# 6 -12.7218 -7.9960 -1.5574 1.5750 -6.8481 33.9908
#
#
#
# Elastic Compliance Matrix: (Units=1/GPa)
#
#
# Indices 1 2 3 4 5 6 
#
# 1 0.021435 0.001515 -0.012286 0.004166 -0.007497 0.006112
# 2 0.001515 0.015110 -0.005492 0.005505 0.002833 0.004185
# 3 -0.012286 -0.005492 0.021866 -0.005301 -0.001036 -0.004851
# 4 0.004166 0.005505 -0.005301 0.034433 -0.000172 0.000981
# 5 -0.007497 0.002833 -0.001036 -0.000172 0.037059 0.005287
# 6 0.006112 0.004185 -0.004851 0.000981 0.005287 0.033489
#
#
# Mechanical properties :
#
#
# Convention : Reuss Voigt Hill
#
# Bulk Modulus (GPa) = 38.63184 44.12724 41.37954
# Shear Modulus (GPa) = 24.44425 30.49880 27.47153
#
# Velocity S-wave (km/s) = 3.21033 3.58594 3.40332
# Velocity P-wave (km/s) = 5.47993 5.97915 5.73497
#
# Compressibility (1/GPa) = 0.02588539
#
# Stress axis : x y z
#
# Youngs Moduli (GPa) = 46.65298 66.18051 45.73228
#
# Poissons Ratio (x) = -0.10023 0.56185
# Poissons Ratio (y) = -0.07066 0.25116
# Poissons Ratio (z) = 0.57316 0.36346
#
# Static dielectric constant tensor:
#      x y z
#    x 4.274320 -0.115830 0.461430 
#    y -0.115830 4.364650 -0.044460 
#    z 0.461430 -0.044460 4.555300 
# 
# 
# High freq. dielectric constant tensor:
#      x y z
#    x 1.927490 -0.015740 0.024260 
#    y -0.015740 1.932370 -0.002910 
#    z 0.024260 -0.002910 1.940540 
# 
# From -- ./inp_files/157341.got.cif
#   From: 2010.06.25/outbox.cif.g09.slc.cpg/sg2_79_cif.got.tgz:157341.got - 2010.06.27 13:26:56.
