data_PCOD8005399
_publ_section_title
;
Structure prediction by ZEFSAII (Michael W. Deem and Ramdas Pophale) SiO2 
 PCOD8005399
Probable space group: P -1
;
_chemical_formula_sum "Si O2"
_cell_formula_units_Z 16
_cell_length_a 11.302840
_cell_length_b 17.649354
_cell_length_c 19.750284
_cell_angle_alpha 158.509612
_cell_angle_beta 150.045279
_cell_angle_gamma 41.126650
_cell_volume 689.871994
_symmetry_space_group_name_H-M "P -1"
_symmetry_group_IT_number 2
_symmetry_cell_setting 'triclinic'
loop_
_space_group_symop_operation_xyz
x,y,z
-x,-y,-z
loop_
_atom_site_type_symbol
_atom_site_label
_atom_site_fract_x
_atom_site_fract_y
_atom_site_fract_z
Si Si1 0.270825 0.966154 0.672491
Si Si2 0.809391 0.155217 0.155353
Si Si3 0.923374 0.245651 0.735530
Si Si4 0.490612 0.924620 0.510025
Si Si5 0.890520 0.609929 0.259232
Si Si6 0.984717 0.209180 0.024283
Si Si7 0.586510 0.526690 0.174013
Si Si8 0.009846 0.389910 0.323812
O O1 0.247795 0.821895 0.472651
O O2 0.114063 0.821706 0.534643
O O3 0.170584 0.174325 0.785871
O O4 0.547667 0.046016 0.901797
O O5 0.816518 0.362085 0.377401
O O6 0.013143 0.247423 0.273477
O O7 0.890724 0.975280 0.091028
O O8 0.774093 0.117414 0.619821
O O9 0.000000 0.500000 0.000000
O O10 0.577896 0.709798 0.375774
O O11 0.500000 0.000000 0.500000
O O12 0.687751 0.109903 0.803721
O O13 0.756800 0.629842 0.279803
O O14 0.010949 0.407928 0.150669
O O15 0.694176 0.592731 0.086735
O O16 0.111724 0.291235 0.227810
O O17 0.720171 0.375364 0.154384
#
# Coordination Sequence:
#
# PCOD8005399 Si02
#       8
#     2   2   2   2   2   2   2   2
#     4  11  26  45  65  97 141 177 216 263 354 398
#     4  11  24  42  64  92 133 180 216 273 323 409
#     4  11  27  43  68 102 138 174 216 281 339 400
#     4  12  22  39  69 103 129 170 228 278 329 391
#     4  10  22  40  67 100 131 176 216 287 329 394
#     4  11  23  40  65  97 127 172 233 271 324 384
#     4  10  20  38  68  96 132 161 229 279 330 378
#     4  10  23  40  65  94 127 173 227 275 328 382
#
# _framework density 23.192710000000002
#
# number of rings (size 3 to 8) (size 9 to 14) (size 15 to 20)
#    0.000    1.250    2.500    2.625    8.750    1.500 
#    0.000    2.500    0.000    0.000    0.000    0.000 
#    0.000    0.000    0.000    0.000    0.000    0.000 
#
# Total GULP energy -198348.729152 kJ/mol
# GULP energy per Si atom -12396.795572 kJ/mol
# Density = 2.313992 g / cm^3
# Si number density = 23.192710 Si / 1000 Ang^3
#
#
#
# Elastic Constant Matrix: (Units=GPa)
#
#
# Indices 1 2 3 4 5 6 
#
# 1 67.4863 2.9639 27.1664 -0.1461 -4.3742 1.3646
# 2 2.9639 92.3112 36.3952 1.0578 1.8047 -3.8669
# 3 27.1664 36.3952 136.9399 -5.1993 -10.8963 -5.7511
# 4 -0.1461 1.0578 -5.1993 35.6442 1.9737 -6.2865
# 5 -4.3742 1.8047 -10.8963 1.9737 33.2031 2.9032
# 6 1.3646 -3.8669 -5.7511 -6.2865 2.9032 23.0490
#
#
#
# Elastic Compliance Matrix: (Units=1/GPa)
#
#
# Indices 1 2 3 4 5 6 
#
# 1 0.016295 0.000738 -0.003455 -0.000896 0.001210 -0.002100
# 2 0.000738 0.012292 -0.003527 -0.000563 -0.001801 0.001212
# 3 -0.003455 -0.003527 0.009274 0.001670 0.002500 0.002067
# 4 -0.000896 -0.000563 0.001670 0.029982 -0.002093 0.008816
# 5 0.001210 -0.001801 0.002500 -0.002093 0.031697 -0.004313
# 6 -0.002100 0.001212 0.002067 0.008816 -0.004313 0.047177
#
#
# Mechanical properties :
#
#
# Convention : Reuss Voigt Hill
#
# Bulk Modulus (GPa) = 39.41149 47.75428 43.58288
# Shear Modulus (GPa) = 29.82149 33.72672 31.77411
#
# Velocity S-wave (km/s) = 3.58971 3.81753 3.70537
# Velocity P-wave (km/s) = 5.84905 6.32979 6.09416
#
# Compressibility (1/GPa) = 0.02537331
#
# Stress axis : x y z
#
# Youngs Moduli (GPa) = 61.36847 81.35198 107.82413
#
# Poissons Ratio (x) = -0.06000 0.37249
# Poissons Ratio (y) = -0.04526 0.38030
# Poissons Ratio (z) = 0.21200 0.28693
#
# Static dielectric constant tensor:
#      x y z
#    x 4.007140 0.108690 -0.268490 
#    y 0.108690 4.238950 0.120800 
#    z -0.268490 0.120800 4.342770 
# 
# 
# High freq. dielectric constant tensor:
#      x y z
#    x 1.890380 0.007870 -0.018250 
#    y 0.007870 1.915470 0.011680 
#    z -0.018250 0.011680 1.927870 
# 
# From -- ./inp_files/596092.got.cif
#   From: 2010.06.25/outbox.cif.g09.slc.cpg/sg2_299_cif.got.tgz:596092.got - 2010.06.27 13:26:56.
