data_PCOD8005093
_publ_section_title
;
Structure prediction by ZEFSAII (Michael W. Deem and Ramdas Pophale) SiO2 
 PCOD8005093
Probable space group: P -1
;
_chemical_formula_sum "Si O2"
_cell_formula_units_Z 16
_cell_length_a 23.465355
_cell_length_b 9.310792
_cell_length_c 9.068225
_cell_angle_alpha 108.108824
_cell_angle_beta 50.528725
_cell_angle_gamma 65.144953
_cell_volume 783.808401
_symmetry_space_group_name_H-M "P -1"
_symmetry_group_IT_number 2
_symmetry_cell_setting 'triclinic'
loop_
_space_group_symop_operation_xyz
x,y,z
-x,-y,-z
loop_
_atom_site_type_symbol
_atom_site_label
_atom_site_fract_x
_atom_site_fract_y
_atom_site_fract_z
Si Si1 0.239482 0.963968 0.851436
Si Si2 0.875020 0.301579 0.622162
Si Si3 0.796489 0.902903 0.704251
Si Si4 0.022705 0.179091 0.768239
Si Si5 0.985203 0.296220 0.197500
Si Si6 0.205488 0.344482 0.896226
Si Si7 0.606221 0.740575 0.348916
Si Si8 0.505223 0.622833 0.648139
O O1 0.257826 0.089851 0.775418
O O2 0.379956 0.622477 0.498129
O O3 0.208405 0.049893 0.100215
O O4 0.117277 0.079653 0.017547
O O5 0.877320 0.369723 0.476438
O O6 0.985395 0.975140 0.340941
O O7 0.898553 0.401052 0.729092
O O8 0.728863 0.475060 0.954384
O O9 0.840950 0.972380 0.560852
O O10 0.914709 0.577990 0.378086
O O11 0.649521 0.097753 0.944684
O O12 0.032085 0.146650 0.917754
O O13 0.883620 0.509045 0.059654
O O14 0.337023 0.227127 0.622590
O O15 0.543473 0.713783 0.536965
O O16 0.500000 0.000000 0.500000
O O17 0.500000 0.500000 0.500000
#
# Coordination Sequence:
#
# PCOD8005093 Si02
#       8
#     2   2   2   2   2   2   2   2
#     4  11  21  39  62  93 119 157 208 250 302 355
#     4  10  22  38  60  88 116 157 201 251 298 356
#     4  11  21  40  63  90 121 158 203 248 301 360
#     4  12  24  38  58  94 124 160 201 250 306 357
#     4  12  23  38  63  87 129 160 200 250 304 360
#     4  10  22  37  63  87 123 154 202 253 299 354
#     4  10  20  38  64  94 119 154 203 255 305 352
#     4  10  21  36  64  93 120 155 202 257 297 357
#
# _framework density 20.413150000000002
#
# number of rings (size 3 to 8) (size 9 to 14) (size 15 to 20)
#    0.750    0.500    2.500    6.000    1.750    0.000 
#    0.000    0.625    2.750    1.500    0.000    0.000 
#    0.000    0.000    0.000    0.000    0.000    0.000 
#
# Total GULP energy -198282.125915 kJ/mol
# GULP energy per Si atom -12392.632870 kJ/mol
# Density = 2.036669 g / cm^3
# Si number density = 20.413150 Si / 1000 Ang^3
#
#
#
# Elastic Constant Matrix: (Units=GPa)
#
#
# Indices 1 2 3 4 5 6 
#
# 1 55.5838 28.5729 29.4975 0.7716 -19.1691 -4.1906
# 2 28.5729 112.6090 25.8652 8.4972 -9.9416 7.7871
# 3 29.4975 25.8652 51.4620 10.6423 -27.4823 -11.1339
# 4 0.7716 8.4972 10.6423 42.3588 1.7172 -12.0338
# 5 -19.1691 -9.9416 -27.4823 1.7172 26.3324 -1.0269
# 6 -4.1906 7.7871 -11.1339 -12.0338 -1.0269 30.0380
#
#
#
# Elastic Compliance Matrix: (Units=1/GPa)
#
#
# Indices 1 2 3 4 5 6 
#
# 1 0.028775 -0.005001 -0.008271 0.003244 0.010368 0.003899
# 2 -0.005001 0.012325 -0.009858 -0.001982 -0.009484 -0.008665
# 3 -0.008271 -0.009858 0.074917 -0.011931 0.070268 0.026793
# 4 0.003244 -0.001982 -0.011931 0.029730 -0.012464 0.008028
# 5 0.010368 -0.009484 0.070268 -0.012464 0.117222 0.028965
# 6 0.003899 -0.008665 0.026793 0.008028 0.028965 0.050219
#
#
# Mechanical properties :
#
#
# Convention : Reuss Voigt Hill
#
# Bulk Modulus (GPa) = 14.33535 43.05845 28.69690
# Shear Modulus (GPa) = 13.06513 28.79379 20.92946
#
# Velocity S-wave (km/s) = 2.53264 3.75980 3.20549
# Velocity P-wave (km/s) = 3.94844 6.32356 5.27151
#
# Compressibility (1/GPa) = 0.06975761
#
# Stress axis : x y z
#
# Youngs Moduli (GPa) = 34.75231 81.13715 13.34818
#
# Poissons Ratio (x) = 0.40574 0.11040
# Poissons Ratio (y) = 0.17378 0.13159
# Poissons Ratio (z) = 0.28743 0.79985
#
# Static dielectric constant tensor:
#      x y z
#    x 3.620000 0.075230 -0.393960 
#    y 0.075230 3.854120 0.214790 
#    z -0.393960 0.214790 4.037940 
# 
# 
# High freq. dielectric constant tensor:
#      x y z
#    x 1.775780 0.014630 -0.021040 
#    y 0.014630 1.812470 0.007110 
#    z -0.021040 0.007110 1.780780 
# 
# From -- ./inp_files/351772.got.cif
#   From: 2010.06.25/outbox.cif.g09.slc.cpg/sg2_176_cif.got.tgz:351772.got - 2010.06.27 13:26:56.
