data_PCOD8005776
_publ_section_title
;
Structure prediction by ZEFSAII (Michael W. Deem and Ramdas Pophale) SiO2 
 PCOD8005776
Probable space group: P -1
;
_chemical_formula_sum "Si O2"
_cell_formula_units_Z 16
_cell_length_a 15.133805
_cell_length_b 15.062116
_cell_length_c 9.235197
_cell_angle_alpha 129.676708
_cell_angle_beta 51.807617
_cell_angle_gamma 152.058307
_cell_volume 750.551903
_symmetry_space_group_name_H-M "P -1"
_symmetry_group_IT_number 2
_symmetry_cell_setting 'triclinic'
loop_
_space_group_symop_operation_xyz
x,y,z
-x,-y,-z
loop_
_atom_site_type_symbol
_atom_site_label
_atom_site_fract_x
_atom_site_fract_y
_atom_site_fract_z
Si Si1 0.939353 0.831233 0.961652
Si Si2 0.843729 0.140005 0.016418
Si Si3 0.377776 0.608544 0.578528
Si Si4 0.174197 0.492885 0.400342
Si Si5 0.039807 0.194099 0.601696
Si Si6 0.450384 0.853294 0.998810
Si Si7 0.246426 0.215423 0.638365
Si Si8 0.884468 0.428086 0.735913
O O1 0.855128 0.668455 0.765462
O O2 0.116674 0.920245 0.960212
O O3 0.777482 0.724164 0.133914
O O4 0.000000 0.000000 0.000000
O O5 0.946016 0.346031 0.154712
O O6 0.908766 0.148484 0.803677
O O7 0.617410 0.971538 0.068592
O O8 0.351110 0.656080 0.503649
O O9 0.163109 0.384052 0.581354
O O10 0.432481 0.727816 0.785302
O O11 0.534112 0.638907 0.435519
O O12 0.232151 0.608062 0.314508
O O13 0.976645 0.383951 0.546821
O O14 0.193763 0.237926 0.567591
O O15 0.899633 0.013525 0.443142
O O16 0.254728 0.713032 0.136365
O O17 0.500000 0.000000 0.000000
#
# Coordination Sequence:
#
# PCOD8005776 Si02
#       8
#     2   2   2   2   2   2   2   2
#     4  10  22  42  64  93 131 179 219 263 323 396
#     4  10  21  42  67  95 130 173 215 269 335 386
#     4  12  23  39  65 100 126 165 218 266 327 387
#     4  10  24  43  67  92 130 184 219 266 332 384
#     4  10  20  39  62  92 134 164 201 266 324 385
#     4  12  26  39  68 104 128 167 223 277 335 391
#     4  10  22  38  62  94 130 166 213 259 321 386
#     4  10  23  48  66  90 136 175 220 275 327 390
#
# _framework density 21.317647999999998
#
# number of rings (size 3 to 8) (size 9 to 14) (size 15 to 20)
#    0.000    1.500    2.500    1.875    1.750    3.500 
#    2.250    8.750    0.000    0.000    0.000    0.000 
#    0.000    0.000    0.000    0.000    0.000    0.000 
#
# Total GULP energy -198417.059773 kJ/mol
# GULP energy per Si atom -12401.066236 kJ/mol
# Density = 2.126913 g / cm^3
# Si number density = 21.317648 Si / 1000 Ang^3
#
#
#
# Elastic Constant Matrix: (Units=GPa)
#
#
# Indices 1 2 3 4 5 6 
#
# 1 76.1026 30.1368 29.8135 -4.8736 4.6255 0.0183
# 2 30.1368 83.9021 35.7303 4.5727 0.2941 -4.7329
# 3 29.8135 35.7303 112.3794 0.5751 -4.7454 -0.0900
# 4 -4.8736 4.5727 0.5751 18.9317 0.2120 -2.7077
# 5 4.6255 0.2941 -4.7454 0.2120 32.8743 5.3126
# 6 0.0183 -4.7329 -0.0900 -2.7077 5.3126 31.2658
#
#
#
# Elastic Compliance Matrix: (Units=1/GPa)
#
#
# Indices 1 2 3 4 5 6 
#
# 1 0.016864 -0.005066 -0.003012 0.005715 -0.002830 0.000190
# 2 -0.005066 0.015647 -0.003616 -0.004685 -0.000242 0.001996
# 3 -0.003012 -0.003616 0.010941 -0.000390 0.002187 -0.000919
# 4 0.005715 -0.004685 -0.000390 0.056096 -0.001902 0.004468
# 5 -0.002830 -0.000242 0.002187 -0.001902 0.032059 -0.005641
# 6 0.000190 0.001996 -0.000919 0.004468 -0.005641 0.033629
#
#
# Mechanical properties :
#
#
# Convention : Reuss Voigt Hill
#
# Bulk Modulus (GPa) = 49.83745 51.52727 50.68236
# Shear Modulus (GPa) = 25.60040 28.39460 26.99750
#
# Velocity S-wave (km/s) = 3.46916 3.65358 3.56257
# Velocity P-wave (km/s) = 6.28300 6.48243 6.38349
#
# Compressibility (1/GPa) = 0.02006523
#
# Stress axis : x y z
#
# Youngs Moduli (GPa) = 59.29781 63.91144 91.40267
#
# Poissons Ratio (x) = 0.32375 0.27530
# Poissons Ratio (y) = 0.30038 0.33047
# Poissons Ratio (z) = 0.17860 0.23107
#
# Static dielectric constant tensor:
#      x y z
#    x 4.032680 0.226160 0.176060 
#    y 0.226160 4.138930 0.412680 
#    z 0.176060 0.412680 4.250330 
# 
# 
# High freq. dielectric constant tensor:
#      x y z
#    x 1.845010 -0.000760 0.000820 
#    y -0.000760 1.810960 0.004610 
#    z 0.000820 0.004610 1.852720 
# 
# From -- ./inp_files/271701.got.cif
#   From: 2010.06.25/outbox.cif.g09.slc.cpg/sg2_136_cif.got.tgz:271701.got - 2010.06.27 13:26:56.
