data_PCOD8005122
_publ_section_title
;
Structure prediction by ZEFSAII (Michael W. Deem and Ramdas Pophale) SiO2 
 PCOD8005122
Probable space group: P -1
;
_chemical_formula_sum "Si O2"
_cell_formula_units_Z 16
_cell_length_a 9.699636
_cell_length_b 8.652389
_cell_length_c 15.777287
_cell_angle_alpha 79.223292
_cell_angle_beta 37.648433
_cell_angle_gamma 88.528711
_cell_volume 777.823247
_symmetry_space_group_name_H-M "P -1"
_symmetry_group_IT_number 2
_symmetry_cell_setting 'triclinic'
loop_
_space_group_symop_operation_xyz
x,y,z
-x,-y,-z
loop_
_atom_site_type_symbol
_atom_site_label
_atom_site_fract_x
_atom_site_fract_y
_atom_site_fract_z
Si Si1 0.348475 0.591006 0.844750
Si Si2 0.990801 0.890209 0.144400
Si Si3 0.662412 0.047150 0.173214
Si Si4 0.061409 0.466847 0.840511
Si Si5 0.816069 0.868171 0.407473
Si Si6 0.224997 0.854886 0.472311
Si Si7 0.868335 0.644485 0.554803
Si Si8 0.397707 0.658535 0.541716
O O1 0.336796 0.774610 0.812679
O O2 0.219827 0.478450 0.845435
O O3 0.612621 0.573486 0.722481
O O4 0.206449 0.533220 0.006366
O O5 0.910761 0.698959 0.198175
O O6 0.004470 0.925166 0.235130
O O7 0.802262 0.972043 0.183188
O O8 0.233841 0.953665 0.972050
O O9 0.401691 0.946993 0.306502
O O10 0.158588 0.613956 0.715560
O O11 0.870914 0.723446 0.452689
O O12 0.568487 0.803414 0.490892
O O13 0.816203 0.024346 0.446914
O O14 0.334125 0.713603 0.474471
O O15 0.988098 0.781049 0.548164
O O16 0.000000 0.500000 0.500000
O O17 0.500000 0.500000 0.500000
#
# Coordination Sequence:
#
# PCOD8005122 Si02
#       8
#     2   2   2   2   2   2   2   2
#     4  10  22  39  64  92 129 170 210 263 321 386
#     4  10  22  36  66  99 131 160 207 272 318 376
#     4  10  20  40  63  97 131 162 209 257 330 373
#     4  10  20  38  64  96 129 160 212 266 322 362
#     4  12  23  41  64  97 126 166 226 263 315 377
#     4  12  25  40  66  92 128 173 211 268 324 381
#     4  12  27  44  64  91 130 176 218 262 328 393
#     4  12  21  37  66  99 126 162 217 269 312 372
#
# _framework density 20.570226000000002
#
# number of rings (size 3 to 8) (size 9 to 14) (size 15 to 20)
#    0.000    1.000    5.000    1.500    3.500    0.000 
#    0.000    1.250    0.000    0.000    0.000    0.000 
#    0.000    0.000    0.000    0.000    0.000    0.000 
#
# Total GULP energy -198398.781936 kJ/mol
# GULP energy per Si atom -12399.923871 kJ/mol
# Density = 2.052341 g / cm^3
# Si number density = 20.570226 Si / 1000 Ang^3
#
#
#
# Elastic Constant Matrix: (Units=GPa)
#
#
# Indices 1 2 3 4 5 6 
#
# 1 77.3103 12.4792 54.4246 -3.6008 0.2318 4.3303
# 2 12.4792 63.1721 53.0412 6.2350 -1.8416 7.9066
# 3 54.4246 53.0412 160.9222 0.2966 3.6525 4.3828
# 4 -3.6008 6.2350 0.2966 27.5160 -4.9623 -3.7172
# 5 0.2318 -1.8416 3.6525 -4.9623 32.9018 -6.8134
# 6 4.3303 7.9066 4.3828 -3.7172 -6.8134 31.5313
#
#
#
# Elastic Compliance Matrix: (Units=1/GPa)
#
#
# Indices 1 2 3 4 5 6 
#
# 1 0.017375 0.002118 -0.006547 0.001756 0.000644 -0.001661
# 2 0.002118 0.023733 -0.008377 -0.005747 0.000193 -0.005713
# 3 -0.006547 -0.008377 0.011182 0.000864 -0.001270 0.001273
# 4 0.001756 -0.005747 0.000864 0.040149 0.007149 0.007358
# 5 0.000644 0.000193 -0.001270 0.007149 0.033291 0.008076
# 6 -0.001661 -0.005713 0.001273 0.007358 0.008076 0.035811
#
#
# Mechanical properties :
#
#
# Convention : Reuss Voigt Hill
#
# Bulk Modulus (GPa) = 37.48415 60.14385 48.81400
# Shear Modulus (GPa) = 25.50431 30.48714 27.99572
#
# Velocity S-wave (km/s) = 3.52499 3.85398 3.69315
# Velocity P-wave (km/s) = 5.90165 7.00757 6.47825
#
# Compressibility (1/GPa) = 0.02667794
#
# Stress axis : x y z
#
# Youngs Moduli (GPa) = 57.55464 42.13547 89.42835
#
# Poissons Ratio (x) = -0.08925 0.58549
# Poissons Ratio (y) = -0.12191 0.74915
# Poissons Ratio (z) = 0.37681 0.35297
#
# Static dielectric constant tensor:
#      x y z
#    x 3.571430 0.004780 0.150350 
#    y 0.004780 3.763660 -0.117950 
#    z 0.150350 -0.117950 4.273440 
# 
# 
# High freq. dielectric constant tensor:
#      x y z
#    x 1.768020 -0.001640 0.010380 
#    y -0.001640 1.815020 -0.002990 
#    z 0.010380 -0.002990 1.823160 
# 
# From -- ./inp_files/259858.got.cif
#   From: 2010.06.25/outbox.cif.g09.slc.cpg/sg2_130_cif.got.tgz:259858.got - 2010.06.27 13:26:56.
