data_PCOD8005836
_publ_section_title
;
Structure prediction by ZEFSAII (Michael W. Deem and Ramdas Pophale) SiO2 
 PCOD8005836
Probable space group: P -1
;
_chemical_formula_sum "Si O2"
_cell_formula_units_Z 12
_cell_length_a 18.296868
_cell_length_b 7.770788
_cell_length_c 5.304052
_cell_angle_alpha 80.902280
_cell_angle_beta 73.652668
_cell_angle_gamma 39.783296
_cell_volume 460.969344
_symmetry_space_group_name_H-M "P -1"
_symmetry_group_IT_number 2
_symmetry_cell_setting 'triclinic'
loop_
_space_group_symop_operation_xyz
x,y,z
-x,-y,-z
loop_
_atom_site_type_symbol
_atom_site_label
_atom_site_fract_x
_atom_site_fract_y
_atom_site_fract_z
Si Si1 0.479173 0.313323 0.318866
Si Si2 0.109220 0.093634 0.110771
Si Si3 0.200584 0.598241 0.315857
Si Si4 0.690847 0.697886 0.214776
Si Si5 0.902484 0.507320 0.852081
Si Si6 0.632710 0.389211 0.147652
O O1 0.556597 0.349388 0.263901
O O2 0.408578 0.406522 0.631851
O O3 0.559871 0.004188 0.260871
O O4 0.386856 0.496201 0.138724
O O5 0.115987 0.915915 0.334650
O O6 0.231853 0.904523 0.887263
O O7 0.011168 0.233133 0.961086
O O8 0.079253 0.318236 0.256300
O O9 0.286422 0.434866 0.507984
O O10 0.282448 0.479496 0.008123
O O11 0.119350 0.564996 0.369099
O O12 0.785467 0.689527 0.096547
#
# Coordination Sequence:
#
# PCOD8005836 Si02
#       6
#     2   2   2   2   2   2
#     4  10  20  39  63  88 130 167 208 263 319 369
#     4  11  21  45  65 104 123 172 221 260 322 385
#     4  10  23  42  66  97 133 168 208 268 323 380
#     4  10  21  44  65  93 128 177 206 260 331 373
#     4   9  23  43  69  93 135 168 210 273 317 385
#     4  10  21  36  63  94 123 167 214 261 309 386
#
# _framework density 26.032098000000001
#
# number of rings (size 3 to 8) (size 9 to 14) (size 15 to 20)
#    1.000    1.000    1.667    1.500    0.000    3.333 
#    6.000    6.667    0.000    0.000    0.000    0.000 
#    0.000    0.000    0.000    0.000    0.000    0.000 
#
# Total GULP energy -148821.960934 kJ/mol
# GULP energy per Si atom -12401.830078 kJ/mol
# Density = 2.597285 g / cm^3
# Si number density = 26.032098 Si / 1000 Ang^3
#
#
#
# Elastic Constant Matrix: (Units=GPa)
#
#
# Indices 1 2 3 4 5 6 
#
# 1 85.2297 9.8212 14.1485 7.0754 13.0633 7.6866
# 2 9.8212 115.7335 -23.5206 -6.1805 12.9353 11.8239
# 3 14.1485 -23.5206 25.2995 -1.0674 13.0495 17.6244
# 4 7.0754 -6.1805 -1.0674 26.2802 9.0175 -5.4452
# 5 13.0633 12.9353 13.0495 9.0175 25.4041 -0.6667
# 6 7.6866 11.8239 17.6244 -5.4452 -0.6667 51.9039
#
#
#
# Elastic Compliance Matrix: (Units=1/GPa)
#
#
# Indices 1 2 3 4 5 6 
#
# 1 0.008699 0.018803 0.054011 0.016039 -0.048085 -0.022847
# 2 0.018803 -0.074783 -0.238619 -0.075583 0.180164 0.089661
# 3 0.054011 -0.238619 -0.673264 -0.225090 0.526240 0.258118
# 4 0.016039 -0.075583 -0.225090 -0.028855 0.158473 0.090283
# 5 -0.048085 0.180164 0.526240 0.158473 -0.359481 -0.200602
# 6 -0.022847 0.089661 0.258118 0.090283 -0.200602 -0.078527
#
#
# Mechanical properties :
#
#
# Convention : Reuss Voigt Hill
#
# Bulk Modulus (GPa) = -0.93374 25.24010 12.15318
# Shear Modulus (GPa) = -4.05980 35.77190 15.85605
#
# Velocity S-wave (km/s) = -1.25017 3.71097 2.47066
# Velocity P-wave (km/s) = 1.56313 5.29892 3.58016
#
# Compressibility (1/GPa) = -1.07095716
#
# Stress axis : x y z
#
# Youngs Moduli (GPa) = 114.95354 -13.37202 -1.48530
#
# Poissons Ratio (x) = 0.25144 0.08022
# Poissons Ratio (y) = -2.16152 -0.35442
# Poissons Ratio (z) = -6.20875 -3.19082
#
# Static dielectric constant tensor:
#      x y z
#    x 5.012130 0.040380 -0.092370 
#    y 0.040380 4.437920 0.080140 
#    z -0.092370 0.080140 4.374370 
# 
# 
# High freq. dielectric constant tensor:
#      x y z
#    x 2.103810 0.001980 -0.011580 
#    y 0.001980 2.037200 0.002580 
#    z -0.011580 0.002580 2.027250 
# 
# From -- ./inp_files/35431.got.cif
#   From: 2010.06.25/outbox.cif.g09.slc.cpg/sg2_18_cif.got.tgz:35431.got - 2010.06.27 13:26:56.
