data_PCOD8005206
_publ_section_title
;
Structure prediction by ZEFSAII (Michael W. Deem and Ramdas Pophale) SiO2 
 PCOD8005206
Probable space group: P -1
;
_chemical_formula_sum "Si O2"
_cell_formula_units_Z 14
_cell_length_a 12.189546
_cell_length_b 8.832044
_cell_length_c 17.707874
_cell_angle_alpha 43.376489
_cell_angle_beta 150.624507
_cell_angle_gamma 124.574050
_cell_volume 629.833133
_symmetry_space_group_name_H-M "P -1"
_symmetry_group_IT_number 2
_symmetry_cell_setting 'triclinic'
loop_
_space_group_symop_operation_xyz
x,y,z
-x,-y,-z
loop_
_atom_site_type_symbol
_atom_site_label
_atom_site_fract_x
_atom_site_fract_y
_atom_site_fract_z
Si Si1 0.781615 0.923199 0.308558
Si Si2 0.557862 0.788588 0.556750
Si Si3 0.374043 0.705744 0.178501
Si Si4 0.338029 0.405848 0.042226
Si Si5 0.269517 0.925590 0.193796
Si Si6 0.931162 0.210104 0.165582
Si Si7 0.794869 0.341846 0.267242
O O1 0.558519 0.817158 0.203974
O O2 0.974994 0.716592 0.526746
O O3 0.860420 0.011522 0.244344
O O4 0.736647 0.120564 0.271956
O O5 0.564251 0.564621 0.691024
O O6 0.363555 0.795379 0.373696
O O7 0.802822 0.788914 0.664649
O O8 0.500000 0.000000 0.500000
O O9 0.358686 0.767122 0.234761
O O10 0.134188 0.807562 0.955530
O O11 0.589389 0.454990 0.158065
O O12 0.376974 0.145581 0.177841
O O13 0.221360 0.549976 0.989729
O O14 0.177920 0.475864 0.846911
O O15 0.000000 0.000000 0.000000
#
# Coordination Sequence:
#
# PCOD8005206 Si02
#       7
#     2   2   2   2   2   2   2
#     4  10  21  39  68  99 136 170 222 272 331 384
#     4  12  27  48  68  93 134 183 222 269 340 399
#     4  12  25  43  67 102 134 170 226 280 323 385
#     4  10  20  38  65  93 130 174 216 256 337 394
#     4  12  25  41  68  99 130 168 226 279 324 390
#     4  11  24  44  69  94 137 181 217 268 338 400
#     4   9  19  37  64  96 133 174 209 268 332 397
#
# _framework density 22.228110000000001
#
# number of rings (size 3 to 8) (size 9 to 14) (size 15 to 20)
#    0.000    1.143    1.429    4.714    6.000    0.000 
#    0.000    1.429    0.000    0.000    0.000    0.000 
#    0.000    0.000    0.000    0.000    0.000    0.000 
#
# Total GULP energy -173626.518286 kJ/mol
# GULP energy per Si atom -12401.894163 kJ/mol
# Density = 2.217752 g / cm^3
# Si number density = 22.228110 Si / 1000 Ang^3
#
#
#
# Elastic Constant Matrix: (Units=GPa)
#
#
# Indices 1 2 3 4 5 6 
#
# 1 81.3184 17.6575 23.7171 6.4108 5.0990 0.0266
# 2 17.6575 65.0698 11.0308 -0.6953 1.2132 15.3362
# 3 23.7171 11.0308 128.3268 15.4898 -8.3806 4.3438
# 4 6.4108 -0.6953 15.4898 39.5103 -1.4380 -0.8777
# 5 5.0990 1.2132 -8.3806 -1.4380 42.6422 -3.2418
# 6 0.0266 15.3362 4.3438 -0.8777 -3.2418 36.3160
#
#
#
# Elastic Compliance Matrix: (Units=1/GPa)
#
#
# Indices 1 2 3 4 5 6 
#
# 1 0.014020 -0.003789 -0.002269 -0.001486 -0.001939 0.001652
# 2 -0.003789 0.018373 -0.000796 0.001051 -0.000776 -0.007705
# 3 -0.002269 -0.000796 0.008790 -0.003038 0.001872 -0.000620
# 4 -0.001486 0.001051 -0.003038 0.026792 0.000501 0.000613
# 5 -0.001939 -0.000776 0.001872 0.000501 0.024263 0.002283
# 6 0.001652 -0.007705 -0.000620 0.000613 0.002283 0.031081
#
#
# Mechanical properties :
#
#
# Convention : Reuss Voigt Hill
#
# Bulk Modulus (GPa) = 36.39515 42.16953 39.28234
# Shear Modulus (GPa) = 34.20313 38.51433 36.35873
#
# Velocity S-wave (km/s) = 3.92692 4.16707 4.04878
# Velocity P-wave (km/s) = 6.08030 6.49346 6.29027
#
# Compressibility (1/GPa) = 0.02747619
#
# Stress axis : x y z
#
# Youngs Moduli (GPa) = 71.32701 54.42809 113.76316
#
# Poissons Ratio (x) = 0.20623 0.25809
# Poissons Ratio (y) = 0.27026 0.09053
# Poissons Ratio (z) = 0.16181 0.04331
#
# Static dielectric constant tensor:
#      x y z
#    x 4.340830 0.287440 -0.653510 
#    y 0.287440 3.960940 -0.410300 
#    z -0.653510 -0.410300 5.067460 
# 
# 
# High freq. dielectric constant tensor:
#      x y z
#    x 1.875030 0.007190 -0.004120 
#    y 0.007190 1.856620 -0.009110 
#    z -0.004120 -0.009110 1.893350 
# 
# From -- ./inp_files/185506.got.cif
#   From: 2010.06.25/outbox.cif.g09.slc.cpg/sg2_93_cif.got.tgz:185506.got - 2010.06.27 13:26:56.
