data_PCOD8005676
_publ_section_title
;
Structure prediction by ZEFSAII (Michael W. Deem and Ramdas Pophale) SiO2 
 PCOD8005676
Probable space group: P -1
;
_chemical_formula_sum "Si O2"
_cell_formula_units_Z 16
_cell_length_a 9.110173
_cell_length_b 14.285223
_cell_length_c 14.058474
_cell_angle_alpha 130.697097
_cell_angle_beta 48.169813
_cell_angle_gamma 93.062940
_cell_volume 762.404228
_symmetry_space_group_name_H-M "P -1"
_symmetry_group_IT_number 2
_symmetry_cell_setting 'triclinic'
loop_
_space_group_symop_operation_xyz
x,y,z
-x,-y,-z
loop_
_atom_site_type_symbol
_atom_site_label
_atom_site_fract_x
_atom_site_fract_y
_atom_site_fract_z
Si Si1 0.572094 0.874357 0.015208
Si Si2 0.649564 0.158649 0.411318
Si Si3 0.131221 0.426096 0.179875
Si Si4 0.462856 0.375992 0.462891
Si Si5 0.701587 0.915929 0.547010
Si Si6 0.418765 0.802051 0.322882
Si Si7 0.269677 0.930384 0.997817
Si Si8 0.799146 0.346605 0.740623
O O1 0.421089 0.868924 0.991944
O O2 0.353718 0.992944 0.268789
O O3 0.793979 0.686659 0.835846
O O4 0.722260 0.935793 0.960727
O O5 0.595259 0.296264 0.455911
O O6 0.532601 0.084322 0.365420
O O7 0.495038 0.239905 0.631964
O O8 0.966004 0.012974 0.195676
O O9 0.120298 0.576004 0.314733
O O10 0.849604 0.508943 0.314671
O O11 0.330761 0.324430 0.937626
O O12 0.500000 0.500000 0.500000
O O13 0.583420 0.230406 0.238275
O O14 0.998489 0.732809 0.308771
O O15 0.709475 0.010175 0.519868
O O16 0.191592 0.792478 0.402621
O O17 0.500000 0.500000 0.000000
#
# Coordination Sequence:
#
# PCOD8005676 Si02
#       8
#     2   2   2   2   2   2   2   2
#     4  10  22  42  72  92 125 170 228 278 310 384
#     4  12  24  41  65  97 135 172 216 268 321 396
#     4  10  22  43  66  96 130 171 213 269 334 378
#     4  12  26  42  66  95 139 173 208 268 334 389
#     4  11  21  42  65  93 129 173 215 273 326 380
#     4  10  24  39  67  96 127 173 222 263 321 391
#     4  11  24  42  66  99 125 172 228 270 319 378
#     4  10  20  39  61  90 130 169 212 265 317 384
#
# _framework density 20.986243000000002
#
# number of rings (size 3 to 8) (size 9 to 14) (size 15 to 20)
#    0.000    1.250    2.500    2.625    3.500    5.000 
#    0.000    0.000    0.000    0.000    0.000    0.000 
#    0.000    0.000    0.000    0.000    0.000    0.000 
#
# Total GULP energy -198356.823555 kJ/mol
# GULP energy per Si atom -12397.301472 kJ/mol
# Density = 2.093848 g / cm^3
# Si number density = 20.986243 Si / 1000 Ang^3
#
#
#
# Elastic Constant Matrix: (Units=GPa)
#
#
# Indices 1 2 3 4 5 6 
#
# 1 117.1147 63.2702 50.8049 2.1771 -8.7929 -3.0061
# 2 63.2702 147.2966 41.8384 14.3975 13.9946 2.5591
# 3 50.8049 41.8384 77.5463 5.4727 -20.1432 -3.4817
# 4 2.1771 14.3975 5.4727 28.5149 -2.9674 6.3423
# 5 -8.7929 13.9946 -20.1432 -2.9674 27.9739 -5.4354
# 6 -3.0061 2.5591 -3.4817 6.3423 -5.4354 43.6164
#
#
#
# Elastic Compliance Matrix: (Units=1/GPa)
#
#
# Indices 1 2 3 4 5 6 
#
# 1 0.013906 -0.004874 -0.005847 0.002666 0.003031 0.000768
# 2 -0.004874 0.012869 -0.007167 -0.005650 -0.014239 -0.002616
# 3 -0.005847 -0.007167 0.026444 0.000182 0.021744 0.004812
# 4 0.002666 -0.005650 0.000182 0.039384 0.007137 -0.004308
# 5 0.003031 -0.014239 0.021744 0.007137 0.062079 0.009479
# 6 0.000768 -0.002616 0.004812 -0.004308 0.009479 0.025325
#
#
# Mechanical properties :
#
#
# Convention : Reuss Voigt Hill
#
# Bulk Modulus (GPa) = 57.33137 72.64272 64.98705
# Shear Modulus (GPa) = 22.56318 32.42396 27.49357
#
# Velocity S-wave (km/s) = 3.28249 3.93493 3.62342
# Velocity P-wave (km/s) = 6.46097 7.43871 6.96702
#
# Compressibility (1/GPa) = 0.01744246
#
# Stress axis : x y z
#
# Youngs Moduli (GPa) = 71.90987 77.70588 37.81530
#
# Poissons Ratio (x) = 0.37878 0.22111
# Poissons Ratio (y) = 0.35052 0.27102
# Poissons Ratio (z) = 0.42047 0.55691
#
# Static dielectric constant tensor:
#      x y z
#    x 3.913590 0.056070 -0.016380 
#    y 0.056070 3.928570 0.266960 
#    z -0.016380 0.266960 3.661410 
# 
# 
# High freq. dielectric constant tensor:
#      x y z
#    x 1.824980 0.010450 -0.015990 
#    y 0.010450 1.839260 0.006440 
#    z -0.015990 0.006440 1.813200 
# 
# From -- ./inp_files/222159.got.cif
#   From: 2010.06.25/outbox.cif.g09.slc.cpg/sg2_112_cif.got.tgz:222159.got - 2010.06.27 13:26:56.
