data_PCOD8005491
_publ_section_title
;
Structure prediction by ZEFSAII (Michael W. Deem and Ramdas Pophale) SiO2 
 PCOD8005491
Probable space group: P -1
;
_chemical_formula_sum "Si O2"
_cell_formula_units_Z 16
_cell_length_a 9.129336
_cell_length_b 15.072827
_cell_length_c 19.208075
_cell_angle_alpha 39.009220
_cell_angle_beta 142.875896
_cell_angle_gamma 150.857015
_cell_volume 747.048667
_symmetry_space_group_name_H-M "P -1"
_symmetry_group_IT_number 2
_symmetry_cell_setting 'triclinic'
loop_
_space_group_symop_operation_xyz
x,y,z
-x,-y,-z
loop_
_atom_site_type_symbol
_atom_site_label
_atom_site_fract_x
_atom_site_fract_y
_atom_site_fract_z
Si Si1 0.985020 0.954414 0.799078
Si Si2 0.661340 0.653381 0.680737
Si Si3 0.942443 0.296010 0.079404
Si Si4 0.248136 0.005207 0.439817
Si Si5 0.207014 0.357691 0.421386
Si Si6 0.588276 0.638689 0.036874
Si Si7 0.322939 0.625566 0.810114
Si Si8 0.653965 0.731789 0.144832
O O1 0.027836 0.066726 0.678500
O O2 0.592346 0.777922 0.763368
O O3 0.181993 0.885831 0.902505
O O4 0.108689 0.076952 0.839621
O O5 0.584538 0.785392 0.594643
O O6 0.677013 0.654064 0.602455
O O7 0.373059 0.433068 0.729038
O O8 0.991855 0.728603 0.800174
O O9 0.285456 0.469378 0.070982
O O10 0.701678 0.332842 0.957335
O O11 0.500000 0.000000 0.500000
O O12 0.057907 0.856299 0.520964
O O13 0.500000 0.500000 0.500000
O O14 0.020286 0.431913 0.294021
O O15 0.764170 0.574564 0.106034
O O16 0.815329 0.789817 0.092748
O O17 0.479812 0.710787 0.894419
#
# Coordination Sequence:
#
# PCOD8005491 Si02
#       8
#     2   2   2   2   2   2   2   2
#     4  10  21  36  57  88 119 163 201 251 295 373
#     4  10  22  40  63  89 121 160 209 247 306 367
#     4   9  18  35  61  85 123 159 197 242 312 364
#     4  11  23  44  64  83 120 169 203 250 311 359
#     4  12  24  41  65  92 121 159 214 262 301 356
#     4   9  19  34  59  87 117 161 199 245 303 381
#     4  10  20  39  58  81 125 163 197 243 320 360
#     4  11  19  34  59  95 121 150 206 247 305 362
#
# _framework density 21.417615000000001
#
# number of rings (size 3 to 8) (size 9 to 14) (size 15 to 20)
#    0.000    1.750    1.250    5.250    0.000    0.500 
#    2.250    5.000    0.000    0.000    0.000    0.000 
#    0.000    0.000    0.000    0.000    0.000    0.000 
#
# Total GULP energy -198215.807227 kJ/mol
# GULP energy per Si atom -12388.487952 kJ/mol
# Density = 2.136887 g / cm^3
# Si number density = 21.417615 Si / 1000 Ang^3
#
#
#
# Elastic Constant Matrix: (Units=GPa)
#
#
# Indices 1 2 3 4 5 6 
#
# 1 114.0705 28.8689 55.5115 -1.0778 -6.3422 -31.8200
# 2 28.8689 60.4625 26.8992 2.2474 2.1623 -29.6441
# 3 55.5115 26.8992 113.7424 -6.1536 -4.1215 -16.7808
# 4 -1.0778 2.2474 -6.1536 26.0862 -7.4491 -4.9171
# 5 -6.3422 2.1623 -4.1215 -7.4491 42.2458 -1.2368
# 6 -31.8200 -29.6441 -16.7808 -4.9171 -1.2368 38.7426
#
#
#
# Elastic Compliance Matrix: (Units=1/GPa)
#
#
# Indices 1 2 3 4 5 6 
#
# 1 0.014190 0.000299 -0.005367 0.001779 0.002194 0.009855
# 2 0.000299 0.027905 -0.003843 0.000126 -0.001153 0.019913
# 3 -0.005367 -0.003843 0.012284 0.003010 0.001073 -0.001611
# 4 0.001779 0.000126 0.003010 0.043131 0.008411 0.008603
# 5 0.002194 -0.001153 0.001073 0.008411 0.025743 0.003273
# 6 0.009855 0.019913 -0.001611 0.008603 0.003273 0.049640
#
#
# Mechanical properties :
#
#
# Convention : Reuss Voigt Hill
#
# Bulk Modulus (GPa) = 27.35273 56.75939 42.05606
# Shear Modulus (GPa) = 24.64279 33.21466 28.92872
#
# Velocity S-wave (km/s) = 3.39571 3.94231 3.67917
# Velocity P-wave (km/s) = 5.30785 6.87613 6.14225
#
# Compressibility (1/GPa) = 0.03655942
#
# Stress axis : x y z
#
# Youngs Moduli (GPa) = 70.47122 35.83555 81.40857
#
# Poissons Ratio (x) = -0.01073 0.43689
# Poissons Ratio (y) = -0.02111 0.31283
# Poissons Ratio (z) = 0.37819 0.13771
#
# Static dielectric constant tensor:
#      x y z
#    x 4.289870 -0.594950 -0.153200 
#    y -0.594950 3.737830 -0.152140 
#    z -0.153200 -0.152140 4.025280 
# 
# 
# High freq. dielectric constant tensor:
#      x y z
#    x 1.848570 -0.033570 -0.014040 
#    y -0.033570 1.810500 -0.014130 
#    z -0.014040 -0.014130 1.848580 
# 
# From -- ./inp_files/294884.got.cif
#   From: 2010.06.25/outbox.cif.g09.slc.cpg/sg2_148_cif.got.tgz:294884.got - 2010.06.27 13:26:56.
