data_PCOD8005324
_publ_section_title
;
Structure prediction by ZEFSAII (Michael W. Deem and Ramdas Pophale) SiO2 
 PCOD8005324
Probable space group: P -1
;
_chemical_formula_sum "Si O2"
_cell_formula_units_Z 14
_cell_length_a 9.316191
_cell_length_b 9.392083
_cell_length_c 11.213650
_cell_angle_alpha 121.470590
_cell_angle_beta 61.361075
_cell_angle_gamma 135.106667
_cell_volume 580.797786
_symmetry_space_group_name_H-M "P -1"
_symmetry_group_IT_number 2
_symmetry_cell_setting 'triclinic'
loop_
_space_group_symop_operation_xyz
x,y,z
-x,-y,-z
loop_
_atom_site_type_symbol
_atom_site_label
_atom_site_fract_x
_atom_site_fract_y
_atom_site_fract_z
Si Si1 0.782603 0.739860 0.812127
Si Si2 0.427997 0.408129 0.671755
Si Si3 0.640464 0.328917 0.350234
Si Si4 0.734952 0.077970 0.949940
Si Si5 0.070607 0.959666 0.576206
Si Si6 0.719562 0.129668 0.723543
Si Si7 0.972560 0.593265 0.832669
O O1 0.560334 0.510541 0.784848
O O2 0.888141 0.789986 0.661254
O O3 0.917519 0.735316 0.857604
O O4 0.744535 0.906537 0.938208
O O5 0.555813 0.374472 0.515510
O O6 0.383781 0.565867 0.708693
O O7 0.218925 0.178542 0.686174
O O8 0.879017 0.428153 0.319609
O O9 0.521461 0.076962 0.267876
O O10 0.820310 0.105960 0.792068
O O11 0.895562 0.299721 0.051574
O O12 0.500000 0.000000 0.000000
O O13 0.188577 0.869675 0.440062
O O14 0.000000 0.000000 0.500000
O O15 0.760020 0.353333 0.826372
#
# Coordination Sequence:
#
# PCOD8005324 Si02
#       7
#     2   2   2   2   2   2   2
#     4  12  25  44  65 104 136 166 216 283 334 383
#     4  10  20  38  66  99 130 173 215 268 325 389
#     4  10  20  39  67  95 132 170 221 265 319 395
#     4  12  24  48  71  88 130 183 229 267 311 398
#     4  11  21  39  72 102 129 168 223 270 325 396
#     4  11  22  42  70  97 128 172 226 263 323 397
#     4  12  26  41  66  99 137 174 215 275 337 378
#
# _framework density 24.104776999999999
#
# number of rings (size 3 to 8) (size 9 to 14) (size 15 to 20)
#    0.000    0.857    4.286    4.286    0.000    3.429 
#    2.571    3.571    0.000    0.000    0.000    0.000 
#    0.000    0.000    0.000    0.000    0.000    0.000 
#
# Total GULP energy -173501.963455 kJ/mol
# GULP energy per Si atom -12392.997390 kJ/mol
# Density = 2.404991 g / cm^3
# Si number density = 24.104777 Si / 1000 Ang^3
#
#
#
# Elastic Constant Matrix: (Units=GPa)
#
#
# Indices 1 2 3 4 5 6 
#
# 1 113.4686 35.0818 19.6609 14.9766 -9.0590 -10.1727
# 2 35.0818 122.1264 37.1188 38.7515 4.4326 7.9177
# 3 19.6609 37.1188 54.1371 24.8797 1.3835 1.8996
# 4 14.9766 38.7515 24.8797 34.1063 3.6160 6.5197
# 5 -9.0590 4.4326 1.3835 3.6160 28.5604 8.5574
# 6 -10.1727 7.9177 1.8996 6.5197 8.5574 32.6188
#
#
#
# Elastic Compliance Matrix: (Units=1/GPa)
#
#
# Indices 1 2 3 4 5 6 
#
# 1 0.010606 -0.002305 -0.001622 -0.001849 0.002970 0.003552
# 2 -0.002305 0.013682 -0.002932 -0.012070 -0.000812 -0.001244
# 3 -0.001622 -0.002932 0.029065 -0.017554 0.000162 0.001979
# 4 -0.001849 -0.012070 -0.017554 0.058405 -0.003008 -0.007509
# 5 0.002970 -0.000812 0.000162 -0.003008 0.039007 -0.008518
# 6 0.003552 -0.001244 0.001979 -0.007509 -0.008518 0.035687
#
#
# Mechanical properties :
#
#
# Convention : Reuss Voigt Hill
#
# Bulk Modulus (GPa) = 25.23116 52.60611 38.91864
# Shear Modulus (GPa) = 23.43214 32.24850 27.84032
#
# Velocity S-wave (km/s) = 3.12123 3.66163 3.40217
# Velocity P-wave (km/s) = 4.84556 6.30460 5.62261
#
# Compressibility (1/GPa) = 0.03963353
#
# Stress axis : x y z
#
# Youngs Moduli (GPa) = 94.28253 73.09092 34.40602
#
# Poissons Ratio (x) = 0.16849 0.05582
# Poissons Ratio (y) = 0.21734 0.10088
# Poissons Ratio (z) = 0.15295 0.21431
#
# Static dielectric constant tensor:
#      x y z
#    x 4.082280 0.251550 -0.089310 
#    y 0.251550 4.456190 0.257030 
#    z -0.089310 0.257030 4.487940 
# 
# 
# High freq. dielectric constant tensor:
#      x y z
#    x 1.931130 0.018780 -0.008470 
#    y 0.018780 1.957740 0.026790 
#    z -0.008470 0.026790 1.954350 
# 
# From -- ./inp_files/383191.got.cif
#   From: 2010.06.25/outbox.cif.g09.slc.cpg/sg2_192_cif.got.tgz:383191.got - 2010.06.27 13:26:56.
