data_PCOD8005120
_publ_section_title
;
Structure prediction by ZEFSAII (Michael W. Deem and Ramdas Pophale) SiO2 
 PCOD8005120
Probable space group: P -1
;
_chemical_formula_sum "Si O2"
_cell_formula_units_Z 16
_cell_length_a 15.026032
_cell_length_b 11.876668
_cell_length_c 12.904201
_cell_angle_alpha 101.365404
_cell_angle_beta 55.388263
_cell_angle_gamma 148.495710
_cell_volume 737.176507
_symmetry_space_group_name_H-M "P -1"
_symmetry_group_IT_number 2
_symmetry_cell_setting 'triclinic'
loop_
_space_group_symop_operation_xyz
x,y,z
-x,-y,-z
loop_
_atom_site_type_symbol
_atom_site_label
_atom_site_fract_x
_atom_site_fract_y
_atom_site_fract_z
Si Si1 0.643563 0.840018 0.723396
Si Si2 0.613920 0.444736 0.934726
Si Si3 0.107601 0.522607 0.289682
Si Si4 0.089234 0.035242 0.155942
Si Si5 0.752698 0.302194 0.333015
Si Si6 0.179797 0.380279 0.570084
Si Si7 0.456984 0.456432 0.643255
Si Si8 0.418111 0.992386 0.311082
O O1 0.639990 0.728951 0.628785
O O2 0.498093 0.807079 0.761892
O O3 0.494194 0.660862 0.895529
O O4 0.959493 0.188305 0.590961
O O5 0.760186 0.469842 0.818037
O O6 0.827235 0.754059 0.832001
O O7 0.356874 0.219062 0.985749
O O8 0.344719 0.825919 0.244120
O O9 0.027259 0.508611 0.231782
O O10 0.840531 0.245075 0.485175
O O11 0.951604 0.844179 0.311416
O O12 0.864204 0.826855 0.174614
O O13 0.753650 0.438476 0.381282
O O14 0.500000 0.000000 0.500000
O O15 0.692117 0.224621 0.236483
O O16 0.455297 0.586250 0.381982
O O17 0.500000 0.500000 0.500000
#
# Coordination Sequence:
#
# PCOD8005120 Si02
#       8
#     2   2   2   2   2   2   2   2
#     4  11  22  40  62  95 131 164 217 261 320 388
#     4  10  23  42  63  88 133 174 202 266 325 379
#     4  10  22  41  64  92 129 170 210 263 322 370
#     4   9  21  41  61  89 126 170 211 257 317 388
#     4  10  21  39  63  97 131 158 212 271 314 378
#     4  10  20  38  64  96 125 166 209 270 319 369
#     4  10  21  36  63  93 120 165 211 266 313 371
#     4  10  21  39  65  96 123 166 220 265 307 382
#
# _framework density 21.704433999999999
#
# number of rings (size 3 to 8) (size 9 to 14) (size 15 to 20)
#    0.000    2.000    1.250    1.875    7.000    1.000 
#    4.500    0.625    0.000    0.000    0.000    0.000 
#    0.000    0.000    0.000    0.000    0.000    0.000 
#
# Total GULP energy -198238.730509 kJ/mol
# GULP energy per Si atom -12389.920657 kJ/mol
# Density = 2.165503 g / cm^3
# Si number density = 21.704434 Si / 1000 Ang^3
#
#
#
# Elastic Constant Matrix: (Units=GPa)
#
#
# Indices 1 2 3 4 5 6 
#
# 1 161.4712 73.2167 31.0311 0.3911 -23.2989 -2.9923
# 2 73.2167 146.1079 25.9449 2.7272 -13.2054 9.9187
# 3 31.0311 25.9449 34.6477 1.2582 -7.4737 -3.3777
# 4 0.3911 2.7272 1.2582 23.4652 -5.7813 -4.5017
# 5 -23.2989 -13.2054 -7.4737 -5.7813 31.7473 -2.5159
# 6 -2.9923 9.9187 -3.3777 -4.5017 -2.5159 46.6522
#
#
#
# Elastic Compliance Matrix: (Units=1/GPa)
#
#
# Indices 1 2 3 4 5 6 
#
# 1 0.009438 -0.003609 -0.004640 0.001982 0.004812 0.001487
# 2 -0.003609 0.009597 -0.004193 -0.001378 -0.000110 -0.002714
# 3 -0.004640 -0.004193 0.037348 0.000216 0.003962 0.003532
# 4 0.001982 -0.001378 0.000216 0.046179 0.009771 0.005419
# 5 0.004812 -0.000110 0.003962 0.009771 0.037983 0.003610
# 6 0.001487 -0.002714 0.003532 0.005419 0.003610 0.023081
#
#
# Mechanical properties :
#
#
# Convention : Reuss Voigt Hill
#
# Bulk Modulus (GPa) = 31.74474 66.95692 49.35083
# Shear Modulus (GPa) = 25.12451 34.50854 29.81653
#
# Velocity S-wave (km/s) = 3.40601 3.99172 3.71044
# Velocity P-wave (km/s) = 5.48867 7.22229 6.41432
#
# Compressibility (1/GPa) = 0.03150128
#
# Stress axis : x y z
#
# Youngs Moduli (GPa) = 105.95332 104.19635 26.77506
#
# Poissons Ratio (x) = 0.37602 0.12423
# Poissons Ratio (y) = 0.38236 0.11226
# Poissons Ratio (z) = 0.49159 0.43687
#
# Static dielectric constant tensor:
#      x y z
#    x 4.927750 0.647910 -0.433140 
#    y 0.647910 4.229910 -0.408100 
#    z -0.433140 -0.408100 3.788410 
# 
# 
# High freq. dielectric constant tensor:
#      x y z
#    x 1.879550 0.007150 -0.008450 
#    y 0.007150 1.860390 -0.015270 
#    z -0.008450 -0.015270 1.807900 
# 
# From -- ./inp_files/320096.got.cif
#   From: 2010.06.25/outbox.cif.g09.slc.cpg/sg2_161_cif.got.tgz:320096.got - 2010.06.27 13:26:56.
