data_PCOD8005301
_publ_section_title
;
Structure prediction by ZEFSAII (Michael W. Deem and Ramdas Pophale) SiO2 
 PCOD8005301
Probable space group: P -1
;
_chemical_formula_sum "Si O2"
_cell_formula_units_Z 16
_cell_length_a 13.714971
_cell_length_b 16.620132
_cell_length_c 22.832333
_cell_angle_alpha 21.363761
_cell_angle_beta 157.935930
_cell_angle_gamma 145.365010
_cell_volume 680.621863
_symmetry_space_group_name_H-M "P -1"
_symmetry_group_IT_number 2
_symmetry_cell_setting 'triclinic'
loop_
_space_group_symop_operation_xyz
x,y,z
-x,-y,-z
loop_
_atom_site_type_symbol
_atom_site_label
_atom_site_fract_x
_atom_site_fract_y
_atom_site_fract_z
Si Si1 0.835106 0.761202 0.742719
Si Si2 0.343617 0.891966 0.939732
Si Si3 0.716160 0.441126 0.491320
Si Si4 0.265213 0.320585 0.133741
Si Si5 0.911021 0.072782 0.755565
Si Si6 0.227498 0.544336 0.676983
Si Si7 0.699337 0.710284 0.576196
Si Si8 0.528902 0.976596 0.868953
O O1 0.639581 0.771151 0.683965
O O2 0.696697 0.842457 0.547685
O O3 0.034023 0.911607 0.772264
O O4 0.000000 0.500000 0.000000
O O5 0.320844 0.019853 0.778060
O O6 0.512463 0.622299 0.211854
O O7 0.500000 0.000000 0.000000
O O8 0.786101 0.197694 0.661434
O O9 0.542426 0.414556 0.470466
O O10 0.984588 0.523431 0.600395
O O11 0.512852 0.394887 0.191231
O O12 0.237837 0.113755 0.218876
O O13 0.987027 0.528103 0.843413
O O14 0.917523 0.261593 0.582117
O O15 0.222820 0.924111 0.043376
O O16 0.344573 0.296830 0.880990
O O17 0.633040 0.906593 0.357287
#
# Coordination Sequence:
#
# PCOD8005301 Si02
#       8
#     2   2   2   2   2   2   2   2
#     4  10  20  38  66  94 134 171 225 278 331 391
#     4  12  22  40  69 105 131 170 231 289 331 394
#     4  11  22  43  66  98 132 181 227 270 336 410
#     4  11  23  41  68 106 136 175 230 287 334 404
#     4  11  22  40  68 100 136 177 230 275 341 404
#     4  11  22  39  68  96 136 176 228 270 340 403
#     4  11  25  42  72  99 138 179 229 282 344 392
#     4  11  23  42  69  99 138 179 226 279 344 406
#
# _framework density 23.507914
#
# number of rings (size 3 to 8) (size 9 to 14) (size 15 to 20)
#    0.000    1.000    5.000    4.125    0.000    4.500 
#    0.000    0.000    0.000    3.750    0.000    0.000 
#    0.000    0.000    0.000    0.000    0.000    0.000 
#
# Total GULP energy -198248.809432 kJ/mol
# GULP energy per Si atom -12390.550589 kJ/mol
# Density = 2.345441 g / cm^3
# Si number density = 23.507914 Si / 1000 Ang^3
#
#
#
# Elastic Constant Matrix: (Units=GPa)
#
#
# Indices 1 2 3 4 5 6 
#
# 1 70.2659 34.7797 28.0657 12.9630 -6.8791 21.9730
# 2 34.7797 155.2003 26.9515 23.8242 4.3940 23.5113
# 3 28.0657 26.9515 70.9215 13.0119 -1.6965 6.0033
# 4 12.9630 23.8242 13.0119 18.6733 6.6512 10.0693
# 5 -6.8791 4.3940 -1.6965 6.6512 36.4059 11.1566
# 6 21.9730 23.5113 6.0033 10.0693 11.1566 32.1622
#
#
#
# Elastic Compliance Matrix: (Units=1/GPa)
#
#
# Indices 1 2 3 4 5 6 
#
# 1 0.024860 -0.001307 -0.006606 -0.005802 0.010725 -0.016699
# 2 -0.001307 0.008579 -0.000972 -0.008111 0.001084 -0.003034
# 3 -0.006606 -0.000972 0.018443 -0.009611 0.000018 0.004784
# 4 -0.005802 -0.008111 -0.009611 0.084820 -0.012874 -0.010403
# 5 0.010725 0.001084 0.000018 -0.012874 0.036892 -0.016890
# 6 -0.016699 -0.003034 0.004784 -0.010403 -0.016890 0.052942
#
#
# Mechanical properties :
#
#
# Convention : Reuss Voigt Hill
#
# Bulk Modulus (GPa) = 29.31681 52.88684 41.10182
# Shear Modulus (GPa) = 19.55594 31.22099 25.38847
#
# Velocity S-wave (km/s) = 2.88738 3.64827 3.28990
# Velocity P-wave (km/s) = 4.85943 6.34766 5.65274
#
# Compressibility (1/GPa) = 0.03411013
#
# Stress axis : x y z
#
# Youngs Moduli (GPa) = 40.22580 116.56452 54.22203
#
# Poissons Ratio (x) = 0.15234 0.35822
# Poissons Ratio (y) = 0.05257 0.05271
# Poissons Ratio (z) = 0.26575 0.11332
#
# Static dielectric constant tensor:
#      x y z
#    x 4.225750 0.210460 0.206290 
#    y 0.210460 4.798700 0.387600 
#    z 0.206290 0.387600 4.304850 
# 
# 
# High freq. dielectric constant tensor:
#      x y z
#    x 1.909140 0.018980 0.030030 
#    y 0.018980 1.944440 0.013150 
#    z 0.030030 0.013150 1.909550 
# 
# From -- ./inp_files/318144.got.cif
#   From: 2010.06.25/outbox.cif.g09.slc.cpg/sg2_160_cif.got.tgz:318144.got - 2010.06.27 13:26:56.
