data_PCOD8005824
_publ_section_title
;
Structure prediction by ZEFSAII (Michael W. Deem and Ramdas Pophale) SiO2 
 PCOD8005824
Probable space group: P -1
;
_chemical_formula_sum "Si O2"
_cell_formula_units_Z 16
_cell_length_a 9.238933
_cell_length_b 12.728882
_cell_length_c 11.625330
_cell_angle_alpha 95.279450
_cell_angle_beta 37.034391
_cell_angle_gamma 85.903055
_cell_volume 795.646157
_symmetry_space_group_name_H-M "P -1"
_symmetry_group_IT_number 2
_symmetry_cell_setting 'triclinic'
loop_
_space_group_symop_operation_xyz
x,y,z
-x,-y,-z
loop_
_atom_site_type_symbol
_atom_site_label
_atom_site_fract_x
_atom_site_fract_y
_atom_site_fract_z
Si Si1 0.721639 0.012692 0.138506
Si Si2 0.317383 0.179485 0.562122
Si Si3 0.458297 0.383235 0.152494
Si Si4 0.548564 0.800357 0.267741
Si Si5 0.209124 0.847330 0.093926
Si Si6 0.897857 0.124232 0.582061
Si Si7 0.919730 0.688698 0.470472
Si Si8 0.490219 0.391312 0.878004
O O1 0.531464 0.088915 0.355031
O O2 0.682221 0.890941 0.143776
O O3 0.687403 0.066623 0.038297
O O4 0.000000 0.000000 0.000000
O O5 0.421274 0.217495 0.617631
O O6 0.208690 0.292152 0.572061
O O7 0.088605 0.125864 0.730996
O O8 0.208621 0.387518 0.382270
O O9 0.564731 0.487511 0.128909
O O10 0.663593 0.274354 0.043320
O O11 0.360950 0.393157 0.083872
O O12 0.258632 0.841640 0.429952
O O13 0.627123 0.684422 0.139230
O O14 0.269572 0.850766 0.192111
O O15 0.122258 0.185608 0.445154
O O16 0.000000 0.000000 0.500000
O O17 0.215801 0.645510 0.282011
#
# Coordination Sequence:
#
# PCOD8005824 Si02
#       8
#     2   2   2   2   2   2   2   2
#     4  12  25  38  65  89 120 168 201 238 304 374
#     4  11  22  40  61  87 128 160 192 251 303 362
#     4  11  20  41  69  86 119 160 211 240 303 356
#     4  11  22  40  58  91 127 154 200 251 304 347
#     4  11  22  41  63  89 118 166 204 238 305 365
#     4  10  22  37  57  90 126 154 193 258 304 343
#     4  10  20  39  63  87 118 164 199 238 304 363
#     4  10  23  41  63  92 121 157 199 262 294 348
#
# _framework density 20.109442000000001
#
# number of rings (size 3 to 8) (size 9 to 14) (size 15 to 20)
#    0.000    1.250    6.250    2.250    1.750    1.500 
#    2.250    1.250    0.000    0.000    0.000    0.000 
#    0.000    0.000    0.000    0.000    0.000    0.000 
#
# Total GULP energy -198238.622959 kJ/mol
# GULP energy per Si atom -12389.913935 kJ/mol
# Density = 2.006367 g / cm^3
# Si number density = 20.109442 Si / 1000 Ang^3
#
#
#
# Elastic Constant Matrix: (Units=GPa)
#
#
# Indices 1 2 3 4 5 6 
#
# 1 122.2377 34.7939 38.0231 -7.2652 10.9199 6.4752
# 2 34.7939 141.0511 35.4291 -10.3194 16.0480 3.2924
# 3 38.0231 35.4291 82.6289 -16.8739 14.3075 -0.9092
# 4 -7.2652 -10.3194 -16.8739 34.1635 -9.2510 3.5084
# 5 10.9199 16.0480 14.3075 -9.2510 24.9327 3.6617
# 6 6.4752 3.2924 -0.9092 3.5084 3.6617 28.3334
#
#
#
# Elastic Compliance Matrix: (Units=1/GPa)
#
#
# Indices 1 2 3 4 5 6 
#
# 1 0.009964 -0.001326 -0.003914 -0.000291 -0.001068 -0.002075
# 2 -0.001326 0.008419 -0.002381 0.000216 -0.003341 -0.000347
# 3 -0.003914 -0.002381 0.016841 0.005328 -0.004684 0.001657
# 4 -0.000291 0.000216 0.005328 0.035430 0.010897 -0.005583
# 5 -0.001068 -0.003341 -0.004684 0.010897 0.050544 -0.007399
# 6 -0.002075 -0.000347 0.001657 -0.005583 -0.007399 0.037509
#
#
# Mechanical properties :
#
#
# Convention : Reuss Voigt Hill
#
# Bulk Modulus (GPa) = 50.04312 62.48998 56.26655
# Shear Modulus (GPa) = 27.68415 33.33070 30.50742
#
# Velocity S-wave (km/s) = 3.71438 4.07561 3.89918
# Velocity P-wave (km/s) = 6.58293 7.29999 6.95071
#
# Compressibility (1/GPa) = 0.01998277
#
# Stress axis : x y z
#
# Youngs Moduli (GPa) = 100.36507 118.78290 59.37721
#
# Poissons Ratio (x) = 0.15752 0.23238
# Poissons Ratio (y) = 0.13310 0.14136
# Poissons Ratio (z) = 0.39280 0.28279
#
# Static dielectric constant tensor:
#      x y z
#    x 3.702600 -0.080030 0.121800 
#    y -0.080030 4.034720 0.076430 
#    z 0.121800 0.076430 4.134790 
# 
# 
# High freq. dielectric constant tensor:
#      x y z
#    x 1.773750 -0.015960 0.004090 
#    y -0.015960 1.789790 -0.003540 
#    z 0.004090 -0.003540 1.776670 
# 
# From -- ./inp_files/390335.got.cif
#   From: 2010.06.25/outbox.cif.g09.slc.cpg/sg2_196_cif.got.tgz:390335.got - 2010.06.27 13:26:56.
