data_PCOD8005274
_publ_section_title
;
Structure prediction by ZEFSAII (Michael W. Deem and Ramdas Pophale) SiO2 
 PCOD8005274
Probable space group: P -1
;
_chemical_formula_sum "Si O2"
_cell_formula_units_Z 16
_cell_length_a 20.509183
_cell_length_b 9.343248
_cell_length_c 11.336188
_cell_angle_alpha 34.322903
_cell_angle_beta 40.609442
_cell_angle_gamma 53.819540
_cell_volume 793.268283
_symmetry_space_group_name_H-M "P -1"
_symmetry_group_IT_number 2
_symmetry_cell_setting 'triclinic'
loop_
_space_group_symop_operation_xyz
x,y,z
-x,-y,-z
loop_
_atom_site_type_symbol
_atom_site_label
_atom_site_fract_x
_atom_site_fract_y
_atom_site_fract_z
Si Si1 0.863455 0.467941 0.325184
Si Si2 0.228971 0.061970 0.251572
Si Si3 0.584538 0.787700 0.447697
Si Si4 0.383352 0.462585 0.656495
Si Si5 0.423231 0.649348 0.931730
Si Si6 0.231910 0.866803 0.628942
Si Si7 0.087157 0.400040 0.091047
Si Si8 0.731878 0.736983 0.492689
O O1 0.827965 0.646642 0.355143
O O2 0.967615 0.366712 0.292041
O O3 0.778925 0.229570 0.584872
O O4 0.879869 0.626334 0.073050
O O5 0.131215 0.183822 0.255045
O O6 0.230042 0.067595 0.388160
O O7 0.332150 0.216845 0.962917
O O8 0.628812 0.594372 0.427655
O O9 0.468821 0.684921 0.711892
O O10 0.651394 0.809444 0.458327
O O11 0.585897 0.067652 0.196000
O O12 0.500000 0.500000 0.500000
O O13 0.330990 0.714793 0.586705
O O14 0.500000 0.500000 0.000000
O O15 0.315309 0.482989 0.201981
O O16 0.232420 0.011938 0.653216
O O17 0.130627 0.675661 0.893206
#
# Coordination Sequence:
#
# PCOD8005274 Si02
#       8
#     2   2   2   2   2   2   2   2
#     4  10  20  38  66  91 112 152 199 241 289 352
#     4  10  20  40  60  85 120 151 196 245 288 344
#     4  10  21  39  58  80 113 156 202 238 284 341
#     4  11  25  38  61  86 117 159 201 242 292 340
#     4   9  21  35  57  80 112 148 196 238 282 338
#     4  10  24  39  55  88 123 153 193 244 293 351
#     4   9  20  40  64  90 117 149 195 244 292 345
#     4  11  22  37  59  85 119 156 191 238 295 345
#
# _framework density 20.169722
#
# number of rings (size 3 to 8) (size 9 to 14) (size 15 to 20)
#    0.000    2.000    0.000    3.375    7.000    3.000 
#    0.000    0.625    0.000    0.000    0.000    0.000 
#    0.000    0.000    0.000    0.000    0.000    0.000 
#
# Total GULP energy -198384.318315 kJ/mol
# GULP energy per Si atom -12399.019895 kJ/mol
# Density = 2.012381 g / cm^3
# Si number density = 20.169722 Si / 1000 Ang^3
#
#
#
# Elastic Constant Matrix: (Units=GPa)
#
#
# Indices 1 2 3 4 5 6 
#
# 1 94.1604 43.9105 32.1264 -2.3654 1.1226 5.7484
# 2 43.9105 136.7397 43.6164 0.3244 -1.5079 16.7585
# 3 32.1264 43.6164 89.9789 -0.0144 0.1746 -2.4454
# 4 -2.3654 0.3244 -0.0144 21.9663 -6.3631 -3.1856
# 5 1.1226 -1.5079 0.1746 -6.3631 30.8349 -2.7523
# 6 5.7484 16.7585 -2.4454 -3.1856 -2.7523 41.5670
#
#
#
# Elastic Compliance Matrix: (Units=1/GPa)
#
#
# Indices 1 2 3 4 5 6 
#
# 1 0.013271 -0.003156 -0.003226 0.001252 -0.000422 -0.000684
# 2 -0.003156 0.010035 -0.003844 -0.001039 0.000064 -0.003911
# 3 -0.003226 -0.003844 0.014206 0.000173 0.000139 0.002854
# 4 0.001252 -0.001039 0.000173 0.049410 0.010522 0.004739
# 5 -0.000422 0.000064 0.000139 0.010522 0.034902 0.003158
# 6 -0.000684 -0.003911 0.002854 0.004739 0.003158 0.026469
#
#
# Mechanical properties :
#
#
# Convention : Reuss Voigt Hill
#
# Bulk Modulus (GPa) = 58.61743 62.24284 60.43014
# Shear Modulus (GPa) = 28.66429 32.28868 30.47648
#
# Velocity S-wave (km/s) = 3.77391 4.00540 3.89138
# Velocity P-wave (km/s) = 6.93650 7.23309 7.08634
#
# Compressibility (1/GPa) = 0.01705977
#
# Stress axis : x y z
#
# Youngs Moduli (GPa) = 75.35204 99.64648 70.39144
#
# Poissons Ratio (x) = 0.31453 0.22707
# Poissons Ratio (y) = 0.23784 0.27060
# Poissons Ratio (z) = 0.24308 0.38306
#
# Static dielectric constant tensor:
#      x y z
#    x 3.557030 -0.019810 0.062140 
#    y -0.019810 3.544880 0.090520 
#    z 0.062140 0.090520 3.928630 
# 
# 
# High freq. dielectric constant tensor:
#      x y z
#    x 1.778730 -0.006380 0.005210 
#    y -0.006380 1.779920 -0.000150 
#    z 0.005210 -0.000150 1.794200 
# 
# From -- ./inp_files/48259.got.cif
#   From: 2010.06.25/outbox.cif.g09.slc.cpg/sg2_25_cif.got.tgz:48259.got - 2010.06.27 13:26:56.
