data_PCOD8005957
_publ_section_title
;
Structure prediction by ZEFSAII (Michael W. Deem and Ramdas Pophale) SiO2 
 PCOD8005957
Probable space group: P -1
;
_chemical_formula_sum "Si O2"
_cell_formula_units_Z 16
_cell_length_a 8.724901
_cell_length_b 13.978882
_cell_length_c 14.685880
_cell_angle_alpha 43.406868
_cell_angle_beta 45.644371
_cell_angle_gamma 39.547432
_cell_volume 743.146555
_symmetry_space_group_name_H-M "P -1"
_symmetry_group_IT_number 2
_symmetry_cell_setting 'triclinic'
loop_
_space_group_symop_operation_xyz
x,y,z
-x,-y,-z
loop_
_atom_site_type_symbol
_atom_site_label
_atom_site_fract_x
_atom_site_fract_y
_atom_site_fract_z
Si Si1 0.208320 0.586199 0.033468
Si Si2 0.420558 0.266301 0.083052
Si Si3 0.675543 0.005669 0.696069
Si Si4 0.190003 0.763949 0.204734
Si Si5 0.138885 0.324289 0.709884
Si Si6 0.748430 0.402874 0.524558
Si Si7 0.890264 0.947220 0.453124
Si Si8 0.799275 0.107721 0.198341
O O1 0.191212 0.455902 0.065683
O O2 0.026138 0.627488 0.164891
O O3 0.500000 0.500000 0.000000
O O4 0.131916 0.756662 0.897743
O O5 0.563592 0.180846 0.177071
O O6 0.311406 0.160079 0.162847
O O7 0.604802 0.277553 0.928172
O O8 0.414114 0.164984 0.726139
O O9 0.900729 0.005849 0.652629
O O10 0.700465 0.007414 0.575045
O O11 0.323080 0.661498 0.311800
O O12 0.990913 0.716400 0.288678
O O13 0.044656 0.957890 0.150728
O O14 0.159501 0.477227 0.565798
O O15 0.500000 0.500000 0.500000
O O16 0.972586 0.249300 0.481064
O O17 0.731246 0.045092 0.361352
#
# Coordination Sequence:
#
# PCOD8005957 Si02
#       8
#     2   2   2   2   2   2   2   2
#     4  10  21  38  63  93 130 155 197 263 315 358
#     4  11  21  41  64  95 124 160 205 263 309 368
#     4  11  23  41  66  89 127 169 212 253 305 377
#     4  11  22  40  65  96 124 161 210 255 311 371
#     4  12  21  41  67  92 123 167 208 257 312 365
#     4  11  24  44  62  94 129 165 204 261 309 369
#     4  10  24  45  60  90 129 170 208 254 312 368
#     4  10  20  39  64  88 129 160 203 257 310 363
#
# _framework density 21.530075
#
# number of rings (size 3 to 8) (size 9 to 14) (size 15 to 20)
#    0.000    1.250    5.000    2.250    0.000    1.500 
#    6.750    2.500    0.000    0.000    0.000    0.000 
#    0.000    0.000    0.000    0.000    0.000    0.000 
#
# Total GULP energy -198421.176679 kJ/mol
# GULP energy per Si atom -12401.323542 kJ/mol
# Density = 2.148107 g / cm^3
# Si number density = 21.530075 Si / 1000 Ang^3
#
#
#
# Elastic Constant Matrix: (Units=GPa)
#
#
# Indices 1 2 3 4 5 6 
#
# 1 54.8570 23.5324 32.6961 -10.3018 -10.6717 7.5180
# 2 23.5324 145.1912 55.9371 -12.3893 -11.7240 20.8614
# 3 32.6961 55.9371 85.3119 -12.2979 -13.9100 5.3274
# 4 -10.3018 -12.3893 -12.2979 48.9392 11.2177 -11.6113
# 5 -10.6717 -11.7240 -13.9100 11.2177 34.5378 -6.4467
# 6 7.5180 20.8614 5.3274 -11.6113 -6.4467 28.1810
#
#
#
# Elastic Compliance Matrix: (Units=1/GPa)
#
#
# Indices 1 2 3 4 5 6 
#
# 1 0.024686 0.000270 -0.008693 0.001476 0.003022 -0.003843
# 2 0.000270 0.010256 -0.006509 -0.000539 -0.000130 -0.006685
# 3 -0.008693 -0.006509 0.019841 0.001903 0.003401 0.004949
# 4 0.001476 -0.000539 0.001903 0.024300 -0.005276 0.008451
# 5 0.003022 -0.000130 0.003401 -0.005276 0.033708 0.004184
# 6 -0.003843 -0.006685 0.004949 0.008451 0.004184 0.044962
#
#
# Mechanical properties :
#
#
# Convention : Reuss Voigt Hill
#
# Bulk Modulus (GPa) = 40.13019 56.63235 48.38127
# Shear Modulus (GPa) = 25.52026 33.87791 29.69909
#
# Velocity S-wave (km/s) = 3.44660 3.97106 3.71809
# Velocity P-wave (km/s) = 5.87523 6.88380 6.39941
#
# Compressibility (1/GPa) = 0.02491889
#
# Stress axis : x y z
#
# Youngs Moduli (GPa) = 40.50864 97.50841 50.40106
#
# Poissons Ratio (x) = -0.02632 0.43812
# Poissons Ratio (y) = -0.01094 0.32807
# Poissons Ratio (z) = 0.35213 0.63470
#
# Static dielectric constant tensor:
#      x y z
#    x 3.864240 0.401500 -0.224600 
#    y 0.401500 4.281140 -0.328460 
#    z -0.224600 -0.328460 3.991140 
# 
# 
# High freq. dielectric constant tensor:
#      x y z
#    x 1.828850 0.022390 -0.011000 
#    y 0.022390 1.858250 -0.008700 
#    z -0.011000 -0.008700 1.851490 
# 
# From -- ./inp_files/503762.got.cif
#   From: 2010.06.25/outbox.cif.g09.slc.cpg/sg2_252_cif.got.tgz:503762.got - 2010.06.27 13:26:56.
