data_PCOD8005045
_publ_section_title
;
Structure prediction by ZEFSAII (Michael W. Deem and Ramdas Pophale) SiO2 
 PCOD8005045
Probable space group: P -1
;
_chemical_formula_sum "Si O2"
_cell_formula_units_Z 16
_cell_length_a 19.128431
_cell_length_b 22.368021
_cell_length_c 13.098251
_cell_angle_alpha 161.444344
_cell_angle_beta 151.837657
_cell_angle_gamma 27.404675
_cell_volume 789.679746
_symmetry_space_group_name_H-M "P -1"
_symmetry_group_IT_number 2
_symmetry_cell_setting 'triclinic'
loop_
_space_group_symop_operation_xyz
x,y,z
-x,-y,-z
loop_
_atom_site_type_symbol
_atom_site_label
_atom_site_fract_x
_atom_site_fract_y
_atom_site_fract_z
Si Si1 0.453607 0.412785 0.457242
Si Si2 0.505220 0.249045 0.820284
Si Si3 0.970820 0.453045 0.500713
Si Si4 0.339812 0.179559 0.086334
Si Si5 0.710181 0.242384 0.352237
Si Si6 0.738201 0.924107 0.707217
Si Si7 0.977044 0.818715 0.240318
Si Si8 0.375947 0.395486 0.684236
O O1 0.338205 0.306623 0.186578
O O2 0.606934 0.255183 0.343320
O O3 0.361773 0.569002 0.507443
O O4 0.506856 0.526172 0.801995
O O5 0.383274 0.195582 0.650496
O O6 0.444614 0.238302 0.610291
O O7 0.683520 0.089747 0.813173
O O8 0.796151 0.441067 0.251655
O O9 0.000000 0.500000 0.500000
O O10 0.086853 0.238055 0.343732
O O11 0.983982 0.633471 0.877900
O O12 0.352880 0.293568 0.388087
O O13 0.184781 0.115360 0.793739
O O14 0.500000 0.000000 0.000000
O O15 0.880718 0.251210 0.610574
O O16 0.725424 0.036509 0.981288
O O17 0.000000 0.000000 0.500000
O O18 0.500000 0.500000 0.000000
#
# Coordination Sequence:
#
# PCOD8005045 Si02
#       8
#     2   2   2   2   2   2   2   2
#     4  10  21  41  63  89 122 163 204 247 308 360
#     4  10  20  38  64  89 123 158 202 252 301 361
#     4  11  22  38  63  91 120 157 204 256 298 360
#     4  11  25  40  60  89 123 158 202 256 302 362
#     4  10  22  38  65  91 121 161 204 249 300 371
#     4  10  21  37  63  96 121 153 207 255 303 353
#     4  11  24  40  61  89 123 161 206 248 302 367
#     4  11  23  40  63  88 121 161 201 246 311 364
#
# _framework density 20.261379000000002
#
# number of rings (size 3 to 8) (size 9 to 14) (size 15 to 20)
#    0.000    1.500    2.500    2.250    3.500    3.500 
#    0.000    0.625    0.000    0.000    0.000    0.000 
#    0.000    0.000    0.000    0.000    0.000    0.000 
#
# Total GULP energy -198280.854900 kJ/mol
# GULP energy per Si atom -12392.553431 kJ/mol
# Density = 2.021526 g / cm^3
# Si number density = 20.261379 Si / 1000 Ang^3
#
#
#
# Elastic Constant Matrix: (Units=GPa)
#
#
# Indices 1 2 3 4 5 6 
#
# 1 116.0336 58.2490 36.0318 -2.3352 17.1069 -14.5290
# 2 58.2490 138.7171 39.8975 -7.2356 2.2571 -22.4188
# 3 36.0318 39.8975 78.7555 -4.7983 18.2814 -16.0824
# 4 -2.3352 -7.2356 -4.7983 37.0865 -3.8666 1.0026
# 5 17.1069 2.2571 18.2814 -3.8666 29.9480 -6.1842
# 6 -14.5290 -22.4188 -16.0824 1.0026 -6.1842 37.2998
#
#
#
# Elastic Compliance Matrix: (Units=1/GPa)
#
#
# Indices 1 2 3 4 5 6 
#
# 1 0.012356 -0.004495 -0.002092 -0.000952 -0.005499 0.000324
# 2 -0.004495 0.010800 -0.003671 0.001768 0.005037 0.003945
# 3 -0.002092 -0.003671 0.018310 0.000497 -0.008944 0.003377
# 4 -0.000952 0.001768 0.000497 0.027693 0.003847 0.000800
# 5 -0.005499 0.005037 -0.008944 0.003847 0.042945 0.004046
# 6 0.000324 0.003945 0.003377 0.000800 0.004046 0.031413
#
#
# Mechanical properties :
#
#
# Convention : Reuss Voigt Hill
#
# Bulk Modulus (GPa) = 47.72789 66.87365 57.30077
# Shear Modulus (GPa) = 29.23726 34.15538 31.69632
#
# Velocity S-wave (km/s) = 3.80281 4.11023 3.95950
# Velocity P-wave (km/s) = 6.54897 7.45670 7.01753
#
# Compressibility (1/GPa) = 0.02095211
#
# Stress axis : x y z
#
# Youngs Moduli (GPa) = 80.93184 92.59288 54.61417
#
# Poissons Ratio (x) = 0.41618 0.11423
# Poissons Ratio (y) = 0.36377 0.20047
# Poissons Ratio (z) = 0.16928 0.33988
#
# Static dielectric constant tensor:
#      x y z
#    x 3.446080 -0.471780 -0.262110 
#    y -0.471780 3.645930 -0.244740 
#    z -0.262110 -0.244740 3.526180 
# 
# 
# High freq. dielectric constant tensor:
#      x y z
#    x 1.781490 0.001850 -0.003360 
#    y 0.001850 1.803420 -0.004860 
#    z -0.003360 -0.004860 1.792940 
# 
# From -- ./inp_files/261482.got.cif
#   From: 2010.06.25/outbox.cif.g09.slc.cpg/sg2_131_cif.got.tgz:261482.got - 2010.06.27 13:26:56.
