data_PCOD8005089
_publ_section_title
;
Structure prediction by ZEFSAII (Michael W. Deem and Ramdas Pophale) SiO2 
 PCOD8005089
Probable space group: P -1
;
_chemical_formula_sum "Si O2"
_cell_formula_units_Z 16
_cell_length_a 14.671119
_cell_length_b 7.653982
_cell_length_c 9.067841
_cell_angle_alpha 97.557390
_cell_angle_beta 135.246821
_cell_angle_gamma 96.309810
_cell_volume 679.857502
_symmetry_space_group_name_H-M "P -1"
_symmetry_group_IT_number 2
_symmetry_cell_setting 'triclinic'
loop_
_space_group_symop_operation_xyz
x,y,z
-x,-y,-z
loop_
_atom_site_type_symbol
_atom_site_label
_atom_site_fract_x
_atom_site_fract_y
_atom_site_fract_z
Si Si1 0.336101 0.096018 0.882121
Si Si2 0.563810 0.510435 0.916958
Si Si3 0.094023 0.712725 0.952493
Si Si4 0.916629 0.678070 0.017845
Si Si5 0.081044 0.981809 0.737113
Si Si6 0.602497 0.219051 0.743770
Si Si7 0.647844 0.437499 0.547147
Si Si8 0.597649 0.065509 0.333956
O O1 0.223057 0.959527 0.837202
O O2 0.320096 0.045707 0.682141
O O3 0.317833 0.296425 0.922174
O O4 0.483689 0.099839 0.101683
O O5 0.626063 0.342759 0.935867
O O6 0.445752 0.490502 0.659958
O O7 0.500000 0.500000 0.000000
O O8 0.063155 0.491129 0.878576
O O9 0.021456 0.797299 0.747574
O O10 0.255775 0.818067 0.142064
O O11 0.039640 0.756546 0.053703
O O12 0.904565 0.840959 0.125695
O O13 0.779327 0.602731 0.756636
O O14 0.000000 0.000000 0.500000
O O15 0.562852 0.345589 0.585371
O O16 0.475290 0.038175 0.611808
O O17 0.694810 0.267192 0.510189
#
# Coordination Sequence:
#
# PCOD8005089 Si02
#       8
#     2   2   2   2   2   2   2   2
#     4  10  21  39  61  95 133 169 214 276 330 402
#     4  11  22  39  63  96 137 177 212 268 341 394
#     4  10  23  45  72  95 132 183 223 282 336 392
#     4  10  24  49  69  97 136 176 231 284 331 401
#     4  12  26  44  71 102 134 176 230 280 344 399
#     4  11  20  40  64  96 128 173 221 272 326 396
#     4  10  23  39  64  96 132 174 219 270 333 392
#     4  10  20  38  64  93 132 168 214 268 327 393
#
# _framework density 23.534343
#
# number of rings (size 3 to 8) (size 9 to 14) (size 15 to 20)
#    0.000    1.500    2.500    2.625    0.000    5.500 
#    4.500    0.000    0.000    0.000    0.000    0.000 
#    0.000    0.000    0.000    0.000    0.000    0.000 
#
# Total GULP energy -198237.480721 kJ/mol
# GULP energy per Si atom -12389.842545 kJ/mol
# Density = 2.348078 g / cm^3
# Si number density = 23.534343 Si / 1000 Ang^3
#
#
#
# Elastic Constant Matrix: (Units=GPa)
#
#
# Indices 1 2 3 4 5 6 
#
# 1 142.1246 40.7232 44.4079 2.9201 -14.9765 8.2111
# 2 40.7232 95.9298 35.6289 -4.2774 -6.9553 11.9472
# 3 44.4079 35.6289 93.5619 4.6820 -20.7238 -0.8450
# 4 2.9201 -4.2774 4.6820 34.7500 8.0298 -14.2539
# 5 -14.9765 -6.9553 -20.7238 8.0298 21.1762 1.4703
# 6 8.2111 11.9472 -0.8450 -14.2539 1.4703 39.5725
#
#
#
# Elastic Compliance Matrix: (Units=1/GPa)
#
#
# Indices 1 2 3 4 5 6 
#
# 1 0.009150 -0.002555 -0.002202 -0.002853 0.004724 -0.002378
# 2 -0.002555 0.013472 -0.004554 0.001844 -0.002337 -0.002883
# 3 -0.002202 -0.004554 0.017540 -0.007018 0.016839 -0.000947
# 4 -0.002853 0.001844 -0.007018 0.042775 -0.025628 0.016245
# 5 0.004724 -0.002337 0.016839 -0.025628 0.076826 -0.012001
# 6 -0.002378 -0.002883 -0.000947 0.016245 -0.012001 0.032911
#
#
# Mechanical properties :
#
#
# Convention : Reuss Voigt Hill
#
# Bulk Modulus (GPa) = 46.42493 63.68180 55.05337
# Shear Modulus (GPa) = 22.88583 33.15683 28.02133
#
# Velocity S-wave (km/s) = 3.12179 3.75756 3.45433
# Velocity P-wave (km/s) = 5.72393 6.77817 6.27323
#
# Compressibility (1/GPa) = 0.02154015
#
# Stress axis : x y z
#
# Youngs Moduli (GPa) = 109.28892 74.22824 57.01284
#
# Poissons Ratio (x) = 0.18965 0.12556
# Poissons Ratio (y) = 0.27923 0.25961
# Poissons Ratio (z) = 0.24070 0.33800
#
# Static dielectric constant tensor:
#      x y z
#    x 4.776990 -0.345860 -0.643650 
#    y -0.345860 5.654770 0.941470 
#    z -0.643650 0.941470 4.665450 
# 
# 
# High freq. dielectric constant tensor:
#      x y z
#    x 1.945220 0.001640 -0.026900 
#    y 0.001640 1.935140 0.003060 
#    z -0.026900 0.003060 1.904380 
# 
# From -- ./inp_files/295874.got.cif
#   From: 2010.06.25/outbox.cif.g09.slc.cpg/sg2_148_cif.got.tgz:295874.got - 2010.06.27 13:26:56.
