data_PCOD8005568
_publ_section_title
;
Structure prediction by ZEFSAII (Michael W. Deem and Ramdas Pophale) SiO2 
 PCOD8005568
Probable space group: P -1
;
_chemical_formula_sum "Si O2"
_cell_formula_units_Z 16
_cell_length_a 13.567061
_cell_length_b 18.829227
_cell_length_c 21.944721
_cell_angle_alpha 17.972183
_cell_angle_beta 151.577764
_cell_angle_gamma 151.992252
_cell_volume 781.252633
_symmetry_space_group_name_H-M "P -1"
_symmetry_group_IT_number 2
_symmetry_cell_setting 'triclinic'
loop_
_space_group_symop_operation_xyz
x,y,z
-x,-y,-z
loop_
_atom_site_type_symbol
_atom_site_label
_atom_site_fract_x
_atom_site_fract_y
_atom_site_fract_z
Si Si1 0.762290 0.654274 0.654153
Si Si2 0.940423 0.975434 0.306217
Si Si3 0.261231 0.517841 0.347420
Si Si4 0.112990 0.956521 0.917093
Si Si5 0.556933 0.808433 0.607236
Si Si6 0.202879 0.854711 0.791840
Si Si7 0.549704 0.605039 0.203590
Si Si8 0.601324 0.754880 0.814494
O O1 0.795553 0.499085 0.741276
O O2 0.542577 0.518994 0.681207
O O3 0.965635 0.674121 0.792641
O O4 0.744751 0.911644 0.413662
O O5 0.913083 0.697256 0.535258
O O6 0.853061 0.981243 0.186382
O O7 0.796870 0.075853 0.193295
O O8 0.191732 0.130178 0.324776
O O9 0.500000 0.500000 0.500000
O O10 0.243770 0.769858 0.157517
O O11 0.861313 0.838880 0.892661
O O12 0.216275 0.197118 0.817042
O O13 0.414968 0.590783 0.664793
O O14 0.518901 0.724221 0.725163
O O15 0.481046 0.042588 0.362813
O O16 0.386085 0.729586 0.981821
O O17 0.500000 0.500000 0.000000
#
# Coordination Sequence:
#
# PCOD8005568 Si02
#       8
#     2   2   2   2   2   2   2   2
#     4  10  21  34  56  85 126 165 201 234 281 343
#     4  10  20  39  60  84 122 161 204 240 282 349
#     4  11  22  36  56  88 128 164 200 238 281 351
#     4  11  24  38  62  88 118 163 194 241 311 349
#     4  10  23  40  64  90 111 150 199 254 297 351
#     4  10  21  35  55  90 125 162 202 237 279 347
#     4  12  23  37  58  91 128 153 193 246 297 353
#     4  10  23  46  67  85 109 149 204 252 301 363
#
# _framework density 20.479932000000002
#
# number of rings (size 3 to 8) (size 9 to 14) (size 15 to 20)
#    0.000    1.500    1.250    4.125    3.500    3.000 
#    0.000    0.625    0.000    0.000    0.000    0.000 
#    0.000    0.000    0.000    0.000    0.000    0.000 
#
# Total GULP energy -198482.231349 kJ/mol
# GULP energy per Si atom -12405.139459 kJ/mol
# Density = 2.043332 g / cm^3
# Si number density = 20.479932 Si / 1000 Ang^3
#
#
#
# Elastic Constant Matrix: (Units=GPa)
#
#
# Indices 1 2 3 4 5 6 
#
# 1 72.9536 43.8966 50.9629 -13.2481 -2.2430 -4.5343
# 2 43.8966 123.2101 46.6186 -18.6593 -1.9311 -15.5726
# 3 50.9629 46.6186 110.3838 -9.4591 8.6019 -9.1996
# 4 -13.2481 -18.6593 -9.4591 33.9057 -1.5684 3.4757
# 5 -2.2430 -1.9311 8.6019 -1.5684 31.6956 -6.7266
# 6 -4.5343 -15.5726 -9.1996 3.4757 -6.7266 27.0864
#
#
#
# Elastic Compliance Matrix: (Units=1/GPa)
#
#
# Indices 1 2 3 4 5 6 
#
# 1 0.023504 -0.004373 -0.009016 0.004569 0.003797 -0.001285
# 2 -0.004373 0.011868 -0.002413 0.003707 0.002396 0.005391
# 3 -0.009016 -0.002413 0.014592 -0.001100 -0.004573 0.001065
# 4 0.004569 0.003707 -0.001100 0.033237 0.002241 -0.001186
# 5 0.003797 0.002396 -0.004573 0.002241 0.035209 0.008916
# 6 -0.001285 0.005391 0.001065 -0.001186 0.008916 0.042531
#
#
# Mechanical properties :
#
#
# Convention : Reuss Voigt Hill
#
# Bulk Modulus (GPa) = 54.46920 65.50042 59.98481
# Shear Modulus (GPa) = 25.16821 29.54216 27.35519
#
# Velocity S-wave (km/s) = 3.50940 3.80214 3.65870
# Velocity P-wave (km/s) = 6.56318 7.16430 6.87031
#
# Compressibility (1/GPa) = 0.01835900
#
# Stress axis : x y z
#
# Youngs Moduli (GPa) = 42.54678 84.26338 68.53287
#
# Poissons Ratio (x) = 0.36852 0.61787
# Poissons Ratio (y) = 0.18608 0.16534
# Poissons Ratio (z) = 0.38359 0.20329
#
# Static dielectric constant tensor:
#      x y z
#    x 3.598090 -0.100580 -0.096020 
#    y -0.100580 3.770640 -0.193510 
#    z -0.096020 -0.193510 3.742850 
# 
# 
# High freq. dielectric constant tensor:
#      x y z
#    x 1.785630 -0.005860 -0.010820 
#    y -0.005860 1.804360 -0.013110 
#    z -0.010820 -0.013110 1.808540 
# 
# From -- ./inp_files/399098.got.cif
#   From: 2010.06.25/outbox.cif.g09.slc.cpg/sg2_200_cif.got.tgz:399098.got - 2010.06.27 13:26:56.
