data_PCOD8005448
_publ_section_title
;
Structure prediction by ZEFSAII (Michael W. Deem and Ramdas Pophale) SiO2 
 PCOD8005448
Probable space group: P -1
;
_chemical_formula_sum "Si O2"
_cell_formula_units_Z 16
_cell_length_a 19.964342
_cell_length_b 10.988430
_cell_length_c 8.796505
_cell_angle_alpha 107.199241
_cell_angle_beta 141.731132
_cell_angle_gamma 44.492234
_cell_volume 664.328472
_symmetry_space_group_name_H-M "P -1"
_symmetry_group_IT_number 2
_symmetry_cell_setting 'triclinic'
loop_
_space_group_symop_operation_xyz
x,y,z
-x,-y,-z
loop_
_atom_site_type_symbol
_atom_site_label
_atom_site_fract_x
_atom_site_fract_y
_atom_site_fract_z
Si Si1 0.906626 0.975224 0.525618
Si Si2 0.847612 0.737179 0.381391
Si Si3 0.387223 0.590515 0.679435
Si Si4 0.203009 0.087305 0.152555
Si Si5 0.300698 0.194851 0.148039
Si Si6 0.349424 0.139884 0.649071
Si Si7 0.736247 0.230718 0.999100
Si Si8 0.791864 0.508914 0.691279
O O1 0.893326 0.838932 0.472308
O O2 0.125558 0.802256 0.849714
O O3 0.796921 0.144627 0.536595
O O4 0.818309 0.106311 0.259844
O O5 0.833594 0.718975 0.525881
O O6 0.000000 0.500000 0.500000
O O7 0.671895 0.858091 0.005019
O O8 0.330904 0.499010 0.518072
O O9 0.500000 0.500000 0.000000
O O10 0.530596 0.488940 0.759038
O O11 0.178760 0.193532 0.994670
O O12 0.359266 0.010160 0.504244
O O13 0.000622 0.270826 0.934406
O O14 0.283272 0.871321 0.183913
O O15 0.207080 0.418397 0.116666
O O16 0.500000 0.000000 0.500000
O O17 0.307384 0.310695 0.548930
O O18 0.500000 0.000000 0.000000
#
# Coordination Sequence:
#
# PCOD8005448 Si02
#       8
#     2   2   2   2   2   2   2   2
#     4  10  22  40  63 104 130 169 227 290 330 392
#     4  12  24  42  64  96 135 176 212 270 349 407
#     4  10  22  36  67 101 129 168 229 289 327 387
#     4  11  20  41  65  95 128 175 231 279 330 399
#     4  11  22  37  64  92 127 170 231 278 317 397
#     4  11  26  39  62  96 141 179 213 281 347 405
#     4  10  20  38  70  98 128 173 232 283 328 392
#     4  11  22  41  66  98 127 175 232 280 333 397
#
# _framework density 24.084472999999999
#
# number of rings (size 3 to 8) (size 9 to 14) (size 15 to 20)
#    0.000    1.250    2.500    5.250    5.250    0.000 
#    0.000    0.625    0.000    0.750    0.000    0.000 
#    0.000    0.000    0.000    0.000    0.000    0.000 
#
# Total GULP energy -198247.354506 kJ/mol
# GULP energy per Si atom -12390.459657 kJ/mol
# Density = 2.402966 g / cm^3
# Si number density = 24.084473 Si / 1000 Ang^3
#
#
#
# Elastic Constant Matrix: (Units=GPa)
#
#
# Indices 1 2 3 4 5 6 
#
# 1 76.1204 59.4132 21.3612 5.1265 16.0330 -9.1013
# 2 59.4132 169.9859 33.2597 9.3217 18.9827 -8.6431
# 3 21.3612 33.2597 78.2702 6.0158 19.7687 4.7019
# 4 5.1265 9.3217 6.0158 42.5272 -5.4482 9.8534
# 5 16.0330 18.9827 19.7687 -5.4482 39.8397 0.7839
# 6 -9.1013 -8.6431 4.7019 9.8534 0.7839 42.3458
#
#
#
# Elastic Compliance Matrix: (Units=1/GPa)
#
#
# Indices 1 2 3 4 5 6 
#
# 1 0.019700 -0.005670 -0.001826 -0.002388 -0.004724 0.003922
# 2 -0.005670 0.008447 -0.001730 -0.001298 -0.001082 0.001020
# 3 -0.001826 -0.001730 0.015950 -0.002058 -0.006599 -0.001915
# 4 -0.002388 -0.001298 -0.002058 0.026797 0.006401 -0.006904
# 5 -0.004724 -0.001082 -0.006599 0.006401 0.031718 -0.002580
# 6 0.003922 0.001020 -0.001915 -0.006904 -0.002580 0.026533
#
#
# Mechanical properties :
#
#
# Convention : Reuss Voigt Hill
#
# Bulk Modulus (GPa) = 38.99538 61.38272 50.18905
# Shear Modulus (GPa) = 32.02127 38.96538 35.49332
#
# Velocity S-wave (km/s) = 3.65024 4.02663 3.84305
# Velocity P-wave (km/s) = 5.83026 6.86732 6.36993
#
# Compressibility (1/GPa) = 0.02564406
#
# Stress axis : x y z
#
# Youngs Moduli (GPa) = 50.76125 118.38360 62.69684
#
# Poissons Ratio (x) = 0.67128 0.11448
# Poissons Ratio (y) = 0.28784 0.10847
# Poissons Ratio (z) = 0.09269 0.20482
#
# Static dielectric constant tensor:
#      x y z
#    x 5.207120 -0.648610 0.585780 
#    y -0.648610 5.083250 -0.078200 
#    z 0.585780 -0.078200 4.090880 
# 
# 
# High freq. dielectric constant tensor:
#      x y z
#    x 1.954930 -0.027870 0.026020 
#    y -0.027870 1.966420 0.010470 
#    z 0.026020 0.010470 1.959060 
# 
# From -- ./inp_files/346246.got.cif
#   From: 2010.06.25/outbox.cif.g09.slc.cpg/sg2_174_cif.got.tgz:346246.got - 2010.06.27 13:26:56.
