data_PCOD8005868
_publ_section_title
;
Structure prediction by ZEFSAII (Michael W. Deem and Ramdas Pophale) SiO2 
 PCOD8005868
Probable space group: P -1
;
_chemical_formula_sum "Si O2"
_cell_formula_units_Z 16
_cell_length_a 9.221332
_cell_length_b 14.396382
_cell_length_c 9.609391
_cell_angle_alpha 139.597353
_cell_angle_beta 117.312091
_cell_angle_gamma 63.541985
_cell_volume 724.356790
_symmetry_space_group_name_H-M "P -1"
_symmetry_group_IT_number 2
_symmetry_cell_setting 'triclinic'
loop_
_space_group_symop_operation_xyz
x,y,z
-x,-y,-z
loop_
_atom_site_type_symbol
_atom_site_label
_atom_site_fract_x
_atom_site_fract_y
_atom_site_fract_z
Si Si1 0.690141 0.922287 0.319021
Si Si2 0.170930 0.469406 0.459546
Si Si3 0.837738 0.837218 0.006786
Si Si4 0.805162 0.101699 0.822110
Si Si5 0.363402 0.959162 0.065594
Si Si6 0.366119 0.647139 0.588678
Si Si7 0.513746 0.698040 0.135189
Si Si8 0.497484 0.607166 0.317741
O O1 0.828063 0.870399 0.204314
O O2 0.525978 0.002883 0.259078
O O3 0.646514 0.789171 0.237972
O O4 0.765685 0.024894 0.575135
O O5 0.193708 0.606608 0.525983
O O6 0.316579 0.440104 0.601687
O O7 0.000000 0.500000 0.500000
O O8 0.180043 0.329185 0.206679
O O9 0.012002 0.864337 0.057017
O O10 0.690026 0.938444 0.973341
O O11 0.783414 0.011180 0.849945
O O12 0.670252 0.248305 0.945356
O O13 0.408259 0.788608 0.846955
O O14 0.500000 0.500000 0.500000
O O15 0.367848 0.681021 0.462839
O O16 0.504392 0.718312 0.321271
O O17 0.574260 0.532416 0.929531
#
# Coordination Sequence:
#
# PCOD8005868 Si02
#       8
#     2   2   2   2   2   2   2   2
#     4  11  23  40  64  90 126 164 204 257 312 367
#     4  11  22  38  64  91 126 161 208 251 322 359
#     4  12  25  40  64  96 127 161 213 261 306 370
#     4  11  24  41  61  87 133 166 197 257 322 363
#     4  11  23  41  66  94 121 165 218 255 301 375
#     4  10  20  39  63  91 125 158 210 258 309 356
#     4  10  21  40  62  87 123 160 212 246 315 370
#     4  10  21  37  64  89 116 164 208 258 294 382
#
# _framework density 22.088564999999999
#
# number of rings (size 3 to 8) (size 9 to 14) (size 15 to 20)
#    0.000    1.250    0.000    9.375    5.250    0.000 
#    0.000    0.000    0.000    4.500    0.000    0.000 
#    0.000    0.000    0.000    0.000    0.000    0.000 
#
# Total GULP energy -198365.832570 kJ/mol
# GULP energy per Si atom -12397.864536 kJ/mol
# Density = 2.203829 g / cm^3
# Si number density = 22.088565 Si / 1000 Ang^3
#
#
#
# Elastic Constant Matrix: (Units=GPa)
#
#
# Indices 1 2 3 4 5 6 
#
# 1 80.1599 12.3369 -7.5454 -9.3783 -9.8183 18.3328
# 2 12.3369 65.3464 16.0289 -13.0989 -6.9992 15.8014
# 3 -7.5454 16.0289 97.9858 -4.0132 -8.2296 6.1113
# 4 -9.3783 -13.0989 -4.0132 32.6799 6.3930 -12.4827
# 5 -9.8183 -6.9992 -8.2296 6.3930 40.7104 -9.6175
# 6 18.3328 15.8014 6.1113 -12.4827 -9.6175 27.7309
#
#
#
# Elastic Compliance Matrix: (Units=1/GPa)
#
#
# Indices 1 2 3 4 5 6 
#
# 1 0.015161 -0.000875 0.002043 0.000404 0.001680 -0.009210
# 2 -0.000875 0.018757 -0.002485 0.003993 0.000055 -0.007745
# 3 0.002043 -0.002485 0.011034 -0.000095 0.001897 -0.001751
# 4 0.000404 0.003993 -0.000095 0.037995 -0.001914 0.013918
# 5 0.001680 0.000055 0.001897 -0.001914 0.027329 0.007057
# 6 -0.009210 -0.007745 -0.001751 0.013918 0.007057 0.055661
#
#
# Mechanical properties :
#
#
# Convention : Reuss Voigt Hill
#
# Bulk Modulus (GPa) = 23.63057 31.68142 27.65600
# Shear Modulus (GPa) = 27.37047 35.06901 31.21974
#
# Velocity S-wave (km/s) = 3.52394 3.98886 3.76359
# Velocity P-wave (km/s) = 5.22292 5.96563 5.60658
#
# Compressibility (1/GPa) = 0.04231806
#
# Stress axis : x y z
#
# Youngs Moduli (GPa) = 65.95654 53.31367 90.62917
#
# Poissons Ratio (x) = 0.04667 -0.18514
# Poissons Ratio (y) = 0.05774 0.22517
# Poissons Ratio (z) = -0.13473 0.13246
#
# Static dielectric constant tensor:
#      x y z
#    x 4.204400 0.486130 -0.205180 
#    y 0.486130 4.015890 -0.091470 
#    z -0.205180 -0.091470 4.087860 
# 
# 
# High freq. dielectric constant tensor:
#      x y z
#    x 1.869510 0.033460 -0.013000 
#    y 0.033460 1.851420 -0.002070 
#    z -0.013000 -0.002070 1.886570 
# 
# From -- ./inp_files/209527.got.cif
#   From: 2010.06.25/outbox.cif.g09.slc.cpg/sg2_105_cif.got.tgz:209527.got - 2010.06.27 13:26:56.
