data_PCOD8005735
_publ_section_title
;
Structure prediction by ZEFSAII (Michael W. Deem and Ramdas Pophale) SiO2 
 PCOD8005735
Probable space group: P -1
;
_chemical_formula_sum "Si O2"
_cell_formula_units_Z 14
_cell_length_a 8.595823
_cell_length_b 14.236378
_cell_length_c 15.412777
_cell_angle_alpha 41.303793
_cell_angle_beta 37.169343
_cell_angle_gamma 41.243254
_cell_volume 694.354179
_symmetry_space_group_name_H-M "P -1"
_symmetry_group_IT_number 2
_symmetry_cell_setting 'triclinic'
loop_
_space_group_symop_operation_xyz
x,y,z
-x,-y,-z
loop_
_atom_site_type_symbol
_atom_site_label
_atom_site_fract_x
_atom_site_fract_y
_atom_site_fract_z
Si Si1 0.815021 0.396555 0.725738
Si Si2 0.928939 0.681700 0.508054
Si Si3 0.301342 0.826707 0.746890
Si Si4 0.187802 0.600873 0.839003
Si Si5 0.207170 0.120969 0.280169
Si Si6 0.758318 0.149825 0.038199
Si Si7 0.989189 0.094621 0.574945
O O1 0.975421 0.502417 0.616516
O O2 0.510197 0.493416 0.752054
O O3 0.000924 0.285154 0.644723
O O4 0.800769 0.300685 0.882272
O O5 0.614305 0.781977 0.605787
O O6 0.123021 0.731485 0.455106
O O7 0.180705 0.696867 0.863497
O O8 0.265982 0.845430 0.851740
O O9 0.136245 0.990033 0.663690
O O10 0.069271 0.729678 0.726413
O O11 0.000000 0.500000 0.000000
O O12 0.475271 0.156611 0.114484
O O13 0.201786 0.083697 0.409805
O O14 0.240187 0.966018 0.318754
O O15 0.000000 0.000000 0.000000
#
# Coordination Sequence:
#
# PCOD8005735 Si02
#       7
#     2   2   2   2   2   2   2
#     4  10  23  38  63  92 123 157 201 252 297 354
#     4  10  20  39  62  88 120 160 201 245 299 354
#     4  10  22  37  66  88 119 166 201 242 304 357
#     4  10  20  41  60  86 126 162 196 244 305 359
#     4  10  22  38  63  89 119 162 202 244 302 353
#     4  12  24  40  62  96 120 155 202 256 299 359
#     4  10  20  39  62  89 119 162 202 246 294 363
#
# _framework density 20.162621000000001
#
# number of rings (size 3 to 8) (size 9 to 14) (size 15 to 20)
#    0.000    1.714    2.857    1.286    2.000    3.429 
#    5.143    2.857    0.000    0.000    0.000    0.000 
#    0.000    0.000    0.000    0.000    0.000    0.000 
#
# Total GULP energy -173489.807468 kJ/mol
# GULP energy per Si atom -12392.129105 kJ/mol
# Density = 2.011673 g / cm^3
# Si number density = 20.162621 Si / 1000 Ang^3
#
#
#
# Elastic Constant Matrix: (Units=GPa)
#
#
# Indices 1 2 3 4 5 6 
#
# 1 116.7676 63.8148 61.9280 -4.8451 12.5729 29.8184
# 2 63.8148 90.1072 46.4783 2.8493 6.3722 20.2031
# 3 61.9280 46.4783 115.0702 -7.4931 15.5250 14.1652
# 4 -4.8451 2.8493 -7.4931 35.1055 11.6244 -3.5046
# 5 12.5729 6.3722 15.5250 11.6244 25.1462 -7.2351
# 6 29.8184 20.2031 14.1652 -3.5046 -7.2351 44.1749
#
#
#
# Elastic Compliance Matrix: (Units=1/GPa)
#
#
# Indices 1 2 3 4 5 6 
#
# 1 0.018961 -0.008944 -0.003943 0.004776 -0.009466 -0.008615
# 2 -0.008944 0.019599 -0.003738 -0.004995 0.003685 -0.001520
# 3 -0.003943 -0.003738 0.013960 0.005457 -0.008530 -0.001070
# 4 0.004776 -0.004995 0.005457 0.038003 -0.023051 -0.003449
# 5 -0.009466 0.003685 -0.008530 -0.023051 0.064125 0.016113
# 6 -0.008615 -0.001520 -0.001070 -0.003449 0.016113 0.031856
#
#
# Mechanical properties :
#
#
# Convention : Reuss Voigt Hill
#
# Bulk Modulus (GPa) = 51.89651 74.04301 62.96976
# Shear Modulus (GPa) = 22.10659 30.86690 26.48674
#
# Velocity S-wave (km/s) = 3.31481 3.91691 3.62837
# Velocity P-wave (km/s) = 6.35967 7.56696 6.98943
#
# Compressibility (1/GPa) = 0.01926912
#
# Stress axis : x y z
#
# Youngs Moduli (GPa) = 52.74067 51.02428 71.63342
#
# Poissons Ratio (x) = 0.45638 0.28244
# Poissons Ratio (y) = 0.47173 0.26775
# Poissons Ratio (z) = 0.20795 0.19072
#
# Static dielectric constant tensor:
#      x y z
#    x 3.913330 0.333090 -0.159370 
#    y 0.333090 3.703840 -0.220820 
#    z -0.159370 -0.220820 3.747740 
# 
# 
# High freq. dielectric constant tensor:
#      x y z
#    x 1.786970 0.023960 -0.006300 
#    y 0.023960 1.777840 -0.020830 
#    z -0.006300 -0.020830 1.792490 
# 
# From -- ./inp_files/158263.got.cif
#   From: 2010.06.25/outbox.cif.g09.slc.cpg/sg2_80_cif.got.tgz:158263.got - 2010.06.27 13:26:56.
