data_PCOD8005584
_publ_section_title
;
Structure prediction by ZEFSAII (Michael W. Deem and Ramdas Pophale) SiO2 
 PCOD8005584
Probable space group: P -1
;
_chemical_formula_sum "Si O2"
_cell_formula_units_Z 14
_cell_length_a 30.761954
_cell_length_b 12.728728
_cell_length_c 15.481438
_cell_angle_alpha 146.069826
_cell_angle_beta 19.832712
_cell_angle_gamma 158.632374
_cell_volume 694.778815
_symmetry_space_group_name_H-M "P -1"
_symmetry_group_IT_number 2
_symmetry_cell_setting 'triclinic'
loop_
_space_group_symop_operation_xyz
x,y,z
-x,-y,-z
loop_
_atom_site_type_symbol
_atom_site_label
_atom_site_fract_x
_atom_site_fract_y
_atom_site_fract_z
Si Si1 0.503029 0.072355 0.366756
Si Si2 0.069768 0.218639 0.943954
Si Si3 0.095024 0.127230 0.643012
Si Si4 0.558641 0.717778 0.965944
Si Si5 0.857842 0.747983 0.670496
Si Si6 0.906730 0.386480 0.299502
Si Si7 0.195976 0.653369 0.792274
O O1 0.685220 0.439415 0.264399
O O2 0.588594 0.962650 0.113551
O O3 0.302114 0.882392 0.551778
O O4 0.417800 0.992743 0.571301
O O5 0.031505 0.066601 0.820628
O O6 0.918421 0.226769 0.236043
O O7 0.000000 0.000000 0.000000
O O8 0.222920 0.460665 0.601300
O O9 0.227683 0.094721 0.353412
O O10 0.891783 0.885152 0.793570
O O11 0.384384 0.508468 0.074334
O O12 0.500000 0.500000 0.000000
O O13 0.912139 0.591956 0.475847
O O14 0.000000 0.000000 0.500000
O O15 0.135274 0.635514 0.991597
O O16 0.000000 0.500000 0.000000
#
# Coordination Sequence:
#
# PCOD8005584 Si02
#       7
#     2   2   2   2   2   2   2
#     4  10  20  39  60  87 123 159 193 251 303 362
#     4  11  26  43  61  82 115 167 224 255 279 333
#     4  11  22  37  57  89 121 157 195 241 308 356
#     4  11  20  35  59  94 125 152 188 228 311 380
#     4  11  20  34  60  90 130 154 177 239 304 382
#     4   9  21  37  60  88 120 157 198 242 314 356
#     4   9  17  33  54  87 121 150 189 233 305 380
#
# _framework density 20.150297999999999
#
# number of rings (size 3 to 8) (size 9 to 14) (size 15 to 20)
#    0.000    1.714    2.857    2.571    0.000    7.429 
#    0.000    2.857    0.000    3.429    0.000    0.000 
#    0.000    0.000    0.000    0.000    0.000    0.000 
#
# Total GULP energy -173513.569463 kJ/mol
# GULP energy per Si atom -12393.826390 kJ/mol
# Density = 2.010443 g / cm^3
# Si number density = 20.150298 Si / 1000 Ang^3
#
#
#
# Elastic Constant Matrix: (Units=GPa)
#
#
# Indices 1 2 3 4 5 6 
#
# 1 115.3086 69.6955 37.8392 8.5299 7.9890 -10.2036
# 2 69.6955 106.6427 34.0073 -3.8531 7.9648 -5.9696
# 3 37.8392 34.0073 83.1219 6.9016 -10.9495 -9.3816
# 4 8.5299 -3.8531 6.9016 20.8856 -4.3975 -3.4336
# 5 7.9890 7.9648 -10.9495 -4.3975 23.5278 6.7353
# 6 -10.2036 -5.9696 -9.3816 -3.4336 6.7353 40.7591
#
#
#
# Elastic Compliance Matrix: (Units=1/GPa)
#
#
# Indices 1 2 3 4 5 6 
#
# 1 0.016970 -0.009608 -0.003679 -0.008465 -0.006477 0.002352
# 2 -0.009608 0.017379 -0.003733 0.007799 -0.003026 0.000438
# 3 -0.003679 -0.003733 0.016789 -0.002602 0.009674 0.000579
# 4 -0.008465 0.007799 -0.002602 0.055796 0.008983 0.001640
# 5 -0.006477 -0.003026 0.009674 0.008983 0.054209 -0.008039
# 6 0.002352 0.000438 0.000579 0.001640 -0.008039 0.026787
#
#
# Mechanical properties :
#
#
# Convention : Reuss Voigt Hill
#
# Bulk Modulus (GPa) = 58.49060 65.35081 61.92070
# Shear Modulus (GPa) = 21.96162 27.93656 24.94909
#
# Velocity S-wave (km/s) = 3.30493 3.72749 3.52255
# Velocity P-wave (km/s) = 6.60709 7.14337 6.88045
#
# Compressibility (1/GPa) = 0.01709676
#
# Stress axis : x y z
#
# Youngs Moduli (GPa) = 58.92761 57.54107 59.56439
#
# Poissons Ratio (x) = 0.55284 0.21916
# Poissons Ratio (y) = 0.56616 0.22237
# Poissons Ratio (z) = 0.21682 0.21481
#
# Static dielectric constant tensor:
#      x y z
#    x 3.682180 0.325550 -0.071290 
#    y 0.325550 3.362600 0.009310 
#    z -0.071290 0.009310 3.795810 
# 
# 
# High freq. dielectric constant tensor:
#      x y z
#    x 1.777120 0.028300 -0.031580 
#    y 0.028300 1.769590 0.017390 
#    z -0.031580 0.017390 1.789860 
# 
# From -- ./inp_files/256154.got.cif
#   From: 2010.06.25/outbox.cif.g09.slc.cpg/sg2_129_cif.got.tgz:256154.got - 2010.06.27 13:26:56.
