data_PCOD8005036
_publ_section_title
;
Structure prediction by ZEFSAII (Michael W. Deem and Ramdas Pophale) SiO2 
 PCOD8005036
Probable space group: P -1
;
_chemical_formula_sum "Si O2"
_cell_formula_units_Z 16
_cell_length_a 14.354926
_cell_length_b 11.787642
_cell_length_c 14.677754
_cell_angle_alpha 28.667170
_cell_angle_beta 131.594260
_cell_angle_gamma 142.012014
_cell_volume 730.104082
_symmetry_space_group_name_H-M "P -1"
_symmetry_group_IT_number 2
_symmetry_cell_setting 'triclinic'
loop_
_space_group_symop_operation_xyz
x,y,z
-x,-y,-z
loop_
_atom_site_type_symbol
_atom_site_label
_atom_site_fract_x
_atom_site_fract_y
_atom_site_fract_z
Si Si1 0.856700 0.668471 0.249725
Si Si2 0.549024 0.419413 0.680174
Si Si3 0.686485 0.073358 0.995492
Si Si4 0.354485 0.969086 0.389143
Si Si5 0.230901 0.137490 0.350759
Si Si6 0.017544 0.485384 0.719146
Si Si7 0.302996 0.050499 0.103537
Si Si8 0.989621 0.776114 0.928561
O O1 0.776421 0.369906 0.462568
O O2 0.963449 0.675802 0.237375
O O3 0.957239 0.912693 0.216537
O O4 0.742780 0.723824 0.085849
O O5 0.500000 0.500000 0.500000
O O6 0.399836 0.153189 0.819511
O O7 0.634848 0.701477 0.601712
O O8 0.665821 0.332597 0.799462
O O9 0.865084 0.201506 0.035699
O O10 0.612680 0.903209 0.970901
O O11 0.500000 0.000000 0.500000
O O12 0.303872 0.129314 0.308539
O O13 0.395636 0.106465 0.217228
O O14 0.148182 0.305249 0.171368
O O15 0.097258 0.819690 0.520487
O O16 0.835972 0.290020 0.752442
O O17 0.088724 0.462078 0.875174
#
# Coordination Sequence:
#
# PCOD8005036 Si02
#       8
#     2   2   2   2   2   2   2   2
#     4   9  18  34  57  87 128 169 201 243 308 371
#     4  11  26  47  67  88 127 169 211 265 320 377
#     4   9  24  45  68  93 115 174 215 255 321 376
#     4  11  24  35  56  98 137 167 205 247 309 383
#     4  11  24  39  63  98 127 164 211 262 314 367
#     4   9  18  35  59  95 123 165 203 251 311 364
#     4  10  20  38  64  88 128 165 205 251 308 375
#     4  10  20  39  67  90 126 160 214 263 306 372
#
# _framework density 21.914681999999999
#
# number of rings (size 3 to 8) (size 9 to 14) (size 15 to 20)
#    0.000    2.250    0.000    3.750    5.250    7.000 
#    2.250    4.375    0.000    0.000    0.000    0.000 
#    0.000    0.000    0.000    0.000    0.000    0.000 
#
# Total GULP energy -198289.129107 kJ/mol
# GULP energy per Si atom -12393.070569 kJ/mol
# Density = 2.186480 g / cm^3
# Si number density = 21.914682 Si / 1000 Ang^3
#
#
#
# Elastic Constant Matrix: (Units=GPa)
#
#
# Indices 1 2 3 4 5 6 
#
# 1 84.4876 16.0298 38.6756 10.6384 -2.2598 4.0408
# 2 16.0298 55.9927 30.4707 31.1261 5.3416 -10.9347
# 3 38.6756 30.4707 104.6389 27.3251 -1.6074 -9.9780
# 4 10.6384 31.1261 27.3251 35.8500 -4.4951 0.7383
# 5 -2.2598 5.3416 -1.6074 -4.4951 28.1155 10.0963
# 6 4.0408 -10.9347 -9.9780 0.7383 10.0963 20.8758
#
#
#
# Elastic Compliance Matrix: (Units=1/GPa)
#
#
# Indices 1 2 3 4 5 6 
#
# 1 0.018695 -0.018458 -0.009065 0.020105 0.017291 -0.026694
# 2 -0.018458 0.098012 0.012818 -0.100319 -0.070920 0.098886
# 3 -0.009065 0.012818 0.017683 -0.024319 -0.015038 0.025054
# 4 0.020105 -0.100319 -0.024319 0.140192 0.082195 -0.112773
# 5 0.017291 -0.070920 -0.015038 0.082195 0.097878 -0.097927
# 6 -0.026694 0.098886 0.025054 -0.112773 -0.097927 0.168190
#
#
# Mechanical properties :
#
#
# Convention : Reuss Voigt Hill
#
# Bulk Modulus (GPa) = 9.52558 46.16350 27.84454
# Shear Modulus (GPa) = 8.26373 27.63113 17.94743
#
# Velocity S-wave (km/s) = 1.94398 3.55470 2.86487
# Velocity P-wave (km/s) = 3.06510 6.16106 4.86588
#
# Compressibility (1/GPa) = 0.10498046
#
# Stress axis : x y z
#
# Youngs Moduli (GPa) = 53.48917 10.20284 56.55106
#
# Poissons Ratio (x) = 0.18832 0.51264
# Poissons Ratio (y) = 0.98731 -0.72488
# Poissons Ratio (z) = 0.48488 -0.13078
#
# Static dielectric constant tensor:
#      x y z
#    x 4.040160 -0.064480 -0.101220 
#    y -0.064480 3.768690 0.075220 
#    z -0.101220 0.075220 4.111210 
# 
# 
# High freq. dielectric constant tensor:
#      x y z
#    x 1.857600 -0.001560 -0.004550 
#    y -0.001560 1.841640 0.010130 
#    z -0.004550 0.010130 1.873650 
# 
# From -- ./inp_files/532282.got.cif
#   From: 2010.06.25/outbox.cif.g09.slc.cpg/sg2_267_cif.got.tgz:532282.got - 2010.06.27 13:26:56.
