data_PCOD8005916
_publ_section_title
;
Structure prediction by ZEFSAII (Michael W. Deem and Ramdas Pophale) SiO2 
 PCOD8005916
Probable space group: P -1
;
_chemical_formula_sum "Si O2"
_cell_formula_units_Z 14
_cell_length_a 23.342731
_cell_length_b 25.242569
_cell_length_c 5.204242
_cell_angle_alpha 67.300370
_cell_angle_beta 121.014056
_cell_angle_gamma 163.761400
_cell_volume 654.836595
_symmetry_space_group_name_H-M "P -1"
_symmetry_group_IT_number 2
_symmetry_cell_setting 'triclinic'
loop_
_space_group_symop_operation_xyz
x,y,z
-x,-y,-z
loop_
_atom_site_type_symbol
_atom_site_label
_atom_site_fract_x
_atom_site_fract_y
_atom_site_fract_z
Si Si1 0.157608 0.014446 0.865479
Si Si2 0.413789 0.462537 0.621477
Si Si3 0.370158 0.068743 0.156065
Si Si4 0.777648 0.860368 0.716120
Si Si5 0.249837 0.904513 0.706467
Si Si6 0.088317 0.482242 0.314840
Si Si7 0.214950 0.673330 0.870337
O O1 0.875004 0.765308 0.631405
O O2 0.230342 0.121257 0.622463
O O3 0.325261 0.097335 0.069359
O O4 0.202473 0.074759 0.142821
O O5 0.500000 0.500000 0.500000
O O6 0.521782 0.615373 0.607511
O O7 0.500000 0.500000 0.000000
O O8 0.269212 0.945394 0.386589
O O9 0.666606 0.307720 0.330196
O O10 0.218797 0.927374 0.812205
O O11 0.000000 0.000000 0.000000
O O12 0.505971 0.083083 0.034992
O O13 0.015222 0.667963 0.631572
O O14 0.857483 0.334800 0.090058
O O15 0.204206 0.598749 0.092636
O O16 0.000000 0.500000 0.500000
#
# Coordination Sequence:
#
# PCOD8005916 Si02
#       7
#     2   2   2   2   2   2   2
#     4  12  25  43  64  94 131 161 210 260 309 380
#     4  12  23  39  65  94 123 155 200 255 309 370
#     4  11  26  43  61  92 129 170 210 258 307 379
#     4  12  23  41  69  94 122 164 202 256 325 367
#     4  11  24  41  66  90 127 171 215 255 314 367
#     4  10  23  40  63  92 130 165 212 264 311 371
#     4  10  20  39  63  96 125 162 214 267 312 357
#
# _framework density 21.379379
#
# number of rings (size 3 to 8) (size 9 to 14) (size 15 to 20)
#    0.000    0.857    4.286    2.571    2.000    2.857 
#    0.000    0.000    0.000    0.000    0.000    0.000 
#    0.000    0.000    0.000    0.000    0.000    0.000 
#
# Total GULP energy -173511.362486 kJ/mol
# GULP energy per Si atom -12393.668749 kJ/mol
# Density = 2.133072 g / cm^3
# Si number density = 21.379379 Si / 1000 Ang^3
#
#
#
# Elastic Constant Matrix: (Units=GPa)
#
#
# Indices 1 2 3 4 5 6 
#
# 1 80.0998 16.5738 0.1986 -5.1993 -6.0938 -3.8392
# 2 16.5738 138.1439 20.8678 5.1160 -2.8744 -15.3186
# 3 0.1986 20.8678 55.1884 -4.1707 -5.6373 3.0576
# 4 -5.1993 5.1160 -4.1707 28.8514 -2.2634 -4.0687
# 5 -6.0938 -2.8744 -5.6373 -2.2634 42.8154 -0.6949
# 6 -3.8392 -15.3186 3.0576 -4.0687 -0.6949 30.1169
#
#
#
# Elastic Compliance Matrix: (Units=1/GPa)
#
#
# Indices 1 2 3 4 5 6 
#
# 1 0.013251 -0.001675 0.000971 0.003160 0.002088 0.001214
# 2 -0.001675 0.008515 -0.003597 -0.001746 -0.000164 0.004243
# 3 0.000971 -0.003597 0.020193 0.003488 0.002687 -0.003223
# 4 0.003160 -0.001746 0.003488 0.036857 0.002809 0.004205
# 5 0.002088 -0.000164 0.002687 0.002809 0.024158 0.000847
# 6 0.001214 0.004243 -0.003223 0.004205 0.000847 0.036432
#
#
# Mechanical properties :
#
#
# Convention : Reuss Voigt Hill
#
# Bulk Modulus (GPa) = 29.98078 38.74584 34.36331
# Shear Modulus (GPa) = 31.42111 36.07619 33.74865
#
# Velocity S-wave (km/s) = 3.83782 4.11229 3.97742
# Velocity P-wave (km/s) = 5.80449 6.38046 6.09928
#
# Compressibility (1/GPa) = 0.03335470
#
# Stress axis : x y z
#
# Youngs Moduli (GPa) = 75.46695 117.43940 49.52157
#
# Poissons Ratio (x) = 0.19676 -0.04807
# Poissons Ratio (y) = 0.12644 0.17815
# Poissons Ratio (z) = -0.07326 0.42248
#
# Static dielectric constant tensor:
#      x y z
#    x 3.338960 -0.025660 -0.419260 
#    y -0.025660 3.846670 -0.037440 
#    z -0.419260 -0.037440 3.724780 
# 
# 
# High freq. dielectric constant tensor:
#      x y z
#    x 1.836690 0.002970 -0.009560 
#    y 0.002970 1.847410 0.001230 
#    z -0.009560 0.001230 1.840380 
# 
# From -- ./inp_files/9537.got.cif
#   From: 2010.06.25/outbox.cif.g09.slc.cpg/sg2_5_cif.got.tgz:9537.got - 2010.06.27 13:26:56.
