data_PCOD8005019
_publ_section_title
;
Structure prediction by ZEFSAII (Michael W. Deem and Ramdas Pophale) SiO2 
 PCOD8005019
Probable space group: P -1
;
_chemical_formula_sum "Si O2"
_cell_formula_units_Z 16
_cell_length_a 8.823780
_cell_length_b 15.490674
_cell_length_c 8.705487
_cell_angle_alpha 33.747060
_cell_angle_beta 92.414404
_cell_angle_gamma 101.447714
_cell_volume 631.161691
_symmetry_space_group_name_H-M "P -1"
_symmetry_group_IT_number 2
_symmetry_cell_setting 'triclinic'
loop_
_space_group_symop_operation_xyz
x,y,z
-x,-y,-z
loop_
_atom_site_type_symbol
_atom_site_label
_atom_site_fract_x
_atom_site_fract_y
_atom_site_fract_z
Si Si1 0.828905 0.898148 0.339930
Si Si2 0.848025 0.686098 0.157762
Si Si3 0.400729 0.651425 0.308048
Si Si4 0.639856 0.163928 0.423581
Si Si5 0.410007 0.288894 0.073991
Si Si6 0.173920 0.011167 0.124610
Si Si7 0.809315 0.183976 0.097591
Si Si8 0.506109 0.639565 0.666368
O O1 0.685121 0.732157 0.599673
O O2 0.006333 0.876625 0.364448
O O3 0.823686 0.003536 0.336329
O O4 0.797556 0.998762 0.040838
O O5 0.751786 0.505050 0.465420
O O6 0.777755 0.751264 0.902956
O O7 0.024778 0.684329 0.131224
O O8 0.843216 0.810153 0.110974
O O9 0.520147 0.635396 0.201184
O O10 0.497624 0.686990 0.417767
O O11 0.332224 0.799576 0.042719
O O12 0.674336 0.012923 0.738748
O O13 0.777127 0.221440 0.217801
O O14 0.633507 0.301207 0.344471
O O15 0.470158 0.135770 0.362256
O O16 0.474466 0.441599 0.971182
#
# Coordination Sequence:
#
# PCOD8005019 Si02
#       8
#     2   2   2   2   2   2   2   2
#     4  10  22  40  63  86 116 154 195 240 287 342
#     4  10  20  38  64  86 116 154 195 240 288 341
#     4  10  20  39  65  89 113 149 199 244 285 340
#     4  11  25  40  57  88 123 154 194 238 289 349
#     4  10  22  40  61  88 117 151 193 241 295 344
#     4  10  22  40  61  89 117 150 194 241 291 343
#     4  10  23  39  59  89 120 154 193 237 290 345
#     4  11  22  40  62  85 117 155 196 240 288 341
#
# _framework density 25.350080999999999
#
# number of rings (size 3 to 8) (size 9 to 14) (size 15 to 20)
#    0.000    1.750    0.000    4.500    0.000    9.000 
#    0.000    8.125    0.000    0.000    0.000    0.000 
#    0.000    0.000    0.000    0.000    0.000    0.000 
#
# Total GULP energy -198293.315078 kJ/mol
# GULP energy per Si atom -12393.332192 kJ/mol
# Density = 2.529238 g / cm^3
# Si number density = 25.350081 Si / 1000 Ang^3
#
#
#
# Elastic Constant Matrix: (Units=GPa)
#
#
# Indices 1 2 3 4 5 6 
#
# 1 100.0447 29.5280 9.9837 10.9298 -5.3010 1.9129
# 2 29.5280 106.7203 4.5393 14.4874 -13.7802 -11.5702
# 3 9.9837 4.5393 52.8484 14.9383 2.3574 -3.1628
# 4 10.9298 14.4874 14.9383 32.4531 11.5056 -1.8530
# 5 -5.3010 -13.7802 2.3574 11.5056 41.3579 2.7673
# 6 1.9129 -11.5702 -3.1628 -1.8530 2.7673 51.2269
#
#
#
# Elastic Compliance Matrix: (Units=1/GPa)
#
#
# Indices 1 2 3 4 5 6 
#
# 1 0.011299 -0.002671 -0.001313 -0.002592 0.001440 -0.001278
# 2 -0.002671 0.011904 0.001294 -0.006745 0.005270 0.002340
# 3 -0.001313 0.001294 0.022140 -0.010955 0.001968 0.001206
# 4 -0.002592 -0.006745 -0.010955 0.044884 -0.014462 0.000302
# 5 0.001440 0.005270 0.001968 -0.014462 0.030090 -0.000891
# 6 -0.001278 0.002340 0.001206 0.000302 -0.000891 0.020231
#
#
# Mechanical properties :
#
#
# Convention : Reuss Voigt Hill
#
# Bulk Modulus (GPa) = 25.02420 38.63504 31.82962
# Shear Modulus (GPa) = 31.39712 39.37842 35.38777
#
# Velocity S-wave (km/s) = 3.52311 3.94558 3.74031
# Velocity P-wave (km/s) = 5.14224 6.00254 5.58896
#
# Compressibility (1/GPa) = 0.03996132
#
# Stress axis : x y z
#
# Youngs Moduli (GPa) = 88.50481 84.00480 45.16718
#
# Poissons Ratio (x) = 0.22439 0.05931
# Poissons Ratio (y) = 0.23641 -0.05843
# Poissons Ratio (z) = 0.11622 -0.10866
#
# Static dielectric constant tensor:
#      x y z
#    x 4.795710 -0.012390 -0.014810 
#    y -0.012390 4.766860 0.366670 
#    z -0.014810 0.366670 4.416260 
# 
# 
# High freq. dielectric constant tensor:
#      x y z
#    x 2.018000 -0.004100 -0.000170 
#    y -0.004100 2.024410 0.027640 
#    z -0.000170 0.027640 2.009690 
# 
# From -- ./inp_files/205264.got.cif
#   From: 2010.06.25/outbox.cif.g09.slc.cpg/sg2_103_cif.got.tgz:205264.got - 2010.06.27 13:26:56.
