data_PCOD8005849
_publ_section_title
;
Structure prediction by ZEFSAII (Michael W. Deem and Ramdas Pophale) SiO2 
 PCOD8005849
Probable space group: P -1
;
_chemical_formula_sum "Si O2"
_cell_formula_units_Z 16
_cell_length_a 14.351032
_cell_length_b 13.425474
_cell_length_c 8.580393
_cell_angle_alpha 91.712146
_cell_angle_beta 115.934725
_cell_angle_gamma 37.391186
_cell_volume 734.420666
_symmetry_space_group_name_H-M "P -1"
_symmetry_group_IT_number 2
_symmetry_cell_setting 'triclinic'
loop_
_space_group_symop_operation_xyz
x,y,z
-x,-y,-z
loop_
_atom_site_type_symbol
_atom_site_label
_atom_site_fract_x
_atom_site_fract_y
_atom_site_fract_z
Si Si1 0.646592 0.308634 0.496100
Si Si2 0.114766 0.456659 0.443014
Si Si3 0.954132 0.904511 0.256870
Si Si4 0.005055 0.325935 0.905976
Si Si5 0.864638 0.374207 0.352558
Si Si6 0.521150 0.753589 0.655652
Si Si7 0.785100 0.825270 0.623597
Si Si8 0.464014 0.682403 0.893614
O O1 0.500000 0.500000 0.500000
O O2 0.886046 0.142782 0.681673
O O3 0.616955 0.218894 0.527417
O O4 0.578023 0.370777 0.265421
O O5 0.947405 0.636919 0.199628
O O6 0.230621 0.457332 0.599235
O O7 0.000000 0.500000 0.500000
O O8 0.264882 0.246868 0.468220
O O9 0.945427 0.828463 0.113358
O O10 0.020796 0.803882 0.467656
O O11 0.728255 0.144160 0.120242
O O12 0.759548 0.544846 0.768969
O O13 0.149115 0.233682 0.151290
O O14 0.029625 0.279032 0.344794
O O15 0.672169 0.481170 0.131916
O O16 0.504241 0.752667 0.830968
O O17 0.430769 0.935197 0.546057
#
# Coordination Sequence:
#
# PCOD8005849 Si02
#       8
#     2   2   2   2   2   2   2   2
#     4  10  20  40  62  89 128 163 202 259 302 355
#     4   9  22  39  64  93 122 159 205 252 305 366
#     4  11  21  39  63  90 126 162 205 256 298 360
#     4  11  22  39  65  89 125 165 198 251 311 360
#     4  10  20  39  63  89 125 162 200 255 309 359
#     4  10  22  38  63  89 123 162 201 254 304 359
#     4  11  20  41  63  89 125 163 202 254 308 363
#     4  10  21  37  62  90 122 164 203 245 309 363
#
# _framework density 21.785879000000001
#
# number of rings (size 3 to 8) (size 9 to 14) (size 15 to 20)
#    0.750    1.000    3.750    0.750    0.000    3.000 
#    0.000    5.000    0.000    0.000    0.000    0.000 
#    0.000    0.000    0.000    0.000    0.000    0.000 
#
# Total GULP energy -198300.809799 kJ/mol
# GULP energy per Si atom -12393.800612 kJ/mol
# Density = 2.173629 g / cm^3
# Si number density = 21.785879 Si / 1000 Ang^3
#
#
#
# Elastic Constant Matrix: (Units=GPa)
#
#
# Indices 1 2 3 4 5 6 
#
# 1 31.1870 -12.8354 2.6090 -1.8576 -3.0570 -11.7959
# 2 -12.8354 106.2277 24.8697 4.5720 11.6338 -5.3536
# 3 2.6090 24.8697 57.5145 4.5546 -6.2422 -12.1891
# 4 -1.8576 4.5720 4.5546 31.0835 -2.4837 4.2828
# 5 -3.0570 11.6338 -6.2422 -2.4837 27.1022 -4.0956
# 6 -11.7959 -5.3536 -12.1891 4.2828 -4.0956 36.5407
#
#
#
# Elastic Compliance Matrix: (Units=1/GPa)
#
#
# Indices 1 2 3 4 5 6 
#
# 1 0.039944 0.005216 -0.000677 0.000143 0.004222 0.013889
# 2 0.005216 0.012163 -0.005831 -0.001235 -0.005938 0.001000
# 3 -0.000677 -0.005831 0.022759 -0.002909 0.008584 0.007822
# 4 0.000143 -0.001235 -0.002909 0.033627 0.002233 -0.004796
# 5 0.004222 -0.005938 0.008584 0.002233 0.043305 0.007949
# 6 0.013889 0.001000 0.007822 -0.004796 0.007949 0.036059
#
#
# Mechanical properties :
#
#
# Convention : Reuss Voigt Hill
#
# Bulk Modulus (GPa) = 13.83455 24.91287 19.37371
# Shear Modulus (GPa) = 23.30634 30.96435 27.13534
#
# Velocity S-wave (km/s) = 3.27431 3.77411 3.53306
# Velocity P-wave (km/s) = 4.54520 5.51833 5.05524
#
# Compressibility (1/GPa) = 0.07228282
#
# Stress axis : x y z
#
# Youngs Moduli (GPa) = 25.03514 82.21714 43.93947
#
# Poissons Ratio (x) = -0.42887 0.02974
# Poissons Ratio (y) = -0.13059 0.25619
# Poissons Ratio (z) = 0.01695 0.47938
#
# Static dielectric constant tensor:
#      x y z
#    x 4.032370 0.088880 -0.124320 
#    y 0.088880 4.146210 0.282780 
#    z -0.124320 0.282780 3.711190 
# 
# 
# High freq. dielectric constant tensor:
#      x y z
#    x 1.855280 -0.001410 -0.006720 
#    y -0.001410 1.862850 0.014470 
#    z -0.006720 0.014470 1.832920 
# 
# From -- ./inp_files/335725.got.cif
#   From: 2010.06.25/outbox.cif.g09.slc.cpg/sg2_168_cif.got.tgz:335725.got - 2010.06.27 13:26:56.
