data_PCOD8005805
_publ_section_title
;
Structure prediction by ZEFSAII (Michael W. Deem and Ramdas Pophale) SiO2 
 PCOD8005805
Probable space group: P -1
;
_chemical_formula_sum "Si O2"
_cell_formula_units_Z 14
_cell_length_a 12.505885
_cell_length_b 8.671265
_cell_length_c 14.269748
_cell_angle_alpha 152.523549
_cell_angle_beta 54.930123
_cell_angle_gamma 120.347899
_cell_volume 584.302661
_symmetry_space_group_name_H-M "P -1"
_symmetry_group_IT_number 2
_symmetry_cell_setting 'triclinic'
loop_
_space_group_symop_operation_xyz
x,y,z
-x,-y,-z
loop_
_atom_site_type_symbol
_atom_site_label
_atom_site_fract_x
_atom_site_fract_y
_atom_site_fract_z
Si Si1 0.398754 0.709087 0.748242
Si Si2 0.316817 0.256644 0.405097
Si Si3 0.216915 0.875561 0.094291
Si Si4 0.759598 0.726385 0.098502
Si Si5 0.055348 0.861781 0.649591
Si Si6 0.775521 0.245379 0.673798
Si Si7 0.481407 0.980681 0.389728
O O1 0.325345 0.636376 0.645934
O O2 0.534283 0.903653 0.766532
O O3 0.438236 0.342246 0.568688
O O4 0.301818 0.897702 0.968785
O O5 0.249627 0.224405 0.319861
O O6 0.226748 0.051746 0.410347
O O7 0.254551 0.555169 0.964951
O O8 0.063879 0.869887 0.144595
O O9 0.617145 0.857060 0.210863
O O10 0.846904 0.025236 0.256311
O O11 0.816355 0.575681 0.890562
O O12 0.120209 0.856302 0.511884
O O13 0.000000 0.500000 0.500000
O O14 0.632256 0.285058 0.720155
O O15 0.500000 0.000000 0.500000
#
# Coordination Sequence:
#
# PCOD8005805 Si02
#       7
#     2   2   2   2   2   2   2
#     4  10  20  39  63 100 133 162 209 266 324 376
#     4   9  21  38  63  99 125 164 213 267 316 375
#     4  11  23  41  68  90 128 176 215 253 321 387
#     4  11  23  43  69  96 126 176 214 262 327 380
#     4  12  28  46  63  95 131 173 219 268 317 383
#     4  10  23  44  66  95 128 170 218 262 325 383
#     4  11  19  38  71  99 136 161 209 275 324 376
#
# _framework density 23.960184999999999
#
# number of rings (size 3 to 8) (size 9 to 14) (size 15 to 20)
#    0.000    1.429    2.857    2.143    2.000    4.000 
#   12.857    0.000    0.000    0.000    0.000    0.000 
#    0.000    0.000    0.000    0.000    0.000    0.000 
#
# Total GULP energy -173506.792099 kJ/mol
# GULP energy per Si atom -12393.342293 kJ/mol
# Density = 2.390565 g / cm^3
# Si number density = 23.960185 Si / 1000 Ang^3
#
#
#
# Elastic Constant Matrix: (Units=GPa)
#
#
# Indices 1 2 3 4 5 6 
#
# 1 95.9020 20.3276 42.9796 -18.5747 23.5519 16.1160
# 2 20.3276 93.8265 43.3507 -27.3879 9.6749 21.0267
# 3 42.9796 43.3507 92.6301 -35.6403 12.8553 0.4397
# 4 -18.5747 -27.3879 -35.6403 50.6215 -0.5348 1.4067
# 5 23.5519 9.6749 12.8553 -0.5348 53.1908 -3.6847
# 6 16.1160 21.0267 0.4397 1.4067 -3.6847 26.2631
#
#
#
# Elastic Compliance Matrix: (Units=1/GPa)
#
#
# Indices 1 2 3 4 5 6 
#
# 1 0.019016 0.006108 -0.008621 0.004618 -0.008639 -0.017874
# 2 0.006108 0.021255 -0.008726 0.008143 -0.005896 -0.021882
# 3 -0.008621 -0.008726 0.021274 0.006780 0.001143 0.011718
# 4 0.004618 0.008143 0.006780 0.030899 -0.005679 -0.011918
# 5 -0.008639 -0.005896 0.001143 -0.005679 0.024315 0.013718
# 6 -0.017874 -0.021882 0.011718 -0.011918 0.013718 0.068930
#
#
# Mechanical properties :
#
#
# Convention : Reuss Voigt Hill
#
# Bulk Modulus (GPa) = 25.59771 55.07493 40.33632
# Shear Modulus (GPa) = 22.60490 37.72846 30.16668
#
# Velocity S-wave (km/s) = 3.07487 3.97247 3.55214
# Velocity P-wave (km/s) = 4.82836 6.63902 5.80473
#
# Compressibility (1/GPa) = 0.03906600
#
# Stress axis : x y z
#
# Youngs Moduli (GPa) = 52.58731 47.04723 47.00561
#
# Poissons Ratio (x) = -0.28735 0.40524
# Poissons Ratio (y) = -0.32119 0.41018
# Poissons Ratio (z) = 0.45336 0.41054
#
# Static dielectric constant tensor:
#      x y z
#    x 5.034850 -0.044990 0.305820 
#    y -0.044990 4.258960 -0.175330 
#    z 0.305820 -0.175330 4.449460 
# 
# 
# High freq. dielectric constant tensor:
#      x y z
#    x 1.958390 0.000380 0.022820 
#    y 0.000380 1.944870 -0.015740 
#    z 0.022820 -0.015740 1.940550 
# 
# From -- ./inp_files/240696.got.cif
#   From: 2010.06.25/outbox.cif.g09.slc.cpg/sg2_121_cif.got.tgz:240696.got - 2010.06.27 13:26:56.
