data_PCOD8005001
_publ_section_title
;
Structure prediction by ZEFSAII (Michael W. Deem and Ramdas Pophale) SiO2 
 PCOD8005001
Probable space group: P -1
;
_chemical_formula_sum "Si O2"
_cell_formula_units_Z 14
_cell_length_a 9.186641
_cell_length_b 16.067648
_cell_length_c 9.381318
_cell_angle_alpha 54.201588
_cell_angle_beta 102.036649
_cell_angle_gamma 142.153145
_cell_volume 593.114099
_symmetry_space_group_name_H-M "P -1"
_symmetry_group_IT_number 2
_symmetry_cell_setting 'triclinic'
loop_
_space_group_symop_operation_xyz
x,y,z
-x,-y,-z
loop_
_atom_site_type_symbol
_atom_site_label
_atom_site_fract_x
_atom_site_fract_y
_atom_site_fract_z
Si Si1 0.781865 0.026056 0.978616
Si Si2 0.779451 0.736773 0.626873
Si Si3 0.190429 0.735796 0.193167
Si Si4 0.817216 0.345326 0.415810
Si Si5 0.629249 0.829792 0.699389
Si Si6 0.333603 0.551567 0.165584
Si Si7 0.256868 0.219845 0.717170
O O1 0.860680 0.173183 0.938910
O O2 0.984233 0.131116 0.779572
O O3 0.457629 0.848530 0.047782
O O4 0.828101 0.948919 0.156743
O O5 0.685017 0.749342 0.727652
O O6 0.722855 0.584712 0.800257
O O7 0.609347 0.664973 0.518788
O O8 0.095511 0.946267 0.441812
O O9 0.251514 0.758491 0.351996
O O10 0.922530 0.519497 0.307016
O O11 0.544582 0.200674 0.412843
O O12 0.038890 0.416931 0.293691
O O13 0.470616 0.717671 0.927538
O O14 0.526081 0.642023 0.250148
#
# Coordination Sequence:
#
# PCOD8005001 Si02
#       7
#     2   2   2   2   2   2   2
#     4  10  20  38  64 102 130 166 215 282 328 382
#     4  11  26  46  69 100 132 179 221 272 334 395
#     4  10  22  40  63 102 131 172 224 270 330 391
#     4  11  24  42  65  94 139 174 218 275 327 395
#     4  11  26  47  66  95 143 174 219 271 335 401
#     4  12  25  45  69 102 132 177 222 274 332 393
#     4  11  22  41  73  98 133 165 226 283 319 387
#
# _framework density 23.604227000000002
#
# number of rings (size 3 to 8) (size 9 to 14) (size 15 to 20)
#    0.000    1.143    1.429    4.714    4.000    1.714 
#   10.286    0.000    0.000    0.000    0.000    0.000 
#    0.000    0.000    0.000    0.000    0.000    0.000 
#
# Total GULP energy -173592.305908 kJ/mol
# GULP energy per Si atom -12399.450422 kJ/mol
# Density = 2.355050 g / cm^3
# Si number density = 23.604227 Si / 1000 Ang^3
#
#
#
# Elastic Constant Matrix: (Units=GPa)
#
#
# Indices 1 2 3 4 5 6 
#
# 1 123.1242 20.3334 14.9742 -8.6037 -5.4914 -2.5248
# 2 20.3334 71.5203 23.9155 5.3507 5.4301 3.6509
# 3 14.9742 23.9155 53.7791 -5.0902 -0.6704 -2.5747
# 4 -8.6037 5.3507 -5.0902 32.7060 -4.2584 4.9631
# 5 -5.4914 5.4301 -0.6704 -4.2584 29.8148 -5.5379
# 6 -2.5248 3.6509 -2.5747 4.9631 -5.5379 25.9584
#
#
#
# Elastic Compliance Matrix: (Units=1/GPa)
#
#
# Indices 1 2 3 4 5 6 
#
# 1 0.009037 -0.002744 -0.000932 0.002858 0.002778 0.001219
# 2 -0.002744 0.018510 -0.008210 -0.005158 -0.005518 -0.003876
# 3 -0.000932 -0.008210 0.023131 0.004624 0.003086 0.003132
# 4 0.002858 -0.005158 0.004624 0.034224 0.005742 -0.003856
# 5 0.002778 -0.005518 0.003086 0.005742 0.037479 0.008250
# 6 0.001219 -0.003876 0.003132 -0.003856 0.008250 0.041995
#
#
# Mechanical properties :
#
#
# Convention : Reuss Voigt Hill
#
# Bulk Modulus (GPa) = 37.16750 40.76333 38.96542
# Shear Modulus (GPa) = 25.36552 30.30919 27.83736
#
# Velocity S-wave (km/s) = 3.28169 3.58726 3.43787
# Velocity P-wave (km/s) = 5.48996 5.87068 5.68351
#
# Compressibility (1/GPa) = 0.02690522
#
# Stress axis : x y z
#
# Youngs Moduli (GPa) = 110.65492 54.02399 43.23156
#
# Poissons Ratio (x) = 0.14827 0.04031
# Poissons Ratio (y) = 0.30369 0.35493
# Poissons Ratio (z) = 0.10317 0.44353
#
# Static dielectric constant tensor:
#      x y z
#    x 4.381940 -0.110050 -0.096390 
#    y -0.110050 4.074440 -0.182630 
#    z -0.096390 -0.182630 4.223070 
# 
# 
# High freq. dielectric constant tensor:
#      x y z
#    x 1.944900 -0.008760 -0.008840 
#    y -0.008760 1.921290 -0.016770 
#    z -0.008840 -0.016770 1.932200 
# 
# From -- ./inp_files/206000.got.cif
#   From: 2010.06.25/outbox.cif.g09.slc.cpg/sg2_103_cif.got.tgz:206000.got - 2010.06.27 13:26:56.
