data_PCOD8005222
_publ_section_title
;
Structure prediction by ZEFSAII (Michael W. Deem and Ramdas Pophale) SiO2 
 PCOD8005222
Probable space group: P -1
;
_chemical_formula_sum "Si O2"
_cell_formula_units_Z 14
_cell_length_a 20.703160
_cell_length_b 11.354329
_cell_length_c 15.293807
_cell_angle_alpha 38.982960
_cell_angle_beta 151.886718
_cell_angle_gamma 158.995423
_cell_volume 584.199700
_symmetry_space_group_name_H-M "P -1"
_symmetry_group_IT_number 2
_symmetry_cell_setting 'triclinic'
loop_
_space_group_symop_operation_xyz
x,y,z
-x,-y,-z
loop_
_atom_site_type_symbol
_atom_site_label
_atom_site_fract_x
_atom_site_fract_y
_atom_site_fract_z
Si Si1 0.546927 0.852425 0.324462
Si Si2 0.399937 0.402373 0.708828
Si Si3 0.241989 0.620663 0.440952
Si Si4 0.960386 0.224056 0.490515
Si Si5 0.156465 0.179919 0.902317
Si Si6 0.056443 0.478021 0.986886
Si Si7 0.279701 0.195571 0.297922
O O1 0.352883 0.799351 0.134855
O O2 0.429037 0.541078 0.315228
O O3 0.629547 0.890253 0.498051
O O4 0.795007 0.186091 0.370306
O O5 0.239901 0.396164 0.552215
O O6 0.644825 0.747288 0.745582
O O7 0.213784 0.060596 0.629709
O O8 0.542817 0.464451 0.925790
O O9 0.182307 0.582615 0.495570
O O10 0.500000 0.000000 0.500000
O O11 0.027076 0.473157 0.214478
O O12 0.076059 0.199473 0.707400
O O13 0.080086 0.877070 0.973679
O O14 0.013907 0.105785 0.859704
O O15 0.000000 0.500000 0.000000
#
# Coordination Sequence:
#
# PCOD8005222 Si02
#       7
#     2   2   2   2   2   2   2
#     4   8  16  34  61  90 120 162 204 254 304 357
#     4  11  20  38  65  92 122 162 211 253 301 369
#     4  12  25  42  57  91 131 166 199 256 320 372
#     4  10  23  42  65  90 125 159 214 263 301 361
#     4  10  20  38  65  95 119 163 207 258 304 363
#     4  11  21  38  64  92 128 166 204 245 316 379
#     4   8  15  31  61  95 119 148 208 260 299 354
#
# _framework density 23.964407000000001
#
# number of rings (size 3 to 8) (size 9 to 14) (size 15 to 20)
#    0.000    2.000    1.429    5.143    0.000    1.143 
#    2.571    0.000    0.000    2.571    0.000    0.000 
#    0.000    0.000    0.000    0.000    0.000    0.000 
#
# Total GULP energy -173480.294419 kJ/mol
# GULP energy per Si atom -12391.449601 kJ/mol
# Density = 2.390986 g / cm^3
# Si number density = 23.964407 Si / 1000 Ang^3
#
#
#
# Elastic Constant Matrix: (Units=GPa)
#
#
# Indices 1 2 3 4 5 6 
#
# 1 112.0437 29.4108 54.8026 -3.7884 17.5599 31.8068
# 2 29.4108 59.5805 30.7982 7.7007 0.0671 27.0399
# 3 54.8026 30.7982 182.0564 3.0548 17.2220 11.1824
# 4 -3.7884 7.7007 3.0548 15.8719 3.4177 -9.9908
# 5 17.5599 0.0671 17.2220 3.4177 37.4885 4.7863
# 6 31.8068 27.0399 11.1824 -9.9908 4.7863 38.1350
#
#
#
# Elastic Compliance Matrix: (Units=1/GPa)
#
#
# Indices 1 2 3 4 5 6 
#
# 1 0.014067 -0.000184 -0.003173 -0.001921 -0.003587 -0.010725
# 2 -0.000184 0.050979 -0.005785 -0.059358 0.014663 -0.051688
# 3 -0.003173 -0.005785 0.007238 0.005379 -0.003140 0.006429
# 4 -0.001921 -0.059358 0.005379 0.148988 -0.025822 0.084387
# 5 -0.003587 0.014663 -0.003140 -0.025822 0.034368 -0.017563
# 6 -0.010725 -0.051688 0.006429 0.084387 -0.017563 0.094245
#
#
# Mechanical properties :
#
#
# Convention : Reuss Voigt Hill
#
# Bulk Modulus (GPa) = 18.51834 64.85599 41.68716
# Shear Modulus (GPa) = 12.94770 34.21036 23.57903
#
# Velocity S-wave (km/s) = 2.32693 3.78239 3.14015
# Velocity P-wave (km/s) = 3.86829 6.79688 5.52997
#
# Compressibility (1/GPa) = 0.05400052
#
# Stress axis : x y z
#
# Youngs Moduli (GPa) = 71.08744 19.61603 138.15102
#
# Poissons Ratio (x) = 0.00361 0.43837
# Poissons Ratio (y) = 0.01307 0.79919
# Poissons Ratio (z) = 0.22557 0.11348
#
# Static dielectric constant tensor:
#      x y z
#    x 4.608640 0.503790 0.239790 
#    y 0.503790 4.098540 0.146100 
#    z 0.239790 0.146100 4.689950 
# 
# 
# High freq. dielectric constant tensor:
#      x y z
#    x 1.957430 0.017350 0.006420 
#    y 0.017350 1.921270 0.008810 
#    z 0.006420 0.008810 1.965880 
# 
# From -- ./inp_files/271845.got.cif
#   From: 2010.06.25/outbox.cif.g09.slc.cpg/sg2_136_cif.got.tgz:271845.got - 2010.06.27 13:26:56.
