data_PCOD8005566
_publ_section_title
;
Structure prediction by ZEFSAII (Michael W. Deem and Ramdas Pophale) SiO2 
 PCOD8005566
Probable space group: P -1
;
_chemical_formula_sum "Si O2"
_cell_formula_units_Z 16
_cell_length_a 15.135113
_cell_length_b 9.293638
_cell_length_c 10.259942
_cell_angle_alpha 142.174001
_cell_angle_beta 118.329598
_cell_angle_gamma 60.545781
_cell_volume 760.558765
_symmetry_space_group_name_H-M "P -1"
_symmetry_group_IT_number 2
_symmetry_cell_setting 'triclinic'
loop_
_space_group_symop_operation_xyz
x,y,z
-x,-y,-z
loop_
_atom_site_type_symbol
_atom_site_label
_atom_site_fract_x
_atom_site_fract_y
_atom_site_fract_z
Si Si1 0.980866 0.195144 0.317817
Si Si2 0.338619 0.977756 0.944996
Si Si3 0.858915 0.185637 0.972065
Si Si4 0.459517 0.138250 0.698181
Si Si5 0.982156 0.531260 0.217649
Si Si6 0.650813 0.350026 0.054349
Si Si7 0.110859 0.178174 0.869002
Si Si8 0.493673 0.782150 0.689733
O O1 0.994539 0.423126 0.579379
O O2 0.891371 0.242140 0.181863
O O3 0.087912 0.080322 0.234150
O O4 0.946017 0.030517 0.284287
O O5 0.311789 0.761338 0.858045
O O6 0.426762 0.875168 0.833020
O O7 0.233573 0.107092 0.895833
O O8 0.389541 0.172731 0.197703
O O9 0.897306 0.369317 0.035092
O O10 0.735195 0.227562 0.917151
O O11 0.362177 0.359270 0.756226
O O12 0.500000 0.000000 0.500000
O O13 0.435051 0.935858 0.635716
O O14 0.544173 0.271433 0.907126
O O15 0.083328 0.391159 0.110660
O O16 0.929924 0.762469 0.263646
O O17 0.500000 0.500000 0.500000
#
# Coordination Sequence:
#
# PCOD8005566 Si02
#       8
#     2   2   2   2   2   2   2   2
#     4  10  20  39  60  84 120 155 199 246 296 350
#     4  10  21  40  62  84 120 159 198 245 296 354
#     4  10  21  37  59  88 118 155 198 248 292 355
#     4  10  22  40  62  89 121 153 196 246 300 359
#     4  10  22  37  58  88 121 156 197 247 296 352
#     4  10  21  40  61  84 121 160 194 246 299 350
#     4  10  21  39  59  85 120 157 199 245 297 351
#     4  10  22  40  62  90 118 153 199 245 298 358
#
# _framework density 21.037163
#
# number of rings (size 3 to 8) (size 9 to 14) (size 15 to 20)
#    0.000    2.000    1.250    1.500    1.750    3.000 
#    4.500    0.000    0.000    0.000    0.000    0.000 
#    0.000    0.000    0.000    0.000    0.000    0.000 
#
# Total GULP energy -198210.934814 kJ/mol
# GULP energy per Si atom -12388.183426 kJ/mol
# Density = 2.098928 g / cm^3
# Si number density = 21.037163 Si / 1000 Ang^3
#
#
#
# Elastic Constant Matrix: (Units=GPa)
#
#
# Indices 1 2 3 4 5 6 
#
# 1 89.9880 13.0202 2.5197 13.1719 -7.4203 -8.2022
# 2 13.0202 74.8471 9.6950 26.7813 8.4544 8.2704
# 3 2.5197 9.6950 72.6667 7.7719 -11.7559 -0.2143
# 4 13.1719 26.7813 7.7719 31.3690 4.3978 -1.9433
# 5 -7.4203 8.4544 -11.7559 4.3978 18.3294 2.5955
# 6 -8.2022 8.2704 -0.2143 -1.9433 2.5955 35.4208
#
#
#
# Elastic Compliance Matrix: (Units=1/GPa)
#
#
# Indices 1 2 3 4 5 6 
#
# 1 0.012999 -0.001757 0.001667 -0.005344 0.008064 0.002547
# 2 -0.001757 0.021174 -0.002225 -0.016130 -0.007225 -0.005720
# 3 0.001667 -0.002225 0.016727 -0.004873 0.013635 -0.000260
# 4 -0.005344 -0.016130 -0.004873 0.051014 -0.010953 0.006101
# 5 0.008064 -0.007225 0.013635 -0.010953 0.072853 -0.002303
# 6 0.002547 -0.005720 -0.000260 0.006101 -0.002303 0.030659
#
#
# Mechanical properties :
#
#
# Convention : Reuss Voigt Hill
#
# Bulk Modulus (GPa) = 21.61195 31.99685 26.80440
# Shear Modulus (GPa) = 22.17502 31.17497 26.67500
#
# Velocity S-wave (km/s) = 3.25019 3.85372 3.56475
# Velocity P-wave (km/s) = 4.93767 5.91982 5.45091
#
# Compressibility (1/GPa) = 0.04627070
#
# Stress axis : x y z
#
# Youngs Moduli (GPa) = 76.92612 47.22788 59.78480
#
# Poissons Ratio (x) = 0.08300 -0.09968
# Poissons Ratio (y) = 0.13520 0.13300
# Poissons Ratio (z) = -0.12827 0.10506
#
# Static dielectric constant tensor:
#      x y z
#    x 3.477580 0.214970 -0.257340 
#    y 0.214970 4.197160 0.163480 
#    z -0.257340 0.163480 3.509020 
# 
# 
# High freq. dielectric constant tensor:
#      x y z
#    x 1.822820 0.015200 -0.010570 
#    y 0.015200 1.838700 0.006720 
#    z -0.010570 0.006720 1.801030 
# 
# From -- ./inp_files/299889.got.cif
#   From: 2010.06.25/outbox.cif.g09.slc.cpg/sg2_150_cif.got.tgz:299889.got - 2010.06.27 13:26:56.
