data_PCOD8005157
_publ_section_title
;
Structure prediction by ZEFSAII (Michael W. Deem and Ramdas Pophale) SiO2 
 PCOD8005157
Probable space group: P -1
;
_chemical_formula_sum "Si O2"
_cell_formula_units_Z 14
_cell_length_a 9.495945
_cell_length_b 17.054232
_cell_length_c 8.568737
_cell_angle_alpha 69.941115
_cell_angle_beta 71.791488
_cell_angle_gamma 131.601981
_cell_volume 623.016207
_symmetry_space_group_name_H-M "P -1"
_symmetry_group_IT_number 2
_symmetry_cell_setting 'triclinic'
loop_
_space_group_symop_operation_xyz
x,y,z
-x,-y,-z
loop_
_atom_site_type_symbol
_atom_site_label
_atom_site_fract_x
_atom_site_fract_y
_atom_site_fract_z
Si Si1 0.392039 0.381582 0.416330
Si Si2 0.385553 0.032359 0.851739
Si Si3 0.323059 0.117780 0.318878
Si Si4 0.898511 0.416994 0.759711
Si Si5 0.053795 0.308082 0.848611
Si Si6 0.838088 0.120016 0.626513
Si Si7 0.533876 0.265709 0.482028
O O1 0.257082 0.379190 0.587574
O O2 0.739410 0.575674 0.148381
O O3 0.377913 0.278985 0.551789
O O4 0.198863 0.296417 0.382500
O O5 0.713700 0.153389 0.633025
O O6 0.379971 0.126562 0.748520
O O7 0.266564 0.968474 0.111162
O O8 0.183931 0.879488 0.907099
O O9 0.482040 0.205710 0.368744
O O10 0.282444 0.999062 0.385120
O O11 0.555973 0.274427 0.010164
O O12 0.000000 0.000000 0.500000
O O13 0.000000 0.500000 0.500000
O O14 0.897789 0.316133 0.837149
O O15 0.117908 0.560148 0.718151
#
# Coordination Sequence:
#
# PCOD8005157 Si02
#       7
#     2   2   2   2   2   2   2
#     4   9  19  37  60  92 131 169 216 273 329 378
#     4  10  21  39  68  97 123 178 229 274 319 397
#     4  12  24  45  64  99 142 177 213 282 340 394
#     4  11  24  45  71  98 128 180 231 273 325 404
#     4   9  19  38  64  92 131 168 219 277 326 376
#     4  10  20  38  65  88 134 172 221 268 331 379
#     4  11  24  40  67  99 135 174 223 268 343 403
#
# _framework density 22.471326999999999
#
# number of rings (size 3 to 8) (size 9 to 14) (size 15 to 20)
#    0.000    1.714    2.857    1.286    4.000    2.857 
#   12.857    0.000    0.000    2.571    0.000    0.000 
#    0.000    0.000    0.000    0.000    0.000    0.000 
#
# Total GULP energy -173449.279558 kJ/mol
# GULP energy per Si atom -12389.234254 kJ/mol
# Density = 2.242018 g / cm^3
# Si number density = 22.471327 Si / 1000 Ang^3
#
#
#
# Elastic Constant Matrix: (Units=GPa)
#
#
# Indices 1 2 3 4 5 6 
#
# 1 83.4544 35.4021 29.6785 -17.6460 -14.9679 2.6015
# 2 35.4021 141.7304 25.6704 -21.7652 -9.7718 10.9686
# 3 29.6785 25.6704 68.3652 -13.9952 -17.4042 9.3403
# 4 -17.6460 -21.7652 -13.9952 38.1979 2.1316 -4.9006
# 5 -14.9679 -9.7718 -17.4042 2.1316 28.8862 -12.5172
# 6 2.6015 10.9686 9.3403 -4.9006 -12.5172 36.8989
#
#
#
# Elastic Compliance Matrix: (Units=1/GPa)
#
#
# Indices 1 2 3 4 5 6 
#
# 1 0.016551 -0.002475 -0.004112 0.004811 0.006386 0.003415
# 2 -0.002475 0.008492 -0.001306 0.003011 -0.000141 -0.001667
# 3 -0.004112 -0.001306 0.020124 0.004124 0.008877 -0.000857
# 4 0.004811 0.003011 0.004124 0.031814 0.005267 0.003734
# 5 0.006386 -0.000141 0.008877 0.005267 0.049229 0.014744
# 6 0.003415 -0.001667 -0.000857 0.003734 0.014744 0.033070
#
#
# Mechanical properties :
#
#
# Convention : Reuss Voigt Hill
#
# Bulk Modulus (GPa) = 34.03440 52.78355 43.40897
# Shear Modulus (GPa) = 27.04770 34.31652 30.68211
#
# Velocity S-wave (km/s) = 3.47314 3.91208 3.69913
# Velocity P-wave (km/s) = 5.59126 6.62919 6.13222
#
# Compressibility (1/GPa) = 0.02938204
#
# Stress axis : x y z
#
# Youngs Moduli (GPa) = 60.42001 117.75754 49.69218
#
# Poissons Ratio (x) = 0.29140 0.20432
# Poissons Ratio (y) = 0.14951 0.06491
# Poissons Ratio (z) = 0.24842 0.15381
#
# Static dielectric constant tensor:
#      x y z
#    x 4.141310 0.198970 -0.399290 
#    y 0.198970 4.788190 -0.675640 
#    z -0.399290 -0.675640 3.887410 
# 
# 
# High freq. dielectric constant tensor:
#      x y z
#    x 1.883130 -0.003500 -0.026500 
#    y -0.003500 1.909550 -0.036510 
#    z -0.026500 -0.036510 1.842920 
# 
# From -- ./inp_files/217037.got.cif
#   From: 2010.06.25/outbox.cif.g09.slc.cpg/sg2_109_cif.got.tgz:217037.got - 2010.06.27 13:26:56.
