data_PCOD8005083
_publ_section_title
;
Structure prediction by ZEFSAII (Michael W. Deem and Ramdas Pophale) SiO2 
 PCOD8005083
Probable space group: P -1
;
_chemical_formula_sum "Si O2"
_cell_formula_units_Z 16
_cell_length_a 9.019835
_cell_length_b 17.669422
_cell_length_c 11.983332
_cell_angle_alpha 39.215030
_cell_angle_beta 50.369252
_cell_angle_gamma 78.507903
_cell_volume 739.933395
_symmetry_space_group_name_H-M "P -1"
_symmetry_group_IT_number 2
_symmetry_cell_setting 'triclinic'
loop_
_space_group_symop_operation_xyz
x,y,z
-x,-y,-z
loop_
_atom_site_type_symbol
_atom_site_label
_atom_site_fract_x
_atom_site_fract_y
_atom_site_fract_z
Si Si1 0.504234 0.469269 0.719068
Si Si2 0.602407 0.916483 0.927176
Si Si3 0.314784 0.180647 0.468516
Si Si4 0.761509 0.726205 0.138058
Si Si5 0.480395 0.775952 0.921415
Si Si6 0.746908 0.095980 0.207254
Si Si7 0.101529 0.799803 0.394854
Si Si8 0.666423 0.492259 0.016090
O O1 0.700250 0.634708 0.387690
O O2 0.314350 0.374349 0.819908
O O3 0.365203 0.478069 0.876637
O O4 0.625004 0.389857 0.792577
O O5 0.648752 0.900440 0.793939
O O6 0.782226 0.091114 0.677067
O O7 0.652781 0.818780 0.090909
O O8 0.320212 0.846575 0.155167
O O9 0.354082 0.186328 0.309101
O O10 0.567644 0.319151 0.247088
O O11 0.088563 0.184019 0.595007
O O12 0.246371 0.024690 0.731206
O O13 0.049662 0.835100 0.874875
O O14 0.252923 0.780028 0.004467
O O15 0.500000 0.000000 0.500000
O O16 0.950407 0.622352 0.703565
O O17 0.500000 0.500000 0.000000
#
# Coordination Sequence:
#
# PCOD8005083 Si02
#       8
#     2   2   2   2   2   2   2   2
#     4  10  21  41  66  95 121 172 206 258 325 365
#     4  10  22  40  64  94 125 165 214 258 314 376
#     4  10  20  41  63  91 129 162 207 265 312 373
#     4  10  22  42  63  90 134 160 210 268 311 373
#     4  10  21  40  65  93 120 166 216 253 311 375
#     4  10  22  40  61  94 123 164 210 262 308 367
#     4  10  20  39  65  88 126 166 208 256 314 379
#     4  10  20  38  64  93 124 164 209 255 317 375
#
# _framework density 21.623567999999999
#
# number of rings (size 3 to 8) (size 9 to 14) (size 15 to 20)
#    0.000    2.000    3.750    0.000    0.000    5.000 
#   18.000    1.875    0.000    0.000    0.000    0.000 
#    0.000    0.000    0.000    0.000    0.000    0.000 
#
# Total GULP energy -198242.565098 kJ/mol
# GULP energy per Si atom -12390.160319 kJ/mol
# Density = 2.157435 g / cm^3
# Si number density = 21.623568 Si / 1000 Ang^3
#
#
#
# Elastic Constant Matrix: (Units=GPa)
#
#
# Indices 1 2 3 4 5 6 
#
# 1 94.6287 32.7422 47.5105 -9.0907 2.8758 -26.0027
# 2 32.7422 76.7781 38.2874 -13.5101 -2.5313 4.2680
# 3 47.5105 38.2874 95.8525 -11.9209 -18.4508 -0.4460
# 4 -9.0907 -13.5101 -11.9209 28.6566 2.4544 0.6371
# 5 2.8758 -2.5313 -18.4508 2.4544 38.4307 -2.3194
# 6 -26.0027 4.2680 -0.4460 0.6371 -2.3194 33.8160
#
#
#
# Elastic Compliance Matrix: (Units=1/GPa)
#
#
# Indices 1 2 3 4 5 6 
#
# 1 0.022546 -0.005801 -0.009831 0.000431 -0.005758 0.017536
# 2 -0.005801 0.018960 -0.004257 0.005583 -0.001146 -0.007094
# 3 -0.009831 -0.004257 0.018987 0.002134 0.009061 -0.006191
# 4 0.000431 0.005583 0.002134 0.038680 -0.001180 -0.001155
# 5 -0.005758 -0.001146 0.009061 -0.001180 0.030679 -0.002037
# 6 0.017536 -0.007094 -0.006191 -0.001155 -0.002037 0.043752
#
#
# Mechanical properties :
#
#
# Convention : Reuss Voigt Hill
#
# Bulk Modulus (GPa) = 48.27623 56.03772 52.15698
# Shear Modulus (GPa) = 22.69762 30.09527 26.39645
#
# Velocity S-wave (km/s) = 3.24338 3.73471 3.49768
# Velocity P-wave (km/s) = 6.03326 6.67598 6.36274
#
# Compressibility (1/GPa) = 0.02071413
#
# Stress axis : x y z
#
# Youngs Moduli (GPa) = 44.35413 52.74130 52.66737
#
# Poissons Ratio (x) = 0.30595 0.51779
# Poissons Ratio (y) = 0.25729 0.22423
# Poissons Ratio (z) = 0.43606 0.22454
#
# Static dielectric constant tensor:
#      x y z
#    x 4.364140 -0.324100 0.249880 
#    y -0.324100 4.347050 -0.638260 
#    z 0.249880 -0.638260 4.152310 
# 
# 
# High freq. dielectric constant tensor:
#      x y z
#    x 1.835020 -0.001460 -0.000640 
#    y -0.001460 1.852820 -0.023090 
#    z -0.000640 -0.023090 1.839390 
# 
# From -- ./inp_files/257403.got.cif
#   From: 2010.06.25/outbox.cif.g09.slc.cpg/sg2_129_cif.got.tgz:257403.got - 2010.06.27 13:26:56.
