data_PCOD8005547
_publ_section_title
;
Structure prediction by ZEFSAII (Michael W. Deem and Ramdas Pophale) SiO2 
 PCOD8005547
Probable space group: P -1
;
_chemical_formula_sum "Si O2"
_cell_formula_units_Z 16
_cell_length_a 8.775699
_cell_length_b 11.005425
_cell_length_c 17.396122
_cell_angle_alpha 117.777541
_cell_angle_beta 30.252640
_cell_angle_gamma 118.570657
_cell_volume 738.054792
_symmetry_space_group_name_H-M "P -1"
_symmetry_group_IT_number 2
_symmetry_cell_setting 'triclinic'
loop_
_space_group_symop_operation_xyz
x,y,z
-x,-y,-z
loop_
_atom_site_type_symbol
_atom_site_label
_atom_site_fract_x
_atom_site_fract_y
_atom_site_fract_z
Si Si1 0.843382 0.444944 0.360352
Si Si2 0.583128 0.668643 0.606197
Si Si3 0.324097 0.301743 0.776569
Si Si4 0.482112 0.415341 0.133656
Si Si5 0.194267 0.875666 0.435317
Si Si6 0.253888 0.951720 0.265951
Si Si7 0.317631 0.784616 0.897614
Si Si8 0.966216 0.342136 0.795291
O O1 0.684885 0.514962 0.521014
O O2 0.608125 0.319349 0.386382
O O3 0.143457 0.390296 0.239536
O O4 0.899921 0.571794 0.311434
O O5 0.350571 0.686207 0.781299
O O6 0.884745 0.782601 0.510665
O O7 0.455435 0.450474 0.799847
O O8 0.591458 0.207980 0.633277
O O9 0.228433 0.321210 0.736249
O O10 0.039085 0.224916 0.928892
O O11 0.505133 0.274869 0.127668
O O12 0.728457 0.431616 0.962803
O O13 0.365654 0.938891 0.301989
O O14 0.072634 0.990592 0.575956
O O15 0.216474 0.807526 0.194803
O O16 0.526938 0.056045 0.136362
#
# Coordination Sequence:
#
# PCOD8005547 Si02
#       8
#     2   2   2   2   2   2   2   2
#     4  11  21  37  63  93 119 155 200 251 303 350
#     4  10  20  39  59  91 118 152 199 251 297 349
#     4  11  22  40  63  92 121 156 200 248 309 351
#     4  11  22  39  62  93 124 156 196 250 310 352
#     4  10  21  43  64  85 123 161 200 245 299 358
#     4  10  22  42  60  84 122 165 204 240 292 356
#     4  10  23  40  61  88 123 161 196 248 295 360
#     4  11  22  39  64  89 126 157 199 250 293 362
#
# _framework density 21.678608000000001
#
# number of rings (size 3 to 8) (size 9 to 14) (size 15 to 20)
#    0.000    1.500    2.500    3.375    0.000    4.500 
#    9.000    6.250    0.000    0.000    0.000    0.000 
#    0.000    0.000    0.000    0.000    0.000    0.000 
#
# Total GULP energy -198345.648080 kJ/mol
# GULP energy per Si atom -12396.603005 kJ/mol
# Density = 2.162927 g / cm^3
# Si number density = 21.678608 Si / 1000 Ang^3
#
#
#
# Elastic Constant Matrix: (Units=GPa)
#
#
# Indices 1 2 3 4 5 6 
#
# 1 64.1464 10.1183 5.9472 0.5726 -21.2466 14.4131
# 2 10.1183 48.5694 9.6075 -7.7833 -2.7035 -0.0415
# 3 5.9472 9.6075 25.2800 2.4576 -4.9089 10.4575
# 4 0.5726 -7.7833 2.4576 38.5695 0.0956 1.8062
# 5 -21.2466 -2.7035 -4.9089 0.0956 42.8473 1.6189
# 6 14.4131 -0.0415 10.4575 1.8062 1.6189 15.5446
#
#
#
# Elastic Compliance Matrix: (Units=1/GPa)
#
#
# Indices 1 2 3 4 5 6 
#
# 1 0.031000 -0.009138 0.017339 -0.001480 0.018379 -0.042174
# 2 -0.009138 0.026724 -0.018267 0.005734 -0.005735 0.020764
# 3 0.017339 -0.018267 0.074496 -0.005574 0.018544 -0.067525
# 4 -0.001480 0.005734 -0.005574 0.027367 -0.001150 0.002077
# 5 0.018379 -0.005735 0.018544 -0.001150 0.035468 -0.033091
# 6 -0.042174 0.020764 -0.067525 0.002077 -0.033091 0.152123
#
#
# Mechanical properties :
#
#
# Convention : Reuss Voigt Hill
#
# Bulk Modulus (GPa) = 8.92164 21.03797 14.97981
# Shear Modulus (GPa) = 12.35571 26.88048 19.61809
#
# Velocity S-wave (km/s) = 2.38995 3.52512 3.01150
# Velocity P-wave (km/s) = 3.42639 5.12778 4.36087
#
# Compressibility (1/GPa) = 0.11208697
#
# Stress axis : x y z
#
# Youngs Moduli (GPa) = 32.25803 37.42014 13.42359
#
# Poissons Ratio (x) = 0.34195 -0.23275
# Poissons Ratio (y) = 0.29477 0.24521
# Poissons Ratio (z) = -0.55931 0.68355
#
# Static dielectric constant tensor:
#      x y z
#    x 3.927530 0.114600 0.116170 
#    y 0.114600 3.871920 0.077870 
#    z 0.116170 0.077870 4.151590 
# 
# 
# High freq. dielectric constant tensor:
#      x y z
#    x 1.842340 0.006880 0.005740 
#    y 0.006880 1.845140 -0.000690 
#    z 0.005740 -0.000690 1.863200 
# 
# From -- ./inp_files/306798.got.cif
#   From: 2010.06.25/outbox.cif.g09.slc.cpg/sg2_154_cif.got.tgz:306798.got - 2010.06.27 13:26:56.
