data_PCOD8005777
_publ_section_title
;
Structure prediction by ZEFSAII (Michael W. Deem and Ramdas Pophale) SiO2 
 PCOD8005777
Probable space group: P -1
;
_chemical_formula_sum "Si O2"
_cell_formula_units_Z 16
_cell_length_a 17.106588
_cell_length_b 9.014690
_cell_length_c 9.024209
_cell_angle_alpha 63.094682
_cell_angle_beta 139.095432
_cell_angle_gamma 113.929785
_cell_volume 807.768231
_symmetry_space_group_name_H-M "P -1"
_symmetry_group_IT_number 2
_symmetry_cell_setting 'triclinic'
loop_
_space_group_symop_operation_xyz
x,y,z
-x,-y,-z
loop_
_atom_site_type_symbol
_atom_site_label
_atom_site_fract_x
_atom_site_fract_y
_atom_site_fract_z
Si Si1 0.205361 0.667715 0.255461
Si Si2 0.982738 0.081797 0.097330
Si Si3 0.173973 0.538109 0.593663
Si Si4 0.969431 0.726839 0.313480
Si Si5 0.834314 0.643631 0.850551
Si Si6 0.475179 0.809011 0.509295
Si Si7 0.561632 0.506805 0.927621
Si Si8 0.557246 0.663483 0.426245
O O1 0.190793 0.559029 0.433094
O O2 0.154772 0.545010 0.105443
O O3 0.342581 0.729338 0.393611
O O4 0.139463 0.833468 0.100041
O O5 0.092602 0.224833 0.216653
O O6 0.975574 0.924658 0.269871
O O7 0.000000 0.000000 0.000000
O O8 0.089457 0.366006 0.584408
O O9 0.106175 0.687438 0.498956
O O10 0.302478 0.536785 0.854974
O O11 0.889113 0.663809 0.084038
O O12 0.699578 0.687575 0.632660
O O13 0.562157 0.691800 0.772494
O O14 0.503053 0.812151 0.370795
O O15 0.500000 0.000000 0.500000
O O16 0.485721 0.356391 0.795628
O O17 0.500000 0.500000 0.000000
O O18 0.500000 0.500000 0.500000
#
# Coordination Sequence:
#
# PCOD8005777 Si02
#       8
#     2   2   2   2   2   2   2   2
#     4  12  22  40  65  92 122 160 216 254 314 370
#     4  10  22  37  63  93 119 159 208 263 302 355
#     4  11  22  38  64  86 127 163 202 242 320 378
#     4  10  23  40  63  91 118 165 207 251 314 362
#     4  11  20  39  68  88 121 159 212 262 298 372
#     4  11  25  39  65  95 124 162 214 265 304 366
#     4  11  21  41  65  90 126 165 202 252 314 385
#     4  10  20  39  62  93 120 162 212 249 309 369
#
# _framework density 19.807662000000001
#
# number of rings (size 3 to 8) (size 9 to 14) (size 15 to 20)
#    0.000    1.250    6.250    1.875    5.250    0.000 
#    0.000    1.250    2.750    0.000    0.000    0.000 
#    0.000    0.000    0.000    0.000    0.000    0.000 
#
# Total GULP energy -198313.588805 kJ/mol
# GULP energy per Si atom -12394.599300 kJ/mol
# Density = 1.976258 g / cm^3
# Si number density = 19.807662 Si / 1000 Ang^3
#
#
#
# Elastic Constant Matrix: (Units=GPa)
#
#
# Indices 1 2 3 4 5 6 
#
# 1 118.2812 37.6223 58.3318 -1.2575 13.2197 -13.1024
# 2 37.6223 129.5080 43.1880 -10.1445 -2.0855 -11.7398
# 3 58.3318 43.1880 97.8105 -5.2090 21.8076 -0.3601
# 4 -1.2575 -10.1445 -5.2090 27.3353 -0.1675 -1.9817
# 5 13.2197 -2.0855 21.8076 -0.1675 39.9505 1.1724
# 6 -13.1024 -11.7398 -0.3601 -1.9817 1.1724 30.8885
#
#
#
# Elastic Compliance Matrix: (Units=1/GPa)
#
#
# Indices 1 2 3 4 5 6 
#
# 1 0.012905 -0.000978 -0.007162 -0.000776 -0.000561 0.004990
# 2 -0.000978 0.010078 -0.004392 0.003127 0.003159 0.003445
# 3 -0.007162 -0.004392 0.018189 0.001160 -0.007662 -0.004130
# 4 -0.000776 0.003127 0.001160 0.038169 -0.000151 0.003328
# 5 -0.000561 0.003159 -0.007662 -0.000151 0.029571 -0.000259
# 6 0.004990 0.003445 -0.004130 0.003328 -0.000259 0.035976
#
#
# Mechanical properties :
#
#
# Convention : Reuss Voigt Hill
#
# Bulk Modulus (GPa) = 62.07871 69.32044 65.69958
# Shear Modulus (GPa) = 28.51887 33.39870 30.95878
#
# Velocity S-wave (km/s) = 3.79857 4.11073 3.95773
# Velocity P-wave (km/s) = 7.11672 7.58970 7.35701
#
# Compressibility (1/GPa) = 0.01610858
#
# Stress axis : x y z
#
# Youngs Moduli (GPa) = 77.49011 99.22208 54.97710
#
# Poissons Ratio (x) = 0.09703 0.39375
# Poissons Ratio (y) = 0.07578 0.24146
# Poissons Ratio (z) = 0.55499 0.43578
#
# Static dielectric constant tensor:
#      x y z
#    x 3.569400 0.019490 0.165140 
#    y 0.019490 4.287690 0.143180 
#    z 0.165140 0.143180 3.639820 
# 
# 
# High freq. dielectric constant tensor:
#      x y z
#    x 1.792520 -0.001570 0.016630 
#    y -0.001570 1.764710 -0.000660 
#    z 0.016630 -0.000660 1.757640 
# 
# From -- ./inp_files/328788.got.cif
#   From: 2010.06.25/outbox.cif.g09.slc.cpg/sg2_165_cif.got.tgz:328788.got - 2010.06.27 13:26:56.
