data_PCOD8005521
_publ_section_title
;
Structure prediction by ZEFSAII (Michael W. Deem and Ramdas Pophale) SiO2 
 PCOD8005521
Probable space group: P -1
;
_chemical_formula_sum "Si O2"
_cell_formula_units_Z 16
_cell_length_a 8.591163
_cell_length_b 11.614897
_cell_length_c 18.881545
_cell_angle_alpha 62.582039
_cell_angle_beta 141.222586
_cell_angle_gamma 88.479669
_cell_volume 754.711470
_symmetry_space_group_name_H-M "P -1"
_symmetry_group_IT_number 2
_symmetry_cell_setting 'triclinic'
loop_
_space_group_symop_operation_xyz
x,y,z
-x,-y,-z
loop_
_atom_site_type_symbol
_atom_site_label
_atom_site_fract_x
_atom_site_fract_y
_atom_site_fract_z
Si Si1 0.065418 0.720735 0.389883
Si Si2 0.656492 0.594887 0.810948
Si Si3 0.270046 0.899727 0.490010
Si Si4 0.261592 0.625615 0.216881
Si Si5 0.119373 0.134241 0.860943
Si Si6 0.023558 0.257722 0.264096
Si Si7 0.403471 0.795444 0.110900
Si Si8 0.500820 0.562046 0.094767
O O1 0.062115 0.851406 0.399776
O O2 0.363620 0.511825 0.574821
O O3 0.139459 0.739453 0.330216
O O4 0.705807 0.774695 0.257406
O O5 0.414841 0.806687 0.646184
O O6 0.781712 0.490575 0.809645
O O7 0.448244 0.570253 0.792217
O O8 0.000000 0.500000 0.000000
O O9 0.594142 0.822283 0.578046
O O10 0.020288 0.115958 0.340579
O O11 0.246867 0.752990 0.123260
O O12 0.959699 0.741435 0.136078
O O13 0.500000 0.000000 0.000000
O O14 0.078654 0.003448 0.914310
O O15 0.804646 0.438731 0.180910
O O16 0.864720 0.307401 0.114043
O O17 0.542975 0.678883 0.120997
#
# Coordination Sequence:
#
# PCOD8005521 Si02
#       8
#     2   2   2   2   2   2   2   2
#     4  10  21  38  58  89 119 152 194 241 294 348
#     4  10  20  39  59  85 116 152 197 238 292 344
#     4  10  21  38  61  85 120 153 193 247 289 349
#     4  10  21  37  62  83 119 158 192 240 295 349
#     4  10  21  37  57  87 119 152 196 238 288 348
#     4  10  21  38  60  86 117 153 202 238 295 337
#     4  10  21  38  60  84 123 151 197 235 296 349
#     4  10  21  38  60  85 115 159 193 243 287 353
#
# _framework density 21.200153
#
# number of rings (size 3 to 8) (size 9 to 14) (size 15 to 20)
#    0.000    2.000    1.250    1.875    0.000    5.500 
#    4.500    0.000    2.750    0.000    0.000    0.000 
#    0.000    0.000    0.000    0.000    0.000    0.000 
#
# Total GULP energy -198292.207471 kJ/mol
# GULP energy per Si atom -12393.262967 kJ/mol
# Density = 2.115190 g / cm^3
# Si number density = 21.200153 Si / 1000 Ang^3
#
#
#
# Elastic Constant Matrix: (Units=GPa)
#
#
# Indices 1 2 3 4 5 6 
#
# 1 46.7519 9.8698 18.5049 0.0360 -18.4272 -7.4423
# 2 9.8698 68.7434 20.4046 8.9903 -0.6722 -5.5550
# 3 18.5049 20.4046 63.9955 6.2311 -26.4298 -8.9520
# 4 0.0360 8.9903 6.2311 34.2811 9.4095 -2.9507
# 5 -18.4272 -0.6722 -26.4298 9.4095 48.2107 -3.9212
# 6 -7.4423 -5.5550 -8.9520 -2.9507 -3.9212 30.6742
#
#
#
# Elastic Compliance Matrix: (Units=1/GPa)
#
#
# Indices 1 2 3 4 5 6 
#
# 1 0.027892 -0.002634 -0.001810 -0.001277 0.010448 0.006975
# 2 -0.002634 0.016945 -0.005846 -0.002414 -0.003501 0.000044
# 3 -0.001810 -0.005846 0.026111 -0.006818 0.015477 0.007445
# 4 -0.001277 -0.002414 -0.006818 0.033978 -0.010962 -0.000870
# 5 0.010448 -0.003501 0.015477 -0.010962 0.036123 0.009981
# 6 0.006975 0.000044 0.007445 -0.000870 0.009981 0.037666
#
#
# Mechanical properties :
#
#
# Convention : Reuss Voigt Hill
#
# Bulk Modulus (GPa) = 19.85427 30.78328 25.31878
# Shear Modulus (GPa) = 23.13907 31.34729 27.24318
#
# Velocity S-wave (km/s) = 3.30731 3.84947 3.58864
# Velocity P-wave (km/s) = 4.89590 5.85745 5.39813
#
# Compressibility (1/GPa) = 0.05036700
#
# Stress axis : x y z
#
# Youngs Moduli (GPa) = 35.85308 59.01353 38.29843
#
# Poissons Ratio (x) = 0.15547 0.06932
# Poissons Ratio (y) = 0.09445 0.22388
# Poissons Ratio (z) = 0.06490 0.34498
#
# Static dielectric constant tensor:
#      x y z
#    x 4.892160 0.539120 -1.310100 
#    y 0.539120 4.011580 -0.432490 
#    z -1.310100 -0.432490 4.544360 
# 
# 
# High freq. dielectric constant tensor:
#      x y z
#    x 1.826010 0.009600 -0.032050 
#    y 0.009600 1.824570 -0.008080 
#    z -0.032050 -0.008080 1.832770 
# 
# From -- ./inp_files/189171.got.cif
#   From: 2010.06.25/outbox.cif.g09.slc.cpg/sg2_95_cif.got.tgz:189171.got - 2010.06.27 13:26:56.
