data_PCOD8005830
_publ_section_title
;
Structure prediction by ZEFSAII (Michael W. Deem and Ramdas Pophale) SiO2 
 PCOD8005830
Probable space group: P -1
;
_chemical_formula_sum "Si O2"
_cell_formula_units_Z 16
_cell_length_a 19.592944
_cell_length_b 6.517165
_cell_length_c 8.574961
_cell_angle_alpha 85.752695
_cell_angle_beta 130.009814
_cell_angle_gamma 78.863606
_cell_volume 793.716217
_symmetry_space_group_name_H-M "P -1"
_symmetry_group_IT_number 2
_symmetry_cell_setting 'triclinic'
loop_
_space_group_symop_operation_xyz
x,y,z
-x,-y,-z
loop_
_atom_site_type_symbol
_atom_site_label
_atom_site_fract_x
_atom_site_fract_y
_atom_site_fract_z
Si Si1 0.854078 0.185729 0.822351
Si Si2 0.055918 0.253903 0.613791
Si Si3 0.454518 0.604894 0.625128
Si Si4 0.237290 0.093546 0.083610
Si Si5 0.572378 0.177414 0.740040
Si Si6 0.033663 0.022475 0.294191
Si Si7 0.299005 0.383109 0.395174
Si Si8 0.447507 0.998231 0.765007
O O1 0.797025 0.439952 0.697310
O O2 0.793689 0.051457 0.824960
O O3 0.884198 0.083927 0.702284
O O4 0.943789 0.177668 0.060926
O O5 0.072093 0.155726 0.469160
O O6 0.000000 0.500000 0.500000
O O7 0.155158 0.223571 0.841530
O O8 0.993700 0.159257 0.640360
O O9 0.546980 0.395163 0.800042
O O10 0.469602 0.749465 0.496498
O O11 0.369189 0.518448 0.456095
O O12 0.431423 0.763929 0.732532
O O13 0.277962 0.267081 0.215955
O O14 0.316342 0.938640 0.096250
O O15 0.517332 0.019372 0.729858
O O16 0.347934 0.193605 0.603618
O O17 0.500000 0.000000 0.000000
#
# Coordination Sequence:
#
# PCOD8005830 Si02
#       8
#     2   2   2   2   2   2   2   2
#     4  10  20  39  63  88 117 154 203 243 290 344
#     4  10  21  41  61  88 125 152 191 240 303 349
#     4  10  21  39  64  83 114 154 201 245 287 349
#     4  11  22  38  61  91 117 153 201 251 283 352
#     4  10  21  37  63  86 111 158 199 240 293 342
#     4   9  21  40  63  87 118 158 193 242 295 355
#     4  11  21  37  64  86 117 154 204 239 293 348
#     4  11  24  41  57  85 125 155 194 245 297 352
#
# _framework density 20.158338000000001
#
# number of rings (size 3 to 8) (size 9 to 14) (size 15 to 20)
#    0.000    1.750    2.500    1.125    3.500    3.000 
#    9.000    3.750    0.000    0.000    0.000    0.000 
#    0.000    0.000    0.000    0.000    0.000    0.000 
#
# Total GULP energy -198316.794740 kJ/mol
# GULP energy per Si atom -12394.799671 kJ/mol
# Density = 2.011246 g / cm^3
# Si number density = 20.158338 Si / 1000 Ang^3
#
#
#
# Elastic Constant Matrix: (Units=GPa)
#
#
# Indices 1 2 3 4 5 6 
#
# 1 75.6193 48.1964 37.8500 -5.7661 12.9471 -22.0997
# 2 48.1964 154.9331 92.0387 -3.8563 12.8642 -28.9864
# 3 37.8500 92.0387 145.7995 4.1155 7.9342 -19.5442
# 4 -5.7661 -3.8563 4.1155 37.7643 -7.4561 14.0727
# 5 12.9471 12.8642 7.9342 -7.4561 25.0527 -4.1496
# 6 -22.0997 -28.9864 -19.5442 14.0727 -4.1496 28.8873
#
#
#
# Elastic Compliance Matrix: (Units=1/GPa)
#
#
# Indices 1 2 3 4 5 6 
#
# 1 0.020271 -0.002556 -0.001493 -0.003102 -0.007567 0.012357
# 2 -0.002556 0.012199 -0.005986 -0.001415 -0.002378 0.006584
# 3 -0.001493 -0.005986 0.011374 -0.002840 -0.000289 0.001889
# 4 -0.003102 -0.001415 -0.002840 0.036412 0.010430 -0.021955
# 5 -0.007567 -0.002378 -0.000289 0.010430 0.047137 -0.006681
# 6 0.012357 0.006584 0.001889 -0.021955 -0.006681 0.061691
#
#
# Mechanical properties :
#
#
# Convention : Reuss Voigt Hill
#
# Bulk Modulus (GPa) = 42.06080 81.39132 61.72606
# Shear Modulus (GPa) = 23.03317 31.55864 27.29591
#
# Velocity S-wave (km/s) = 3.38392 3.96098 3.68377
# Velocity P-wave (km/s) = 6.01485 7.83472 6.98431
#
# Compressibility (1/GPa) = 0.02377511
#
# Stress axis : x y z
#
# Youngs Moduli (GPa) = 49.33158 81.97209 87.92046
#
# Poissons Ratio (x) = 0.20951 0.13128
# Poissons Ratio (y) = 0.12608 0.52625
# Poissons Ratio (z) = 0.07366 0.49065
#
# Static dielectric constant tensor:
#      x y z
#    x 3.639870 -0.180850 0.069440 
#    y -0.180850 3.983420 -0.079600 
#    z 0.069440 -0.079600 3.698640 
# 
# 
# High freq. dielectric constant tensor:
#      x y z
#    x 1.772340 -0.008550 0.008680 
#    y -0.008550 1.802670 -0.004600 
#    z 0.008680 -0.004600 1.779310 
# 
# From -- ./inp_files/313591.got.cif
#   From: 2010.06.25/outbox.cif.g09.slc.cpg/sg2_157_cif.got.tgz:313591.got - 2010.06.27 13:26:56.
