data_PCOD8005219
_publ_section_title
;
Structure prediction by ZEFSAII (Michael W. Deem and Ramdas Pophale) SiO2 
 PCOD8005219
Probable space group: P -1
;
_chemical_formula_sum "Si O2"
_cell_formula_units_Z 16
_cell_length_a 8.531157
_cell_length_b 12.765675
_cell_length_c 9.094586
_cell_angle_alpha 75.141463
_cell_angle_beta 58.528921
_cell_angle_gamma 98.427366
_cell_volume 767.821497
_symmetry_space_group_name_H-M "P -1"
_symmetry_group_IT_number 2
_symmetry_cell_setting 'triclinic'
loop_
_space_group_symop_operation_xyz
x,y,z
-x,-y,-z
loop_
_atom_site_type_symbol
_atom_site_label
_atom_site_fract_x
_atom_site_fract_y
_atom_site_fract_z
Si Si1 0.465551 0.812462 0.164948
Si Si2 0.204985 0.563196 0.299763
Si Si3 0.810698 0.421973 0.039783
Si Si4 0.285219 0.007091 0.586415
Si Si5 0.567238 0.958878 0.795405
Si Si6 0.750988 0.790562 0.278517
Si Si7 0.548922 0.560947 0.610279
Si Si8 0.845142 0.178675 0.081067
O O1 0.284585 0.700857 0.242082
O O2 0.596566 0.769385 0.228715
O O3 0.377753 0.906100 0.239978
O O4 0.600479 0.877906 0.937697
O O5 0.354945 0.506917 0.307541
O O6 0.000000 0.500000 0.500000
O O7 0.185840 0.539175 0.144247
O O8 0.637289 0.438075 0.210387
O O9 0.794968 0.290514 0.104708
O O10 0.000000 0.500000 0.000000
O O11 0.278191 0.043511 0.407047
O O12 0.234459 0.093509 0.688836
O O13 0.500000 0.000000 0.500000
O O14 0.133135 0.881948 0.752600
O O15 0.337008 0.910831 0.884441
O O16 0.687702 0.690561 0.466233
O O17 0.959895 0.793492 0.118088
O O18 0.500000 0.500000 0.500000
#
# Coordination Sequence:
#
# PCOD8005219 Si02
#       8
#     2   2   2   2   2   2   2   2
#     4  11  23  40  71  95 141 172 225 274 349 398
#     4  12  26  46  70 101 139 184 231 290 346 414
#     4  12  27  46  70  99 136 183 237 292 348 415
#     4  10  20  38  65  94 129 177 221 271 331 401
#     4  10  22  42  68  98 133 182 221 279 347 407
#     4  12  23  39  68  99 137 178 227 278 341 410
#     4  12  25  44  69  99 135 181 233 281 352 413
#     4  11  22  41  68  98 133 174 229 278 337 413
#
# _framework density 20.838177000000002
#
# number of rings (size 3 to 8) (size 9 to 14) (size 15 to 20)
#    0.000    0.750    5.000    4.500    0.000    0.000 
#    0.000    0.625    0.000    0.000    0.000    0.000 
#    0.000    0.000    0.000    0.000    0.000    0.000 
#
# Total GULP energy -198357.130562 kJ/mol
# GULP energy per Si atom -12397.320660 kJ/mol
# Density = 2.079075 g / cm^3
# Si number density = 20.838177 Si / 1000 Ang^3
#
#
#
# Elastic Constant Matrix: (Units=GPa)
#
#
# Indices 1 2 3 4 5 6 
#
# 1 80.3393 60.5924 59.8269 4.8277 5.9604 7.4726
# 2 60.5924 130.9546 64.2852 -2.2107 0.8893 -8.0450
# 3 59.8269 64.2852 179.8668 6.1318 1.9175 2.9727
# 4 4.8277 -2.2107 6.1318 42.5044 -5.8496 2.8805
# 5 5.9604 0.8893 1.9175 -5.8496 42.8634 5.1399
# 6 7.4726 -8.0450 2.9727 2.8805 5.1399 22.9798
#
#
#
# Elastic Compliance Matrix: (Units=1/GPa)
#
#
# Indices 1 2 3 4 5 6 
#
# 1 0.024206 -0.009718 -0.004315 -0.002243 -0.002082 -0.009969
# 2 -0.009718 0.013514 -0.001786 0.001593 0.000430 0.007827
# 3 -0.004315 -0.001786 0.007656 -0.000664 0.000225 -0.000180
# 4 -0.002243 0.001593 -0.000664 0.024687 0.003991 -0.002614
# 5 -0.002082 0.000430 0.000225 0.003991 0.024774 -0.005243
# 6 -0.009969 0.007827 -0.000180 -0.002614 -0.005243 0.051022
#
#
# Mechanical properties :
#
#
# Convention : Reuss Voigt Hill
#
# Bulk Modulus (GPa) = 72.78377 84.50775 78.64576
# Shear Modulus (GPa) = 27.46093 35.43325 31.44709
#
# Velocity S-wave (km/s) = 3.63411 4.12807 3.88894
# Velocity P-wave (km/s) = 7.25348 7.96012 7.61500
#
# Compressibility (1/GPa) = 0.01373933
#
# Stress axis : x y z
#
# Youngs Moduli (GPa) = 41.31151 73.99559 130.61172
#
# Poissons Ratio (x) = 0.71911 0.56355
# Poissons Ratio (y) = 0.40148 0.23325
# Poissons Ratio (z) = 0.17825 0.13214
#
# Static dielectric constant tensor:
#      x y z
#    x 3.852500 0.005190 0.441120 
#    y 0.005190 4.205020 -0.100630 
#    z 0.441120 -0.100630 4.447950 
# 
# 
# High freq. dielectric constant tensor:
#      x y z
#    x 1.797540 -0.005690 0.015160 
#    y -0.005690 1.830790 -0.009330 
#    z 0.015160 -0.009330 1.838360 
# 
# From -- ./inp_files/186426.got.cif
#   From: 2010.06.25/outbox.cif.g09.slc.cpg/sg2_94_cif.got.tgz:186426.got - 2010.06.27 13:26:56.
