data_PCOD8005011
_publ_section_title
;
Structure prediction by ZEFSAII (Michael W. Deem and Ramdas Pophale) SiO2 
 PCOD8005011
Probable space group: P -1
;
_chemical_formula_sum "Si O2"
_cell_formula_units_Z 16
_cell_length_a 23.164939
_cell_length_b 14.552847
_cell_length_c 12.433523
_cell_angle_alpha 139.145451
_cell_angle_beta 22.205884
_cell_angle_gamma 150.909546
_cell_volume 737.872064
_symmetry_space_group_name_H-M "P -1"
_symmetry_group_IT_number 2
_symmetry_cell_setting 'triclinic'
loop_
_space_group_symop_operation_xyz
x,y,z
-x,-y,-z
loop_
_atom_site_type_symbol
_atom_site_label
_atom_site_fract_x
_atom_site_fract_y
_atom_site_fract_z
Si Si1 0.443295 0.872115 0.249534
Si Si2 0.771440 0.007431 0.340067
Si Si3 0.546388 0.718271 0.275948
Si Si4 0.099548 0.741687 0.149106
Si Si5 0.781416 0.309475 0.307028
Si Si6 0.037892 0.080673 0.358450
Si Si7 0.171003 0.120940 0.666429
Si Si8 0.395858 0.320202 0.252200
O O1 0.368046 0.846776 0.480284
O O2 0.279724 0.858436 0.446654
O O3 0.444670 0.709031 0.070767
O O4 0.679428 0.089465 0.019236
O O5 0.610734 0.835856 0.378941
O O6 0.724035 0.908826 0.450331
O O7 0.020600 0.144259 0.999591
O O8 0.337340 0.656300 0.535222
O O9 0.503040 0.526170 0.201286
O O10 0.732743 0.849717 0.979264
O O11 0.990625 0.525110 0.183683
O O12 0.936171 0.760200 0.478309
O O13 0.140249 0.767648 0.972455
O O14 0.974969 0.069123 0.330527
O O15 0.840607 0.861182 0.555753
O O16 0.359269 0.312904 0.438527
#
# Coordination Sequence:
#
# PCOD8005011 Si02
#       8
#     2   2   2   2   2   2   2   2
#     4  11  22  40  59  82 119 157 188 232 288 338
#     4  10  20  38  64  84 114 152 190 236 289 337
#     4  11  21  37  60  86 116 154 191 234 281 338
#     4  10  21  38  55  82 118 150 189 237 278 334
#     4  11  24  36  58  86 118 153 196 232 278 340
#     4   8  19  39  57  80 120 146 185 239 285 334
#     4   8  19  39  61  87 110 149 189 240 286 340
#     4   9  21  37  58  86 116 147 192 234 283 341
#
# _framework density 21.683976000000001
#
# number of rings (size 3 to 8) (size 9 to 14) (size 15 to 20)
#    0.750    1.500    1.250    1.125    0.000    6.000 
#    0.000    2.500    0.000    7.500    0.000    0.000 
#    0.000    0.000    0.000    0.000    0.000    0.000 
#
# Total GULP energy -198290.696534 kJ/mol
# GULP energy per Si atom -12393.168533 kJ/mol
# Density = 2.163462 g / cm^3
# Si number density = 21.683976 Si / 1000 Ang^3
#
#
#
# Elastic Constant Matrix: (Units=GPa)
#
#
# Indices 1 2 3 4 5 6 
#
# 1 45.0403 13.4211 21.1650 4.3911 -5.6998 -12.2442
# 2 13.4211 68.0853 21.2473 6.7740 -8.5103 -7.3383
# 3 21.1650 21.2473 89.6064 6.0203 9.3640 -5.2887
# 4 4.3911 6.7740 6.0203 28.4468 -2.6596 1.9708
# 5 -5.6998 -8.5103 9.3640 -2.6596 27.5472 6.3472
# 6 -12.2442 -7.3383 -5.2887 1.9708 6.3472 19.4861
#
#
#
# Elastic Compliance Matrix: (Units=1/GPa)
#
#
# Indices 1 2 3 4 5 6 
#
# 1 0.030812 -0.001555 -0.006092 -0.003864 0.003846 0.016260
# 2 -0.001555 0.017531 -0.003996 -0.002786 0.005484 0.003036
# 3 -0.006092 -0.003996 0.014604 -0.002045 -0.007988 0.001440
# 4 -0.003864 -0.002786 -0.002045 0.037958 0.004880 -0.009460
# 5 0.003846 0.005484 -0.007988 0.004880 0.044931 -0.012815
# 6 0.016260 0.003036 0.001440 -0.009460 -0.012815 0.068201
#
#
# Mechanical properties :
#
#
# Convention : Reuss Voigt Hill
#
# Bulk Modulus (GPa) = 25.21414 34.93320 30.07367
# Shear Modulus (GPa) = 19.95674 24.88924 22.42299
#
# Velocity S-wave (km/s) = 3.03701 3.39162 3.21920
# Velocity P-wave (km/s) = 4.89399 5.61093 5.26468
#
# Compressibility (1/GPa) = 0.03966028
#
# Stress axis : x y z
#
# Youngs Moduli (GPa) = 32.45497 57.04167 68.47637
#
# Poissons Ratio (x) = 0.08870 0.41714
# Poissons Ratio (y) = 0.05047 0.27366
# Poissons Ratio (z) = 0.19771 0.22796
#
# Static dielectric constant tensor:
#      x y z
#    x 3.611500 0.016020 0.158060 
#    y 0.016020 3.652930 0.057560 
#    z 0.158060 0.057560 4.197750 
# 
# 
# High freq. dielectric constant tensor:
#      x y z
#    x 1.819310 -0.001800 0.012470 
#    y -0.001800 1.830970 0.004190 
#    z 0.012470 0.004190 1.871530 
# 
# From -- ./inp_files/544065.got.cif
#   From: 2010.06.25/outbox.cif.g09.slc.cpg/sg2_273_cif.got.tgz:544065.got - 2010.06.27 13:26:56.
