data_PCOD8005618
_publ_section_title
;
Structure prediction by ZEFSAII (Michael W. Deem and Ramdas Pophale) SiO2 
 PCOD8005618
Probable space group: P -1
;
_chemical_formula_sum "Si O2"
_cell_formula_units_Z 14
_cell_length_a 11.280549
_cell_length_b 13.870893
_cell_length_c 11.665750
_cell_angle_alpha 44.695189
_cell_angle_beta 56.580366
_cell_angle_gamma 31.802031
_cell_volume 669.512125
_symmetry_space_group_name_H-M "P -1"
_symmetry_group_IT_number 2
_symmetry_cell_setting 'triclinic'
loop_
_space_group_symop_operation_xyz
x,y,z
-x,-y,-z
loop_
_atom_site_type_symbol
_atom_site_label
_atom_site_fract_x
_atom_site_fract_y
_atom_site_fract_z
Si Si1 0.247378 0.239843 0.081210
Si Si2 0.564448 0.303920 0.178703
Si Si3 0.095134 0.380509 0.701535
Si Si4 0.763897 0.487904 0.622431
Si Si5 0.360139 0.188144 0.318531
Si Si6 0.677102 0.010730 0.936291
Si Si7 0.058840 0.930366 0.160862
O O1 0.359204 0.128553 0.241237
O O2 0.252318 0.083517 0.152315
O O3 0.408778 0.217876 0.935468
O O4 0.000000 0.500000 0.000000
O O5 0.463636 0.354597 0.315215
O O6 0.461833 0.264514 0.184165
O O7 0.500000 0.500000 0.000000
O O8 0.834071 0.089607 0.222292
O O9 0.270818 0.359793 0.574243
O O10 0.990553 0.353642 0.687604
O O11 0.896972 0.615574 0.668382
O O12 0.233026 0.189962 0.877346
O O13 0.804190 0.312820 0.687717
O O14 0.500000 0.000000 0.500000
O O15 0.789851 0.065166 0.869858
O O16 0.000000 0.000000 0.000000
#
# Coordination Sequence:
#
# PCOD8005618 Si02
#       7
#     2   2   2   2   2   2   2
#     4  11  25  43  65  96 132 174 214 267 324 389
#     4  11  22  35  58  98 127 162 212 266 324 375
#     4  10  20  39  60  96 130 163 214 264 321 376
#     4  10  22  34  56  94 135 160 199 275 319 368
#     4  11  23  40  69 100 128 167 219 272 320 376
#     4  11  24  41  67  94 127 173 221 259 321 392
#     4  12  20  36  61  93 129 165 213 268 321 376
#
# _framework density 20.910748999999999
#
# number of rings (size 3 to 8) (size 9 to 14) (size 15 to 20)
#    0.000    1.143    4.286    2.571    6.000    0.000 
#    0.000    0.000    0.000    8.571    0.000    0.000 
#    0.000    0.000    0.000    0.000    0.000    0.000 
#
# Total GULP energy -173517.759385 kJ/mol
# GULP energy per Si atom -12394.125670 kJ/mol
# Density = 2.086315 g / cm^3
# Si number density = 20.910749 Si / 1000 Ang^3
#
#
#
# Elastic Constant Matrix: (Units=GPa)
#
#
# Indices 1 2 3 4 5 6 
#
# 1 156.8937 60.1189 54.4072 9.6174 -16.0998 23.2961
# 2 60.1189 157.3999 38.5305 11.1771 -17.7949 -0.3532
# 3 54.4072 38.5305 102.7316 6.1236 -10.3196 8.7751
# 4 9.6174 11.1771 6.1236 26.4562 -7.5507 -4.8518
# 5 -16.0998 -17.7949 -10.3196 -7.5507 30.5211 5.0418
# 6 23.2961 -0.3532 8.7751 -4.8518 5.0418 35.4065
#
#
#
# Elastic Compliance Matrix: (Units=1/GPa)
#
#
# Indices 1 2 3 4 5 6 
#
# 1 0.009880 -0.002469 -0.003312 -0.002047 0.003210 -0.006442
# 2 -0.002469 0.008020 -0.001535 -0.001187 0.002297 0.001595
# 3 -0.003312 -0.001535 0.012372 -0.000795 0.001548 -0.001232
# 4 -0.002047 -0.001187 -0.000795 0.042505 0.007434 0.006298
# 5 0.003210 0.002297 0.001548 0.007434 0.039325 -0.007054
# 6 -0.006442 0.001595 -0.001232 0.006298 -0.007054 0.034671
#
#
# Mechanical properties :
#
#
# Convention : Reuss Voigt Hill
#
# Bulk Modulus (GPa) = 63.93901 80.34872 72.14387
# Shear Modulus (GPa) = 30.00920 36.07466 33.04193
#
# Velocity S-wave (km/s) = 3.79239 4.15803 3.97941
# Velocity P-wave (km/s) = 7.05831 7.84604 7.46258
#
# Compressibility (1/GPa) = 0.01563990
#
# Stress axis : x y z
#
# Youngs Moduli (GPa) = 101.21864 124.69411 80.82919
#
# Poissons Ratio (x) = 0.30788 0.26767
# Poissons Ratio (y) = 0.24992 0.12407
# Poissons Ratio (z) = 0.33519 0.19140
#
# Static dielectric constant tensor:
#      x y z
#    x 3.894440 0.067130 -0.124640 
#    y 0.067130 4.310400 0.055680 
#    z -0.124640 0.055680 3.676220 
# 
# 
# High freq. dielectric constant tensor:
#      x y z
#    x 1.810270 0.008440 -0.012070 
#    y 0.008440 1.842730 0.007540 
#    z -0.012070 0.007540 1.798410 
# 
# From -- ./inp_files/432424.got.cif
#   From: 2010.06.25/outbox.cif.g09.slc.cpg/sg2_217_cif.got.tgz:432424.got - 2010.06.27 13:26:56.
