data_PCOD8005760
_publ_section_title
;
Structure prediction by ZEFSAII (Michael W. Deem and Ramdas Pophale) SiO2 
 PCOD8005760
Probable space group: P -1
;
_chemical_formula_sum "Si O2"
_cell_formula_units_Z 16
_cell_length_a 13.449789
_cell_length_b 9.285251
_cell_length_c 9.597340
_cell_angle_alpha 43.407000
_cell_angle_beta 112.754051
_cell_angle_gamma 106.256106
_cell_volume 759.521809
_symmetry_space_group_name_H-M "P -1"
_symmetry_group_IT_number 2
_symmetry_cell_setting 'triclinic'
loop_
_space_group_symop_operation_xyz
x,y,z
-x,-y,-z
loop_
_atom_site_type_symbol
_atom_site_label
_atom_site_fract_x
_atom_site_fract_y
_atom_site_fract_z
Si Si1 0.750305 0.588365 0.566124
Si Si2 0.634437 0.957067 0.907110
Si Si3 0.018665 0.709901 0.280900
Si Si4 0.739538 0.242533 0.572239
Si Si5 0.847464 0.934975 0.198618
Si Si6 0.928876 0.362397 0.956813
Si Si7 0.469781 0.304547 0.531315
Si Si8 0.431417 0.516620 0.812587
O O1 0.707500 0.411746 0.558470
O O2 0.837295 0.739270 0.432860
O O3 0.814189 0.476821 0.803059
O O4 0.657652 0.727941 0.489573
O O5 0.683739 0.019877 0.737742
O O6 0.527880 0.098334 0.769919
O O7 0.729524 0.008492 0.031695
O O8 0.602661 0.717634 0.081945
O O9 0.133414 0.792745 0.344782
O O10 0.018296 0.665177 0.147927
O O11 0.000000 0.500000 0.500000
O O12 0.923662 0.874252 0.149951
O O13 0.679861 0.343593 0.332362
O O14 0.905171 0.130854 0.169248
O O15 0.000000 0.500000 0.000000
O O16 0.500000 0.500000 0.500000
O O17 0.494885 0.360074 0.345598
O O18 0.500000 0.500000 0.000000
#
# Coordination Sequence:
#
# PCOD8005760 Si02
#       8
#     2   2   2   2   2   2   2   2
#     4  11  21  42  61  93 129 163 214 260 305 384
#     4  11  21  38  68  90 121 167 214 254 308 378
#     4  11  20  41  70  93 124 173 217 254 311 389
#     4  10  20  39  62  91 126 158 212 263 296 378
#     4  12  21  40  73  93 122 176 222 249 315 388
#     4  11  25  43  63  98 135 160 212 276 317 365
#     4  11  21  40  65  93 123 164 211 260 308 381
#     4  11  24  42  61  92 129 163 206 267 318 362
#
# _framework density 21.065887
#
# number of rings (size 3 to 8) (size 9 to 14) (size 15 to 20)
#    0.000    1.000    8.750    0.375    0.000    5.500 
#    4.500    1.250    0.000    0.000    0.000    0.000 
#    0.000    0.000    0.000    0.000    0.000    0.000 
#
# Total GULP energy -198256.373552 kJ/mol
# GULP energy per Si atom -12391.023347 kJ/mol
# Density = 2.101794 g / cm^3
# Si number density = 21.065887 Si / 1000 Ang^3
#
#
#
# Elastic Constant Matrix: (Units=GPa)
#
#
# Indices 1 2 3 4 5 6 
#
# 1 123.5857 25.8807 21.7449 -3.9564 14.4520 -8.7117
# 2 25.8807 66.1853 21.6269 0.6997 6.2310 12.4056
# 3 21.7449 21.6269 86.5315 -3.8157 10.5394 0.3121
# 4 -3.9564 0.6997 -3.8157 37.2111 7.3392 2.9803
# 5 14.4520 6.2310 10.5394 7.3392 36.2117 -4.7685
# 6 -8.7117 12.4056 0.3121 2.9803 -4.7685 22.8305
#
#
#
# Elastic Compliance Matrix: (Units=1/GPa)
#
#
# Indices 1 2 3 4 5 6 
#
# 1 0.009889 -0.004333 -0.001087 0.001048 -0.002372 0.005511
# 2 -0.004333 0.020792 -0.003725 0.000363 -0.002615 -0.013494
# 3 -0.001087 -0.003725 0.013216 0.001874 -0.003081 0.000540
# 4 0.001048 0.000363 0.001874 0.029088 -0.007608 -0.005209
# 5 -0.002372 -0.002615 -0.003081 -0.007608 0.032550 0.008350
# 6 0.005511 -0.013494 0.000540 -0.005209 0.008350 0.055653
#
#
# Mechanical properties :
#
#
# Convention : Reuss Voigt Hill
#
# Bulk Modulus (GPa) = 39.04843 46.08973 42.56908
# Shear Modulus (GPa) = 26.59384 33.05400 29.82392
#
# Velocity S-wave (km/s) = 3.55690 3.96546 3.76672
# Velocity P-wave (km/s) = 5.95359 6.54926 6.25852
#
# Compressibility (1/GPa) = 0.02560922
#
# Stress axis : x y z
#
# Youngs Moduli (GPa) = 101.11769 48.09561 75.66324
#
# Poissons Ratio (x) = 0.20838 0.08226
# Poissons Ratio (y) = 0.43810 0.28182
# Poissons Ratio (z) = 0.10993 0.17914
#
# Static dielectric constant tensor:
#      x y z
#    x 4.943360 -0.259430 0.440150 
#    y -0.259430 3.865850 -0.701430 
#    z 0.440150 -0.701430 4.553870 
# 
# 
# High freq. dielectric constant tensor:
#      x y z
#    x 1.836850 0.015990 0.008880 
#    y 0.015990 1.775950 -0.031510 
#    z 0.008880 -0.031510 1.844580 
# 
# From -- ./inp_files/297546.got.cif
#   From: 2010.06.25/outbox.cif.g09.slc.cpg/sg2_149_cif.got.tgz:297546.got - 2010.06.27 13:26:56.
