data_PCOD8005446
_publ_section_title
;
Structure prediction by ZEFSAII (Michael W. Deem and Ramdas Pophale) SiO2 
 PCOD8005446
Probable space group: P -1
;
_chemical_formula_sum "Si O2"
_cell_formula_units_Z 16
_cell_length_a 9.727658
_cell_length_b 29.123263
_cell_length_c 15.485799
_cell_angle_alpha 19.175975
_cell_angle_beta 137.440743
_cell_angle_gamma 145.891743
_cell_volume 783.081327
_symmetry_space_group_name_H-M "P -1"
_symmetry_group_IT_number 2
_symmetry_cell_setting 'triclinic'
loop_
_space_group_symop_operation_xyz
x,y,z
-x,-y,-z
loop_
_atom_site_type_symbol
_atom_site_label
_atom_site_fract_x
_atom_site_fract_y
_atom_site_fract_z
Si Si1 0.500486 0.049269 0.007700
Si Si2 0.558982 0.525279 0.585641
Si Si3 0.724795 0.435873 0.466849
Si Si4 0.370128 0.152826 0.175629
Si Si5 0.484051 0.966976 0.697323
Si Si6 0.080146 0.874913 0.245183
Si Si7 0.899229 0.988792 0.344262
Si Si8 0.927187 0.760736 0.875751
O O1 0.215981 0.918030 0.140070
O O2 0.678636 0.011681 0.204977
O O3 0.571889 0.240792 0.708334
O O4 0.500000 0.000000 0.000000
O O5 0.500000 0.500000 0.500000
O O6 0.383499 0.557407 0.503152
O O7 0.843538 0.676401 0.477512
O O8 0.512537 0.353344 0.905931
O O9 0.000000 0.500000 0.500000
O O10 0.745445 0.559035 0.180063
O O11 0.465448 0.086466 0.410499
O O12 0.442202 0.139170 0.135882
O O13 0.062467 0.044795 0.231662
O O14 0.716630 0.090776 0.649786
O O15 0.218449 0.830342 0.867157
O O16 0.000000 0.000000 0.000000
O O17 0.814992 0.796538 0.675665
O O18 0.095058 0.131168 0.252123
#
# Coordination Sequence:
#
# PCOD8005446 Si02
#       8
#     2   2   2   2   2   2   2   2
#     4  12  27  42  63  96 132 174 214 264 329 382
#     4  12  27  40  64  96 129 169 220 267 322 385
#     4  12  23  42  65  96 126 167 216 271 316 383
#     4  10  22  40  68  97 127 168 217 269 308 394
#     4  10  22  42  66  96 130 170 217 256 330 382
#     4  12  25  42  61  89 133 175 208 269 324 384
#     4  10  20  40  65  95 123 168 211 262 317 381
#     4  10  20  38  70  93 123 163 220 263 312 381
#
# _framework density 20.432106000000001
#
# number of rings (size 3 to 8) (size 9 to 14) (size 15 to 20)
#    0.000    1.000    5.000    0.750    7.000    0.500 
#    0.000    0.625    0.000    0.000    0.000    0.000 
#    0.000    0.000    0.000    0.000    0.000    0.000 
#
# Total GULP energy -198228.779760 kJ/mol
# GULP energy per Si atom -12389.298735 kJ/mol
# Density = 2.038560 g / cm^3
# Si number density = 20.432106 Si / 1000 Ang^3
#
#
#
# Elastic Constant Matrix: (Units=GPa)
#
#
# Indices 1 2 3 4 5 6 
#
# 1 171.8881 37.4616 52.6692 -7.6958 -4.4907 -5.3507
# 2 37.4616 69.7193 35.3486 -6.8228 -5.4025 -4.0671
# 3 52.6692 35.3486 120.8858 -0.1402 -2.9366 7.0617
# 4 -7.6958 -6.8228 -0.1402 22.5304 0.5613 0.0247
# 5 -4.4907 -5.4025 -2.9366 0.5613 33.7434 -2.8849
# 6 -5.3507 -4.0671 7.0617 0.0247 -2.8849 31.3615
#
#
#
# Elastic Compliance Matrix: (Units=1/GPa)
#
#
# Indices 1 2 3 4 5 6 
#
# 1 0.007242 -0.002293 -0.002562 0.001750 0.000478 0.001558
# 2 -0.002293 0.018774 -0.004618 0.004807 0.002502 0.003310
# 3 -0.002562 -0.004618 0.010933 -0.002192 -0.000394 -0.003532
# 4 0.001750 0.004807 -0.002192 0.046419 0.000159 0.001394
# 5 0.000478 0.002502 -0.000394 0.000159 0.030343 0.003286
# 6 0.001558 0.003310 -0.003532 0.001394 0.003286 0.033678
#
#
# Mechanical properties :
#
#
# Convention : Reuss Voigt Hill
#
# Bulk Modulus (GPa) = 55.54561 68.16132 61.85347
# Shear Modulus (GPa) = 29.01319 33.32799 31.17059
#
# Velocity S-wave (km/s) = 3.77235 4.04314 3.91009
# Velocity P-wave (km/s) = 6.79843 7.43158 7.12204
#
# Compressibility (1/GPa) = 0.01800322
#
# Stress axis : x y z
#
# Youngs Moduli (GPa) = 138.08609 53.26542 91.46598
#
# Poissons Ratio (x) = 0.12214 0.23434
# Poissons Ratio (y) = 0.31664 0.42236
# Poissons Ratio (z) = 0.35378 0.24596
#
# Static dielectric constant tensor:
#      x y z
#    x 4.035410 0.451010 0.121490 
#    y 0.451010 2.137010 -0.251750 
#    z 0.121490 -0.251750 3.489680 
# 
# 
# High freq. dielectric constant tensor:
#      x y z
#    x 1.832480 0.002110 -0.001220 
#    y 0.002110 1.767590 0.015540 
#    z -0.001220 0.015540 1.805370 
# 
# From -- ./inp_files/508983.got.cif
#   From: 2010.06.25/outbox.cif.g09.slc.cpg/sg2_255_cif.got.tgz:508983.got - 2010.06.27 13:26:56.
