data_PCOD8005091
_publ_section_title
;
Structure prediction by ZEFSAII (Michael W. Deem and Ramdas Pophale) SiO2 
 PCOD8005091
Probable space group: P -1
;
_chemical_formula_sum "Si O2"
_cell_formula_units_Z 16
_cell_length_a 15.160379
_cell_length_b 16.947835
_cell_length_c 8.788864
_cell_angle_alpha 142.571997
_cell_angle_beta 40.921324
_cell_angle_gamma 144.703573
_cell_volume 754.953481
_symmetry_space_group_name_H-M "P -1"
_symmetry_group_IT_number 2
_symmetry_cell_setting 'triclinic'
loop_
_space_group_symop_operation_xyz
x,y,z
-x,-y,-z
loop_
_atom_site_type_symbol
_atom_site_label
_atom_site_fract_x
_atom_site_fract_y
_atom_site_fract_z
Si Si1 0.657259 0.359906 0.782718
Si Si2 0.873990 0.704406 0.529025
Si Si3 0.772557 0.163055 0.808105
Si Si4 0.652558 0.833715 0.513950
Si Si5 0.339488 0.892332 0.449401
Si Si6 0.670379 0.605655 0.354642
Si Si7 0.281751 0.619588 0.606595
Si Si8 0.282278 0.142071 0.875236
O O1 0.734475 0.278714 0.649489
O O2 0.744395 0.399763 0.568625
O O3 0.465630 0.258140 0.864478
O O4 0.700046 0.514359 0.047892
O O5 0.815339 0.667782 0.376920
O O6 0.782102 0.548140 0.504249
O O7 0.062536 0.781673 0.408880
O O8 0.836138 0.825116 0.832714
O O9 0.640479 0.119729 0.778757
O O10 0.711789 0.009266 0.752675
O O11 0.807115 0.303562 0.086293
O O12 0.693994 0.757638 0.478564
O O13 0.464375 0.733819 0.585854
O O14 0.735466 0.840885 0.256055
O O15 0.500000 0.000000 0.500000
O O16 0.233221 0.968322 0.718910
O O17 0.500000 0.500000 0.500000
#
# Coordination Sequence:
#
# PCOD8005091 Si02
#       8
#     2   2   2   2   2   2   2   2
#     4  10  20  38  64  94 117 160 218 260 296 360
#     4  12  24  39  63  92 131 166 203 257 317 369
#     4  11  25  42  61  93 130 167 202 255 321 366
#     4  10  22  39  64  91 120 163 212 258 303 367
#     4   9  20  38  64  90 122 159 206 254 301 370
#     4  12  22  38  64  95 121 164 210 261 303 370
#     4  11  22  41  65  91 127 167 211 255 304 373
#     4   9  19  38  61  93 123 159 205 256 315 362
#
# _framework density 21.193359000000001
#
# number of rings (size 3 to 8) (size 9 to 14) (size 15 to 20)
#    0.000    1.500    2.500    3.000    0.000    5.500 
#    0.000    3.750    0.000    0.000    0.000    0.000 
#    0.000    0.000    0.000    0.000    0.000    0.000 
#
# Total GULP energy -198340.394310 kJ/mol
# GULP energy per Si atom -12396.274644 kJ/mol
# Density = 2.114512 g / cm^3
# Si number density = 21.193359 Si / 1000 Ang^3
#
#
#
# Elastic Constant Matrix: (Units=GPa)
#
#
# Indices 1 2 3 4 5 6 
#
# 1 90.0882 36.6083 35.0293 1.9277 6.1321 -30.1071
# 2 36.6083 104.9012 27.7070 16.4874 -15.2327 -30.7362
# 3 35.0293 27.7070 150.7674 7.6372 5.4997 -20.0373
# 4 1.9277 16.4874 7.6372 36.4060 -3.4331 -11.2072
# 5 6.1321 -15.2327 5.4997 -3.4331 26.1184 4.3200
# 6 -30.1071 -30.7362 -20.0373 -11.2072 4.3200 41.7697
#
#
#
# Elastic Compliance Matrix: (Units=1/GPa)
#
#
# Indices 1 2 3 4 5 6 
#
# 1 0.017413 -0.004242 -0.001816 0.003873 -0.007385 0.010361
# 2 -0.004242 0.014685 -0.001121 -0.003755 0.008421 0.005331
# 3 -0.001816 -0.001121 0.007580 -0.000719 -0.002172 0.001534
# 4 0.003873 -0.003755 -0.000719 0.031620 -0.000145 0.008183
# 5 -0.007385 0.008421 -0.002172 -0.000145 0.046195 -0.004985
# 6 0.010361 0.005331 0.001534 0.008183 -0.004985 0.038779
#
#
# Mechanical properties :
#
#
# Convention : Reuss Voigt Hill
#
# Bulk Modulus (GPa) = 39.49716 60.49400 49.99558
# Shear Modulus (GPa) = 27.92216 37.28631 32.60424
#
# Velocity S-wave (km/s) = 3.63367 4.19900 3.92652
# Velocity P-wave (km/s) = 6.02344 7.21904 6.64817
#
# Compressibility (1/GPa) = 0.02531828
#
# Stress axis : x y z
#
# Youngs Moduli (GPa) = 57.42980 68.09869 131.92212
#
# Poissons Ratio (x) = 0.28890 0.23955
# Poissons Ratio (y) = 0.24364 0.14793
# Poissons Ratio (z) = 0.10428 0.07636
#
# Static dielectric constant tensor:
#      x y z
#    x 3.974400 -0.294040 0.053840 
#    y -0.294040 3.806830 0.274310 
#    z 0.053840 0.274310 3.957390 
# 
# 
# High freq. dielectric constant tensor:
#      x y z
#    x 1.830430 -0.015760 0.008980 
#    y -0.015760 1.820510 0.023290 
#    z 0.008980 0.023290 1.836890 
# 
# From -- ./inp_files/277799.got.cif
#   From: 2010.06.25/outbox.cif.g09.slc.cpg/sg2_139_cif.got.tgz:277799.got - 2010.06.27 13:26:56.
