data_PCOD8005786
_publ_section_title
;
Structure prediction by ZEFSAII (Michael W. Deem and Ramdas Pophale) SiO2 
 PCOD8005786
Probable space group: P -1
;
_chemical_formula_sum "Si O2"
_cell_formula_units_Z 14
_cell_length_a 21.567191
_cell_length_b 10.024080
_cell_length_c 18.501889
_cell_angle_alpha 47.342197
_cell_angle_beta 18.437807
_cell_angle_gamma 35.764445
_cell_volume 640.943167
_symmetry_space_group_name_H-M "P -1"
_symmetry_group_IT_number 2
_symmetry_cell_setting 'triclinic'
loop_
_space_group_symop_operation_xyz
x,y,z
-x,-y,-z
loop_
_atom_site_type_symbol
_atom_site_label
_atom_site_fract_x
_atom_site_fract_y
_atom_site_fract_z
Si Si1 0.216815 0.041682 0.547519
Si Si2 0.791502 0.753143 0.966364
Si Si3 0.926277 0.793221 0.095793
Si Si4 0.848475 0.606646 0.705760
Si Si5 0.189423 0.051232 0.270023
Si Si6 0.406306 0.767971 0.586502
Si Si7 0.984393 0.812160 0.866804
O O1 0.004687 0.353500 0.676092
O O2 0.462552 0.910205 0.263831
O O3 0.379717 0.901427 0.494096
O O4 0.026619 0.999019 0.750588
O O5 0.006791 0.446104 0.857170
O O6 0.793637 0.894409 0.978391
O O7 0.895374 0.775942 0.769856
O O8 0.210180 0.722788 0.814128
O O9 0.831234 0.847137 0.097120
O O10 0.668378 0.057021 0.327019
O O11 0.000000 0.500000 0.500000
O O12 0.875771 0.786352 0.646032
O O13 0.518737 0.772058 0.003925
O O14 0.000000 0.000000 0.500000
O O15 0.721642 0.491492 0.351935
#
# Coordination Sequence:
#
# PCOD8005786 Si02
#       7
#     2   2   2   2   2   2   2
#     4  11  22  43  67  96 132 176 222 269 335 396
#     4  12  23  41  68  94 136 173 219 275 337 396
#     4  10  20  39  62  94 132 174 219 263 322 400
#     4  11  25  48  77  95 131 181 226 284 347 401
#     4  11  28  49  70 104 134 172 233 292 338 403
#     4  10  20  39  64  91 136 174 215 267 320 395
#     4  11  23  39  63  98 134 174 211 272 326 395
#
# _framework density 21.84281
#
# number of rings (size 3 to 8) (size 9 to 14) (size 15 to 20)
#    0.000    1.143    4.286    2.143    2.000    2.286 
#   10.286    0.000    0.000    0.000    0.000    0.000 
#    0.000    0.000    0.000    0.000    0.000    0.000 
#
# Total GULP energy -173680.568287 kJ/mol
# GULP energy per Si atom -12405.754878 kJ/mol
# Density = 2.179309 g / cm^3
# Si number density = 21.842810 Si / 1000 Ang^3
#
#
#
# Elastic Constant Matrix: (Units=GPa)
#
#
# Indices 1 2 3 4 5 6 
#
# 1 93.5359 34.9311 28.1400 -0.5091 21.7470 18.4121
# 2 34.9311 115.4538 54.7593 -3.3043 2.7331 -0.2283
# 3 28.1400 54.7593 89.9253 -1.3982 22.3257 10.1148
# 4 -0.5091 -3.3043 -1.3982 32.3664 -2.7547 4.8987
# 5 21.7470 2.7331 22.3257 -2.7547 33.2089 0.7145
# 6 18.4121 -0.2283 10.1148 4.8987 0.7145 24.2238
#
#
#
# Elastic Compliance Matrix: (Units=1/GPa)
#
#
# Indices 1 2 3 4 5 6 
#
# 1 0.018336 -0.006908 0.003528 0.000904 -0.013407 -0.015263
# 2 -0.006908 0.015841 -0.011189 0.000462 0.010573 0.009667
# 3 0.003528 -0.011189 0.022106 0.000264 -0.015980 -0.011600
# 4 0.000904 0.000462 0.000264 0.032258 0.002027 -0.007376
# 5 -0.013407 0.010573 -0.015980 0.002027 0.048608 0.015119
# 6 -0.015263 0.009667 -0.011600 -0.007376 0.015119 0.058863
#
#
# Mechanical properties :
#
#
# Convention : Reuss Voigt Hill
#
# Bulk Modulus (GPa) = 36.84014 59.39731 48.11872
# Shear Modulus (GPa) = 21.34950 30.03213 25.69082
#
# Velocity S-wave (km/s) = 3.12976 3.71202 3.43325
# Velocity P-wave (km/s) = 5.47386 6.75457 6.14765
#
# Compressibility (1/GPa) = 0.02714431
#
# Stress axis : x y z
#
# Youngs Moduli (GPa) = 54.53786 63.12890 45.23652
#
# Poissons Ratio (x) = 0.43609 -0.15960
# Poissons Ratio (y) = 0.37674 0.50617
# Poissons Ratio (z) = -0.19242 0.70637
#
# Static dielectric constant tensor:
#      x y z
#    x 4.058550 0.109010 0.072660 
#    y 0.109010 4.085510 -0.042390 
#    z 0.072660 -0.042390 3.871480 
# 
# 
# High freq. dielectric constant tensor:
#      x y z
#    x 1.859510 0.007160 0.003890 
#    y 0.007160 1.865690 -0.002040 
#    z 0.003890 -0.002040 1.861650 
# 
# From -- ./inp_files/577227.got.cif
#   From: 2010.06.25/outbox.cif.g09.slc.cpg/sg2_289_cif.got.tgz:577227.got - 2010.06.27 13:26:56.
