data_PCOD8005510
_publ_section_title
;
Structure prediction by ZEFSAII (Michael W. Deem and Ramdas Pophale) SiO2 
 PCOD8005510
Probable space group: P -1
;
_chemical_formula_sum "Si O2"
_cell_formula_units_Z 16
_cell_length_a 25.594782
_cell_length_b 17.041016
_cell_length_c 13.984832
_cell_angle_alpha 146.695303
_cell_angle_beta 159.508649
_cell_angle_gamma 22.141057
_cell_volume 780.902037
_symmetry_space_group_name_H-M "P -1"
_symmetry_group_IT_number 2
_symmetry_cell_setting 'triclinic'
loop_
_space_group_symop_operation_xyz
x,y,z
-x,-y,-z
loop_
_atom_site_type_symbol
_atom_site_label
_atom_site_fract_x
_atom_site_fract_y
_atom_site_fract_z
Si Si1 0.601645 0.462371 0.034206
Si Si2 0.892777 0.271485 0.074702
Si Si3 0.209005 0.114154 0.622218
Si Si4 0.864822 0.237894 0.520371
Si Si5 0.297515 0.828814 0.238348
Si Si6 0.025080 0.646694 0.354075
Si Si7 0.204436 0.477590 0.170488
Si Si8 0.339837 0.335686 0.051598
O O1 0.755699 0.493860 0.343664
O O2 0.500000 0.500000 0.000000
O O3 0.390081 0.637249 0.780796
O O4 0.733493 0.232891 0.979025
O O5 0.986999 0.236529 0.306768
O O6 0.729903 0.253710 0.798798
O O7 0.738507 0.509409 0.012696
O O8 0.099311 0.088966 0.170621
O O9 0.174939 0.152442 0.717203
O O10 0.392862 0.855877 0.663606
O O11 0.286783 0.209316 0.807273
O O12 0.928803 0.290050 0.593708
O O13 0.909538 0.297680 0.753623
O O14 0.000000 0.000000 0.500000
O O15 0.545217 0.724503 0.561899
O O16 0.963056 0.531955 0.097285
O O17 0.208866 0.486832 0.073535
#
# Coordination Sequence:
#
# PCOD8005510 Si02
#       8
#     2   2   2   2   2   2   2   2
#     4   9  19  37  60  80 112 154 192 239 303 351
#     4  11  21  37  59  85 125 161 205 245 299 362
#     4  10  20  39  58  88 124 154 208 245 304 359
#     4  10  22  39  61  91 116 149 201 253 299 365
#     4  10  21  37  56  87 120 156 202 250 298 358
#     4  10  20  39  63  82 115 164 192 244 309 355
#     4  10  21  40  59  85 121 156 204 246 303 365
#     4  10  22  36  60  89 119 165 196 253 301 358
#
# _framework density 20.489125999999999
#
# number of rings (size 3 to 8) (size 9 to 14) (size 15 to 20)
#    0.000    2.000    2.500    0.750    0.000    4.500 
#    0.000    1.875    0.000    0.000    0.000    0.000 
#    0.000    0.000    0.000    0.000    0.000    0.000 
#
# Total GULP energy -198211.881652 kJ/mol
# GULP energy per Si atom -12388.242603 kJ/mol
# Density = 2.044249 g / cm^3
# Si number density = 20.489126 Si / 1000 Ang^3
#
#
#
# Elastic Constant Matrix: (Units=GPa)
#
#
# Indices 1 2 3 4 5 6 
#
# 1 64.1353 36.0113 17.7888 0.9030 -5.9401 -9.6506
# 2 36.0113 128.1560 41.1321 8.6040 -8.7388 -2.4996
# 3 17.7888 41.1321 136.7702 13.7622 3.2882 4.3754
# 4 0.9030 8.6040 13.7622 19.3590 -5.3431 -12.3785
# 5 -5.9401 -8.7388 3.2882 -5.3431 29.4976 1.5425
# 6 -9.6506 -2.4996 4.3754 -12.3785 1.5425 32.0463
#
#
#
# Elastic Compliance Matrix: (Units=1/GPa)
#
#
# Indices 1 2 3 4 5 6 
#
# 1 0.021163 -0.005317 -0.002726 0.011235 0.004479 0.010455
# 2 -0.005317 0.010258 -0.001986 -0.003774 0.001614 -0.002065
# 3 -0.002726 -0.001986 0.009666 -0.010995 -0.003874 -0.006356
# 4 0.011235 -0.003774 -0.010995 0.089823 0.016628 0.038486
# 5 0.004479 0.001614 -0.003874 0.016628 0.038381 0.006579
# 6 0.010455 -0.002065 -0.006356 0.038486 0.006579 0.049609
#
#
# Mechanical properties :
#
#
# Convention : Reuss Voigt Hill
#
# Bulk Modulus (GPa) = 47.55433 57.65845 52.60639
# Shear Modulus (GPa) = 20.32776 31.78922 26.05849
#
# Velocity S-wave (km/s) = 3.15322 3.94320 3.57013
# Velocity P-wave (km/s) = 6.04293 6.99528 6.53647
#
# Compressibility (1/GPa) = 0.02102858
#
# Stress axis : x y z
#
# Youngs Moduli (GPa) = 47.25153 97.48818 103.45137
#
# Poissons Ratio (x) = 0.51832 0.28204
# Poissons Ratio (y) = 0.25123 0.20549
# Poissons Ratio (z) = 0.12882 0.19364
#
# Static dielectric constant tensor:
#      x y z
#    x 3.910740 -0.397040 0.029920 
#    y -0.397040 3.605650 0.022320 
#    z 0.029920 0.022320 4.337110 
# 
# 
# High freq. dielectric constant tensor:
#      x y z
#    x 1.791830 -0.038160 0.001550 
#    y -0.038160 1.774450 0.007030 
#    z 0.001550 0.007030 1.818500 
# 
# From -- ./inp_files/296246.got.cif
#   From: 2010.06.25/outbox.cif.g09.slc.cpg/sg2_149_cif.got.tgz:296246.got - 2010.06.27 13:26:56.
