data_PCOD8005601
_publ_section_title
;
Structure prediction by ZEFSAII (Michael W. Deem and Ramdas Pophale) SiO2 
 PCOD8005601
Probable space group: P -1
;
_chemical_formula_sum "Si O2"
_cell_formula_units_Z 14
_cell_length_a 5.324044
_cell_length_b 24.472422
_cell_length_c 4.963337
_cell_angle_alpha 107.956565
_cell_angle_beta 88.967655
_cell_angle_gamma 114.525397
_cell_volume 555.145727
_symmetry_space_group_name_H-M "P -1"
_symmetry_group_IT_number 2
_symmetry_cell_setting 'triclinic'
loop_
_space_group_symop_operation_xyz
x,y,z
-x,-y,-z
loop_
_atom_site_type_symbol
_atom_site_label
_atom_site_fract_x
_atom_site_fract_y
_atom_site_fract_z
Si Si1 0.751829 0.991447 0.797029
Si Si2 0.018636 0.334364 0.179188
Si Si3 0.079308 0.562239 0.419895
Si Si4 0.889803 0.898365 0.350707
Si Si5 0.325586 0.810674 0.132957
Si Si6 0.328122 0.395191 0.748817
Si Si7 0.222068 0.873929 0.737599
O O1 0.755075 0.947827 0.478758
O O2 0.442767 0.950227 0.870985
O O3 0.831321 0.063476 0.783919
O O4 0.000000 0.000000 0.000000
O O5 0.802877 0.264790 0.990680
O O6 0.258797 0.367375 0.004974
O O7 0.845696 0.376715 0.291172
O O8 0.185546 0.335675 0.452403
O O9 0.339400 0.571492 0.239613
O O10 0.000000 0.500000 0.500000
O O11 0.810925 0.555380 0.232854
O O12 0.655665 0.839724 0.097942
O O13 0.950932 0.874177 0.600161
O O14 0.321932 0.832878 0.474385
O O15 0.162967 0.838083 0.974624
#
# Coordination Sequence:
#
# PCOD8005601 Si02
#       7
#     2   2   2   2   2   2   2
#     4  10  20  39  60  90 129 158 222 282 352 417
#     4  10  25  44  68  99 146 188 239 292 355 421
#     4  10  24  45  75 110 145 188 238 296 357 422
#     4  10  23  39  62  91 126 172 214 292 344 419
#     4  11  24  45  60  95 131 177 233 284 339 428
#     4  10  24  43  72 104 145 187 236 294 356 422
#     4  11  24  39  67  91 126 173 229 278 359 413
#
# _framework density 25.218603999999999
#
# number of rings (size 3 to 8) (size 9 to 14) (size 15 to 20)
#    0.857    0.857    1.429    1.714    4.000    2.857 
#    2.571    0.000    0.000    0.000    0.000    0.000 
#    0.000    0.000    0.000    0.000    0.000    0.000 
#
# Total GULP energy -173495.663064 kJ/mol
# GULP energy per Si atom -12392.547362 kJ/mol
# Density = 2.516121 g / cm^3
# Si number density = 25.218604 Si / 1000 Ang^3
#
#
#
# Elastic Constant Matrix: (Units=GPa)
#
#
# Indices 1 2 3 4 5 6 
#
# 1 122.9070 38.1908 6.4826 -8.6711 1.4354 10.2788
# 2 38.1908 130.9591 12.4464 2.0001 -19.6136 -10.0755
# 3 6.4826 12.4464 61.2665 -17.3914 -6.4092 -8.8489
# 4 -8.6711 2.0001 -17.3914 39.9371 -5.6704 -11.4871
# 5 1.4354 -19.6136 -6.4092 -5.6704 32.3530 -11.2972
# 6 10.2788 -10.0755 -8.8489 -11.4871 -11.2972 31.8560
#
#
#
# Elastic Compliance Matrix: (Units=1/GPa)
#
#
# Indices 1 2 3 4 5 6 
#
# 1 0.010372 -0.004517 -0.002988 -0.002506 -0.007421 -0.009141
# 2 -0.004517 0.011469 0.002606 0.004864 0.012741 0.012081
# 3 -0.002988 0.002606 0.027328 0.020575 0.018944 0.023517
# 4 -0.002506 0.004864 0.020575 0.047146 0.027564 0.034838
# 5 -0.007421 0.012741 0.018944 0.027564 0.062885 0.043927
# 6 -0.009141 0.012081 0.023517 0.034838 0.043927 0.072835
#
#
# Mechanical properties :
#
#
# Convention : Reuss Voigt Hill
#
# Bulk Modulus (GPa) = 25.39902 47.70801 36.55352
# Shear Modulus (GPa) = 19.61135 38.03007 28.82071
#
# Velocity S-wave (km/s) = 2.79167 3.88753 3.38425
# Velocity P-wave (km/s) = 4.52600 6.25375 5.45866
#
# Compressibility (1/GPa) = 0.03937159
#
# Stress axis : x y z
#
# Youngs Moduli (GPa) = 96.41569 87.19222 36.59273
#
# Poissons Ratio (x) = 0.39386 0.10933
# Poissons Ratio (y) = 0.43553 -0.09537
# Poissons Ratio (z) = 0.28806 -0.22726
#
# Static dielectric constant tensor:
#      x y z
#    x 4.571280 0.114720 -0.294500 
#    y 0.114720 4.389610 -0.008850 
#    z -0.294500 -0.008850 4.672750 
# 
# 
# High freq. dielectric constant tensor:
#      x y z
#    x 2.009380 0.003290 -0.017970 
#    y 0.003290 1.989140 -0.001410 
#    z -0.017970 -0.001410 2.020910 
# 
# From -- ./inp_files/12469.got.cif
#   From: 2010.06.25/outbox.cif.g09.slc.cpg/sg2_7_cif.got.tgz:12469.got - 2010.06.27 13:26:56.
