data_PCOD8005603
_publ_section_title
;
Structure prediction by ZEFSAII (Michael W. Deem and Ramdas Pophale) SiO2 
 PCOD8005603
Probable space group: P -1
;
_chemical_formula_sum "Si O2"
_cell_formula_units_Z 16
_cell_length_a 8.775217
_cell_length_b 11.427724
_cell_length_c 19.863506
_cell_angle_alpha 125.853827
_cell_angle_beta 149.414349
_cell_angle_gamma 57.629854
_cell_volume 819.143639
_symmetry_space_group_name_H-M "P -1"
_symmetry_group_IT_number 2
_symmetry_cell_setting 'triclinic'
loop_
_space_group_symop_operation_xyz
x,y,z
-x,-y,-z
loop_
_atom_site_type_symbol
_atom_site_label
_atom_site_fract_x
_atom_site_fract_y
_atom_site_fract_z
Si Si1 0.830140 0.886250 0.716170
Si Si2 0.674446 0.564189 0.527390
Si Si3 0.202546 0.377519 0.711670
Si Si4 0.531456 0.125213 0.001695
Si Si5 0.768240 0.933928 0.437484
Si Si6 0.879366 0.360845 0.727031
Si Si7 0.233733 0.440724 0.012071
Si Si8 0.996889 0.956690 0.300712
O O1 0.717213 0.730767 0.610213
O O2 0.109667 0.867401 0.869314
O O3 0.553236 0.984804 0.673409
O O4 0.922250 0.959537 0.706887
O O5 0.500000 0.500000 0.500000
O O6 0.451955 0.554419 0.375548
O O7 0.993067 0.474052 0.612220
O O8 0.275795 0.230344 0.650744
O O9 0.508389 0.451839 0.862656
O O10 0.048770 0.352766 0.716753
O O11 0.376312 0.276593 0.023746
O O12 0.357759 0.079883 0.851895
O O13 0.500000 0.000000 0.000000
O O14 0.000000 0.000000 0.500000
O O15 0.907905 0.944781 0.568696
O O16 0.821174 0.199571 0.676222
O O17 0.062866 0.449062 0.878935
O O18 0.000000 0.500000 0.000000
#
# Coordination Sequence:
#
# PCOD8005603 Si02
#       8
#     2   2   2   2   2   2   2   2
#     4  11  21  40  68  87 123 171 207 251 310 370
#     4  10  20  39  60  91 122 166 204 247 314 368
#     4  11  23  40  63  91 130 163 198 258 316 366
#     4   9  21  41  64  87 124 163 202 249 315 368
#     4  12  23  40  62  96 126 159 215 256 300 370
#     4  10  21  42  65  87 126 166 204 247 316 376
#     4  11  24  40  65  94 124 157 211 260 303 367
#     4  10  21  39  66  92 119 163 213 252 303 371
#
# _framework density 19.532592999999999
#
# number of rings (size 3 to 8) (size 9 to 14) (size 15 to 20)
#    0.000    1.500    3.750    1.500    5.250    0.000 
#    4.500    1.875    0.000    0.000    0.000    0.000 
#    0.000    0.000    0.000    0.000    0.000    0.000 
#
# Total GULP energy -198249.189016 kJ/mol
# GULP energy per Si atom -12390.574313 kJ/mol
# Density = 1.948814 g / cm^3
# Si number density = 19.532593 Si / 1000 Ang^3
#
#
#
# Elastic Constant Matrix: (Units=GPa)
#
#
# Indices 1 2 3 4 5 6 
#
# 1 57.7369 35.3233 43.1051 -2.2723 1.9416 -4.9411
# 2 35.3233 154.7809 81.9547 -4.5372 6.4479 -5.2096
# 3 43.1051 81.9547 183.4085 -7.6242 -7.1994 -11.7125
# 4 -2.2723 -4.5372 -7.6242 44.8803 -3.9422 4.3267
# 5 1.9416 6.4479 -7.1994 -3.9422 41.3571 4.6520
# 6 -4.9411 -5.2096 -11.7125 4.3267 4.6520 35.7713
#
#
#
# Elastic Compliance Matrix: (Units=1/GPa)
#
#
# Indices 1 2 3 4 5 6 
#
# 1 0.022165 -0.002896 -0.003876 -0.000108 -0.001451 0.001572
# 2 -0.002896 0.009009 -0.003416 0.000017 -0.001866 0.000034
# 3 -0.003876 -0.003416 0.008087 0.000895 0.002068 0.001238
# 4 -0.000108 0.000017 0.000895 0.022938 0.002664 -0.002840
# 5 -0.001451 -0.001866 0.002068 0.002664 0.025539 -0.003439
# 6 0.001572 0.000034 0.001238 -0.002840 -0.003439 0.029374
#
#
# Mechanical properties :
#
#
# Convention : Reuss Voigt Hill
#
# Bulk Modulus (GPa) = 52.94943 79.63249 66.29096
# Shear Modulus (GPa) = 34.77488 40.10463 37.43975
#
# Velocity S-wave (km/s) = 4.22400 4.53616 4.38286
# Velocity P-wave (km/s) = 7.13839 8.26397 7.72172
#
# Compressibility (1/GPa) = 0.01888595
#
# Stress axis : x y z
#
# Youngs Moduli (GPa) = 45.11703 110.99443 123.65529
#
# Poissons Ratio (x) = 0.32140 0.47933
# Poissons Ratio (y) = 0.13064 0.42236
# Poissons Ratio (z) = 0.17489 0.37911
#
# Static dielectric constant tensor:
#      x y z
#    x 3.412530 0.164420 0.069750 
#    y 0.164420 3.931910 -0.345360 
#    z 0.069750 -0.345360 4.663160 
# 
# 
# High freq. dielectric constant tensor:
#      x y z
#    x 1.726590 0.019830 0.012120 
#    y 0.019830 1.773370 -0.005350 
#    z 0.012120 -0.005350 1.794080 
# 
# From -- ./inp_files/187634.got.cif
#   From: 2010.06.25/outbox.cif.g09.slc.cpg/sg2_94_cif.got.tgz:187634.got - 2010.06.27 13:26:56.
