data_PCOD8005078
_publ_section_title
;
Structure prediction by ZEFSAII (Michael W. Deem and Ramdas Pophale) SiO2 
 PCOD8005078
Probable space group: P -1
;
_chemical_formula_sum "Si O2"
_cell_formula_units_Z 16
_cell_length_a 14.375775
_cell_length_b 10.803764
_cell_length_c 8.963106
_cell_angle_alpha 65.143527
_cell_angle_beta 137.675696
_cell_angle_gamma 122.334897
_cell_volume 791.221591
_symmetry_space_group_name_H-M "P -1"
_symmetry_group_IT_number 2
_symmetry_cell_setting 'triclinic'
loop_
_space_group_symop_operation_xyz
x,y,z
-x,-y,-z
loop_
_atom_site_type_symbol
_atom_site_label
_atom_site_fract_x
_atom_site_fract_y
_atom_site_fract_z
Si Si1 0.179967 0.159464 0.843162
Si Si2 0.772960 0.589465 0.772174
Si Si3 0.340692 0.194273 0.314958
Si Si4 0.666214 0.261619 0.755763
Si Si5 0.799030 0.097397 0.194640
Si Si6 0.887876 0.647944 0.559107
Si Si7 0.856673 0.086015 0.599453
Si Si8 0.091549 0.658429 0.250928
O O1 0.191401 0.309472 0.697261
O O2 0.206399 0.053394 0.806372
O O3 0.019087 0.081807 0.766526
O O4 0.307024 0.200006 0.097560
O O5 0.669497 0.664687 0.686314
O O6 0.696080 0.415926 0.794164
O O7 0.782911 0.623187 0.590831
O O8 0.934581 0.650814 0.005940
O O9 0.506314 0.197767 0.521952
O O10 0.226298 0.046396 0.323169
O O11 0.788537 0.274540 0.769454
O O12 0.672662 0.146473 0.947165
O O13 0.767782 0.070706 0.347077
O O14 0.957940 0.222442 0.289076
O O15 0.916437 0.501050 0.626838
O O16 0.867363 0.238655 0.608460
#
# Coordination Sequence:
#
# PCOD8005078 Si02
#       8
#     2   2   2   2   2   2   2   2
#     4  11  23  38  62  91 126 160 204 248 304 360
#     4  11  20  42  66  90 120 162 206 246 300 365
#     4  12  25  40  61  91 129 161 200 252 299 363
#     4  11  24  41  63  92 124 162 200 247 312 359
#     4  11  21  39  62  91 124 159 201 253 304 356
#     4  10  20  38  64  93 118 157 204 255 299 350
#     4  11  24  38  62  94 120 161 207 249 299 360
#     4  11  21  40  67  92 121 157 206 253 298 361
#
# _framework density 20.221896000000001
#
# number of rings (size 3 to 8) (size 9 to 14) (size 15 to 20)
#    0.000    1.000    3.750    5.250    0.000    5.500 
#    0.000    3.750    0.000    0.000    0.000    0.000 
#    0.000    0.000    0.000    0.000    0.000    0.000 
#
# Total GULP energy -198499.114060 kJ/mol
# GULP energy per Si atom -12406.194629 kJ/mol
# Density = 2.017587 g / cm^3
# Si number density = 20.221896 Si / 1000 Ang^3
#
#
#
# Elastic Constant Matrix: (Units=GPa)
#
#
# Indices 1 2 3 4 5 6 
#
# 1 37.1427 19.9420 26.2634 2.2415 -11.7451 -17.9481
# 2 19.9420 61.1458 21.4905 -9.7361 -7.7879 -18.9521
# 3 26.2634 21.4905 148.1871 -6.0458 -4.9538 -3.4237
# 4 2.2415 -9.7361 -6.0458 30.2729 1.8036 -5.5788
# 5 -11.7451 -7.7879 -4.9538 1.8036 28.7351 4.2888
# 6 -17.9481 -18.9521 -3.4237 -5.5788 4.2888 29.9007
#
#
#
# Elastic Compliance Matrix: (Units=1/GPa)
#
#
# Indices 1 2 3 4 5 6 
#
# 1 0.051603 -0.005488 -0.007444 -0.003575 0.014989 0.023827
# 2 -0.005488 0.025055 -0.001852 0.010615 0.001450 0.014147
# 3 -0.007444 -0.001852 0.008222 0.000894 -0.001540 -0.004313
# 4 -0.003575 0.010615 0.000894 0.039343 -0.002753 0.012420
# 5 0.014989 0.001450 -0.001540 -0.002753 0.040722 0.003386
# 6 0.023827 0.014147 -0.004313 0.012420 0.003386 0.058051
#
#
# Mechanical properties :
#
#
# Convention : Reuss Voigt Hill
#
# Bulk Modulus (GPa) = 18.07997 42.42972 30.25485
# Shear Modulus (GPa) = 18.45011 29.70040 24.07525
#
# Velocity S-wave (km/s) = 3.02384 3.83655 3.45418
# Velocity P-wave (km/s) = 4.59910 6.37598 5.55899
#
# Compressibility (1/GPa) = 0.05530982
#
# Stress axis : x y z
#
# Youngs Moduli (GPa) = 19.37887 39.91210 121.63184
#
# Poissons Ratio (x) = 0.21905 0.90542
# Poissons Ratio (y) = 0.10636 0.22532
# Poissons Ratio (z) = 0.14426 0.07394
#
# Static dielectric constant tensor:
#      x y z
#    x 3.587810 -0.152370 -0.084520 
#    y -0.152370 3.732260 -0.175150 
#    z -0.084520 -0.175150 3.865800 
# 
# 
# High freq. dielectric constant tensor:
#      x y z
#    x 1.779540 -0.015620 -0.009470 
#    y -0.015620 1.794430 -0.012030 
#    z -0.009470 -0.012030 1.795150 
# 
# From -- ./inp_files/306849.got.cif
#   From: 2010.06.25/outbox.cif.g09.slc.cpg/sg2_154_cif.got.tgz:306849.got - 2010.06.27 13:26:56.
