data_PCOD8005605
_publ_section_title
;
Structure prediction by ZEFSAII (Michael W. Deem and Ramdas Pophale) SiO2 
 PCOD8005605
Probable space group: P -1
;
_chemical_formula_sum "Si O2"
_cell_formula_units_Z 16
_cell_length_a 13.341018
_cell_length_b 14.144050
_cell_length_c 16.419607
_cell_angle_alpha 139.507314
_cell_angle_beta 24.365919
_cell_angle_gamma 126.186501
_cell_volume 767.085767
_symmetry_space_group_name_H-M "P -1"
_symmetry_group_IT_number 2
_symmetry_cell_setting 'triclinic'
loop_
_space_group_symop_operation_xyz
x,y,z
-x,-y,-z
loop_
_atom_site_type_symbol
_atom_site_label
_atom_site_fract_x
_atom_site_fract_y
_atom_site_fract_z
Si Si1 0.576610 0.361176 0.738956
Si Si2 0.224707 0.581016 0.544316
Si Si3 0.066602 0.168522 0.646054
Si Si4 0.221552 0.490620 0.892846
Si Si5 0.241775 0.048480 0.274608
Si Si6 0.898600 0.366831 0.656971
Si Si7 0.677534 0.850799 0.379857
Si Si8 0.247282 0.147418 0.848764
O O1 0.702607 0.379902 0.573075
O O2 0.805089 0.330635 0.615473
O O3 0.472941 0.219896 0.728575
O O4 0.338706 0.524954 0.040672
O O5 0.495891 0.516335 0.355567
O O6 0.111544 0.444988 0.537062
O O7 0.019883 0.742534 0.839122
O O8 0.289039 0.083350 0.357548
O O9 0.183371 0.148711 0.637452
O O10 0.845181 0.097482 0.761143
O O11 0.918018 0.351102 0.847777
O O12 0.302751 0.326134 0.773777
O O13 0.000000 0.500000 0.000000
O O14 0.017871 0.201727 0.505360
O O15 0.500000 0.000000 0.000000
O O16 0.814208 0.889519 0.223505
O O17 0.376860 0.979949 0.691310
#
# Coordination Sequence:
#
# PCOD8005605 Si02
#       8
#     2   2   2   2   2   2   2   2
#     4  10  20  39  60  91 127 163 199 257 312 363
#     4  11  21  37  62  92 125 163 209 252 306 375
#     4  10  23  42  63  84 123 165 202 252 314 358
#     4  10  21  41  64  85 122 169 204 251 307 358
#     4  11  23  40  61  90 118 158 206 260 302 363
#     4  10  22  36  63  90 124 162 207 254 309 369
#     4  10  21  43  61  90 128 163 201 255 311 364
#     4  10  22  38  63  92 126 160 202 256 310 367
#
# _framework density 20.858163999999999
#
# number of rings (size 3 to 8) (size 9 to 14) (size 15 to 20)
#    0.000    1.750    1.250    2.625    1.750    2.500 
#    4.500    1.250    0.000    0.000    0.000    0.000 
#    0.000    0.000    0.000    0.000    0.000    0.000 
#
# Total GULP energy -198234.357603 kJ/mol
# GULP energy per Si atom -12389.647350 kJ/mol
# Density = 2.081069 g / cm^3
# Si number density = 20.858164 Si / 1000 Ang^3
#
#
#
# Elastic Constant Matrix: (Units=GPa)
#
#
# Indices 1 2 3 4 5 6 
#
# 1 133.6442 46.4675 68.1621 0.9501 4.5483 4.7271
# 2 46.4675 83.9154 43.5526 14.6063 5.0104 0.6521
# 3 68.1621 43.5526 128.2415 -1.1663 14.7782 6.8475
# 4 0.9501 14.6063 -1.1663 42.6375 -3.2972 -2.2850
# 5 4.5483 5.0104 14.7782 -3.2972 36.5199 1.5946
# 6 4.7271 0.6521 6.8475 -2.2850 1.5946 18.1437
#
#
#
# Elastic Compliance Matrix: (Units=1/GPa)
#
#
# Indices 1 2 3 4 5 6 
#
# 1 0.011270 -0.004053 -0.004688 0.001048 0.001187 -0.000994
# 2 -0.004053 0.017141 -0.003674 -0.005893 -0.000943 0.001167
# 3 -0.004688 -0.003674 0.012107 0.001271 -0.003577 -0.002742
# 4 0.001048 -0.005893 0.001271 0.025802 0.002384 0.002499
# 5 0.001187 -0.000943 -0.003577 0.002384 0.029078 -0.001181
# 6 -0.000994 0.001167 -0.002742 0.002499 -0.001181 0.056786
#
#
# Mechanical properties :
#
#
# Convention : Reuss Voigt Hill
#
# Bulk Modulus (GPa) = 63.74373 73.57394 68.65883
# Shear Modulus (GPa) = 27.43568 31.96814 29.70191
#
# Velocity S-wave (km/s) = 3.63070 3.91915 3.77768
# Velocity P-wave (km/s) = 6.94283 7.47192 7.21223
#
# Compressibility (1/GPa) = 0.01568782
#
# Stress axis : x y z
#
# Youngs Moduli (GPa) = 88.73043 58.33955 82.59360
#
# Poissons Ratio (x) = 0.23646 0.38719
# Poissons Ratio (y) = 0.35964 0.30347
# Poissons Ratio (z) = 0.41596 0.21435
#
# Static dielectric constant tensor:
#      x y z
#    x 3.957060 0.135660 -0.023010 
#    y 0.135660 4.183530 0.463860 
#    z -0.023010 0.463860 4.146190 
# 
# 
# High freq. dielectric constant tensor:
#      x y z
#    x 1.823470 0.004430 0.002840 
#    y 0.004430 1.823790 0.022340 
#    z 0.002840 0.022340 1.817370 
# 
# From -- ./inp_files/364866.got.cif
#   From: 2010.06.25/outbox.cif.g09.slc.cpg/sg2_183_cif.got.tgz:364866.got - 2010.06.27 13:26:56.
