data_PCOD8005119
_publ_section_title
;
Structure prediction by ZEFSAII (Michael W. Deem and Ramdas Pophale) SiO2 
 PCOD8005119
Probable space group: P -1
;
_chemical_formula_sum "Si O2"
_cell_formula_units_Z 16
_cell_length_a 8.786278
_cell_length_b 9.363263
_cell_length_c 13.748801
_cell_angle_alpha 130.896692
_cell_angle_beta 92.419158
_cell_angle_gamma 107.116102
_cell_volume 772.713818
_symmetry_space_group_name_H-M "P -1"
_symmetry_group_IT_number 2
_symmetry_cell_setting 'triclinic'
loop_
_space_group_symop_operation_xyz
x,y,z
-x,-y,-z
loop_
_atom_site_type_symbol
_atom_site_label
_atom_site_fract_x
_atom_site_fract_y
_atom_site_fract_z
Si Si1 0.463716 0.944880 0.814499
Si Si2 0.514285 0.303784 0.126820
Si Si3 0.822683 0.707992 0.321098
Si Si4 0.131806 0.739989 0.603006
Si Si5 0.049979 0.112636 0.795633
Si Si6 0.342836 0.443585 0.044301
Si Si7 0.274561 0.831947 0.229983
Si Si8 0.197439 0.886946 0.466230
O O1 0.544695 0.824965 0.832133
O O2 0.267598 0.801594 0.721567
O O3 0.555978 0.996544 0.736174
O O4 0.492929 0.155269 0.966907
O O5 0.705376 0.465587 0.226810
O O6 0.410901 0.437655 0.153363
O O7 0.852567 0.733470 0.219529
O O8 0.995386 0.766760 0.408208
O O9 0.740185 0.862874 0.421607
O O10 0.237247 0.799445 0.529636
O O11 0.000000 0.500000 0.500000
O O12 0.022722 0.875561 0.670817
O O13 0.872726 0.125693 0.807027
O O14 0.184765 0.215278 0.930619
O O15 0.260968 0.605405 0.102805
O O16 0.500000 0.500000 0.000000
O O17 0.280994 0.843966 0.352964
#
# Coordination Sequence:
#
# PCOD8005119 Si02
#       8
#     2   2   2   2   2   2   2   2
#     4  11  24  41  62  93 128 163 209 264 315 374
#     4  11  22  39  66  90 122 167 216 257 313 368
#     4   9  17  37  63  89 120 161 207 252 305 368
#     4  11  22  43  68  90 127 171 210 250 315 383
#     4  10  20  38  64  96 125 157 210 263 308 371
#     4  12  20  39  67  94 120 169 215 259 309 374
#     4  11  23  40  63  96 130 162 205 264 318 364
#     4   9  21  37  62  93 124 162 208 252 303 375
#
# _framework density 20.706242
#
# number of rings (size 3 to 8) (size 9 to 14) (size 15 to 20)
#    0.000    1.500    3.750    1.875    1.750    1.500 
#    2.250    1.875    0.000    0.000    0.000    0.000 
#    0.000    0.000    0.000    0.000    0.000    0.000 
#
# Total GULP energy -198240.268646 kJ/mol
# GULP energy per Si atom -12390.016790 kJ/mol
# Density = 2.065911 g / cm^3
# Si number density = 20.706242 Si / 1000 Ang^3
#
#
#
# Elastic Constant Matrix: (Units=GPa)
#
#
# Indices 1 2 3 4 5 6 
#
# 1 78.2206 36.3812 39.5773 7.4925 -0.1498 -7.4686
# 2 36.3812 114.8431 44.8968 3.8471 -1.5901 -7.2897
# 3 39.5773 44.8968 109.3968 13.8348 12.5380 9.5474
# 4 7.4925 3.8471 13.8348 37.0635 2.7491 4.3385
# 5 -0.1498 -1.5901 12.5380 2.7491 30.5234 -4.2637
# 6 -7.4686 -7.2897 9.5474 4.3385 -4.2637 29.0848
#
#
#
# Elastic Compliance Matrix: (Units=1/GPa)
#
#
# Indices 1 2 3 4 5 6 
#
# 1 0.018028 -0.002765 -0.006123 -0.002134 0.003601 0.006793
# 2 -0.002765 0.011638 -0.004517 0.000338 0.002987 0.004077
# 3 -0.006123 -0.004517 0.015096 -0.002396 -0.007423 -0.008391
# 4 -0.002134 0.000338 -0.002396 0.028941 -0.002219 -0.004319
# 5 0.003601 0.002987 -0.007423 -0.002219 0.037574 0.009949
# 6 0.006793 0.004077 -0.008391 -0.004319 0.009949 0.042005
#
#
# Mechanical properties :
#
#
# Convention : Reuss Voigt Hill
#
# Bulk Modulus (GPa) = 55.70296 60.46344 58.08320
# Shear Modulus (GPa) = 26.87060 31.44137 29.15599
#
# Velocity S-wave (km/s) = 3.60628 3.90096 3.75651
# Velocity P-wave (km/s) = 6.65584 7.03945 6.85033
#
# Compressibility (1/GPa) = 0.01795237
#
# Stress axis : x y z
#
# Youngs Moduli (GPa) = 55.46823 85.92428 66.24284
#
# Poissons Ratio (x) = 0.23758 0.40561
# Poissons Ratio (y) = 0.15337 0.29922
# Poissons Ratio (z) = 0.33964 0.38812
#
# Static dielectric constant tensor:
#      x y z
#    x 3.994910 -0.405280 0.250660 
#    y -0.405280 3.847740 -0.103010 
#    z 0.250660 -0.103010 3.841780 
# 
# 
# High freq. dielectric constant tensor:
#      x y z
#    x 1.785950 -0.017440 0.018680 
#    y -0.017440 1.808840 0.001340 
#    z 0.018680 0.001340 1.817150 
# 
# From -- ./inp_files/493905.got.cif
#   From: 2010.06.25/outbox.cif.g09.slc.cpg/sg2_247_cif.got.tgz:493905.got - 2010.06.27 13:26:56.
