data_PCOD8005396
_publ_section_title
;
Structure prediction by ZEFSAII (Michael W. Deem and Ramdas Pophale) SiO2 
 PCOD8005396
Probable space group: P -1
;
_chemical_formula_sum "Si O2"
_cell_formula_units_Z 14
_cell_length_a 21.059880
_cell_length_b 21.667434
_cell_length_c 8.553716
_cell_angle_alpha 126.310522
_cell_angle_beta 127.534911
_cell_angle_gamma 13.732781
_cell_volume 734.768746
_symmetry_space_group_name_H-M "P -1"
_symmetry_group_IT_number 2
_symmetry_cell_setting 'triclinic'
loop_
_space_group_symop_operation_xyz
x,y,z
-x,-y,-z
loop_
_atom_site_type_symbol
_atom_site_label
_atom_site_fract_x
_atom_site_fract_y
_atom_site_fract_z
Si Si1 0.792797 0.750273 0.630915
Si Si2 0.934434 0.783910 0.760928
Si Si3 0.497148 0.710645 0.985614
Si Si4 0.792795 0.750275 0.998294
Si Si5 0.502857 0.289352 0.362239
Si Si6 0.065564 0.216091 0.605892
Si Si7 0.695659 0.249597 0.417882
O O1 0.889261 0.746020 0.723708
O O2 0.782744 0.751286 0.801045
O O3 0.000000 0.500000 0.500000
O O4 0.500000 0.000000 0.500000
O O5 0.945639 0.758556 0.556294
O O6 0.214614 0.564360 0.911202
O O7 0.690541 0.064461 0.852974
O O8 0.535822 0.712329 0.872227
O O9 0.361921 0.749937 0.821911
O O10 0.889245 0.746037 0.182132
O O11 0.000000 0.500000 0.000000
O O12 0.500000 0.000000 0.000000
O O13 0.638078 0.250066 0.486335
O O14 0.214620 0.564353 0.425724
O O15 0.690557 0.064452 0.412049
O O16 0.500000 0.500000 0.500000
O O17 0.000000 0.000000 0.500000
#
# Coordination Sequence:
#
# PCOD8005396 Si02
#       7
#     2   2   2   2   2   2   2
#     4  12  25  42  62  88 124 165 213 259 314 363
#     4  12  23  40  61  89 127 163 207 259 308 369
#     4  10  22  38  64  92 118 158 209 247 310 357
#     4  12  25  42  62  88 124 165 213 259 314 363
#     4  10  22  38  64  92 118 158 209 247 310 357
#     4  12  23  40  61  89 127 163 207 259 308 369
#     4  10  20  38  68  96 122 154 208 256 308 376
#
# _framework density 19.053612999999999
#
# number of rings (size 3 to 8) (size 9 to 14) (size 15 to 20)
#    0.857    0.000    0.000    9.429    0.000    0.000 
#    0.000    0.000    0.000   17.143    0.000    0.000 
#    0.000    0.000    0.000    0.000    0.000    0.000 
#
# Total GULP energy -173621.020905 kJ/mol
# GULP energy per Si atom -12401.501493 kJ/mol
# Density = 1.901025 g / cm^3
# Si number density = 19.053613 Si / 1000 Ang^3
#
#
#
# Elastic Constant Matrix: (Units=GPa)
#
#
# Indices 1 2 3 4 5 6 
#
# 1 102.3266 38.3785 53.2871 0.0502 -4.3875 2.1285
# 2 38.3785 123.0684 41.9341 -1.6731 -7.0048 -1.5190
# 3 53.2871 41.9341 113.7400 -0.2282 -14.9693 -0.7408
# 4 0.0502 -1.6731 -0.2282 39.7101 4.2960 -2.7965
# 5 -4.3875 -7.0048 -14.9693 4.2960 45.4267 4.5829
# 6 2.1285 -1.5190 -0.7408 -2.7965 4.5829 37.7958
#
#
#
# Elastic Compliance Matrix: (Units=1/GPa)
#
#
# Indices 1 2 3 4 5 6 
#
# 1 0.013559 -0.002383 -0.005585 -0.000125 -0.000797 -0.000881
# 2 -0.002383 0.009724 -0.002413 0.000389 0.000391 0.000459
# 3 -0.005585 -0.002413 0.012734 -0.000378 0.003317 0.000037
# 4 -0.000125 0.000389 -0.000378 0.025650 -0.002729 0.002244
# 5 -0.000797 0.000391 0.003317 -0.002729 0.023645 -0.002943
# 6 -0.000881 0.000459 0.000037 0.002244 -0.002943 0.027050
#
#
# Mechanical properties :
#
#
# Convention : Reuss Voigt Hill
#
# Bulk Modulus (GPa) = 65.55349 67.37047 66.46198
# Shear Modulus (GPa) = 36.17696 38.28887 37.23292
#
# Velocity S-wave (km/s) = 4.36213 4.48765 4.42533
# Velocity P-wave (km/s) = 7.73630 7.89222 7.81465
#
# Compressibility (1/GPa) = 0.01525472
#
# Stress axis : x y z
#
# Youngs Moduli (GPa) = 73.75200 102.83466 78.52927
#
# Poissons Ratio (x) = 0.24510 0.43855
# Poissons Ratio (y) = 0.17578 0.18952
# Poissons Ratio (z) = 0.41187 0.24818
#
# Static dielectric constant tensor:
#      x y z
#    x 3.587540 -0.030300 0.025310 
#    y -0.030300 3.583020 -0.020660 
#    z 0.025310 -0.020660 3.568850 
# 
# 
# High freq. dielectric constant tensor:
#      x y z
#    x 1.742710 -0.002210 0.000090 
#    y -0.002210 1.764850 -0.000130 
#    z 0.000090 -0.000130 1.742450 
# 
# From -- ./inp_files/355495.got.cif
#   From: 2010.06.25/outbox.cif.g09.slc.cpg/sg2_178_cif.got.tgz:355495.got - 2010.06.27 13:26:56.
