data_PCOD8005013
_publ_section_title
;
Structure prediction by ZEFSAII (Michael W. Deem and Ramdas Pophale) SiO2 
 PCOD8005013
Probable space group: P -1
;
_chemical_formula_sum "Si O2"
_cell_formula_units_Z 16
_cell_length_a 10.363716
_cell_length_b 8.890825
_cell_length_c 9.195802
_cell_angle_alpha 61.470801
_cell_angle_beta 118.029689
_cell_angle_gamma 105.760794
_cell_volume 655.896700
_symmetry_space_group_name_H-M "P -1"
_symmetry_group_IT_number 2
_symmetry_cell_setting 'triclinic'
loop_
_space_group_symop_operation_xyz
x,y,z
-x,-y,-z
loop_
_atom_site_type_symbol
_atom_site_label
_atom_site_fract_x
_atom_site_fract_y
_atom_site_fract_z
Si Si1 0.605398 0.896120 0.254768
Si Si2 0.161390 0.883729 0.251522
Si Si3 0.999375 0.321790 0.166750
Si Si4 0.998375 0.448491 0.687420
Si Si5 0.700574 0.837590 0.645748
Si Si6 0.857342 0.997777 0.129083
Si Si7 0.446307 0.731719 0.999978
Si Si8 0.306867 0.396679 0.993764
O O1 0.627818 0.809449 0.463098
O O2 0.741931 0.886241 0.219348
O O3 0.569946 0.092077 0.177953
O O4 0.468298 0.788533 0.155518
O O5 0.147659 0.679816 0.305155
O O6 0.291494 0.959979 0.392562
O O7 0.193282 0.989850 0.071151
O O8 0.010427 0.910130 0.246425
O O9 0.134668 0.217342 0.240012
O O10 0.012667 0.370409 0.320482
O O11 0.862752 0.189022 0.116253
O O12 0.000000 0.500000 0.000000
O O13 0.000000 0.500000 0.500000
O O14 0.141156 0.353388 0.867331
O O15 0.628814 0.716522 0.788883
O O16 0.586891 0.630402 0.072338
O O17 0.308998 0.594662 0.961811
#
# Coordination Sequence:
#
# PCOD8005013 Si02
#       8
#     2   2   2   2   2   2   2   2
#     4  11  24  42  65  97 118 175 221 271 309 375
#     4  10  21  38  58  98 128 174 196 252 329 389
#     4  11  21  39  58 100 128 170 204 252 330 392
#     4  12  25  37  66  98 134 167 206 259 329 393
#     4  11  25  39  67  95 135 164 214 266 322 384
#     4  10  20  38  64  84 136 164 209 255 317 388
#     4  10  25  44  69  87 124 175 226 264 320 363
#     4  11  23  47  65  92 130 172 211 275 316 379
#
# _framework density 24.394083999999999
#
# number of rings (size 3 to 8) (size 9 to 14) (size 15 to 20)
#    0.000    1.250    2.500    3.750    7.000    2.000 
#    0.000    0.000    0.000    0.000    0.000    0.000 
#    0.000    0.000    0.000    0.000    0.000    0.000 
#
# Total GULP energy -198249.730932 kJ/mol
# GULP energy per Si atom -12390.608183 kJ/mol
# Density = 2.433856 g / cm^3
# Si number density = 24.394084 Si / 1000 Ang^3
#
#
#
# Elastic Constant Matrix: (Units=GPa)
#
#
# Indices 1 2 3 4 5 6 
#
# 1 20.5785 2.2690 -1.7768 4.4266 -12.7199 -6.1144
# 2 2.2690 135.2669 37.6328 18.9591 -7.4491 6.5481
# 3 -1.7768 37.6328 134.1380 16.0747 -19.2255 11.3424
# 4 4.4266 18.9591 16.0747 29.0512 -6.4271 -1.5655
# 5 -12.7199 -7.4491 -19.2255 -6.4271 24.9090 -0.6272
# 6 -6.1144 6.5481 11.3424 -1.5655 -0.6272 30.7019
#
#
#
# Elastic Compliance Matrix: (Units=1/GPa)
#
#
# Indices 1 2 3 4 5 6 
#
# 1 0.084359 -0.000899 0.007555 -0.005091 0.047703 0.014916
# 2 -0.000899 0.008616 -0.001808 -0.004689 -0.000527 -0.001599
# 3 0.007555 -0.001808 0.010080 -0.003394 0.010176 -0.001799
# 4 -0.005091 -0.004689 -0.003394 0.041228 0.004102 0.003426
# 5 0.047703 -0.000527 0.010176 0.004102 0.073452 0.007563
# 6 0.014916 -0.001599 -0.001799 0.003426 0.007563 0.036876
#
#
# Mechanical properties :
#
#
# Convention : Reuss Voigt Hill
#
# Bulk Modulus (GPa) = 8.86897 40.69261 24.78079
# Shear Modulus (GPa) = 17.69932 33.72297 25.71115
#
# Velocity S-wave (km/s) = 2.69654 3.72213 3.25004
# Velocity P-wave (km/s) = 3.65222 5.93211 4.92588
#
# Compressibility (1/GPa) = 0.11275263
#
# Stress axis : x y z
#
# Youngs Moduli (GPa) = 11.85416 116.05878 99.20977
#
# Poissons Ratio (x) = 0.10429 -0.74957
# Poissons Ratio (y) = 0.01065 0.17935
# Poissons Ratio (z) = -0.08956 0.20981
#
# Static dielectric constant tensor:
#      x y z
#    x 4.316030 -0.243890 -0.162140 
#    y -0.243890 4.917050 0.645340 
#    z -0.162140 0.645340 3.691140 
# 
# 
# High freq. dielectric constant tensor:
#      x y z
#    x 1.953120 -0.011050 -0.012410 
#    y -0.011050 2.000770 0.018030 
#    z -0.012410 0.018030 1.936980 
# 
# From -- ./inp_files/188710.got.cif
#   From: 2010.06.25/outbox.cif.g09.slc.cpg/sg2_95_cif.got.tgz:188710.got - 2010.06.27 13:26:56.
