data_PCOD8005379
_publ_section_title
;
Structure prediction by ZEFSAII (Michael W. Deem and Ramdas Pophale) SiO2 
 PCOD8005379
Probable space group: P -1
;
_chemical_formula_sum "Si O2"
_cell_formula_units_Z 14
_cell_length_a 8.592633
_cell_length_b 9.854164
_cell_length_c 16.886022
_cell_angle_alpha 71.150967
_cell_angle_beta 145.639871
_cell_angle_gamma 120.204112
_cell_volume 684.832008
_symmetry_space_group_name_H-M "P -1"
_symmetry_group_IT_number 2
_symmetry_cell_setting 'triclinic'
loop_
_space_group_symop_operation_xyz
x,y,z
-x,-y,-z
loop_
_atom_site_type_symbol
_atom_site_label
_atom_site_fract_x
_atom_site_fract_y
_atom_site_fract_z
Si Si1 0.294273 0.133972 0.336114
Si Si2 0.617947 0.790993 0.810477
Si Si3 0.248747 0.807649 0.345078
Si Si4 0.236415 0.791186 0.877477
Si Si5 0.277431 0.532651 0.844100
Si Si6 0.306158 0.894034 0.058764
Si Si7 0.644526 0.950654 0.339839
O O1 0.414621 0.251480 0.288646
O O2 0.579297 0.179564 0.503519
O O3 0.025198 0.154032 0.264659
O O4 0.147882 0.950881 0.276791
O O5 0.448350 0.631950 0.820175
O O6 0.447595 0.903052 0.733253
O O7 0.983937 0.865915 0.969973
O O8 0.461633 0.827139 0.355083
O O9 0.970291 0.635002 0.260076
O O10 0.133706 0.622986 0.822173
O O11 0.553596 0.923232 0.948843
O O12 0.264477 0.778513 0.987247
O O13 0.500000 0.500000 0.000000
O O14 0.529707 0.865027 0.221952
O O15 0.000000 0.000000 0.500000
#
# Coordination Sequence:
#
# PCOD8005379 Si02
#       7
#     2   2   2   2   2   2   2
#     4   9  21  45  68  92 118 178 217 256 315 386
#     4  10  22  41  65  91 130 169 217 257 324 380
#     4  10  23  40  68  92 134 162 214 266 319 382
#     4  10  22  38  67  92 121 169 221 258 315 375
#     4  12  26  40  61  99 132 167 209 270 330 369
#     4  10  20  38  68  87 124 171 219 254 302 386
#     4  11  21  38  65 100 122 167 220 263 309 390
#
# _framework density 20.442969999999999
#
# number of rings (size 3 to 8) (size 9 to 14) (size 15 to 20)
#    0.000    1.714    1.429    2.143    8.000    1.143 
#    0.000    6.429    0.000    0.000    0.000    0.000 
#    0.000    0.000    0.000    0.000    0.000    0.000 
#
# Total GULP energy -173515.091221 kJ/mol
# GULP energy per Si atom -12393.935087 kJ/mol
# Density = 2.039644 g / cm^3
# Si number density = 20.442970 Si / 1000 Ang^3
#
#
#
# Elastic Constant Matrix: (Units=GPa)
#
#
# Indices 1 2 3 4 5 6 
#
# 1 112.9948 66.7275 57.6837 2.3184 1.8098 12.4645
# 2 66.7275 117.7865 53.0405 14.0314 4.7187 8.8603
# 3 57.6837 53.0405 140.1888 -1.1881 0.8894 6.2745
# 4 2.3184 14.0314 -1.1881 30.4075 0.8368 -4.0587
# 5 1.8098 4.7187 0.8894 0.8368 42.1255 -2.4015
# 6 12.4645 8.8603 6.2745 -4.0587 -2.4015 39.6143
#
#
#
# Elastic Compliance Matrix: (Units=1/GPa)
#
#
# Indices 1 2 3 4 5 6 
#
# 1 0.014907 -0.006927 -0.003391 0.001601 0.000036 -0.002438
# 2 -0.006927 0.014515 -0.002626 -0.006423 -0.001224 -0.001383
# 3 -0.003391 -0.002626 0.009521 0.001883 0.000222 0.000353
# 4 0.001601 -0.006423 0.001883 0.036382 0.000137 0.004370
# 5 0.000036 -0.001224 0.000222 0.000137 0.023963 0.001694
# 6 -0.002438 -0.001383 0.000353 0.004370 0.001694 0.026815
#
#
# Mechanical properties :
#
#
# Convention : Reuss Voigt Hill
#
# Bulk Modulus (GPa) = 76.59761 80.65261 78.62511
# Shear Modulus (GPa) = 31.98124 35.33068 33.65596
#
# Velocity S-wave (km/s) = 3.95956 4.16174 4.06191
# Velocity P-wave (km/s) = 7.64555 7.91401 7.78094
#
# Compressibility (1/GPa) = 0.01305524
#
# Stress axis : x y z
#
# Youngs Moduli (GPa) = 67.08286 68.89383 105.03353
#
# Poissons Ratio (x) = 0.47723 0.35612
# Poissons Ratio (y) = 0.46468 0.27585
# Poissons Ratio (z) = 0.22744 0.18094
#
# Static dielectric constant tensor:
#      x y z
#    x 4.062780 0.049070 -0.163360 
#    y 0.049070 2.856240 -0.440770 
#    z -0.163360 -0.440770 3.631560 
# 
# 
# High freq. dielectric constant tensor:
#      x y z
#    x 1.818760 0.006210 -0.010900 
#    y 0.006210 1.762900 -0.008210 
#    z -0.010900 -0.008210 1.809820 
# 
# From -- ./inp_files/199042.got.cif
#   From: 2010.06.25/outbox.cif.g09.slc.cpg/sg2_100_cif.got.tgz:199042.got - 2010.06.27 13:26:56.
