data_PCOD8005834
_publ_section_title
;
Structure prediction by ZEFSAII (Michael W. Deem and Ramdas Pophale) SiO2 
 PCOD8005834
Probable space group: P -1
;
_chemical_formula_sum "Si O2"
_cell_formula_units_Z 16
_cell_length_a 9.053457
_cell_length_b 19.621764
_cell_length_c 20.278107
_cell_angle_alpha 159.106555
_cell_angle_beta 50.033150
_cell_angle_gamma 141.644983
_cell_volume 727.851652
_symmetry_space_group_name_H-M "P -1"
_symmetry_group_IT_number 2
_symmetry_cell_setting 'triclinic'
loop_
_space_group_symop_operation_xyz
x,y,z
-x,-y,-z
loop_
_atom_site_type_symbol
_atom_site_label
_atom_site_fract_x
_atom_site_fract_y
_atom_site_fract_z
Si Si1 0.528846 0.287138 0.353309
Si Si2 0.813708 0.712729 0.318733
Si Si3 0.552041 0.902176 0.044948
Si Si4 0.008110 0.554671 0.933644
Si Si5 0.922823 0.962856 0.643857
Si Si6 0.668150 0.781501 0.036734
Si Si7 0.551437 0.748708 0.189694
Si Si8 0.251378 0.170694 0.200589
O O1 0.255814 0.154707 0.346866
O O2 0.461089 0.216004 0.230990
O O3 0.740296 0.594505 0.581396
O O4 0.661184 0.183841 0.249648
O O5 0.933314 0.579017 0.152342
O O6 0.771863 0.734271 0.427073
O O7 0.530373 0.529145 0.199419
O O8 0.000000 0.000000 0.500000
O O9 0.235876 0.693883 0.938769
O O10 0.679644 0.833288 0.897922
O O11 0.622363 0.906925 0.105227
O O12 0.716896 0.320390 0.776099
O O13 0.018538 0.778043 0.163841
O O14 0.188725 0.022238 0.637392
O O15 0.604545 0.822825 0.164088
O O16 0.962874 0.902732 0.058463
O O17 0.500000 0.500000 0.000000
#
# Coordination Sequence:
#
# PCOD8005834 Si02
#       8
#     2   2   2   2   2   2   2   2
#     4  10  21  39  66  92 124 170 210 254 317 379
#     4  11  23  39  61  91 126 167 211 257 319 378
#     4  10  22  39  62  95 131 165 205 262 319 375
#     4   9  21  38  62  89 124 165 206 258 315 369
#     4  10  20  39  63  88 124 168 207 256 319 375
#     4  11  23  41  65  95 129 167 210 264 321 368
#     4  10  20  39  65  90 125 167 212 262 313 377
#     4  11  22  41  65  92 128 165 213 260 312 378
#
# _framework density 21.982503000000001
#
# number of rings (size 3 to 8) (size 9 to 14) (size 15 to 20)
#    0.000    1.750    1.250    3.750    0.000    6.500 
#    0.000    3.750    0.000    0.000    0.000    0.000 
#    0.000    0.000    0.000    0.000    0.000    0.000 
#
# Total GULP energy -198252.122447 kJ/mol
# GULP energy per Si atom -12390.757653 kJ/mol
# Density = 2.193247 g / cm^3
# Si number density = 21.982503 Si / 1000 Ang^3
#
#
#
# Elastic Constant Matrix: (Units=GPa)
#
#
# Indices 1 2 3 4 5 6 
#
# 1 78.3142 28.4586 39.0304 -0.2206 -3.7639 -11.5336
# 2 28.4586 86.4830 26.0605 6.8595 4.0035 7.2619
# 3 39.0304 26.0605 84.5851 11.5319 1.6458 7.0621
# 4 -0.2206 6.8595 11.5319 33.0547 -1.8108 3.3203
# 5 -3.7639 4.0035 1.6458 -1.8108 29.8463 10.7753
# 6 -11.5336 7.2619 7.0621 3.3203 10.7753 44.4374
#
#
#
# Elastic Compliance Matrix: (Units=1/GPa)
#
#
# Indices 1 2 3 4 5 6 
#
# 1 0.020003 -0.004845 -0.008823 0.003616 0.001435 0.006767
# 2 -0.004845 0.014104 -0.001544 -0.002227 -0.001551 -0.002774
# 3 -0.008823 -0.001544 0.017480 -0.005446 -0.000667 -0.004247
# 4 0.003616 -0.002227 -0.005446 0.032943 0.003463 -0.001133
# 5 0.001435 -0.001551 -0.000667 0.003463 0.037229 -0.008554
# 6 0.006767 -0.002774 -0.004247 -0.001133 -0.008554 0.027547
#
#
# Mechanical properties :
#
#
# Convention : Reuss Voigt Hill
#
# Bulk Modulus (GPa) = 47.25579 48.49790 47.87685
# Shear Modulus (GPa) = 26.76878 31.85652 29.31265
#
# Velocity S-wave (km/s) = 3.49339 3.81093 3.65561
# Velocity P-wave (km/s) = 6.14942 6.44005 6.29641
#
# Compressibility (1/GPa) = 0.02116143
#
# Stress axis : x y z
#
# Youngs Moduli (GPa) = 49.99289 70.90159 57.20946
#
# Poissons Ratio (x) = 0.34352 0.50477
# Poissons Ratio (y) = 0.24222 0.08835
# Poissons Ratio (z) = 0.44110 0.10950
#
# Static dielectric constant tensor:
#      x y z
#    x 4.269200 0.049610 0.199670 
#    y 0.049610 4.140570 0.216190 
#    z 0.199670 0.216190 4.112280 
# 
# 
# High freq. dielectric constant tensor:
#      x y z
#    x 1.857630 -0.006600 0.001950 
#    y -0.006600 1.869650 0.019210 
#    z 0.001950 0.019210 1.846050 
# 
# From -- ./inp_files/591704.got.cif
#   From: 2010.06.25/outbox.cif.g09.slc.cpg/sg2_296_cif.got.tgz:591704.got - 2010.06.27 13:26:56.
