data_PCOD8005953
_publ_section_title
;
Structure prediction by ZEFSAII (Michael W. Deem and Ramdas Pophale) SiO2 
 PCOD8005953
Probable space group: P -1
;
_chemical_formula_sum "Si O2"
_cell_formula_units_Z 14
_cell_length_a 15.290465
_cell_length_b 6.354959
_cell_length_c 8.974039
_cell_angle_alpha 104.238916
_cell_angle_beta 96.147756
_cell_angle_gamma 125.311063
_cell_volume 654.576399
_symmetry_space_group_name_H-M "P -1"
_symmetry_group_IT_number 2
_symmetry_cell_setting 'triclinic'
loop_
_space_group_symop_operation_xyz
x,y,z
-x,-y,-z
loop_
_atom_site_type_symbol
_atom_site_label
_atom_site_fract_x
_atom_site_fract_y
_atom_site_fract_z
Si Si1 0.432185 0.581139 0.814581
Si Si2 0.831562 0.157009 0.843007
Si Si3 0.049718 0.235739 0.927948
Si Si4 0.884965 0.871088 0.375269
Si Si5 0.303554 0.749031 0.704956
Si Si6 0.672635 0.825632 0.010680
Si Si7 0.275643 0.042158 0.524174
O O1 0.417036 0.808168 0.799727
O O2 0.562165 0.730949 0.885022
O O3 0.382750 0.362328 0.631273
O O4 0.359901 0.422320 0.926695
O O5 0.747011 0.018829 0.664659
O O6 0.947423 0.214698 0.832771
O O7 0.769834 0.926894 0.925034
O O8 0.857809 0.450046 0.937961
O O9 0.106596 0.165741 0.804851
O O10 0.000000 0.000000 0.000000
O O11 0.795697 0.574847 0.382466
O O12 0.837625 0.041029 0.425931
O O13 0.000000 0.000000 0.500000
O O14 0.312817 0.863508 0.561525
O O15 0.274831 0.899768 0.836094
#
# Coordination Sequence:
#
# PCOD8005953 Si02
#       7
#     2   2   2   2   2   2   2
#     4   9  21  39  63  91 116 162 200 251 299 361
#     4  11  24  41  59  93 123 159 196 255 301 353
#     4  11  26  40  60  89 126 158 201 246 301 356
#     4  11  22  40  59  87 117 165 200 243 298 358
#     4  10  21  38  61  86 120 159 204 243 297 365
#     4  10  20  39  64  88 122 156 205 249 300 359
#     4  10  23  38  61  89 124 155 202 245 302 360
#
# _framework density 21.387875000000001
#
# number of rings (size 3 to 8) (size 9 to 14) (size 15 to 20)
#    0.000    1.714    2.857    0.429    8.000    1.143 
#    0.000    0.714    0.000    0.000    0.000    0.000 
#    0.000    0.000    0.000    0.000    0.000    0.000 
#
# Total GULP energy -173527.415789 kJ/mol
# GULP energy per Si atom -12394.815413 kJ/mol
# Density = 2.133920 g / cm^3
# Si number density = 21.387875 Si / 1000 Ang^3
#
#
#
# Elastic Constant Matrix: (Units=GPa)
#
#
# Indices 1 2 3 4 5 6 
#
# 1 56.4213 11.7672 8.2323 0.0664 11.9403 -8.2279
# 2 11.7672 67.8989 16.0842 -11.3835 -4.0208 -11.6176
# 3 8.2323 16.0842 108.7665 -8.4921 10.5067 -2.2928
# 4 0.0664 -11.3835 -8.4921 20.2153 3.6528 9.7407
# 5 11.9403 -4.0208 10.5067 3.6528 35.9162 -3.6439
# 6 -8.2279 -11.6176 -2.2928 9.7407 -3.6439 36.7727
#
#
#
# Elastic Compliance Matrix: (Units=1/GPa)
#
#
# Indices 1 2 3 4 5 6 
#
# 1 0.020439 -0.003679 -0.000537 -0.002901 -0.006398 0.003512
# 2 -0.003679 0.017772 -0.002066 0.007019 0.003422 0.003142
# 3 -0.000537 -0.002066 0.010222 0.004632 -0.003689 -0.001728
# 4 -0.002901 0.007019 0.004632 0.064490 -0.007787 -0.015997
# 5 -0.006398 0.003422 -0.003689 -0.007787 0.032703 0.004723
# 6 0.003512 0.003142 -0.001728 -0.015997 0.004723 0.033570
#
#
# Mechanical properties :
#
#
# Convention : Reuss Voigt Hill
#
# Bulk Modulus (GPa) = 27.88002 33.91711 30.89857
# Shear Modulus (GPa) = 24.54380 31.71437 28.12908
#
# Velocity S-wave (km/s) = 3.39124 3.85492 3.63049
# Velocity P-wave (km/s) = 5.32895 5.97548 5.66145
#
# Compressibility (1/GPa) = 0.03586798
#
# Stress axis : x y z
#
# Youngs Moduli (GPa) = 48.92570 56.26858 97.83064
#
# Poissons Ratio (x) = 0.20703 0.05256
# Poissons Ratio (y) = 0.18001 0.20211
# Poissons Ratio (z) = 0.02629 0.11624
#
# Static dielectric constant tensor:
#      x y z
#    x 4.123830 -0.206000 0.144290 
#    y -0.206000 3.842620 0.040360 
#    z 0.144290 0.040360 3.858030 
# 
# 
# High freq. dielectric constant tensor:
#      x y z
#    x 1.834460 -0.009570 0.023010 
#    y -0.009570 1.829610 0.005040 
#    z 0.023010 0.005040 1.840840 
# 
# From -- ./inp_files/34417.got.cif
#   From: 2010.06.25/outbox.cif.g09.slc.cpg/sg2_18_cif.got.tgz:34417.got - 2010.06.27 13:26:56.
