data_PCOD8005723
_publ_section_title
;
Structure prediction by ZEFSAII (Michael W. Deem and Ramdas Pophale) SiO2 
 PCOD8005723
Probable space group: P -1
;
_chemical_formula_sum "Si O2"
_cell_formula_units_Z 16
_cell_length_a 7.038261
_cell_length_b 17.093415
_cell_length_c 9.919955
_cell_angle_alpha 104.219517
_cell_angle_beta 134.075375
_cell_angle_gamma 71.506242
_cell_volume 812.579009
_symmetry_space_group_name_H-M "P -1"
_symmetry_group_IT_number 2
_symmetry_cell_setting 'triclinic'
loop_
_space_group_symop_operation_xyz
x,y,z
-x,-y,-z
loop_
_atom_site_type_symbol
_atom_site_label
_atom_site_fract_x
_atom_site_fract_y
_atom_site_fract_z
Si Si1 0.069383 0.440565 0.634628
Si Si2 0.321826 0.091594 0.954908
Si Si3 0.296773 0.851337 0.310982
Si Si4 0.434395 0.597332 0.528078
Si Si5 0.614963 0.335602 0.765327
Si Si6 0.681398 0.106659 0.365675
Si Si7 0.711898 0.917116 0.359852
Si Si8 0.011672 0.440851 0.106679
O O1 0.335809 0.372339 0.715424
O O2 0.000000 0.500000 0.500000
O O3 0.845530 0.384212 0.519972
O O4 0.100641 0.499577 0.799587
O O5 0.330866 0.127565 0.822905
O O6 0.006914 0.093840 0.836339
O O7 0.457760 0.142009 0.155007
O O8 0.500000 0.000000 0.000000
O O9 0.312129 0.761952 0.216631
O O10 0.374699 0.839983 0.502832
O O11 0.510320 0.896001 0.363000
O O12 0.500000 0.500000 0.500000
O O13 0.397556 0.645464 0.390834
O O14 0.687803 0.615340 0.744655
O O15 0.836484 0.373515 0.967146
O O16 0.975168 0.111506 0.452080
O O17 0.654962 0.014930 0.353236
O O18 0.000000 0.500000 0.000000
#
# Coordination Sequence:
#
# PCOD8005723 Si02
#       8
#     2   2   2   2   2   2   2   2
#     4  11  20  39  66  87 116 157 209 253 294 367
#     4   9  20  39  63  89 120 161 205 247 292 368
#     4  11  24  37  59  92 131 154 202 258 307 355
#     4  10  20  39  62  87 117 152 205 254 298 358
#     4  12  24  39  59  93 126 159 199 261 312 350
#     4   9  19  38  65  85 119 165 201 244 299 365
#     4   9  19  38  62  93 118 158 209 244 295 367
#     4  11  20  40  67  87 114 162 210 248 302 364
#
# _framework density 19.690393
#
# number of rings (size 3 to 8) (size 9 to 14) (size 15 to 20)
#    0.000    1.750    5.000    1.500    0.000    6.000 
#    0.000    0.000    2.750    0.000    0.000    0.000 
#    0.000    0.000    0.000    0.000    0.000    0.000 
#
# Total GULP energy -198309.629213 kJ/mol
# GULP energy per Si atom -12394.351826 kJ/mol
# Density = 1.964558 g / cm^3
# Si number density = 19.690393 Si / 1000 Ang^3
#
#
#
# Elastic Constant Matrix: (Units=GPa)
#
#
# Indices 1 2 3 4 5 6 
#
# 1 210.3429 32.3413 18.5074 -29.4763 11.9479 -21.1278
# 2 32.3413 68.7978 30.7028 16.4471 10.3298 -1.5685
# 3 18.5074 30.7028 189.5374 44.4161 19.9686 20.7591
# 4 -29.4763 16.4471 44.4161 48.0956 7.7736 14.5743
# 5 11.9479 10.3298 19.9686 7.7736 39.4256 7.6618
# 6 -21.1278 -1.5685 20.7591 14.5743 7.6618 30.3853
#
#
#
# Elastic Compliance Matrix: (Units=1/GPa)
#
#
# Indices 1 2 3 4 5 6 
#
# 1 0.006772 -0.003542 -0.001689 0.006297 -0.002132 0.003197
# 2 -0.003542 0.019142 -0.000883 -0.008682 -0.002548 0.003935
# 3 -0.001689 -0.000883 0.007593 -0.006669 -0.001224 -0.002900
# 4 0.006297 -0.008682 -0.006669 0.036695 -0.001808 -0.008658
# 5 -0.002132 -0.002548 -0.001224 -0.001808 0.029061 -0.007238
# 6 0.003197 0.003935 -0.002900 -0.008658 -0.007238 0.043296
#
#
# Mechanical properties :
#
#
# Convention : Reuss Voigt Hill
#
# Bulk Modulus (GPa) = 46.99242 70.19789 58.59516
# Shear Modulus (GPa) = 30.88702 49.38973 40.13838
#
# Velocity S-wave (km/s) = 3.96490 5.01374 4.51985
# Velocity P-wave (km/s) = 6.69910 8.32136 7.55391
#
# Compressibility (1/GPa) = 0.02128003
#
# Stress axis : x y z
#
# Youngs Moduli (GPa) = 147.66795 52.23986 131.69585
#
# Poissons Ratio (x) = 0.18505 0.22238
# Poissons Ratio (y) = 0.52308 0.11628
# Poissons Ratio (z) = 0.24935 0.04613
#
# Static dielectric constant tensor:
#      x y z
#    x 3.822580 0.000840 0.154920 
#    y 0.000840 3.173010 0.132190 
#    z 0.154920 0.132190 4.152140 
# 
# 
# High freq. dielectric constant tensor:
#      x y z
#    x 1.777330 -0.000750 0.005720 
#    y -0.000750 1.731730 0.004430 
#    z 0.005720 0.004430 1.783000 
# 
# From -- ./inp_files/139092.got.cif
#   From: 2010.06.25/outbox.cif.g09.slc.cpg/sg2_70_cif.got.tgz:139092.got - 2010.06.27 13:26:56.
