data_PCOD8005546
_publ_section_title
;
Structure prediction by ZEFSAII (Michael W. Deem and Ramdas Pophale) SiO2 
 PCOD8005546
Probable space group: P -1
;
_chemical_formula_sum "Si O2"
_cell_formula_units_Z 16
_cell_length_a 9.415441
_cell_length_b 9.509571
_cell_length_c 12.220359
_cell_angle_alpha 99.462361
_cell_angle_beta 91.592374
_cell_angle_gamma 133.471262
_cell_volume 767.936668
_symmetry_space_group_name_H-M "P -1"
_symmetry_group_IT_number 2
_symmetry_cell_setting 'triclinic'
loop_
_space_group_symop_operation_xyz
x,y,z
-x,-y,-z
loop_
_atom_site_type_symbol
_atom_site_label
_atom_site_fract_x
_atom_site_fract_y
_atom_site_fract_z
Si Si1 0.246698 0.795915 0.354911
Si Si2 0.747495 0.784117 0.245232
Si Si3 0.547590 0.373679 0.953331
Si Si4 0.440262 0.656118 0.808535
Si Si5 0.987053 0.638736 0.954327
Si Si6 0.855539 0.062836 0.815720
Si Si7 0.310239 0.992796 0.601989
Si Si8 0.876363 0.346384 0.272844
O O1 0.187155 0.830527 0.245984
O O2 0.253196 0.916020 0.466965
O O3 0.081381 0.560796 0.345930
O O4 0.456255 0.865376 0.353560
O O5 0.631359 0.799198 0.153265
O O6 0.631245 0.555845 0.237255
O O7 0.970464 0.911200 0.226864
O O8 0.747618 0.881823 0.366199
O O9 0.755186 0.509221 0.910404
O O10 0.500000 0.500000 0.000000
O O11 0.562460 0.296685 0.057671
O O12 0.295899 0.656223 0.737150
O O13 0.663308 0.826636 0.789237
O O14 0.099821 0.713132 0.851179
O O15 0.000000 0.500000 0.000000
O O16 0.082552 0.834016 0.051349
O O17 0.180480 0.807995 0.658026
#
# Coordination Sequence:
#
# PCOD8005546 Si02
#       8
#     2   2   2   2   2   2   2   2
#     4  11  23  48  68  94 134 164 223 277 318 384
#     4  11  24  45  61  97 137 170 214 272 317 384
#     4  10  20  39  59  90 135 170 199 261 319 375
#     4  11  23  41  66  93 134 177 212 258 328 389
#     4  12  21  38  67  99 130 174 209 262 326 389
#     4  12  24  41  68  96 132 178 212 260 334 390
#     4  11  27  42  72  98 122 175 222 273 324 370
#     4  12  23  43  69  98 130 170 220 266 324 390
#
# _framework density 20.835052999999998
#
# number of rings (size 3 to 8) (size 9 to 14) (size 15 to 20)
#    0.000    0.750    7.500    1.125    1.750    4.500 
#    0.000    0.625    0.000    0.000    0.000    0.000 
#    0.000    0.000    0.000    0.000    0.000    0.000 
#
# Total GULP energy -198449.195371 kJ/mol
# GULP energy per Si atom -12403.074711 kJ/mol
# Density = 2.078763 g / cm^3
# Si number density = 20.835053 Si / 1000 Ang^3
#
#
#
# Elastic Constant Matrix: (Units=GPa)
#
#
# Indices 1 2 3 4 5 6 
#
# 1 111.6645 48.9968 35.1003 17.2231 -17.6400 21.9356
# 2 48.9968 120.4258 17.2701 4.0324 -13.3214 30.2732
# 3 35.1003 17.2701 64.2724 15.7972 -15.1520 9.6588
# 4 17.2231 4.0324 15.7972 27.7273 -5.1351 2.1752
# 5 -17.6400 -13.3214 -15.1520 -5.1351 35.9367 3.0294
# 6 21.9356 30.2732 9.6588 2.1752 3.0294 37.2795
#
#
#
# Elastic Compliance Matrix: (Units=1/GPa)
#
#
# Indices 1 2 3 4 5 6 
#
# 1 0.013870 -0.003425 -0.003972 -0.004858 0.003537 -0.004355
# 2 -0.003425 0.012114 0.000419 0.001504 0.003904 -0.008336
# 3 -0.003972 0.000419 0.021791 -0.008519 0.006486 -0.003678
# 4 -0.004858 0.001504 -0.008519 0.043756 0.000730 0.001232
# 5 0.003537 0.003904 0.006486 0.000730 0.034674 -0.009792
# 6 -0.004355 -0.008336 -0.003678 0.001232 -0.009792 0.037833
#
#
# Mechanical properties :
#
#
# Convention : Reuss Voigt Hill
#
# Bulk Modulus (GPa) = 29.56970 55.45524 42.51247
# Shear Modulus (GPa) = 26.41736 33.18841 29.80289
#
# Velocity S-wave (km/s) = 3.56466 3.99546 3.78619
# Velocity P-wave (km/s) = 5.58261 6.92525 6.28986
#
# Compressibility (1/GPa) = 0.03381840
#
# Stress axis : x y z
#
# Youngs Moduli (GPa) = 72.09613 82.54752 45.88989
#
# Poissons Ratio (x) = 0.28273 0.18229
# Poissons Ratio (y) = 0.24693 -0.01921
# Poissons Ratio (z) = 0.28639 -0.03455
#
# Static dielectric constant tensor:
#      x y z
#    x 3.778960 0.187890 0.087070 
#    y 0.187890 3.690750 0.110720 
#    z 0.087070 0.110720 4.171670 
# 
# 
# High freq. dielectric constant tensor:
#      x y z
#    x 1.826600 0.014220 -0.001700 
#    y 0.014220 1.811780 0.007250 
#    z -0.001700 0.007250 1.810790 
# 
# From -- ./inp_files/187936.got.cif
#   From: 2010.06.25/outbox.cif.g09.slc.cpg/sg2_94_cif.got.tgz:187936.got - 2010.06.27 13:26:56.
