data_PCOD8005567
_publ_section_title
;
Structure prediction by ZEFSAII (Michael W. Deem and Ramdas Pophale) SiO2 
 PCOD8005567
Probable space group: P -1
;
_chemical_formula_sum "Si O2"
_cell_formula_units_Z 14
_cell_length_a 14.963860
_cell_length_b 15.062914
_cell_length_c 8.366790
_cell_angle_alpha 123.476973
_cell_angle_beta 75.359069
_cell_angle_gamma 151.239940
_cell_volume 619.169504
_symmetry_space_group_name_H-M "P -1"
_symmetry_group_IT_number 2
_symmetry_cell_setting 'triclinic'
loop_
_space_group_symop_operation_xyz
x,y,z
-x,-y,-z
loop_
_atom_site_type_symbol
_atom_site_label
_atom_site_fract_x
_atom_site_fract_y
_atom_site_fract_z
Si Si1 0.780426 0.849985 0.177446
Si Si2 0.515674 0.590489 0.336699
Si Si3 0.879226 0.674860 0.697049
Si Si4 0.364891 0.868860 0.098768
Si Si5 0.816515 0.382840 0.543641
Si Si6 0.977853 0.623724 0.050963
Si Si7 0.044680 0.922748 0.200854
O O1 0.624663 0.744431 0.272371
O O2 0.868536 0.834522 0.210119
O O3 0.642621 0.677565 0.904497
O O4 0.982247 0.143006 0.339926
O O5 0.363445 0.525605 0.403024
O O6 0.705393 0.767264 0.561710
O O7 0.832260 0.501570 0.539814
O O8 0.032461 0.868687 0.972217
O O9 0.178032 0.578843 0.929533
O O10 0.562860 0.068660 0.339669
O O11 0.232246 0.841923 0.153271
O O12 0.500000 0.000000 0.000000
O O13 0.860604 0.455612 0.778419
O O14 0.000000 0.500000 0.500000
O O15 0.988973 0.764392 0.186372
#
# Coordination Sequence:
#
# PCOD8005567 Si02
#       7
#     2   2   2   2   2   2   2
#     4  10  22  39  59  91 122 153 200 243 293 363
#     4  10  20  39  60  84 122 159 190 246 299 349
#     4  10  23  40  59  88 122 156 200 247 295 354
#     4  11  22  41  63  88 123 159 206 253 302 358
#     4  11  22  43  62  89 125 161 207 252 305 363
#     4  10  23  41  62  91 125 162 200 254 305 359
#     4  10  20  39  62  89 122 154 201 241 295 365
#
# _framework density 22.610931999999998
#
# number of rings (size 3 to 8) (size 9 to 14) (size 15 to 20)
#    0.000    1.714    1.429    3.429    0.000    3.429 
#   12.857    1.429    0.000    0.000    0.000    0.000 
#    0.000    0.000    0.000    0.000    0.000    0.000 
#
# Total GULP energy -173517.659670 kJ/mol
# GULP energy per Si atom -12394.118548 kJ/mol
# Density = 2.255947 g / cm^3
# Si number density = 22.610932 Si / 1000 Ang^3
#
#
#
# Elastic Constant Matrix: (Units=GPa)
#
#
# Indices 1 2 3 4 5 6 
#
# 1 -129.1529 12.8598 -46.1192 22.3713 32.6091 -19.4814
# 2 12.8598 124.7564 -14.9247 25.5800 -3.6315 4.2021
# 3 -46.1192 -14.9247 66.0537 21.1113 35.5997 11.2560
# 4 22.3713 25.5800 21.1113 28.1283 4.6160 5.7731
# 5 32.6091 -3.6315 35.5997 4.6160 28.7403 10.9785
# 6 -19.4814 4.2021 11.2560 5.7731 10.9785 28.2157
#
#
#
# Elastic Compliance Matrix: (Units=1/GPa)
#
#
# Indices 1 2 3 4 5 6 
#
# 1 -0.000524 -0.002139 -0.008625 0.007557 0.010674 -0.002302
# 2 -0.002139 0.011423 0.005084 -0.011992 0.000647 -0.003004
# 3 -0.008625 0.005084 0.019228 -0.008908 -0.008410 -0.009288
# 4 0.007557 -0.011992 -0.008908 0.047662 -0.008242 0.004012
# 5 0.010674 0.000647 -0.008410 -0.008242 0.035004 -0.001305
# 6 -0.002302 -0.003004 -0.009288 0.004012 -0.001305 0.037691
#
#
# Mechanical properties :
#
#
# Convention : Reuss Voigt Hill
#
# Bulk Modulus (GPa) = 53.28697 -3.85678 24.71510
# Shear Modulus (GPa) = 29.74420 24.33961 27.04190
#
# Velocity S-wave (km/s) = 3.63089 3.28449 3.46203
# Velocity P-wave (km/s) = 6.41840 3.56012 5.18991
#
# Compressibility (1/GPa) = 0.01876631
#
# Stress axis : x y z
#
# Youngs Moduli (GPa) = -1906.73425 87.54106 52.00746
#
# Poissons Ratio (x) = 0.18724 0.44858
# Poissons Ratio (y) = -4.07836 -0.26440
# Poissons Ratio (z) = -16.44609 -0.44506
#
# Static dielectric constant tensor:
#      x y z
#    x 4.675470 -0.903340 0.864570 
#    y -0.903340 5.294740 -0.926970 
#    z 0.864570 -0.926970 5.122230 
# 
# 
# High freq. dielectric constant tensor:
#      x y z
#    x 1.879530 0.006260 0.011950 
#    y 0.006260 1.891990 0.010950 
#    z 0.011950 0.010950 1.897020 
# 
# From -- ./inp_files/313605.got.cif
#   From: 2010.06.25/outbox.cif.g09.slc.cpg/sg2_157_cif.got.tgz:313605.got - 2010.06.27 13:26:56.
