data_PCOD8005543
_publ_section_title
;
Structure prediction by ZEFSAII (Michael W. Deem and Ramdas Pophale) SiO2 
 PCOD8005543
Probable space group: P -1
;
_chemical_formula_sum "Si O2"
_cell_formula_units_Z 16
_cell_length_a 19.426558
_cell_length_b 9.073804
_cell_length_c 9.056635
_cell_angle_alpha 134.937701
_cell_angle_beta 139.549934
_cell_angle_gamma 60.793997
_cell_volume 728.898373
_symmetry_space_group_name_H-M "P -1"
_symmetry_group_IT_number 2
_symmetry_cell_setting 'triclinic'
loop_
_space_group_symop_operation_xyz
x,y,z
-x,-y,-z
loop_
_atom_site_type_symbol
_atom_site_label
_atom_site_fract_x
_atom_site_fract_y
_atom_site_fract_z
Si Si1 0.261848 0.753182 0.130296
Si Si2 0.892058 0.663341 0.484067
Si Si3 0.968091 0.149043 0.682438
Si Si4 0.536665 0.244644 0.721079
Si Si5 0.965180 0.574952 0.254585
Si Si6 0.218033 0.727526 0.366571
Si Si7 0.824451 0.835892 0.773786
Si Si8 0.645780 0.485093 0.342679
O O1 0.381119 0.719364 0.254120
O O2 0.264999 0.819931 0.354304
O O3 0.219906 0.944596 0.103983
O O4 0.186829 0.543302 0.824575
O O5 0.938828 0.753043 0.463101
O O6 0.837997 0.831099 0.612536
O O7 0.990373 0.605609 0.704095
O O8 0.957422 0.352200 0.702786
O O9 0.853861 0.110292 0.552064
O O10 0.062631 0.183463 0.978955
O O11 0.000000 0.000000 0.500000
O O12 0.436932 0.373692 0.615789
O O13 0.500000 0.000000 0.500000
O O14 0.591777 0.331782 0.022463
O O15 0.854715 0.488273 0.937368
O O16 0.316159 0.673284 0.586999
O O17 0.742832 0.638290 0.543903
#
# Coordination Sequence:
#
# PCOD8005543 Si02
#       8
#     2   2   2   2   2   2   2   2
#     4  11  25  41  66  99 129 168 218 271 320 382
#     4  10  21  38  62  90 135 171 212 257 319 375
#     4  12  25  36  61  97 137 175 218 258 311 383
#     4  11  24  46  71  97 121 163 223 275 334 390
#     4  10  20  39  59  89 130 178 208 256 310 381
#     4  11  24  43  62  96 136 168 217 263 319 387
#     4  12  22  40  67  95 131 174 213 262 315 388
#     4  11  24  43  73  94 124 171 214 274 331 383
#
# _framework density 21.950934
#
# number of rings (size 3 to 8) (size 9 to 14) (size 15 to 20)
#    0.000    1.000    5.000    1.875    3.500    1.000 
#    0.000    0.625    0.000    0.000    0.000    0.000 
#    0.000    0.000    0.000    0.000    0.000    0.000 
#
# Total GULP energy -198267.763060 kJ/mol
# GULP energy per Si atom -12391.735191 kJ/mol
# Density = 2.190097 g / cm^3
# Si number density = 21.950934 Si / 1000 Ang^3
#
#
#
# Elastic Constant Matrix: (Units=GPa)
#
#
# Indices 1 2 3 4 5 6 
#
# 1 166.3426 42.4771 41.4695 -8.4068 -16.4946 -20.3171
# 2 42.4771 67.3740 30.6420 -17.0210 -5.8257 -26.5567
# 3 41.4695 30.6420 88.7632 -3.3944 -6.9835 -14.1954
# 4 -8.4068 -17.0210 -3.3944 31.5424 -5.0744 -0.9435
# 5 -16.4946 -5.8257 -6.9835 -5.0744 39.1441 -1.2212
# 6 -20.3171 -26.5567 -14.1954 -0.9435 -1.2212 35.5763
#
#
#
# Elastic Compliance Matrix: (Units=1/GPa)
#
#
# Indices 1 2 3 4 5 6 
#
# 1 0.007772 -0.002918 -0.002150 0.000729 0.002599 0.001511
# 2 -0.002918 0.032299 -0.005321 0.017602 0.005565 0.020979
# 3 -0.002150 -0.005321 0.014153 -0.001811 0.000605 0.000420
# 4 0.000729 0.017602 -0.001811 0.043016 0.008625 0.014270
# 5 0.002599 0.005565 0.000605 0.008625 0.028918 0.007101
# 6 0.001511 0.020979 0.000420 0.014270 0.007101 0.045422
#
#
# Mechanical properties :
#
#
# Convention : Reuss Voigt Hill
#
# Bulk Modulus (GPa) = 29.89799 61.29521 45.59660
# Shear Modulus (GPa) = 24.56953 35.11200 29.84076
#
# Velocity S-wave (km/s) = 3.34921 4.00380 3.69105
# Velocity P-wave (km/s) = 5.34848 7.02554 6.24358
#
# Compressibility (1/GPa) = 0.03344706
#
# Stress axis : x y z
#
# Youngs Moduli (GPa) = 128.67085 30.96042 70.65795
#
# Poissons Ratio (x) = 0.09033 0.15189
# Poissons Ratio (y) = 0.37541 0.37597
# Poissons Ratio (z) = 0.27660 0.16474
#
# Static dielectric constant tensor:
#      x y z
#    x 4.918450 0.255980 -0.261110 
#    y 0.255980 4.380960 0.008680 
#    z -0.261110 0.008680 3.958120 
# 
# 
# High freq. dielectric constant tensor:
#      x y z
#    x 1.880830 -0.005980 -0.021540 
#    y -0.005980 1.859310 0.004530 
#    z -0.021540 0.004530 1.854900 
# 
# From -- ./inp_files/217750.got.cif
#   From: 2010.06.25/outbox.cif.g09.slc.cpg/sg2_109_cif.got.tgz:217750.got - 2010.06.27 13:26:56.
