data_PCOD8005049
_publ_section_title
;
Structure prediction by ZEFSAII (Michael W. Deem and Ramdas Pophale) SiO2 
 PCOD8005049
Probable space group: P -1
;
_chemical_formula_sum "Si O2"
_cell_formula_units_Z 12
_cell_length_a 6.925131
_cell_length_b 12.103529
_cell_length_c 13.239497
_cell_angle_alpha 135.180523
_cell_angle_beta 130.662837
_cell_angle_gamma 64.396185
_cell_volume 592.413253
_symmetry_space_group_name_H-M "P -1"
_symmetry_group_IT_number 2
_symmetry_cell_setting 'triclinic'
loop_
_space_group_symop_operation_xyz
x,y,z
-x,-y,-z
loop_
_atom_site_type_symbol
_atom_site_label
_atom_site_fract_x
_atom_site_fract_y
_atom_site_fract_z
Si Si1 0.683517 0.874196 0.782597
Si Si2 0.831423 0.423727 0.980776
Si Si3 0.006946 0.903517 0.102708
Si Si4 0.264264 0.413612 0.747494
Si Si5 0.141691 0.833830 0.648291
Si Si6 0.926850 0.354274 0.312481
O O1 0.379620 0.839290 0.657017
O O2 0.819749 0.719223 0.692564
O O3 0.743429 0.017752 0.818193
O O4 0.773832 0.920465 0.956131
O O5 0.962238 0.276397 0.977751
O O6 0.554562 0.365666 0.805671
O O7 0.808510 0.560822 0.144494
O O8 0.000000 0.500000 0.000000
O O9 0.953968 0.993217 0.248250
O O10 0.244299 0.583403 0.795845
O O11 0.084747 0.274746 0.548589
O O12 0.223814 0.769447 0.745331
O O13 0.000000 0.500000 0.500000
#
# Coordination Sequence:
#
# PCOD8005049 Si02
#       6
#     2   2   2   2   2   2
#     4  10  20  38  64  89 127 155 194 258 304 347
#     4  11  25  42  63  82 123 170 200 242 299 361
#     4  10  22  40  59  93 118 161 206 244 296 364
#     4  10  23  41  57  92 124 156 207 247 291 364
#     4  10  22  37  66  93 119 158 199 253 309 349
#     4   9  19  35  59  94 122 148 196 252 298 356
#
# _framework density 20.256132000000001
#
# number of rings (size 3 to 8) (size 9 to 14) (size 15 to 20)
#    0.000    2.000    1.667    0.500    2.333   10.000 
#    0.000    1.667    0.000    0.000    0.000    0.000 
#    0.000    0.000    0.000    0.000    0.000    0.000 
#
# Total GULP energy -148763.943787 kJ/mol
# GULP energy per Si atom -12396.995316 kJ/mol
# Density = 2.021003 g / cm^3
# Si number density = 20.256132 Si / 1000 Ang^3
#
#
#
# Elastic Constant Matrix: (Units=GPa)
#
#
# Indices 1 2 3 4 5 6 
#
# 1 121.1810 31.3662 42.7301 3.2182 -1.9351 4.4013
# 2 31.3662 71.3533 16.8019 5.9066 -4.5773 5.0129
# 3 42.7301 16.8019 98.6406 9.6097 -4.6363 -3.0526
# 4 3.2182 5.9066 9.6097 29.5032 -3.8947 -5.6588
# 5 -1.9351 -4.5773 -4.6363 -3.8947 26.9316 2.0926
# 6 4.4013 5.0129 -3.0526 -5.6588 2.0926 21.1037
#
#
#
# Elastic Compliance Matrix: (Units=1/GPa)
#
#
# Indices 1 2 3 4 5 6 
#
# 1 0.010706 -0.003674 -0.004135 0.000526 -0.000352 -0.001782
# 2 -0.003674 0.016568 -0.000953 -0.003145 0.002273 -0.004376
# 3 -0.004135 -0.000953 0.012488 -0.002893 0.001116 0.002009
# 4 0.000526 -0.003145 -0.002893 0.037814 0.003697 0.009992
# 5 -0.000352 0.002273 0.001116 0.003697 0.038462 -0.003127
# 6 -0.001782 -0.004376 0.002009 0.009992 -0.003127 0.052076
#
#
# Mechanical properties :
#
#
# Convention : Reuss Voigt Hill
#
# Bulk Modulus (GPa) = 44.96673 52.55238 48.75956
# Shear Modulus (GPa) = 25.90012 28.85948 27.37980
#
# Velocity S-wave (km/s) = 3.57967 3.77865 3.68051
# Velocity P-wave (km/s) = 6.27158 6.71103 6.49502
#
# Compressibility (1/GPa) = 0.02223866
#
# Stress axis : x y z
#
# Youngs Moduli (GPa) = 93.40388 60.35882 80.07777
#
# Poissons Ratio (x) = 0.22173 0.33113
# Poissons Ratio (y) = 0.34313 0.07630
# Poissons Ratio (z) = 0.38623 0.05751
#
# Static dielectric constant tensor:
#      x y z
#    x 3.646170 0.173390 -0.208570 
#    y 0.173390 4.209540 0.054550 
#    z -0.208570 0.054550 3.645050 
# 
# 
# High freq. dielectric constant tensor:
#      x y z
#    x 1.789910 0.003230 -0.017100 
#    y 0.003230 1.783390 0.011390 
#    z -0.017100 0.011390 1.789670 
# 
# From -- ./inp_files/28070.got.cif
#   From: 2010.06.25/outbox.cif.g09.slc.cpg/sg2_15_cif.got.tgz:28070.got - 2010.06.27 13:26:56.
