data_PCOD8005327
_publ_section_title
;
Structure prediction by ZEFSAII (Michael W. Deem and Ramdas Pophale) SiO2 
 PCOD8005327
Probable space group: P -1
;
_chemical_formula_sum "Si O2"
_cell_formula_units_Z 14
_cell_length_a 12.871147
_cell_length_b 8.423163
_cell_length_c 9.354128
_cell_angle_alpha 111.931569
_cell_angle_beta 54.080048
_cell_angle_gamma 79.491274
_cell_volume 643.911140
_symmetry_space_group_name_H-M "P -1"
_symmetry_group_IT_number 2
_symmetry_cell_setting 'triclinic'
loop_
_space_group_symop_operation_xyz
x,y,z
-x,-y,-z
loop_
_atom_site_type_symbol
_atom_site_label
_atom_site_fract_x
_atom_site_fract_y
_atom_site_fract_z
Si Si1 0.591180 0.103801 0.512454
Si Si2 0.808881 0.940992 0.031284
Si Si3 0.189652 0.139518 0.502945
Si Si4 0.875013 0.228128 0.905604
Si Si5 0.072372 0.556517 0.835010
Si Si6 0.430597 0.543395 0.910468
Si Si7 0.381872 0.949174 0.024636
O O1 0.492217 0.344592 0.697241
O O2 0.500000 0.000000 0.500000
O O3 0.726394 0.062211 0.282274
O O4 0.665244 0.008902 0.570818
O O5 0.945542 0.719401 0.885941
O O6 0.873722 0.039128 0.906459
O O7 0.677479 0.941339 0.044423
O O8 0.174878 0.357067 0.590281
O O9 0.038902 0.151463 0.681958
O O10 0.233184 0.044909 0.278780
O O11 0.834709 0.365136 0.128510
O O12 0.753102 0.347009 0.916604
O O13 0.000000 0.500000 0.000000
O O14 0.500000 0.500000 0.000000
O O15 0.463928 0.704546 0.865107
O O16 0.500000 0.000000 0.000000
#
# Coordination Sequence:
#
# PCOD8005327 Si02
#       7
#     2   2   2   2   2   2   2
#     4  12  24  42  74  99 135 188 230 277 346 413
#     4  11  24  41  67 101 134 176 233 291 336 399
#     4  11  23  43  69  98 134 190 225 275 356 401
#     4  10  23  42  68  98 141 169 238 292 331 414
#     4  10  20  38  67 100 128 176 228 283 336 403
#     4  11  25  44  70 102 137 187 229 277 352 408
#     4  11  26  46  64 102 148 177 227 289 343 417
#
# _framework density 21.742128999999998
#
# number of rings (size 3 to 8) (size 9 to 14) (size 15 to 20)
#    0.000    1.143    4.286    2.143    2.000    6.286 
#    0.000    0.000    0.000    0.000    0.000    0.000 
#    0.000    0.000    0.000    0.000    0.000    0.000 
#
# Total GULP energy -173469.073977 kJ/mol
# GULP energy per Si atom -12390.648141 kJ/mol
# Density = 2.169264 g / cm^3
# Si number density = 21.742129 Si / 1000 Ang^3
#
#
#
# Elastic Constant Matrix: (Units=GPa)
#
#
# Indices 1 2 3 4 5 6 
#
# 1 119.1281 51.2748 1.7585 18.2765 -0.9519 -6.2628
# 2 51.2748 120.0906 38.8763 27.1243 5.0424 -19.2697
# 3 1.7585 38.8763 82.6644 17.2863 8.1042 14.4451
# 4 18.2765 27.1243 17.2863 34.9609 2.1947 3.4302
# 5 -0.9519 5.0424 8.1042 2.1947 35.1686 1.5745
# 6 -6.2628 -19.2697 14.4451 3.4302 1.5745 48.0190
#
#
#
# Elastic Compliance Matrix: (Units=1/GPa)
#
#
# Indices 1 2 3 4 5 6 
#
# 1 0.011013 -0.005239 0.003063 -0.003109 0.000599 -0.001385
# 2 -0.005239 0.015817 -0.007324 -0.006690 -0.000679 0.008367
# 3 0.003063 -0.007324 0.017835 -0.003846 -0.002399 -0.007551
# 4 -0.003109 -0.006690 -0.003846 0.037798 -0.000391 -0.004620
# 5 0.000599 -0.000679 -0.002399 -0.000391 0.029143 -0.000400
# 6 -0.001385 0.008367 -0.007551 -0.004620 -0.000400 0.026617
#
#
# Mechanical properties :
#
#
# Convention : Reuss Voigt Hill
#
# Bulk Modulus (GPa) = 38.96260 56.18913 47.57586
# Shear Modulus (GPa) = 30.16078 38.96128 34.56103
#
# Velocity S-wave (km/s) = 3.72856 4.23776 3.99129
# Velocity P-wave (km/s) = 6.04115 7.06005 6.57038
#
# Compressibility (1/GPa) = 0.02566564
#
# Stress axis : x y z
#
# Youngs Moduli (GPa) = 90.80197 63.22362 56.06885
#
# Poissons Ratio (x) = 0.33123 -0.17173
# Poissons Ratio (y) = 0.47571 0.41063
# Poissons Ratio (z) = -0.27812 0.46303
#
# Static dielectric constant tensor:
#      x y z
#    x 5.175430 -0.304760 0.526610 
#    y -0.304760 4.596710 0.266860 
#    z 0.526610 0.266860 4.083280 
# 
# 
# High freq. dielectric constant tensor:
#      x y z
#    x 1.876870 -0.006460 0.009780 
#    y -0.006460 1.858830 0.012620 
#    z 0.009780 0.012620 1.839560 
# 
# From -- ./inp_files/240693.got.cif
#   From: 2010.06.25/outbox.cif.g09.slc.cpg/sg2_121_cif.got.tgz:240693.got - 2010.06.27 13:26:56.
