data_PCOD8005409
_publ_section_title
;
Structure prediction by ZEFSAII (Michael W. Deem and Ramdas Pophale) SiO2 
 PCOD8005409
Probable space group: P -1
;
_chemical_formula_sum "Si O2"
_cell_formula_units_Z 16
_cell_length_a 12.890531
_cell_length_b 7.230861
_cell_length_c 9.756432
_cell_angle_alpha 106.758526
_cell_angle_beta 133.066360
_cell_angle_gamma 77.571558
_cell_volume 635.934319
_symmetry_space_group_name_H-M "P -1"
_symmetry_group_IT_number 2
_symmetry_cell_setting 'triclinic'
loop_
_space_group_symop_operation_xyz
x,y,z
-x,-y,-z
loop_
_atom_site_type_symbol
_atom_site_label
_atom_site_fract_x
_atom_site_fract_y
_atom_site_fract_z
Si Si1 0.343012 0.906895 0.034158
Si Si2 0.592782 0.182282 0.642384
Si Si3 0.864135 0.950155 0.781260
Si Si4 0.153092 0.463114 0.195107
Si Si5 0.031907 0.800501 0.676791
Si Si6 0.413225 0.609417 0.830368
Si Si7 0.891722 0.418173 0.538629
Si Si8 0.576247 0.662948 0.717051
O O1 0.173489 0.891229 0.883590
O O2 0.402895 0.832981 0.925201
O O3 0.407661 0.768031 0.184952
O O4 0.378210 0.125692 0.149115
O O5 0.518775 0.344283 0.511361
O O6 0.500000 0.000000 0.500000
O O7 0.752240 0.126797 0.725672
O O8 0.810427 0.748222 0.751313
O O9 0.901901 0.930048 0.648349
O O10 0.000000 0.000000 0.000000
O O11 0.153304 0.619435 0.352598
O O12 0.282355 0.481190 0.205161
O O13 0.000000 0.500000 0.000000
O O14 0.037444 0.776529 0.510252
O O15 0.008016 0.584548 0.670382
O O16 0.253264 0.529067 0.664821
O O17 0.483709 0.583527 0.740438
O O18 0.500000 0.500000 0.000000
#
# Coordination Sequence:
#
# PCOD8005409 Si02
#       8
#     2   2   2   2   2   2   2   2
#     4  10  20  42  70 101 131 180 229 280 349 403
#     4  10  20  38  68  99 136 170 226 284 342 406
#     4  11  19  37  68 101 127 181 225 277 347 407
#     4  11  24  41  65  95 138 176 233 288 338 405
#     4   9  18  37  66  91 134 173 223 276 332 410
#     4  11  26  43  67  98 143 186 222 281 353 424
#     4   9  22  40  58  96 133 181 226 267 344 411
#     4  11  24  44  68 103 136 180 235 292 340 413
#
# _framework density 25.159829999999999
#
# number of rings (size 3 to 8) (size 9 to 14) (size 15 to 20)
#    0.000    1.750    3.750    0.375    1.750    7.500 
#    0.000    1.250    0.000    6.000    0.000    0.000 
#    0.000    0.000    0.000    0.000    0.000    0.000 
#
# Total GULP energy -198230.026420 kJ/mol
# GULP energy per Si atom -12389.376651 kJ/mol
# Density = 2.510257 g / cm^3
# Si number density = 25.159830 Si / 1000 Ang^3
#
#
#
# Elastic Constant Matrix: (Units=GPa)
#
#
# Indices 1 2 3 4 5 6 
#
# 1 154.4653 17.8503 35.9969 -2.1402 -16.0448 -27.3318
# 2 17.8503 73.2958 16.1367 -6.9701 3.2142 -14.6608
# 3 35.9969 16.1367 99.7405 -0.7747 0.4679 -13.3464
# 4 -2.1402 -6.9701 -0.7747 35.8989 -3.2628 6.0086
# 5 -16.0448 3.2142 0.4679 -3.2628 54.7313 8.3807
# 6 -27.3318 -14.6608 -13.3464 6.0086 8.3807 36.5902
#
#
#
# Elastic Compliance Matrix: (Units=1/GPa)
#
#
# Indices 1 2 3 4 5 6 
#
# 1 0.008048 -0.000659 -0.002191 -0.000314 0.001692 0.004613
# 2 -0.000659 0.015447 -0.001538 0.001889 -0.001776 0.005232
# 3 -0.002191 -0.001538 0.011365 -0.000652 -0.001030 0.002235
# 4 -0.000314 0.001889 -0.000652 0.029246 0.002319 -0.005049
# 5 0.001692 -0.001776 -0.001030 0.002319 0.019742 -0.004726
# 6 0.004613 0.005232 0.002235 -0.005049 -0.004726 0.035598
#
#
# Mechanical properties :
#
#
# Convention : Reuss Voigt Hill
#
# Bulk Modulus (GPa) = 38.33952 51.94104 45.14028
# Shear Modulus (GPa) = 36.51852 42.61193 39.56522
#
# Velocity S-wave (km/s) = 3.81394 4.11986 3.96985
# Velocity P-wave (km/s) = 5.88781 6.58181 6.24446
#
# Compressibility (1/GPa) = 0.02608275
#
# Stress axis : x y z
#
# Youngs Moduli (GPa) = 124.24972 64.73923 87.99296
#
# Poissons Ratio (x) = 0.04267 0.19281
# Poissons Ratio (y) = 0.08189 0.13534
# Poissons Ratio (z) = 0.27226 0.09957
#
# Static dielectric constant tensor:
#      x y z
#    x 5.252220 -0.063320 -0.427480 
#    y -0.063320 4.594810 0.220890 
#    z -0.427480 0.220890 5.001210 
# 
# 
# High freq. dielectric constant tensor:
#      x y z
#    x 2.026620 -0.015840 -0.001910 
#    y -0.015840 1.993360 0.036590 
#    z -0.001910 0.036590 2.008230 
# 
# From -- ./inp_files/244774.got.cif
#   From: 2010.06.25/outbox.cif.g09.slc.cpg/sg2_123_cif.got.tgz:244774.got - 2010.06.27 13:26:56.
