data_PCOD8005660
_publ_section_title
;
Structure prediction by ZEFSAII (Michael W. Deem and Ramdas Pophale) SiO2 
 PCOD8005660
Probable space group: P -1
;
_chemical_formula_sum "Si O2"
_cell_formula_units_Z 16
_cell_length_a 8.197088
_cell_length_b 19.558959
_cell_length_c 14.060076
_cell_angle_alpha 157.322598
_cell_angle_beta 102.455374
_cell_angle_gamma 88.369662
_cell_volume 756.551466
_symmetry_space_group_name_H-M "P -1"
_symmetry_group_IT_number 2
_symmetry_cell_setting 'triclinic'
loop_
_space_group_symop_operation_xyz
x,y,z
-x,-y,-z
loop_
_atom_site_type_symbol
_atom_site_label
_atom_site_fract_x
_atom_site_fract_y
_atom_site_fract_z
Si Si1 0.678725 0.888945 0.111398
Si Si2 0.507795 0.449998 0.222921
Si Si3 0.437065 0.161536 0.666885
Si Si4 0.756508 0.850506 0.700721
Si Si5 0.406670 0.761768 0.409862
Si Si6 0.820230 0.466648 0.746333
Si Si7 0.978234 0.099469 0.718995
Si Si8 0.154941 0.918807 0.806946
O O1 0.869081 0.888922 0.170941
O O2 0.646062 0.058521 0.377347
O O3 0.693470 0.924211 0.045423
O O4 0.501919 0.678914 0.849695
O O5 0.708614 0.638265 0.474133
O O6 0.361251 0.538937 0.334855
O O7 0.445498 0.306960 0.939155
O O8 0.563106 0.296336 0.767950
O O9 0.500000 0.000000 0.500000
O O10 0.226975 0.034809 0.437247
O O11 0.598699 0.831388 0.582308
O O12 0.955649 0.918016 0.761756
O O13 0.772243 0.012400 0.989310
O O14 0.234194 0.579149 0.206534
O O15 0.866520 0.300384 0.492866
O O16 0.996568 0.680763 0.025508
O O17 0.000000 0.000000 0.500000
#
# Coordination Sequence:
#
# PCOD8005660 Si02
#       8
#     2   2   2   2   2   2   2   2
#     4  10  20  39  61  89 118 154 198 237 290 355
#     4  10  21  39  58  89 120 154 198 237 289 351
#     4  12  22  37  61  88 126 159 187 242 293 345
#     4  10  23  41  62  85 119 151 198 252 290 350
#     4  10  21  39  60  89 119 156 200 236 294 347
#     4   9  21  37  60  85 117 153 198 235 287 353
#     4  11  20  39  60  85 124 156 190 240 285 351
#     4  10  22  42  61  86 116 156 196 246 301 336
#
# _framework density 21.148595
#
# number of rings (size 3 to 8) (size 9 to 14) (size 15 to 20)
#    0.000    1.750    3.750    0.750    1.750    7.000 
#    2.250    3.125    0.000    8.250    0.000    0.000 
#    0.000    0.000    0.000    0.000    0.000    0.000 
#
# Total GULP energy -198317.652913 kJ/mol
# GULP energy per Si atom -12394.853307 kJ/mol
# Density = 2.110046 g / cm^3
# Si number density = 21.148595 Si / 1000 Ang^3
#
#
#
# Elastic Constant Matrix: (Units=GPa)
#
#
# Indices 1 2 3 4 5 6 
#
# 1 66.7765 23.2231 23.8696 -3.4624 -13.7543 8.3510
# 2 23.2231 71.8583 35.6458 11.0730 -20.1616 13.8011
# 3 23.8696 35.6458 90.9775 12.1325 -11.7821 9.0946
# 4 -3.4624 11.0730 12.1325 35.0800 1.4335 2.7963
# 5 -13.7543 -20.1616 -11.7821 1.4335 29.6435 2.1215
# 6 8.3510 13.8011 9.0946 2.7963 2.1215 34.1284
#
#
#
# Elastic Compliance Matrix: (Units=1/GPa)
#
#
# Indices 1 2 3 4 5 6 
#
# 1 0.018920 -0.002911 -0.003313 0.003965 0.005522 -0.003238
# 2 -0.002911 0.023621 -0.005177 -0.005881 0.013501 -0.007818
# 3 -0.003313 -0.005177 0.014585 -0.003718 0.000971 -0.000738
# 4 0.003965 -0.005881 -0.003718 0.032246 -0.005203 0.000080
# 5 0.005522 0.013501 0.000971 -0.005203 0.046800 -0.009553
# 6 -0.003238 -0.007818 -0.000738 0.000080 -0.009553 0.034039
#
#
# Mechanical properties :
#
#
# Convention : Reuss Voigt Hill
#
# Bulk Modulus (GPa) = 29.13460 43.89883 36.51672
# Shear Modulus (GPa) = 24.45545 29.56195 27.00870
#
# Velocity S-wave (km/s) = 3.40422 3.74280 3.57752
# Velocity P-wave (km/s) = 5.40904 6.28335 5.86251
#
# Compressibility (1/GPa) = 0.03432345
#
# Stress axis : x y z
#
# Youngs Moduli (GPa) = 52.85456 42.33566 68.56455
#
# Poissons Ratio (x) = 0.12322 0.22719
# Poissons Ratio (y) = 0.15384 0.35495
# Poissons Ratio (z) = 0.17513 0.21917
#
# Static dielectric constant tensor:
#      x y z
#    x 4.252210 0.093530 0.162630 
#    y 0.093530 3.998770 0.379360 
#    z 0.162630 0.379360 3.946960 
# 
# 
# High freq. dielectric constant tensor:
#      x y z
#    x 1.833340 0.013740 -0.010110 
#    y 0.013740 1.824470 0.022810 
#    z -0.010110 0.022810 1.815580 
# 
# From -- ./inp_files/217485.got.cif
#   From: 2010.06.25/outbox.cif.g09.slc.cpg/sg2_109_cif.got.tgz:217485.got - 2010.06.27 13:26:56.
