data_PCOD8005536
_publ_section_title
;
Structure prediction by ZEFSAII (Michael W. Deem and Ramdas Pophale) SiO2 
 PCOD8005536
Probable space group: P -1
;
_chemical_formula_sum "Si O2"
_cell_formula_units_Z 16
_cell_length_a 8.945920
_cell_length_b 20.701599
_cell_length_c 12.395723
_cell_angle_alpha 147.209317
_cell_angle_beta 142.535677
_cell_angle_gamma 47.586268
_cell_volume 756.043151
_symmetry_space_group_name_H-M "P -1"
_symmetry_group_IT_number 2
_symmetry_cell_setting 'triclinic'
loop_
_space_group_symop_operation_xyz
x,y,z
-x,-y,-z
loop_
_atom_site_type_symbol
_atom_site_label
_atom_site_fract_x
_atom_site_fract_y
_atom_site_fract_z
Si Si1 0.443699 0.515587 0.864513
Si Si2 0.121870 0.081326 0.375387
Si Si3 0.599215 0.042654 0.451514
Si Si4 0.865739 0.325780 0.613657
Si Si5 0.357997 0.286285 0.373335
Si Si6 0.035735 0.552210 0.952872
Si Si7 0.612764 0.964531 0.899044
Si Si8 0.875618 0.283873 0.969936
O O1 0.296640 0.404649 0.573979
O O2 0.500000 0.500000 0.000000
O O3 0.293781 0.639611 0.935113
O O4 0.707163 0.513879 0.956005
O O5 0.336803 0.064569 0.388429
O O6 0.014736 0.215245 0.492772
O O7 0.228881 0.048661 0.509668
O O8 0.897924 0.996309 0.098927
O O9 0.546405 0.983077 0.220107
O O10 0.736569 0.167463 0.689098
O O11 0.585374 0.294144 0.432351
O O12 0.852556 0.440377 0.684909
O O13 0.019378 0.357518 0.854149
O O14 0.411869 0.177491 0.332776
O O15 0.125913 0.244727 0.114363
O O16 0.051772 0.626643 0.958247
O O17 0.500000 0.000000 0.000000
#
# Coordination Sequence:
#
# PCOD8005536 Si02
#       8
#     2   2   2   2   2   2   2   2
#     4   9  18  35  58  85 114 159 204 253 318 366
#     4  11  24  44  67  95 130 170 219 267 330 381
#     4  11  25  43  68  96 132 170 218 271 324 387
#     4  10  20  39  59  87 124 165 209 266 320 380
#     4  11  22  37  59  94 129 161 218 268 312 393
#     4   9  20  36  62  86 120 163 214 262 319 380
#     4  12  24  43  67  97 131 173 217 269 324 385
#     4  11  21  38  62  93 125 166 216 265 321 388
#
# _framework density 21.162811999999999
#
# number of rings (size 3 to 8) (size 9 to 14) (size 15 to 20)
#    0.000    1.500    2.500    3.750    0.000    3.000 
#    0.000    0.000    0.000    0.000    0.000    0.000 
#    0.000    0.000    0.000    0.000    0.000    0.000 
#
# Total GULP energy -198279.815892 kJ/mol
# GULP energy per Si atom -12392.488493 kJ/mol
# Density = 2.111464 g / cm^3
# Si number density = 21.162812 Si / 1000 Ang^3
#
#
#
# Elastic Constant Matrix: (Units=GPa)
#
#
# Indices 1 2 3 4 5 6 
#
# 1 68.6674 22.4281 42.3499 -5.3708 4.4350 11.1030
# 2 22.4281 63.7128 28.1639 -9.5318 2.8835 6.7647
# 3 42.3499 28.1639 107.1875 -12.5928 9.9892 3.3779
# 4 -5.3708 -9.5318 -12.5928 38.6225 0.9677 -1.2319
# 5 4.4350 2.8835 9.9892 0.9677 40.9839 2.6118
# 6 11.1030 6.7647 3.3779 -1.2319 2.6118 32.5656
#
#
#
# Elastic Compliance Matrix: (Units=1/GPa)
#
#
# Indices 1 2 3 4 5 6 
#
# 1 0.021130 -0.003703 -0.007269 -0.000531 0.000122 -0.005711
# 2 -0.003703 0.019081 -0.003103 0.003113 -0.000115 -0.002252
# 3 -0.007269 -0.003103 0.013508 0.002754 -0.002481 0.002025
# 4 -0.000531 0.003113 0.002754 0.027535 -0.001509 0.000411
# 5 0.000122 -0.000115 -0.002481 -0.001509 0.025152 -0.001835
# 6 -0.005711 -0.002252 0.002025 0.000411 -0.001835 0.033075
#
#
# Mechanical properties :
#
#
# Convention : Reuss Voigt Hill
#
# Bulk Modulus (GPa) = 39.11200 47.27239 43.19220
# Shear Modulus (GPa) = 28.38436 32.20945 30.29691
#
# Velocity S-wave (km/s) = 3.66626 3.90549 3.78777
# Velocity P-wave (km/s) = 6.03685 6.53629 6.29153
#
# Compressibility (1/GPa) = 0.02556760
#
# Stress axis : x y z
#
# Youngs Moduli (GPa) = 47.32693 52.40862 74.03151
#
# Poissons Ratio (x) = 0.19409 0.53814
# Poissons Ratio (y) = 0.17527 0.22971
# Poissons Ratio (z) = 0.34402 0.16261
#
# Static dielectric constant tensor:
#      x y z
#    x 4.033560 -0.250100 0.112540 
#    y -0.250100 3.941130 0.147470 
#    z 0.112540 0.147470 3.876450 
# 
# 
# High freq. dielectric constant tensor:
#      x y z
#    x 1.831470 -0.004160 0.011270 
#    y -0.004160 1.819050 0.008630 
#    z 0.011270 0.008630 1.835320 
# 
# From -- ./inp_files/405744.got.cif
#   From: 2010.06.25/outbox.cif.g09.slc.cpg/sg2_203_cif.got.tgz:405744.got - 2010.06.27 13:26:56.
