data_PCOD8005345
_publ_section_title
;
Structure prediction by ZEFSAII (Michael W. Deem and Ramdas Pophale) SiO2 
 PCOD8005345
Probable space group: P -1
;
_chemical_formula_sum "Si O2"
_cell_formula_units_Z 16
_cell_length_a 9.404387
_cell_length_b 15.452327
_cell_length_c 9.543694
_cell_angle_alpha 47.636137
_cell_angle_beta 69.028135
_cell_angle_gamma 96.971367
_cell_volume 814.103370
_symmetry_space_group_name_H-M "P -1"
_symmetry_group_IT_number 2
_symmetry_cell_setting 'triclinic'
loop_
_space_group_symop_operation_xyz
x,y,z
-x,-y,-z
loop_
_atom_site_type_symbol
_atom_site_label
_atom_site_fract_x
_atom_site_fract_y
_atom_site_fract_z
Si Si1 0.684652 0.218491 0.137532
Si Si2 0.802791 0.914084 0.089498
Si Si3 0.452881 0.059591 0.638681
Si Si4 0.699487 0.617922 0.333711
Si Si5 0.173579 0.518231 0.345646
Si Si6 0.036282 0.634569 0.668722
Si Si7 0.940455 0.616397 0.023759
Si Si8 0.683787 0.066897 0.781253
O O1 0.521597 0.159816 0.369976
O O2 0.868437 0.303022 0.060916
O O3 0.685598 0.096043 0.189490
O O4 0.677423 0.321077 0.914353
O O5 0.652465 0.894524 0.274152
O O6 0.741472 0.761918 0.225566
O O7 0.790861 0.992037 0.869346
O O8 0.000000 0.000000 0.000000
O O9 0.625627 0.061860 0.644653
O O10 0.500000 0.500000 0.500000
O O11 0.751618 0.547424 0.508524
O O12 0.807769 0.648634 0.117086
O O13 0.000000 0.500000 0.500000
O O14 0.125575 0.438239 0.303154
O O15 0.190457 0.774841 0.391785
O O16 0.955725 0.662509 0.806646
O O17 0.126898 0.545683 0.769176
O O18 0.500000 0.000000 0.000000
#
# Coordination Sequence:
#
# PCOD8005345 Si02
#       8
#     2   2   2   2   2   2   2   2
#     4  10  20  39  67  97 117 158 220 268 307 353
#     4  11  25  42  62  90 135 173 202 251 328 384
#     4  10  22  38  68  93 126 157 216 263 304 373
#     4  12  27  41  61  97 134 166 208 262 320 379
#     4  11  23  39  69  90 122 164 219 257 305 380
#     4  10  20  38  67  92 116 160 220 256 312 357
#     4  10  21  39  65  91 128 161 202 268 315 371
#     4  10  22  35  65  92 118 159 215 256 297 373
#
# _framework density 19.653524000000001
#
# number of rings (size 3 to 8) (size 9 to 14) (size 15 to 20)
#    0.000    1.500    3.750    1.500    8.750    0.000 
#    0.000    4.375    0.000    0.000    0.000    0.000 
#    0.000    0.000    0.000    0.000    0.000    0.000 
#
# Total GULP energy -198294.507301 kJ/mol
# GULP energy per Si atom -12393.406706 kJ/mol
# Density = 1.960879 g / cm^3
# Si number density = 19.653524 Si / 1000 Ang^3
#
#
#
# Elastic Constant Matrix: (Units=GPa)
#
#
# Indices 1 2 3 4 5 6 
#
# 1 104.7414 46.4279 39.7674 -6.9327 9.9251 -0.8208
# 2 46.4279 137.0799 64.3132 -5.1085 -5.4940 -12.1039
# 3 39.7674 64.3132 133.4650 -19.5404 5.7246 -13.1192
# 4 -6.9327 -5.1085 -19.5404 42.1728 2.0131 -2.2432
# 5 9.9251 -5.4940 5.7246 2.0131 27.2077 0.2052
# 6 -0.8208 -12.1039 -13.1192 -2.2432 0.2052 25.1251
#
#
#
# Elastic Compliance Matrix: (Units=1/GPa)
#
#
# Indices 1 2 3 4 5 6 
#
# 1 0.012378 -0.003721 -0.001769 0.000884 -0.004943 -0.002193
# 2 -0.003721 0.010941 -0.004284 -0.001342 0.004547 0.002755
# 3 -0.001769 -0.004284 0.011335 0.004811 -0.002992 0.004251
# 4 0.000884 -0.001342 0.004811 0.026322 -0.003585 0.004274
# 5 -0.004943 0.004547 -0.002992 -0.003585 0.040372 -0.000184
# 6 -0.002193 0.002755 0.004251 0.004274 -0.000184 0.043659
#
#
# Mechanical properties :
#
#
# Convention : Reuss Voigt Hill
#
# Bulk Modulus (GPa) = 66.20340 75.14480 70.67410
# Shear Modulus (GPa) = 29.48275 33.88630 31.68452
#
# Velocity S-wave (km/s) = 3.87735 4.15683 4.01952
# Velocity P-wave (km/s) = 7.33509 7.83306 7.58816
#
# Compressibility (1/GPa) = 0.01510497
#
# Stress axis : x y z
#
# Youngs Moduli (GPa) = 80.78683 91.40179 88.22517
#
# Poissons Ratio (x) = 0.34012 0.15609
# Poissons Ratio (y) = 0.30062 0.37795
# Poissons Ratio (z) = 0.14293 0.39156
#
# Static dielectric constant tensor:
#      x y z
#    x 3.692350 0.221160 0.333440 
#    y 0.221160 3.793750 -0.022470 
#    z 0.333440 -0.022470 4.131510 
# 
# 
# High freq. dielectric constant tensor:
#      x y z
#    x 1.740690 0.020860 0.007240 
#    y 0.020860 1.774360 -0.005750 
#    z 0.007240 -0.005750 1.785480 
# 
# From -- ./inp_files/205529.got.cif
#   From: 2010.06.25/outbox.cif.g09.slc.cpg/sg2_103_cif.got.tgz:205529.got - 2010.06.27 13:26:56.
