data_PCOD8005175
_publ_section_title
;
Structure prediction by ZEFSAII (Michael W. Deem and Ramdas Pophale) SiO2 
 PCOD8005175
Probable space group: P -1
;
_chemical_formula_sum "Si O2"
_cell_formula_units_Z 16
_cell_length_a 8.940223
_cell_length_b 9.908380
_cell_length_c 20.449767
_cell_angle_alpha 50.041869
_cell_angle_beta 62.012159
_cell_angle_gamma 102.647798
_cell_volume 784.178039
_symmetry_space_group_name_H-M "P -1"
_symmetry_group_IT_number 2
_symmetry_cell_setting 'triclinic'
loop_
_space_group_symop_operation_xyz
x,y,z
-x,-y,-z
loop_
_atom_site_type_symbol
_atom_site_label
_atom_site_fract_x
_atom_site_fract_y
_atom_site_fract_z
Si Si1 0.772640 0.279408 0.939134
Si Si2 0.163711 0.185103 0.103081
Si Si3 0.601671 0.780781 0.392845
Si Si4 0.457812 0.191687 0.138508
Si Si5 0.932572 0.746493 0.604037
Si Si6 0.244901 0.878976 0.622785
Si Si7 0.197327 0.744877 0.433999
Si Si8 0.578950 0.792205 0.070125
O O1 0.608382 0.255410 0.926818
O O2 0.074656 0.592145 0.784698
O O3 0.626092 0.178747 0.069941
O O4 0.770747 0.073382 0.984362
O O5 0.216687 0.070427 0.180433
O O6 0.349229 0.495506 0.983644
O O7 0.223490 0.176034 0.019569
O O8 0.859633 0.998782 0.226581
O O9 0.500000 0.500000 0.500000
O O10 0.387170 0.743480 0.420638
O O11 0.674494 0.898476 0.414742
O O12 0.353224 0.026670 0.278634
O O13 0.614162 0.468571 0.759988
O O14 0.058265 0.808020 0.628589
O O15 0.042750 0.703620 0.539649
O O16 0.000000 0.000000 0.500000
O O17 0.500000 0.000000 0.500000
O O18 0.000000 0.500000 0.500000
#
# Coordination Sequence:
#
# PCOD8005175 Si02
#       8
#     2   2   2   2   2   2   2   2
#     4   9  18  36  62  88 122 165 210 261 311 379
#     4  10  21  39  64  95 123 169 214 261 325 385
#     4  12  27  43  65  95 133 176 218 274 329 389
#     4  10  20  38  65  90 127 165 214 263 319 393
#     4  11  24  41  69  97 131 172 215 266 322 387
#     4  11  23  44  65  93 127 172 221 264 325 388
#     4  12  26  43  65  98 132 174 218 274 329 386
#     4   9  19  35  61  93 122 162 213 258 309 379
#
# _framework density 20.403531999999998
#
# number of rings (size 3 to 8) (size 9 to 14) (size 15 to 20)
#    0.000    1.500    2.500    2.250    7.000    2.500 
#    0.000    0.000    0.000    2.250    0.000    0.000 
#    0.000    0.000    0.000    0.000    0.000    0.000 
#
# Total GULP energy -198402.164709 kJ/mol
# GULP energy per Si atom -12400.135294 kJ/mol
# Density = 2.035709 g / cm^3
# Si number density = 20.403532 Si / 1000 Ang^3
#
#
#
# Elastic Constant Matrix: (Units=GPa)
#
#
# Indices 1 2 3 4 5 6 
#
# 1 65.2618 46.3782 33.2585 4.8070 2.4658 -9.9049
# 2 46.3782 169.9185 75.8932 6.2285 -19.0695 -8.6164
# 3 33.2585 75.8932 115.9527 6.9781 8.8355 -14.9859
# 4 4.8070 6.2285 6.9781 40.5053 -3.8571 -5.6166
# 5 2.4658 -19.0695 8.8355 -3.8571 22.2962 9.9201
# 6 -9.9049 -8.6164 -14.9859 -5.6166 9.9201 27.3894
#
#
#
# Elastic Compliance Matrix: (Units=1/GPa)
#
#
# Indices 1 2 3 4 5 6 
#
# 1 0.022680 -0.007908 0.001451 -0.001558 -0.015342 0.011745
# 2 -0.007908 0.014976 -0.011046 0.001061 0.023857 -0.012615
# 3 0.001451 -0.011046 0.019584 -0.001952 -0.025014 0.016425
# 4 -0.001558 0.001061 -0.001952 0.025845 0.005416 0.002040
# 5 -0.015342 0.023857 -0.025014 0.005416 0.098380 -0.046251
# 6 0.011745 -0.012615 0.016425 0.002040 -0.046251 0.062946
#
#
# Mechanical properties :
#
#
# Convention : Reuss Voigt Hill
#
# Bulk Modulus (GPa) = 44.97403 73.57698 59.27551
# Shear Modulus (GPa) = 17.43209 31.07838 24.25524
#
# Velocity S-wave (km/s) = 2.92613 3.90704 3.45160
# Velocity P-wave (km/s) = 5.78847 7.51614 6.70816
#
# Compressibility (1/GPa) = 0.02223505
#
# Stress axis : x y z
#
# Youngs Moduli (GPa) = 44.09195 66.77344 51.06165
#
# Poissons Ratio (x) = 0.52802 -0.07410
# Poissons Ratio (y) = 0.34866 0.56403
# Poissons Ratio (z) = -0.06399 0.73759
#
# Static dielectric constant tensor:
#      x y z
#    x 3.462410 -0.089930 -0.007380 
#    y -0.089930 3.982390 0.063390 
#    z -0.007380 0.063390 4.203130 
# 
# 
# High freq. dielectric constant tensor:
#      x y z
#    x 1.763450 -0.009700 -0.004580 
#    y -0.009700 1.817980 0.001120 
#    z -0.004580 0.001120 1.813990 
# 
# From -- ./inp_files/190256.got.cif
#   From: 2010.06.25/outbox.cif.g09.slc.cpg/sg2_96_cif.got.tgz:190256.got - 2010.06.27 13:26:56.
