data_PCOD8005994
_publ_section_title
;
Structure prediction by ZEFSAII (Michael W. Deem and Ramdas Pophale) SiO2 
 PCOD8005994
Probable space group: P -1
;
_chemical_formula_sum "Si O2"
_cell_formula_units_Z 16
_cell_length_a 8.452398
_cell_length_b 18.768345
_cell_length_c 16.583432
_cell_angle_alpha 21.910059
_cell_angle_beta 51.697408
_cell_angle_gamma 62.366240
_cell_volume 712.625922
_symmetry_space_group_name_H-M "P -1"
_symmetry_group_IT_number 2
_symmetry_cell_setting 'triclinic'
loop_
_space_group_symop_operation_xyz
x,y,z
-x,-y,-z
loop_
_atom_site_type_symbol
_atom_site_label
_atom_site_fract_x
_atom_site_fract_y
_atom_site_fract_z
Si Si1 0.860939 0.550622 0.059033
Si Si2 0.772710 0.377660 0.441633
Si Si3 0.142740 0.891998 0.702230
Si Si4 0.780556 0.795385 0.043980
Si Si5 0.491033 0.270969 0.248521
Si Si6 0.060089 0.859755 0.245915
Si Si7 0.455200 0.979772 0.891155
Si Si8 0.578023 0.773601 0.500059
O O1 0.885065 0.455190 0.238383
O O2 0.605685 0.458451 0.212334
O O3 0.000000 0.500000 0.000000
O O4 0.973959 0.799718 0.776829
O O5 0.939311 0.310992 0.510347
O O6 0.550134 0.178814 0.710909
O O7 0.712247 0.548518 0.330249
O O8 0.277155 0.741850 0.829774
O O9 0.006648 0.891794 0.824108
O O10 0.312917 0.128235 0.389572
O O11 0.835956 0.908611 0.993564
O O12 0.588530 0.833539 0.016018
O O13 0.412337 0.174508 0.463366
O O14 0.500000 0.500000 0.000000
O O15 0.808267 0.787937 0.375918
O O16 0.202620 0.857665 0.124131
O O17 0.482250 0.055660 0.709850
#
# Coordination Sequence:
#
# PCOD8005994 Si02
#       8
#     2   2   2   2   2   2   2   2
#     4  10  20  39  64  91 134 172 204 265 330 385
#     4   9  21  38  67  93 128 166 227 263 325 392
#     4  10  22  42  65  97 129 174 222 255 329 399
#     4  10  20  39  67  94 127 169 221 270 317 399
#     4  11  24  41  70  99 131 172 218 270 326 397
#     4  11  22  40  66  93 126 179 218 274 326 382
#     4  10  23  41  63  91 133 172 218 271 337 379
#     4  11  23  41  65  96 135 169 216 273 329 387
#
# _framework density 22.452171
#
# number of rings (size 3 to 8) (size 9 to 14) (size 15 to 20)
#    0.000    1.750    2.500    1.875    3.500    3.000 
#    0.000   12.500    0.000    9.000    0.000    0.000 
#    0.000    0.000    0.000    0.000    0.000    0.000 
#
# Total GULP energy -198276.857111 kJ/mol
# GULP energy per Si atom -12392.303569 kJ/mol
# Density = 2.240107 g / cm^3
# Si number density = 22.452171 Si / 1000 Ang^3
#
#
#
# Elastic Constant Matrix: (Units=GPa)
#
#
# Indices 1 2 3 4 5 6 
#
# 1 89.4699 25.4049 36.0712 -4.9874 -20.8258 -5.0082
# 2 25.4049 93.3382 38.2400 -2.7823 -6.6699 -11.3519
# 3 36.0712 38.2400 76.9627 -15.8814 -15.6125 -0.7276
# 4 -4.9874 -2.7823 -15.8814 48.2576 -7.2646 -4.7983
# 5 -20.8258 -6.6699 -15.6125 -7.2646 38.3102 5.0311
# 6 -5.0082 -11.3519 -0.7276 -4.7983 5.0311 39.6529
#
#
#
# Elastic Compliance Matrix: (Units=1/GPa)
#
#
# Indices 1 2 3 4 5 6 
#
# 1 0.015074 -0.001557 -0.004898 0.000828 0.005991 0.000708
# 2 -0.001557 0.014316 -0.007093 -0.001597 -0.002051 0.003839
# 3 -0.004898 -0.007093 0.021537 0.006927 0.006487 -0.002239
# 4 0.000828 -0.001597 0.006927 0.024281 0.007366 0.001778
# 5 0.005991 -0.002051 0.006487 0.007366 0.033445 -0.003064
# 6 0.000708 0.003839 -0.002239 0.001778 -0.003064 0.026970
#
#
# Mechanical properties :
#
#
# Convention : Reuss Voigt Hill
#
# Bulk Modulus (GPa) = 41.96177 51.02256 46.49217
# Shear Modulus (GPa) = 29.29734 35.91445 32.60589
#
# Velocity S-wave (km/s) = 3.61623 4.00384 3.81496
# Velocity P-wave (km/s) = 6.01383 6.64444 6.33698
#
# Compressibility (1/GPa) = 0.02383121
#
# Stress axis : x y z
#
# Youngs Moduli (GPa) = 66.33776 69.85166 46.43110
#
# Poissons Ratio (x) = 0.10877 0.22744
# Poissons Ratio (y) = 0.10330 0.32932
# Poissons Ratio (z) = 0.32495 0.49544
#
# Static dielectric constant tensor:
#      x y z
#    x 4.092870 0.032440 -0.262780 
#    y 0.032440 3.955960 -0.046060 
#    z -0.262780 -0.046060 4.153290 
# 
# 
# High freq. dielectric constant tensor:
#      x y z
#    x 1.874450 -0.004960 -0.022970 
#    y -0.004960 1.878460 0.010450 
#    z -0.022970 0.010450 1.884120 
# 
# From -- ./inp_files/562517.got.cif
#   From: 2010.06.25/outbox.cif.g09.slc.cpg/sg2_282_cif.got.tgz:562517.got - 2010.06.27 13:26:56.
