data_PCOD8005426
_publ_section_title
;
Structure prediction by ZEFSAII (Michael W. Deem and Ramdas Pophale) SiO2 
 PCOD8005426
Probable space group: P -1
;
_chemical_formula_sum "Si O2"
_cell_formula_units_Z 16
_cell_length_a 13.192014
_cell_length_b 7.192534
_cell_length_c 11.814845
_cell_angle_alpha 129.779270
_cell_angle_beta 51.645128
_cell_angle_gamma 123.645157
_cell_volume 652.269170
_symmetry_space_group_name_H-M "P -1"
_symmetry_group_IT_number 2
_symmetry_cell_setting 'triclinic'
loop_
_space_group_symop_operation_xyz
x,y,z
-x,-y,-z
loop_
_atom_site_type_symbol
_atom_site_label
_atom_site_fract_x
_atom_site_fract_y
_atom_site_fract_z
Si Si1 0.748673 0.847426 0.326285
Si Si2 0.494751 0.216627 0.395291
Si Si3 0.758522 0.838997 0.882222
Si Si4 0.782429 0.322147 0.191721
Si Si5 0.459575 0.222588 0.168284
Si Si6 0.717931 0.586801 0.036548
Si Si7 0.031925 0.624913 0.265989
Si Si8 0.992591 0.139872 0.396882
O O1 0.607332 0.905975 0.481671
O O2 0.762157 0.575392 0.250900
O O3 0.853901 0.072228 0.400666
O O4 0.775707 0.842344 0.170160
O O5 0.500000 0.500000 0.500000
O O6 0.644201 0.183542 0.300375
O O7 0.433722 0.132892 0.280765
O O8 0.676185 0.762297 0.793214
O O9 0.678593 0.670492 0.973776
O O10 0.893366 0.751260 0.733159
O O11 0.797376 0.134222 0.006316
O O12 0.912053 0.395803 0.212040
O O13 0.583485 0.462079 0.152515
O O14 0.500000 0.000000 0.000000
O O15 0.825564 0.423642 0.885061
O O16 0.011731 0.649888 0.424720
O O17 0.030150 0.893623 0.322698
#
# Coordination Sequence:
#
# PCOD8005426 Si02
#       8
#     2   2   2   2   2   2   2   2
#     4  10  21  40  68  93 125 163 215 266 307 370
#     4  10  20  38  69  96 117 155 219 273 309 347
#     4  12  26  40  63  93 133 172 205 250 328 386
#     4  10  20  41  63  96 121 167 216 256 309 368
#     4  12  23  42  71  91 123 163 216 269 306 366
#     4  12  25  43  60  95 134 171 202 252 327 389
#     4  10  23  39  68  93 129 161 221 269 305 364
#     4  10  23  39  65 100 122 165 219 267 308 361
#
# _framework density 24.52975
#
# number of rings (size 3 to 8) (size 9 to 14) (size 15 to 20)
#    0.000    1.250    3.750    2.625    8.750    4.500 
#    0.000    0.625    0.000    0.000    0.000    0.000 
#    0.000    0.000    0.000    0.000    0.000    0.000 
#
# Total GULP energy -198229.042175 kJ/mol
# GULP energy per Si atom -12389.315136 kJ/mol
# Density = 2.447392 g / cm^3
# Si number density = 24.529750 Si / 1000 Ang^3
#
#
#
# Elastic Constant Matrix: (Units=GPa)
#
#
# Indices 1 2 3 4 5 6 
#
# 1 78.3739 18.1668 31.7084 8.3146 1.6857 37.8781
# 2 18.1668 38.6135 16.8071 -3.0903 -2.6900 20.0113
# 3 31.7084 16.8071 151.0121 -9.6551 10.1765 25.1280
# 4 8.3146 -3.0903 -9.6551 36.7768 7.8211 1.3452
# 5 1.6857 -2.6900 10.1765 7.8211 41.8176 -2.0443
# 6 37.8781 20.0113 25.1280 1.3452 -2.0443 36.8092
#
#
#
# Elastic Compliance Matrix: (Units=1/GPa)
#
#
# Indices 1 2 3 4 5 6 
#
# 1 0.026707 0.001752 -0.001526 -0.005087 -0.000974 -0.027261
# 2 0.001752 0.036772 -0.000772 0.003088 0.000862 -0.021332
# 3 -0.001526 -0.000772 0.008035 0.003103 -0.002707 -0.003759
# 4 -0.005087 0.003088 0.003103 0.030713 -0.006097 -0.000023
# 5 -0.000974 0.000862 -0.002707 -0.006097 0.026005 0.004049
# 6 -0.027261 -0.021332 -0.003759 -0.000023 0.004049 0.069609
#
#
# Mechanical properties :
#
#
# Convention : Reuss Voigt Hill
#
# Bulk Modulus (GPa) = 14.20004 44.59600 29.39802
# Shear Modulus (GPa) = 22.48163 36.50186 29.49174
#
# Velocity S-wave (km/s) = 3.03067 3.86173 3.47116
# Velocity P-wave (km/s) = 4.24830 6.17283 5.29867
#
# Compressibility (1/GPa) = 0.07042236
#
# Stress axis : x y z
#
# Youngs Moduli (GPa) = 37.44403 27.19487 124.46221
#
# Poissons Ratio (x) = -0.04766 0.18995
# Poissons Ratio (y) = -0.06562 0.09603
# Poissons Ratio (z) = 0.05714 0.02098
#
# Static dielectric constant tensor:
#      x y z
#    x 4.358370 0.449420 -0.463230 
#    y 0.449420 4.584720 -1.262050 
#    z -0.463230 -1.262050 7.333300 
# 
# 
# High freq. dielectric constant tensor:
#      x y z
#    x 1.972440 0.014720 0.006580 
#    y 0.014720 1.952410 -0.001190 
#    z 0.006580 -0.001190 1.997320 
# 
# From -- ./inp_files/419920.got.cif
#   From: 2010.06.25/outbox.cif.g09.slc.cpg/sg2_210_cif.got.tgz:419920.got - 2010.06.27 13:26:56.
