data_PCOD8005039
_publ_section_title
;
Structure prediction by ZEFSAII (Michael W. Deem and Ramdas Pophale) SiO2 
 PCOD8005039
Probable space group: P -1
;
_chemical_formula_sum "Si O2"
_cell_formula_units_Z 16
_cell_length_a 11.615882
_cell_length_b 9.280266
_cell_length_c 16.869948
_cell_angle_alpha 127.837631
_cell_angle_beta 134.108179
_cell_angle_gamma 88.326978
_cell_volume 734.996132
_symmetry_space_group_name_H-M "P -1"
_symmetry_group_IT_number 2
_symmetry_cell_setting 'triclinic'
loop_
_space_group_symop_operation_xyz
x,y,z
-x,-y,-z
loop_
_atom_site_type_symbol
_atom_site_label
_atom_site_fract_x
_atom_site_fract_y
_atom_site_fract_z
Si Si1 0.200842 0.769525 0.227037
Si Si2 0.957109 0.465070 0.700562
Si Si3 0.199702 0.643072 0.582584
Si Si4 0.460156 0.497448 0.702774
Si Si5 0.586348 0.314706 0.583240
Si Si6 0.389149 0.399573 0.022071
Si Si7 0.080570 0.919133 0.363185
Si Si8 0.552531 0.237114 0.937097
O O1 0.372216 0.755872 0.337738
O O2 0.083243 0.791842 0.245487
O O3 0.360138 0.038385 0.342867
O O4 0.000000 0.500000 0.000000
O O5 0.915648 0.499399 0.603754
O O6 0.799784 0.472218 0.681263
O O7 0.895329 0.200313 0.591171
O O8 0.218163 0.700385 0.929419
O O9 0.373881 0.628906 0.688222
O O10 0.000000 0.500000 0.500000
O O11 0.336876 0.938224 0.740282
O O12 0.546605 0.488549 0.655892
O O13 0.640062 0.645080 0.911384
O O14 0.266808 0.221173 0.556687
O O15 0.462488 0.663016 0.119520
O O16 0.562487 0.386694 0.066663
O O17 0.157466 0.168804 0.786712
#
# Coordination Sequence:
#
# PCOD8005039 Si02
#       8
#     2   2   2   2   2   2   2   2
#     4   9  16  30  56  88 120 150 186 237 288 336
#     4  10  22  41  61  83 119 156 193 243 288 347
#     4  12  26  41  60  84 117 158 197 242 298 351
#     4  11  22  37  60  90 121 154 191 237 292 349
#     4   9  20  35  55  87 119 152 194 233 285 350
#     4  10  20  38  64  89 117 148 196 250 287 339
#     4   9  19  35  60  90 116 150 192 238 291 341
#     4  10  23  41  62  88 114 155 201 242 295 345
#
# _framework density 21.768822
#
# number of rings (size 3 to 8) (size 9 to 14) (size 15 to 20)
#    0.000    2.000    0.000    3.750    0.000    6.500 
#    0.000    5.625    0.000    0.000    0.000    0.000 
#    0.000    0.000    0.000    0.000    0.000    0.000 
#
# Total GULP energy -198263.964356 kJ/mol
# GULP energy per Si atom -12391.497772 kJ/mol
# Density = 2.171928 g / cm^3
# Si number density = 21.768822 Si / 1000 Ang^3
#
#
#
# Elastic Constant Matrix: (Units=GPa)
#
#
# Indices 1 2 3 4 5 6 
#
# 1 116.5834 32.0578 32.7762 -7.4473 13.7262 1.4193
# 2 32.0578 80.3116 20.8921 -18.2756 -1.4541 -2.6365
# 3 32.7762 20.8921 75.4382 -3.5881 7.6778 0.1136
# 4 -7.4473 -18.2756 -3.5881 26.1887 5.8072 -2.0687
# 5 13.7262 -1.4541 7.6778 5.8072 32.7107 -0.0094
# 6 1.4193 -2.6365 0.1136 -2.0687 -0.0094 28.1156
#
#
#
# Elastic Compliance Matrix: (Units=1/GPa)
#
#
# Indices 1 2 3 4 5 6 
#
# 1 0.011029 -0.003351 -0.003378 0.001205 -0.004198 -0.000770
# 2 -0.003351 0.017030 -0.002862 0.010527 0.000967 0.002553
# 3 -0.003378 -0.002862 0.015742 -0.000294 -0.002352 -0.000184
# 4 0.001205 0.010527 -0.000294 0.048071 -0.008502 0.004462
# 5 -0.004198 0.000967 -0.002352 -0.008502 0.034437 -0.000302
# 6 -0.000770 0.002553 -0.000184 0.004462 -0.000302 0.036175
#
#
# Mechanical properties :
#
#
# Convention : Reuss Voigt Hill
#
# Bulk Modulus (GPa) = 40.61838 49.30950 44.96394
# Shear Modulus (GPa) = 26.33340 29.84347 28.08843
#
# Velocity S-wave (km/s) = 3.48182 3.70662 3.59598
# Velocity P-wave (km/s) = 5.90454 6.40463 6.15966
#
# Compressibility (1/GPa) = 0.02461940
#
# Stress axis : x y z
#
# Youngs Moduli (GPa) = 90.66688 58.71877 63.52420
#
# Poissons Ratio (x) = 0.19675 0.21460
# Poissons Ratio (y) = 0.30380 0.18182
# Poissons Ratio (z) = 0.30630 0.16806
#
# Static dielectric constant tensor:
#      x y z
#    x 3.955510 -0.043700 0.244950 
#    y -0.043700 3.857570 -0.001210 
#    z 0.244950 -0.001210 3.853380 
# 
# 
# High freq. dielectric constant tensor:
#      x y z
#    x 1.859270 -0.009450 0.015560 
#    y -0.009450 1.833390 -0.004010 
#    z 0.015560 -0.004010 1.849920 
# 
# From -- ./inp_files/417362.got.cif
#   From: 2010.06.25/outbox.cif.g09.slc.cpg/sg2_209_cif.got.tgz:417362.got - 2010.06.27 13:26:56.
