data_PCOD8005262
_publ_section_title
;
Structure prediction by ZEFSAII (Michael W. Deem and Ramdas Pophale) SiO2 
 PCOD8005262
Probable space group: P -1
;
_chemical_formula_sum "Si O2"
_cell_formula_units_Z 16
_cell_length_a 12.619934
_cell_length_b 14.018788
_cell_length_c 9.410806
_cell_angle_alpha 72.545302
_cell_angle_beta 114.214538
_cell_angle_gamma 51.945237
_cell_volume 763.263738
_symmetry_space_group_name_H-M "P -1"
_symmetry_group_IT_number 2
_symmetry_cell_setting 'triclinic'
loop_
_space_group_symop_operation_xyz
x,y,z
-x,-y,-z
loop_
_atom_site_type_symbol
_atom_site_label
_atom_site_fract_x
_atom_site_fract_y
_atom_site_fract_z
Si Si1 0.501952 0.608578 0.389399
Si Si2 0.139384 0.522158 0.451444
Si Si3 0.466177 0.208641 0.570661
Si Si4 0.272316 0.471397 0.839199
Si Si5 0.725969 0.205055 0.103892
Si Si6 0.950193 0.878539 0.546210
Si Si7 0.504252 0.842071 0.709696
Si Si8 0.369331 0.083519 0.037159
O O1 0.500000 0.500000 0.500000
O O2 0.746080 0.452413 0.527508
O O3 0.453047 0.733696 0.421346
O O4 0.309354 0.759078 0.099509
O O5 0.228645 0.378885 0.445764
O O6 0.225493 0.430670 0.698431
O O7 0.880895 0.708712 0.223578
O O8 0.446197 0.172879 0.421543
O O9 0.627085 0.030307 0.844170
O O10 0.053991 0.697959 0.635157
O O11 0.489654 0.379278 0.974131
O O12 0.318137 0.370458 0.047406
O O13 0.860738 0.201720 0.230735
O O14 0.861004 0.004609 0.303512
O O15 0.747346 0.010776 0.482587
O O16 0.525748 0.924392 0.779916
O O17 0.500000 0.000000 0.000000
#
# Coordination Sequence:
#
# PCOD8005262 Si02
#       8
#     2   2   2   2   2   2   2   2
#     4   9  21  43  67  91 135 168 209 261 324 392
#     4   9  23  42  65  96 124 166 223 254 322 382
#     4  10  25  45  63  94 137 162 219 265 318 392
#     4  10  20  38  66  88 130 166 215 271 319 380
#     4   9  20  38  60  94 126 166 220 267 315 384
#     4  10  21  37  62  95 127 166 218 265 324 374
#     4  11  25  40  62  96 131 168 214 265 323 381
#     4  12  25  43  72  92 129 173 221 272 316 374
#
# _framework density 20.962609
#
# number of rings (size 3 to 8) (size 9 to 14) (size 15 to 20)
#    0.750    1.250    0.000    2.250    5.250    5.500 
#    4.500    1.250    0.000    0.000    0.000    0.000 
#    0.000    0.000    0.000    0.000    0.000    0.000 
#
# Total GULP energy -198284.738321 kJ/mol
# GULP energy per Si atom -12392.796145 kJ/mol
# Density = 2.091490 g / cm^3
# Si number density = 20.962609 Si / 1000 Ang^3
#
#
#
# Elastic Constant Matrix: (Units=GPa)
#
#
# Indices 1 2 3 4 5 6 
#
# 1 60.4413 28.8370 37.5455 6.8966 -8.3103 0.2244
# 2 28.8370 124.4561 56.4688 12.0074 -4.2833 -9.0294
# 3 37.5455 56.4688 116.9808 9.5056 2.3671 -15.4422
# 4 6.8966 12.0074 9.5056 37.9122 -1.9361 -2.8534
# 5 -8.3103 -4.2833 2.3671 -1.9361 33.5798 -2.8568
# 6 0.2244 -9.0294 -15.4422 -2.8534 -2.8568 29.3345
#
#
#
# Elastic Compliance Matrix: (Units=1/GPa)
#
#
# Indices 1 2 3 4 5 6 
#
# 1 0.022720 -0.002133 -0.006759 -0.001792 0.005380 -0.004039
# 2 -0.002133 0.010741 -0.004241 -0.001816 0.001124 0.001023
# 3 -0.006759 -0.004241 0.013603 -0.000557 -0.002729 0.005587
# 4 -0.001792 -0.001816 -0.000557 0.027622 0.001123 0.001958
# 5 0.005380 0.001124 -0.002729 0.001123 0.031687 0.002063
# 6 -0.004039 0.001023 0.005587 0.001958 0.002063 0.037768
#
#
# Mechanical properties :
#
#
# Convention : Reuss Voigt Hill
#
# Bulk Modulus (GPa) = 48.07744 60.84230 54.45987
# Shear Modulus (GPa) = 28.19441 32.10043 30.14742
#
# Velocity S-wave (km/s) = 3.67138 3.91745 3.79641
# Velocity P-wave (km/s) = 6.39974 7.03911 6.72703
#
# Compressibility (1/GPa) = 0.02079978
#
# Stress axis : x y z
#
# Youngs Moduli (GPa) = 44.01335 93.09846 73.51388
#
# Poissons Ratio (x) = 0.19854 0.49689
# Poissons Ratio (y) = 0.09386 0.31175
# Poissons Ratio (z) = 0.29749 0.39480
#
# Static dielectric constant tensor:
#      x y z
#    x 3.760980 0.132650 0.017260 
#    y 0.132650 3.681280 0.031540 
#    z 0.017260 0.031540 3.800210 
# 
# 
# High freq. dielectric constant tensor:
#      x y z
#    x 1.811470 0.006240 -0.000520 
#    y 0.006240 1.809980 0.001880 
#    z -0.000520 0.001880 1.830770 
# 
# From -- ./inp_files/272621.got.cif
#   From: 2010.06.25/outbox.cif.g09.slc.cpg/sg2_137_cif.got.tgz:272621.got - 2010.06.27 13:26:56.
