data_PCOD8005622
_publ_section_title
;
Structure prediction by ZEFSAII (Michael W. Deem and Ramdas Pophale) SiO2 
 PCOD8005622
Probable space group: P -1
;
_chemical_formula_sum "Si O2"
_cell_formula_units_Z 16
_cell_length_a 14.690282
_cell_length_b 20.796976
_cell_length_c 10.798986
_cell_angle_alpha 147.874576
_cell_angle_beta 133.585878
_cell_angle_gamma 26.093820
_cell_volume 735.136147
_symmetry_space_group_name_H-M "P -1"
_symmetry_group_IT_number 2
_symmetry_cell_setting 'triclinic'
loop_
_space_group_symop_operation_xyz
x,y,z
-x,-y,-z
loop_
_atom_site_type_symbol
_atom_site_label
_atom_site_fract_x
_atom_site_fract_y
_atom_site_fract_z
Si Si1 0.608702 0.603183 0.807066
Si Si2 0.225924 0.838559 0.017102
Si Si3 0.370809 0.465190 0.559278
Si Si4 0.703074 0.789858 0.272886
Si Si5 0.729177 0.808114 0.777292
Si Si6 0.004437 0.430027 0.587753
Si Si7 0.912796 0.844039 0.416020
Si Si8 0.629747 0.082087 0.316377
O O1 0.539790 0.602676 0.608481
O O2 0.827199 0.363310 0.666580
O O3 0.412809 0.735477 0.932309
O O4 0.644771 0.719074 0.020864
O O5 0.194572 0.960169 0.293337
O O6 0.298614 0.654227 0.844272
O O7 0.000000 0.000000 0.000000
O O8 0.549454 0.278546 0.521331
O O9 0.165086 0.538595 0.482823
O O10 0.884214 0.607917 0.245944
O O11 0.804013 0.807140 0.302647
O O12 0.500000 0.000000 0.500000
O O13 0.822408 0.768098 0.665335
O O14 0.547392 0.847926 0.650590
O O15 0.907132 0.621321 0.737589
O O16 0.639545 0.002490 0.066040
O O17 0.852275 0.912832 0.326671
#
# Coordination Sequence:
#
# PCOD8005622 Si02
#       8
#     2   2   2   2   2   2   2   2
#     4  12  26  44  73 100 134 175 228 286 336 402
#     4  12  26  49  71  97 135 180 236 276 331 396
#     4  11  25  43  69  95 132 187 226 269 328 407
#     4  12  23  37  67 106 135 167 224 279 352 390
#     4   9  20  37  65  89 144 172 215 270 342 408
#     4  10  20  39  60  99 129 180 217 276 335 404
#     4  12  25  45  70 101 139 176 217 291 336 398
#     4  10  23  40  63 102 133 176 219 273 340 398
#
# _framework density 21.764676000000001
#
# number of rings (size 3 to 8) (size 9 to 14) (size 15 to 20)
#    0.000    1.000    3.750    2.250    7.000    0.500 
#    2.250    0.625    0.000    0.000    0.000    0.000 
#    0.000    0.000    0.000    0.000    0.000    0.000 
#
# Total GULP energy -198447.884342 kJ/mol
# GULP energy per Si atom -12402.992771 kJ/mol
# Density = 2.171514 g / cm^3
# Si number density = 21.764676 Si / 1000 Ang^3
#
#
#
# Elastic Constant Matrix: (Units=GPa)
#
#
# Indices 1 2 3 4 5 6 
#
# 1 58.4219 30.8345 28.8173 6.2631 -1.5594 -3.3306
# 2 30.8345 105.3856 22.9273 8.2800 2.6467 12.1995
# 3 28.8173 22.9273 118.6554 9.8273 10.3455 2.3026
# 4 6.2631 8.2800 9.8273 27.1611 0.1988 -3.3896
# 5 -1.5594 2.6467 10.3455 0.1988 34.6341 7.0970
# 6 -3.3306 12.1995 2.3026 -3.3896 7.0970 30.2399
#
#
#
# Elastic Compliance Matrix: (Units=1/GPa)
#
#
# Indices 1 2 3 4 5 6 
#
# 1 0.023147 -0.006297 -0.004568 -0.001172 0.001898 0.004861
# 2 -0.006297 0.012361 -0.000519 -0.002879 0.000174 -0.006004
# 3 -0.004568 -0.000519 0.010123 -0.002507 -0.003046 -0.000630
# 4 -0.001172 -0.002879 -0.002507 0.039597 -0.000495 0.005778
# 5 0.001898 0.000174 -0.003046 -0.000495 0.031299 -0.007030
# 6 0.004861 -0.006004 -0.000630 0.005778 -0.007030 0.038372
#
#
# Mechanical properties :
#
#
# Convention : Reuss Voigt Hill
#
# Bulk Modulus (GPa) = 43.73852 49.73568 46.73710
# Shear Modulus (GPa) = 26.98498 31.73259 29.35879
#
# Velocity S-wave (km/s) = 3.52497 3.82250 3.67675
# Velocity P-wave (km/s) = 6.05863 6.51024 6.28849
#
# Compressibility (1/GPa) = 0.02286314
#
# Stress axis : x y z
#
# Youngs Moduli (GPa) = 43.20241 80.89773 98.78550
#
# Poissons Ratio (x) = 0.50941 0.45121
# Poissons Ratio (y) = 0.27205 0.05131
# Poissons Ratio (z) = 0.19733 0.04202
#
# Static dielectric constant tensor:
#      x y z
#    x 3.856750 -0.051530 -0.076270 
#    y -0.051530 3.979510 0.204040 
#    z -0.076270 0.204040 4.156220 
# 
# 
# High freq. dielectric constant tensor:
#      x y z
#    x 1.844810 0.003550 -0.007980 
#    y 0.003550 1.856070 0.014130 
#    z -0.007980 0.014130 1.864710 
# 
# From -- ./inp_files/457752.got.cif
#   From: 2010.06.25/outbox.cif.g09.slc.cpg/sg2_229_cif.got.tgz:457752.got - 2010.06.27 13:26:56.
