data_PCOD8005637
_publ_section_title
;
Structure prediction by ZEFSAII (Michael W. Deem and Ramdas Pophale) SiO2 
 PCOD8005637
Probable space group: P -1
;
_chemical_formula_sum "Si O2"
_cell_formula_units_Z 16
_cell_length_a 25.578026
_cell_length_b 15.684070
_cell_length_c 6.734727
_cell_angle_alpha 106.272009
_cell_angle_beta 123.750460
_cell_angle_gamma 26.681172
_cell_volume 822.319312
_symmetry_space_group_name_H-M "P -1"
_symmetry_group_IT_number 2
_symmetry_cell_setting 'triclinic'
loop_
_space_group_symop_operation_xyz
x,y,z
-x,-y,-z
loop_
_atom_site_type_symbol
_atom_site_label
_atom_site_fract_x
_atom_site_fract_y
_atom_site_fract_z
Si Si1 0.229830 0.147083 0.866594
Si Si2 0.696582 0.808343 0.633280
Si Si3 0.862591 0.577160 0.428501
Si Si4 0.923790 0.055656 0.181224
Si Si5 0.677552 0.692955 0.852514
Si Si6 0.393189 0.626782 0.161720
Si Si7 0.216236 0.640103 0.248743
Si Si8 0.515359 0.338876 0.901947
O O1 0.228234 0.221270 0.735942
O O2 0.056300 0.323578 0.629129
O O3 0.271355 0.140607 0.156365
O O4 0.371757 0.891525 0.951095
O O5 0.831050 0.624791 0.625788
O O6 0.725267 0.687826 0.758209
O O7 0.511977 0.046679 0.313406
O O8 0.789968 0.578757 0.197580
O O9 0.794457 0.149101 0.030817
O O10 0.834895 0.247608 0.991201
O O11 0.000000 0.000000 0.500000
O O12 0.061550 0.827653 0.189875
O O13 0.706497 0.553808 0.772363
O O14 0.500000 0.500000 0.500000
O O15 0.386728 0.724495 0.081689
O O16 0.472939 0.442590 0.085329
O O17 0.347453 0.529271 0.566582
#
# Coordination Sequence:
#
# PCOD8005637 Si02
#       8
#     2   2   2   2   2   2   2   2
#     4  10  22  39  62  88 123 159 204 244 303 359
#     4  10  20  39  61  85 125 160 195 251 299 355
#     4  10  22  39  58  92 124 159 198 253 297 356
#     4  11  24  42  64  91 124 160 202 260 311 365
#     4  10  22  37  60  91 121 155 205 246 298 359
#     4  11  24  42  63  93 125 159 207 259 312 366
#     4  11  23  41  65  92 124 163 208 254 309 369
#     4  11  23  41  66  90 124 165 207 256 307 370
#
# _framework density 19.457160999999999
#
# number of rings (size 3 to 8) (size 9 to 14) (size 15 to 20)
#    0.000    1.500    3.750    0.750    0.000    6.000 
#    0.000    0.000    0.000    0.000    0.000    0.000 
#    0.000    0.000    0.000    0.000    0.000    0.000 
#
# Total GULP energy -198492.608118 kJ/mol
# GULP energy per Si atom -12405.788007 kJ/mol
# Density = 1.941288 g / cm^3
# Si number density = 19.457161 Si / 1000 Ang^3
#
#
#
# Elastic Constant Matrix: (Units=GPa)
#
#
# Indices 1 2 3 4 5 6 
#
# 1 78.8840 33.3734 31.0458 4.4316 10.5780 -11.4904
# 2 33.3734 71.9766 28.2739 6.6847 -8.7478 1.7310
# 3 31.0458 28.2739 121.2833 7.7144 13.2581 -2.3358
# 4 4.4316 6.6847 7.7144 31.3263 0.1334 3.6572
# 5 10.5780 -8.7478 13.2581 0.1334 33.5490 -0.1258
# 6 -11.4904 1.7310 -2.3358 3.6572 -0.1258 30.6573
#
#
#
# Elastic Compliance Matrix: (Units=1/GPa)
#
#
# Indices 1 2 3 4 5 6 
#
# 1 0.019645 -0.009475 -0.001722 -0.001219 -0.007950 0.007880
# 2 -0.009475 0.021175 -0.003572 -0.001784 0.009910 -0.004766
# 3 -0.001722 -0.003572 0.010103 -0.001521 -0.004373 0.000490
# 4 -0.001219 -0.001784 -0.001521 0.033368 0.000371 -0.004451
# 5 -0.007950 0.009910 -0.004373 0.000371 0.036611 -0.003766
# 6 0.007880 -0.004766 0.000490 -0.004451 -0.003766 0.036394
#
#
# Mechanical properties :
#
#
# Convention : Reuss Voigt Hill
#
# Bulk Modulus (GPa) = 46.76242 50.83667 48.79954
# Shear Modulus (GPa) = 25.77823 31.06991 28.42407
#
# Velocity S-wave (km/s) = 3.64383 4.00038 3.82626
# Velocity P-wave (km/s) = 6.46444 6.89359 6.68246
#
# Compressibility (1/GPa) = 0.02138469
#
# Stress axis : x y z
#
# Youngs Moduli (GPa) = 50.90248 47.22585 98.98169
#
# Poissons Ratio (x) = 0.44748 0.17040
# Poissons Ratio (y) = 0.48231 0.35361
# Poissons Ratio (z) = 0.08763 0.16871
#
# Static dielectric constant tensor:
#      x y z
#    x 3.655020 -0.080090 0.137950 
#    y -0.080090 3.384810 0.029850 
#    z 0.137950 0.029850 3.717570 
# 
# 
# High freq. dielectric constant tensor:
#      x y z
#    x 1.764050 -0.006770 0.009540 
#    y -0.006770 1.753010 0.003540 
#    z 0.009540 0.003540 1.772580 
# 
# From -- ./inp_files/37563.got.cif
#   From: 2010.06.25/outbox.cif.g09.slc.cpg/sg2_19_cif.got.tgz:37563.got - 2010.06.27 13:26:56.
