data_PCOD8005657
_publ_section_title
;
Structure prediction by ZEFSAII (Michael W. Deem and Ramdas Pophale) SiO2 
 PCOD8005657
Probable space group: P -1
;
_chemical_formula_sum "Si O2"
_cell_formula_units_Z 16
_cell_length_a 17.353611
_cell_length_b 11.328199
_cell_length_c 11.944127
_cell_angle_alpha 58.617376
_cell_angle_beta 130.516308
_cell_angle_gamma 148.480801
_cell_volume 929.949239
_symmetry_space_group_name_H-M "P -1"
_symmetry_group_IT_number 2
_symmetry_cell_setting 'triclinic'
loop_
_space_group_symop_operation_xyz
x,y,z
-x,-y,-z
loop_
_atom_site_type_symbol
_atom_site_label
_atom_site_fract_x
_atom_site_fract_y
_atom_site_fract_z
Si Si1 0.068569 0.486524 0.402853
Si Si2 0.780969 0.163141 0.450367
Si Si3 0.672877 0.346299 0.919739
Si Si4 0.520715 0.360375 0.584591
Si Si5 0.617977 0.992618 0.747955
Si Si6 0.368287 0.684104 0.481686
Si Si7 0.446435 0.862060 0.863461
Si Si8 0.989841 0.414421 0.913726
O O1 0.163222 0.720189 0.433044
O O2 0.202311 0.512601 0.484805
O O3 0.979911 0.441092 0.227813
O O4 0.938624 0.280472 0.469112
O O5 0.703461 0.205433 0.287302
O O6 0.656814 0.901983 0.477883
O O7 0.596281 0.391858 0.757825
O O8 0.598497 0.118929 0.924375
O O9 0.626674 0.317628 0.020903
O O10 0.870823 0.553803 0.982131
O O11 0.500000 0.500000 0.500000
O O12 0.644083 0.451448 0.554454
O O13 0.526878 0.823496 0.640783
O O14 0.519429 0.846458 0.840365
O O15 0.606995 0.147515 0.648048
O O16 0.808412 0.148645 0.858516
O O17 0.000000 0.500000 0.000000
#
# Coordination Sequence:
#
# PCOD8005657 Si02
#       8
#     2   2   2   2   2   2   2   2
#     4  10  19  29  54  82 107 126 159 220 265 301
#     4  10  18  33  52  82 103 130 168 206 263 299
#     4  10  19  30  46  72 105 129 166 204 259 306
#     4  11  22  37  53  69 102 145 179 203 237 309
#     4  10  17  28  51  77 106 128 155 218 263 306
#     4  10  17  32  49  75 102 133 174 204 254 298
#     4  10  16  30  48  74 105 129 155 213 263 301
#     4  11  18  25  42  77 110 128 149 201 271 310
#
# _framework density 17.20524
#
# number of rings (size 3 to 8) (size 9 to 14) (size 15 to 20)
#    0.000    1.750    6.250    2.250    0.000    0.000 
#    0.000    0.625    0.000    3.750    0.000    0.000 
#    0.000    0.000    0.000    0.000    0.000    0.000 
#
# Total GULP energy -198380.852875 kJ/mol
# GULP energy per Si atom -12398.803305 kJ/mol
# Density = 1.716608 g / cm^3
# Si number density = 17.205240 Si / 1000 Ang^3
#
#
#
# Elastic Constant Matrix: (Units=GPa)
#
#
# Indices 1 2 3 4 5 6 
#
# 1 103.2782 42.4535 41.3402 -10.0672 -6.9245 21.3472
# 2 42.4535 53.9971 33.5867 3.6129 7.2809 14.8983
# 3 41.3402 33.5867 93.9920 5.5223 -7.2366 4.1302
# 4 -10.0672 3.6129 5.5223 21.2076 5.0178 3.6766
# 5 -6.9245 7.2809 -7.2366 5.0178 27.4475 -0.0471
# 6 21.3472 14.8983 4.1302 3.6766 -0.0471 30.0324
#
#
#
# Elastic Compliance Matrix: (Units=1/GPa)
#
#
# Indices 1 2 3 4 5 6 
#
# 1 0.019786 -0.011643 -0.004562 0.013113 0.004465 -0.009259
# 2 -0.011643 0.037861 -0.008860 -0.004734 -0.014466 -0.008730
# 3 -0.004562 -0.008860 0.016523 -0.007704 0.006975 0.006319
# 4 0.013113 -0.004734 -0.007704 0.060526 -0.008556 -0.013336
# 5 0.004465 -0.014466 0.006975 -0.008556 0.044807 0.004161
# 6 -0.009259 -0.008730 0.006319 -0.013336 0.004161 0.044979
#
#
# Mechanical properties :
#
#
# Convention : Reuss Voigt Hill
#
# Bulk Modulus (GPa) = 41.59680 54.00314 47.79997
# Shear Modulus (GPa) = 17.69118 24.66328 21.17723
#
# Velocity S-wave (km/s) = 3.21010 3.79023 3.51217
# Velocity P-wave (km/s) = 6.16190 7.11409 6.65504
#
# Compressibility (1/GPa) = 0.02404031
#
# Stress axis : x y z
#
# Youngs Moduli (GPa) = 50.54101 26.41243 60.51990
#
# Poissons Ratio (x) = 0.30753 0.27606
# Poissons Ratio (y) = 0.58847 0.53620
# Poissons Ratio (z) = 0.23055 0.23401
#
# Static dielectric constant tensor:
#      x y z
#    x 3.192580 0.430240 -0.267270 
#    y 0.430240 2.915170 0.279470 
#    z -0.267270 0.279470 3.365370 
# 
# 
# High freq. dielectric constant tensor:
#      x y z
#    x 1.656540 0.051610 -0.030210 
#    y 0.051610 1.616310 0.031360 
#    z -0.030210 0.031360 1.669020 
# 
# From -- ./inp_files/268871.got.cif
#   From: 2010.06.25/outbox.cif.g09.slc.cpg/sg2_135_cif.got.tgz:268871.got - 2010.06.27 13:26:56.
