data_PCOD8005828
_publ_section_title
;
Structure prediction by ZEFSAII (Michael W. Deem and Ramdas Pophale) SiO2 
 PCOD8005828
Probable space group: P -1
;
_chemical_formula_sum "Si O2"
_cell_formula_units_Z 16
_cell_length_a 22.454565
_cell_length_b 5.215114
_cell_length_c 8.453816
_cell_angle_alpha 96.870202
_cell_angle_beta 57.513289
_cell_angle_gamma 118.921341
_cell_volume 717.624875
_symmetry_space_group_name_H-M "P -1"
_symmetry_group_IT_number 2
_symmetry_cell_setting 'triclinic'
loop_
_space_group_symop_operation_xyz
x,y,z
-x,-y,-z
loop_
_atom_site_type_symbol
_atom_site_label
_atom_site_fract_x
_atom_site_fract_y
_atom_site_fract_z
Si Si1 0.466886 0.740997 0.158257
Si Si2 0.904201 0.335655 0.108026
Si Si3 0.266314 0.617533 0.115472
Si Si4 0.671965 0.238018 0.436430
Si Si5 0.542017 0.815451 0.376448
Si Si6 0.824073 0.673458 0.084246
Si Si7 0.777414 0.159140 0.522832
Si Si8 0.337117 0.261175 0.118795
O O1 0.394662 0.743701 0.360146
O O2 0.533741 0.761231 0.192853
O O3 0.424670 0.425651 0.098796
O O4 0.500000 0.000000 0.000000
O O5 0.880286 0.554378 0.069929
O O6 0.866342 0.256577 0.333905
O O7 0.872734 0.030420 0.033164
O O8 0.000000 0.500000 0.000000
O O9 0.219150 0.585074 0.346063
O O10 0.327749 0.485194 0.030027
O O11 0.325926 0.971337 0.018389
O O12 0.197320 0.447982 0.071871
O O13 0.740784 0.561022 0.295530
O O14 0.716197 0.098205 0.461693
O O15 0.634397 0.017469 0.321679
O O16 0.500000 0.500000 0.500000
O O17 0.500000 0.000000 0.500000
O O18 0.737432 0.849180 0.655527
#
# Coordination Sequence:
#
# PCOD8005828 Si02
#       8
#     2   2   2   2   2   2   2   2
#     4  11  22  39  63  96 129 175 226 287 342 384
#     4  11  24  43  69 101 134 164 206 266 326 391
#     4  10  22  39  67  92 124 165 226 262 309 380
#     4  10  21  42  62  90 125 178 223 269 323 398
#     4  10  23  40  58  86 128 164 217 275 335 375
#     4  11  24  43  68  96 129 172 219 258 323 395
#     4   9  21  39  70  92 124 176 219 258 322 395
#     4  10  20  39  63  87 128 165 225 258 323 381
#
# _framework density 22.295770999999998
#
# number of rings (size 3 to 8) (size 9 to 14) (size 15 to 20)
#    0.750    1.000    1.250    2.625    3.500    3.000 
#    4.500    6.250    0.000    0.000    0.000    0.000 
#    0.000    0.000    0.000    0.000    0.000    0.000 
#
# Total GULP energy -198295.307395 kJ/mol
# GULP energy per Si atom -12393.456712 kJ/mol
# Density = 2.224502 g / cm^3
# Si number density = 22.295771 Si / 1000 Ang^3
#
#
#
# Elastic Constant Matrix: (Units=GPa)
#
#
# Indices 1 2 3 4 5 6 
#
# 1 84.8050 36.9107 44.4002 -0.1079 10.9020 13.7823
# 2 36.9107 142.3700 38.5834 3.9613 3.6160 6.5512
# 3 44.4002 38.5834 89.7415 8.0737 9.0412 24.8730
# 4 -0.1079 3.9613 8.0737 31.4835 7.6141 0.8191
# 5 10.9020 3.6160 9.0412 7.6141 31.4018 -6.6578
# 6 13.7823 6.5512 24.8730 0.8191 -6.6578 44.4320
#
#
#
# Elastic Compliance Matrix: (Units=1/GPa)
#
#
# Indices 1 2 3 4 5 6 
#
# 1 0.017431 -0.002562 -0.006739 0.003393 -0.005080 -0.002080
# 2 -0.002562 0.008361 -0.002737 -0.000670 0.001148 0.001278
# 3 -0.006739 -0.002737 0.018670 -0.003352 -0.003700 -0.008450
# 4 0.003393 -0.000670 -0.003352 0.034877 -0.008813 -0.001041
# 5 -0.005080 0.001148 -0.003700 -0.008813 0.038679 0.009436
# 6 -0.002080 0.001278 -0.008450 -0.001041 0.009436 0.029127
#
#
# Mechanical properties :
#
#
# Convention : Reuss Voigt Hill
#
# Bulk Modulus (GPa) = 49.05479 61.85612 55.45545
# Shear Modulus (GPa) = 28.08742 34.59828 31.34285
#
# Velocity S-wave (km/s) = 3.55317 3.94355 3.75343
# Velocity P-wave (km/s) = 6.23562 6.96700 6.61143
#
# Compressibility (1/GPa) = 0.02038537
#
# Stress axis : x y z
#
# Youngs Moduli (GPa) = 57.36971 119.60959 53.56087
#
# Poissons Ratio (x) = 0.30648 0.36096
# Poissons Ratio (y) = 0.14700 0.14657
# Poissons Ratio (z) = 0.38663 0.32731
#
# Static dielectric constant tensor:
#      x y z
#    x 4.072660 0.211230 0.224800 
#    y 0.211230 4.097810 0.164560 
#    z 0.224800 0.164560 4.274590 
# 
# 
# High freq. dielectric constant tensor:
#      x y z
#    x 1.866950 -0.003410 0.012720 
#    y -0.003410 1.884600 0.013410 
#    z 0.012720 0.013410 1.879360 
# 
# From -- ./inp_files/351044.got.cif
#   From: 2010.06.25/outbox.cif.g09.slc.cpg/sg2_176_cif.got.tgz:351044.got - 2010.06.27 13:26:56.
