data_PCOD8005581
_publ_section_title
;
Structure prediction by ZEFSAII (Michael W. Deem and Ramdas Pophale) SiO2 
 PCOD8005581
Probable space group: P -1
;
_chemical_formula_sum "Si O2"
_cell_formula_units_Z 16
_cell_length_a 14.286669
_cell_length_b 9.189009
_cell_length_c 14.345639
_cell_angle_alpha 74.747316
_cell_angle_beta 139.398018
_cell_angle_gamma 75.305623
_cell_volume 817.997780
_symmetry_space_group_name_H-M "P -1"
_symmetry_group_IT_number 2
_symmetry_cell_setting 'triclinic'
loop_
_space_group_symop_operation_xyz
x,y,z
-x,-y,-z
loop_
_atom_site_type_symbol
_atom_site_label
_atom_site_fract_x
_atom_site_fract_y
_atom_site_fract_z
Si Si1 0.429211 0.656206 0.157244
Si Si2 0.028185 0.943207 0.922685
Si Si3 0.562178 0.686859 0.820700
Si Si4 0.877343 0.315287 0.615076
Si Si5 0.141394 0.083965 0.512311
Si Si6 0.148724 0.962604 0.739164
Si Si7 0.051150 0.494630 0.771317
Si Si8 0.057872 0.583732 0.958471
O O1 0.464542 0.471645 0.162744
O O2 0.643028 0.551066 0.382424
O O3 0.266094 0.782291 0.097636
O O4 0.343670 0.826794 0.980270
O O5 0.968188 0.813786 0.883403
O O6 0.884528 0.164967 0.715202
O O7 0.000000 0.000000 0.000000
O O8 0.333412 0.931937 0.610407
O O9 0.688726 0.613821 0.830793
O O10 0.701028 0.656620 0.013957
O O11 0.013833 0.346569 0.755173
O O12 0.967035 0.207587 0.599448
O O13 0.219617 0.962921 0.691232
O O14 0.063334 0.315569 0.424898
O O15 0.945881 0.135133 0.317818
O O16 0.951156 0.624602 0.772178
O O17 0.000000 0.500000 0.000000
#
# Coordination Sequence:
#
# PCOD8005581 Si02
#       8
#     2   2   2   2   2   2   2   2
#     4  10  20  39  60  87 118 157 201 240 295 358
#     4  10  21  38  64  88 120 155 199 248 291 353
#     4   9  20  36  63  81 119 152 197 241 294 348
#     4  11  22  39  61  87 125 157 192 249 300 346
#     4  11  20  38  61  90 114 159 204 245 296 353
#     4  10  22  36  62  89 118 154 207 247 291 353
#     4  10  22  38  59  87 123 153 193 249 298 348
#     4   9  19  40  62  86 120 155 191 242 299 350
#
# _framework density 19.559956
#
# number of rings (size 3 to 8) (size 9 to 14) (size 15 to 20)
#    0.750    1.250    2.500    1.500    0.000    4.500 
#    0.000    1.875    0.000    0.000    0.000    0.000 
#    0.000    0.000    0.000    0.000    0.000    0.000 
#
# Total GULP energy -198253.180988 kJ/mol
# GULP energy per Si atom -12390.823812 kJ/mol
# Density = 1.951544 g / cm^3
# Si number density = 19.559956 Si / 1000 Ang^3
#
#
#
# Elastic Constant Matrix: (Units=GPa)
#
#
# Indices 1 2 3 4 5 6 
#
# 1 71.5963 31.9255 25.9064 -3.3806 -4.4471 6.3369
# 2 31.9255 94.3176 9.2419 5.1931 -5.4906 6.6851
# 3 25.9064 9.2419 85.7430 -4.0962 -0.0742 0.6971
# 4 -3.3806 5.1931 -4.0962 27.7371 1.0605 -1.8180
# 5 -4.4471 -5.4906 -0.0742 1.0605 18.0094 -0.9961
# 6 6.3369 6.6851 0.6971 -1.8180 -0.9961 32.6222
#
#
#
# Elastic Compliance Matrix: (Units=1/GPa)
#
#
# Indices 1 2 3 4 5 6 
#
# 1 0.018750 -0.005691 -0.004918 0.002383 0.002615 -0.002158
# 2 -0.005691 0.012965 0.000180 -0.003304 0.002651 -0.001658
# 3 -0.004918 0.000180 0.013190 0.001403 -0.001150 0.000680
# 4 0.002383 -0.003304 0.001403 0.037408 -0.002495 0.002193
# 5 0.002615 0.002651 -0.001150 -0.002495 0.057155 0.000579
# 6 -0.002158 -0.001658 0.000680 0.002193 0.000579 0.031538
#
#
# Mechanical properties :
#
#
# Convention : Reuss Voigt Hill
#
# Bulk Modulus (GPa) = 41.58537 42.86715 42.22626
# Shear Modulus (GPa) = 25.01491 27.97927 26.49709
#
# Velocity S-wave (km/s) = 3.58003 3.78621 3.68456
# Velocity P-wave (km/s) = 6.19640 6.40915 6.30368
#
# Compressibility (1/GPa) = 0.02404692
#
# Stress axis : x y z
#
# Youngs Moduli (GPa) = 53.33221 77.13101 75.81577
#
# Poissons Ratio (x) = 0.43894 0.37288
# Poissons Ratio (y) = 0.30351 -0.01364
# Poissons Ratio (z) = 0.26230 -0.01388
#
# Static dielectric constant tensor:
#      x y z
#    x 3.409810 -0.014520 0.032140 
#    y -0.014520 3.491130 -0.065170 
#    z 0.032140 -0.065170 3.420460 
# 
# 
# High freq. dielectric constant tensor:
#      x y z
#    x 1.746170 -0.000400 -0.000860 
#    y -0.000400 1.759490 -0.006540 
#    z -0.000860 -0.006540 1.749190 
# 
# From -- ./inp_files/108843.got.cif
#   From: 2010.06.25/outbox.cif.g09.slc.cpg/sg2_55_cif.got.tgz:108843.got - 2010.06.27 13:26:56.
