data_PCOD8005520
_publ_section_title
;
Structure prediction by ZEFSAII (Michael W. Deem and Ramdas Pophale) SiO2 
 PCOD8005520
Probable space group: P -1
;
_chemical_formula_sum "Si O2"
_cell_formula_units_Z 14
_cell_length_a 9.071939
_cell_length_b 17.719199
_cell_length_c 14.572705
_cell_angle_alpha 158.438681
_cell_angle_beta 131.544880
_cell_angle_gamma 48.574511
_cell_volume 635.684575
_symmetry_space_group_name_H-M "P -1"
_symmetry_group_IT_number 2
_symmetry_cell_setting 'triclinic'
loop_
_space_group_symop_operation_xyz
x,y,z
-x,-y,-z
loop_
_atom_site_type_symbol
_atom_site_label
_atom_site_fract_x
_atom_site_fract_y
_atom_site_fract_z
Si Si1 0.469116 0.731580 0.641152
Si Si2 0.548741 0.426622 0.182511
Si Si3 0.569083 0.846375 0.562770
Si Si4 0.213180 0.164073 0.750936
Si Si5 0.292645 0.958365 0.981680
Si Si6 0.090076 0.973464 0.656512
Si Si7 0.875680 0.046682 0.837590
O O1 0.547203 0.500464 0.372301
O O2 0.652797 0.859952 0.857565
O O3 0.296720 0.835495 0.616503
O O4 0.386899 0.739736 0.721375
O O5 0.570874 0.616584 0.339002
O O6 0.744543 0.262141 0.058281
O O7 0.340480 0.345685 0.986724
O O8 0.618192 0.017199 0.853331
O O9 0.353106 0.938548 0.537409
O O10 0.740754 0.860437 0.573477
O O11 0.133265 0.161894 0.820844
O O12 0.030532 0.181637 0.624652
O O13 0.053755 0.984930 0.914525
O O14 0.958840 0.071484 0.798566
#
# Coordination Sequence:
#
# PCOD8005520 Si02
#       7
#     2   2   2   2   2   2   2
#     4   9  18  35  61  82 113 148 191 230 278 332
#     4  10  21  38  57  88 114 148 188 235 279 335
#     4  10  20  39  59  84 116 153 182 233 283 338
#     4  10  21  39  63  79 115 150 190 235 278 331
#     4   9  17  35  61  81 111 155 184 228 281 333
#     4  10  20  41  60  83 112 152 189 232 283 334
#     4  10  22  37  59  84 117 147 187 233 285 332
#
# _framework density 22.023501
#
# number of rings (size 3 to 8) (size 9 to 14) (size 15 to 20)
#    0.000    2.286    2.857    0.429    0.000    5.143 
#    5.143    4.286    0.000    0.000    0.000    0.000 
#    0.000    0.000    0.000    0.000    0.000    0.000 
#
# Total GULP energy -173479.207865 kJ/mol
# GULP energy per Si atom -12391.371990 kJ/mol
# Density = 2.197337 g / cm^3
# Si number density = 22.023501 Si / 1000 Ang^3
#
#
#
# Elastic Constant Matrix: (Units=GPa)
#
#
# Indices 1 2 3 4 5 6 
#
# 1 135.6368 31.9609 49.1724 7.2828 2.7880 -9.8170
# 2 31.9609 40.7552 -2.8193 -9.8067 4.6798 5.5657
# 3 49.1724 -2.8193 69.2469 9.2274 -0.5385 -3.6166
# 4 7.2828 -9.8067 9.2274 24.9675 -0.7557 2.7070
# 5 2.7880 4.6798 -0.5385 -0.7557 36.4556 -5.6920
# 6 -9.8170 5.5657 -3.6166 2.7070 -5.6920 24.4229
#
#
#
# Elastic Compliance Matrix: (Units=1/GPa)
#
#
# Indices 1 2 3 4 5 6 
#
# 1 0.016637 -0.017648 -0.010775 -0.008886 0.002311 0.010637
# 2 -0.017648 0.048132 0.010389 0.022235 -0.007451 -0.020725
# 3 -0.010775 0.010389 0.022423 -0.000710 -0.000735 -0.003471
# 4 -0.008886 0.022235 -0.000710 0.053210 -0.003496 -0.015456
# 5 0.002311 -0.007451 -0.000735 -0.003496 0.029660 0.009818
# 6 0.010637 -0.020725 -0.003471 -0.015456 0.009818 0.053431
#
#
# Mechanical properties :
#
#
# Convention : Reuss Voigt Hill
#
# Bulk Modulus (GPa) = 19.56104 44.69631 32.12868
# Shear Modulus (GPa) = 18.07646 28.32419 23.20032
#
# Velocity S-wave (km/s) = 2.86803 3.59010 3.24919
# Velocity P-wave (km/s) = 4.45743 6.12568 5.35689
#
# Compressibility (1/GPa) = 0.05112202
#
# Stress axis : x y z
#
# Youngs Moduli (GPa) = 60.10711 20.77632 44.59731
#
# Poissons Ratio (x) = 0.36667 0.48053
# Poissons Ratio (y) = 1.06080 -0.46330
# Poissons Ratio (z) = 0.64765 -0.21584
#
# Static dielectric constant tensor:
#      x y z
#    x 4.486510 -0.057800 0.127250 
#    y -0.057800 3.694480 -0.169100 
#    z 0.127250 -0.169100 3.778940 
# 
# 
# High freq. dielectric constant tensor:
#      x y z
#    x 1.893050 -0.006450 0.011770 
#    y -0.006450 1.850160 -0.012030 
#    z 0.011770 -0.012030 1.838070 
# 
# From -- ./inp_files/227557.got.cif
#   From: 2010.06.25/outbox.cif.g09.slc.cpg/sg2_114_cif.got.tgz:227557.got - 2010.06.27 13:26:56.
