data_PCOD8005022
_publ_section_title
;
Structure prediction by ZEFSAII (Michael W. Deem and Ramdas Pophale) SiO2 
 PCOD8005022
Probable space group: P -1
;
_chemical_formula_sum "Si O2"
_cell_formula_units_Z 16
_cell_length_a 8.210224
_cell_length_b 11.323528
_cell_length_c 20.264565
_cell_angle_alpha 38.974210
_cell_angle_beta 42.337883
_cell_angle_gamma 40.321974
_cell_volume 715.401440
_symmetry_space_group_name_H-M "P -1"
_symmetry_group_IT_number 2
_symmetry_cell_setting 'triclinic'
loop_
_space_group_symop_operation_xyz
x,y,z
-x,-y,-z
loop_
_atom_site_type_symbol
_atom_site_label
_atom_site_fract_x
_atom_site_fract_y
_atom_site_fract_z
Si Si1 0.820629 0.715688 0.573916
Si Si2 0.194162 0.555083 0.184632
Si Si3 0.777661 0.366538 0.063720
Si Si4 0.690477 0.179070 0.408356
Si Si5 0.596531 0.465616 0.560416
Si Si6 0.647163 0.734721 0.189823
Si Si7 0.145773 0.980143 0.033529
Si Si8 0.890050 0.399548 0.164629
O O1 0.845098 0.597532 0.685951
O O2 0.561666 0.742398 0.599735
O O3 0.089346 0.587773 0.505672
O O4 0.803801 0.940484 0.499835
O O5 0.464282 0.435599 0.111854
O O6 0.952077 0.631355 0.172208
O O7 0.225801 0.742045 0.135007
O O8 0.812975 0.339917 0.143458
O O9 0.955045 0.142583 0.074553
O O10 0.852234 0.551951 0.937863
O O11 0.593828 0.316757 0.442872
O O12 0.930174 0.210935 0.285194
O O13 0.500000 0.500000 0.500000
O O14 0.558599 0.273592 0.690186
O O15 0.642626 0.605667 0.181786
O O16 0.594763 0.969576 0.080184
O O17 0.000000 0.000000 0.000000
#
# Coordination Sequence:
#
# PCOD8005022 Si02
#       8
#     2   2   2   2   2   2   2   2
#     4  11  23  41  62  90 118 165 205 246 302 354
#     4  11  21  39  63  89 120 160 199 244 296 358
#     4  10  20  38  64  86 119 159 196 243 304 351
#     4  10  23  43  62  88 123 157 210 248 293 366
#     4  11  22  41  64  89 123 160 200 254 305 349
#     4   9  20  40  60  88 124 152 202 248 292 364
#     4   9  21  38  59  90 120 151 197 244 291 359
#     4   9  19  39  60  86 121 154 194 252 293 352
#
# _framework density 22.365065999999999
#
# number of rings (size 3 to 8) (size 9 to 14) (size 15 to 20)
#    0.000    2.000    2.500    0.375    0.000    7.000 
#    2.250    5.625    0.000    0.000    0.000    0.000 
#    0.000    0.000    0.000    0.000    0.000    0.000 
#
# Total GULP energy -198286.088810 kJ/mol
# GULP energy per Si atom -12392.880551 kJ/mol
# Density = 2.231416 g / cm^3
# Si number density = 22.365066 Si / 1000 Ang^3
#
#
#
# Elastic Constant Matrix: (Units=GPa)
#
#
# Indices 1 2 3 4 5 6 
#
# 1 42.1218 20.5817 14.6200 3.7328 11.5306 22.2750
# 2 20.5817 88.5859 61.8847 -5.5793 8.9758 23.7050
# 3 14.6200 61.8847 169.1160 -1.5948 -4.2861 14.1407
# 4 3.7328 -5.5793 -1.5948 45.9687 2.1466 -6.2675
# 5 11.5306 8.9758 -4.2861 2.1466 27.0802 7.6474
# 6 22.2750 23.7050 14.1407 -6.2675 7.6474 37.1810
#
#
#
# Elastic Compliance Matrix: (Units=1/GPa)
#
#
# Indices 1 2 3 4 5 6 
#
# 1 0.039405 -0.002129 -0.001201 -0.005863 -0.009942 -0.020737
# 2 -0.002129 0.018431 -0.006067 0.001439 -0.004288 -0.007043
# 3 -0.001201 -0.006067 0.008276 -0.000442 0.003696 0.000605
# 4 -0.005863 0.001439 -0.000442 0.023448 -0.001917 0.007110
# 5 -0.009942 -0.004288 0.003696 -0.001917 0.043903 -0.002069
# 6 -0.020737 -0.007043 0.000605 0.007110 -0.002069 0.045203
#
#
# Mechanical properties :
#
#
# Convention : Reuss Voigt Hill
#
# Bulk Modulus (GPa) = 21.13333 54.88851 38.01092
# Shear Modulus (GPa) = 23.44858 35.56179 29.50519
#
# Velocity S-wave (km/s) = 3.24149 3.99188 3.63609
# Velocity P-wave (km/s) = 4.84556 6.77068 5.88734
#
# Compressibility (1/GPa) = 0.04731861
#
# Stress axis : x y z
#
# Youngs Moduli (GPa) = 25.37745 54.25620 120.83474
#
# Poissons Ratio (x) = 0.11553 0.14509
# Poissons Ratio (y) = 0.05404 0.73305
# Poissons Ratio (z) = 0.03047 0.32915
#
# Static dielectric constant tensor:
#      x y z
#    x 3.890500 0.305530 -0.263040 
#    y 0.305530 4.220110 -0.213300 
#    z -0.263040 -0.213300 4.634200 
# 
# 
# High freq. dielectric constant tensor:
#      x y z
#    x 1.870900 0.021530 -0.007200 
#    y 0.021530 1.861400 0.002380 
#    z -0.007200 0.002380 1.906320 
# 
# From -- ./inp_files/589440.got.cif
#   From: 2010.06.25/outbox.cif.g09.slc.cpg/sg2_295_cif.got.tgz:589440.got - 2010.06.27 13:26:56.
