data_PCOD8005152
_publ_section_title
;
Structure prediction by ZEFSAII (Michael W. Deem and Ramdas Pophale) SiO2 
 PCOD8005152
Probable space group: P -1
;
_chemical_formula_sum "Si O2"
_cell_formula_units_Z 16
_cell_length_a 11.214582
_cell_length_b 13.572430
_cell_length_c 11.134618
_cell_angle_alpha 60.736215
_cell_angle_beta 139.224853
_cell_angle_gamma 137.106606
_cell_volume 745.023546
_symmetry_space_group_name_H-M "P -1"
_symmetry_group_IT_number 2
_symmetry_cell_setting 'triclinic'
loop_
_space_group_symop_operation_xyz
x,y,z
-x,-y,-z
loop_
_atom_site_type_symbol
_atom_site_label
_atom_site_fract_x
_atom_site_fract_y
_atom_site_fract_z
Si Si1 0.733408 0.474658 0.432857
Si Si2 0.527838 0.795305 0.158962
Si Si3 0.395684 0.241060 0.497045
Si Si4 0.476631 0.229037 0.202309
Si Si5 0.183784 0.724829 0.747415
Si Si6 0.696643 0.990227 0.610833
Si Si7 0.779992 0.733656 0.207570
Si Si8 0.930470 0.093503 0.336960
O O1 0.542686 0.389974 0.444834
O O2 0.687833 0.356111 0.374492
O O3 0.705104 0.578341 0.275835
O O4 0.989156 0.564402 0.637877
O O5 0.486761 0.729093 0.299816
O O6 0.702863 0.781040 0.230487
O O7 0.664465 0.970994 0.156958
O O8 0.272593 0.711546 0.951581
O O9 0.133082 0.194758 0.331618
O O10 0.388301 0.113444 0.508604
O O11 0.592157 0.183774 0.225860
O O12 0.274266 0.087792 0.210752
O O13 0.357028 0.285034 0.006833
O O14 0.071892 0.805473 0.628328
O O15 0.939444 0.149432 0.671939
O O16 0.500000 0.000000 0.500000
O O17 0.000000 0.000000 0.500000
#
# Coordination Sequence:
#
# PCOD8005152 Si02
#       8
#     2   2   2   2   2   2   2   2
#     4  11  23  41  64  90 130 171 208 255 315 384
#     4  10  22  39  64  94 128 159 212 268 305 372
#     4  10  23  41  61  94 128 163 211 255 317 370
#     4  10  24  42  63  93 128 162 217 260 309 376
#     4  11  23  38  64  93 125 170 206 257 323 366
#     4  11  23  39  66  94 124 165 210 262 312 373
#     4  11  22  42  67  91 125 170 211 258 319 368
#     4  10  20  38  65  87 125 160 210 264 305 372
#
# _framework density 21.475830999999999
#
# number of rings (size 3 to 8) (size 9 to 14) (size 15 to 20)
#    0.000    1.500    1.250    3.750    5.250    3.500 
#    0.000    1.250    0.000    0.000    0.000    0.000 
#    0.000    0.000    0.000    0.000    0.000    0.000 
#
# Total GULP energy -198334.152239 kJ/mol
# GULP energy per Si atom -12395.884515 kJ/mol
# Density = 2.142695 g / cm^3
# Si number density = 21.475831 Si / 1000 Ang^3
#
#
#
# Elastic Constant Matrix: (Units=GPa)
#
#
# Indices 1 2 3 4 5 6 
#
# 1 125.6540 45.3323 44.6103 -8.7548 -2.4124 4.2051
# 2 45.3323 105.2224 38.9385 -8.4010 -4.4476 19.2617
# 3 44.6103 38.9385 122.9376 -2.5341 -8.0512 6.9165
# 4 -8.7548 -8.4010 -2.5341 25.8472 2.9663 -6.1255
# 5 -2.4124 -4.4476 -8.0512 2.9663 36.8685 -3.1533
# 6 4.2051 19.2617 6.9165 -6.1255 -3.1533 35.2503
#
#
#
# Elastic Compliance Matrix: (Units=1/GPa)
#
#
# Indices 1 2 3 4 5 6 
#
# 1 0.010308 -0.003568 -0.002678 0.002505 -0.000402 0.001645
# 2 -0.003568 0.013190 -0.002503 0.001382 0.000184 -0.006034
# 3 -0.002678 -0.002503 0.010010 -0.001011 0.001765 -0.000295
# 4 0.002505 0.001382 -0.001011 0.041654 -0.002716 0.006140
# 5 -0.000402 0.000184 0.001765 -0.002716 0.027862 0.001622
# 6 0.001645 -0.006034 -0.000295 0.006140 0.001622 0.032739
#
#
# Mechanical properties :
#
#
# Convention : Reuss Voigt Hill
#
# Bulk Modulus (GPa) = 62.45870 67.95291 65.20581
# Shear Modulus (GPa) = 31.52641 34.58872 33.05757
#
# Velocity S-wave (km/s) = 3.83560 4.01757 3.92764
# Velocity P-wave (km/s) = 6.98299 7.29598 7.14120
#
# Compressibility (1/GPa) = 0.01601058
#
# Stress axis : x y z
#
# Youngs Moduli (GPa) = 97.01181 75.81610 99.90134
#
# Poissons Ratio (x) = 0.27052 0.26749
# Poissons Ratio (y) = 0.34615 0.25004
# Poissons Ratio (z) = 0.25975 0.18976
#
# Static dielectric constant tensor:
#      x y z
#    x 4.049030 0.180830 -0.120980 
#    y 0.180830 4.014370 0.217710 
#    z -0.120980 0.217710 4.008950 
# 
# 
# High freq. dielectric constant tensor:
#      x y z
#    x 1.855580 0.002930 -0.011820 
#    y 0.002930 1.834610 0.005290 
#    z -0.011820 0.005290 1.837200 
# 
# From -- ./inp_files/433856.got.cif
#   From: 2010.06.25/outbox.cif.g09.slc.cpg/sg2_217_cif.got.tgz:433856.got - 2010.06.27 13:26:56.
