data_PCOD8005417
_publ_section_title
;
Structure prediction by ZEFSAII (Michael W. Deem and Ramdas Pophale) SiO2 
 PCOD8005417
Probable space group: P -1
;
_chemical_formula_sum "Si O2"
_cell_formula_units_Z 14
_cell_length_a 13.560090
_cell_length_b 29.473130
_cell_length_c 14.100230
_cell_angle_alpha 159.098213
_cell_angle_beta 159.348340
_cell_angle_gamma 22.536089
_cell_volume 651.955459
_symmetry_space_group_name_H-M "P -1"
_symmetry_group_IT_number 2
_symmetry_cell_setting 'triclinic'
loop_
_space_group_symop_operation_xyz
x,y,z
-x,-y,-z
loop_
_atom_site_type_symbol
_atom_site_label
_atom_site_fract_x
_atom_site_fract_y
_atom_site_fract_z
Si Si1 0.286272 0.012794 0.120506
Si Si2 0.993067 0.208207 0.087169
Si Si3 0.638374 0.170669 0.853203
Si Si4 0.367082 0.622656 0.249736
Si Si5 0.707231 0.698990 0.868897
Si Si6 0.298171 0.412785 0.153495
Si Si7 0.498539 0.314933 0.708288
O O1 0.231803 0.057542 0.046049
O O2 0.432184 0.105687 0.487018
O O3 0.488940 0.853400 0.001672
O O4 0.949934 0.047251 0.930191
O O5 0.182834 0.302035 0.423220
O O6 0.740809 0.265762 0.057605
O O7 0.802044 0.200677 0.807145
O O8 0.459657 0.261643 0.957674
O O9 0.544345 0.633939 0.523666
O O10 0.455361 0.697236 0.386818
O O11 0.470351 0.461795 0.008377
O O12 0.009109 0.700375 0.095917
O O13 0.788947 0.605373 0.853124
O O14 0.500000 0.500000 0.500000
O O15 0.000000 0.500000 0.000000
#
# Coordination Sequence:
#
# PCOD8005417 Si02
#       7
#     2   2   2   2   2   2   2
#     4  10  22  41  66  93 126 175 215 247 322 365
#     4  10  20  38  69  91 124 164 218 264 291 383
#     4  10  22  41  66  92 130 164 219 252 306 388
#     4  11  26  41  64  96 130 169 209 262 327 376
#     4  12  26  44  64  92 139 161 207 277 309 368
#     4  12  28  42  66 103 126 166 210 257 328 381
#     4  11  22  41  67  94 124 172 216 252 325 383
#
# _framework density 21.473859999999998
#
# number of rings (size 3 to 8) (size 9 to 14) (size 15 to 20)
#    0.857    0.286    1.429    4.286    6.000    3.429 
#    0.000    4.286    0.000    0.000    0.000    0.000 
#    0.000    0.000    0.000    0.000    0.000    0.000 
#
# Total GULP energy -173527.954140 kJ/mol
# GULP energy per Si atom -12394.853867 kJ/mol
# Density = 2.142498 g / cm^3
# Si number density = 21.473860 Si / 1000 Ang^3
#
#
#
# Elastic Constant Matrix: (Units=GPa)
#
#
# Indices 1 2 3 4 5 6 
#
# 1 107.6985 32.2515 34.7923 -12.3335 -16.6485 10.3411
# 2 32.2515 108.3223 33.6642 -22.0960 -15.6015 -4.2133
# 3 34.7923 33.6642 93.8069 -30.0188 -8.7612 1.4018
# 4 -12.3335 -22.0960 -30.0188 42.1644 -0.7953 -1.8154
# 5 -16.6485 -15.6015 -8.7612 -0.7953 27.7499 -6.4831
# 6 10.3411 -4.2133 1.4018 -1.8154 -6.4831 37.7649
#
#
#
# Elastic Compliance Matrix: (Units=1/GPa)
#
#
# Indices 1 2 3 4 5 6 
#
# 1 0.011852 -0.001978 -0.003197 0.000125 0.004388 -0.002588
# 2 -0.001978 0.012350 -0.001557 0.005043 0.006176 0.003280
# 3 -0.003197 -0.001557 0.015682 0.009508 0.002672 0.001035
# 4 0.000125 0.005043 0.009508 0.033441 0.007592 0.003086
# 5 0.004388 0.006176 0.002672 0.007592 0.044947 0.007469
# 6 -0.002588 0.003280 0.001035 0.003086 0.007469 0.028946
#
#
# Mechanical properties :
#
#
# Convention : Reuss Voigt Hill
#
# Bulk Modulus (GPa) = 37.85205 56.80486 47.32845
# Shear Modulus (GPa) = 29.50044 35.47716 32.48880
#
# Velocity S-wave (km/s) = 3.71048 4.06902 3.89388
# Velocity P-wave (km/s) = 6.00185 6.97039 6.50417
#
# Compressibility (1/GPa) = 0.02641865
#
# Stress axis : x y z
#
# Youngs Moduli (GPa) = 84.37719 80.96978 63.76925
#
# Poissons Ratio (x) = 0.16017 0.20389
# Poissons Ratio (y) = 0.16692 0.09928
# Poissons Ratio (z) = 0.26977 0.12606
#
# Static dielectric constant tensor:
#      x y z
#    x 3.945620 0.102880 0.070340 
#    y 0.102880 3.961780 -0.336740 
#    z 0.070340 -0.336740 3.905360 
# 
# 
# High freq. dielectric constant tensor:
#      x y z
#    x 1.840460 0.010290 0.008590 
#    y 0.010290 1.844420 -0.025380 
#    z 0.008590 -0.025380 1.848000 
# 
# From -- ./inp_files/535835.got.cif
#   From: 2010.06.25/outbox.cif.g09.slc.cpg/sg2_268_cif.got.tgz:535835.got - 2010.06.27 13:26:56.
