data_PCOD8005658
_publ_section_title
;
Structure prediction by ZEFSAII (Michael W. Deem and Ramdas Pophale) SiO2 
 PCOD8005658
Probable space group: P -1
;
_chemical_formula_sum "Si O2"
_cell_formula_units_Z 16
_cell_length_a 7.690481
_cell_length_b 15.956218
_cell_length_c 13.304250
_cell_angle_alpha 125.093013
_cell_angle_beta 147.148873
_cell_angle_gamma 55.720791
_cell_volume 712.674729
_symmetry_space_group_name_H-M "P -1"
_symmetry_group_IT_number 2
_symmetry_cell_setting 'triclinic'
loop_
_space_group_symop_operation_xyz
x,y,z
-x,-y,-z
loop_
_atom_site_type_symbol
_atom_site_label
_atom_site_fract_x
_atom_site_fract_y
_atom_site_fract_z
Si Si1 0.806849 0.143066 0.274870
Si Si2 0.894174 0.530748 0.582113
Si Si3 0.670539 0.311576 0.037906
Si Si4 0.265354 0.236521 0.943350
Si Si5 0.815890 0.869268 0.757365
Si Si6 0.541400 0.294874 0.596775
Si Si7 0.697760 0.986393 0.277895
Si Si8 0.851489 0.683111 0.382004
O O1 0.739005 0.041978 0.229918
O O2 0.019739 0.106347 0.252304
O O3 0.976348 0.216622 0.482218
O O4 0.453533 0.210714 0.121628
O O5 0.540642 0.608436 0.456030
O O6 0.000000 0.500000 0.500000
O O7 0.150878 0.590269 0.803760
O O8 0.891845 0.427050 0.577452
O O9 0.924418 0.203005 0.095705
O O10 0.424865 0.321779 0.020125
O O11 0.462028 0.311681 0.836074
O O12 0.890323 0.287134 0.812878
O O13 0.300444 0.134019 0.821486
O O14 0.501505 0.812985 0.550650
O O15 0.652600 0.973065 0.809873
O O16 0.259969 0.313420 0.555168
O O17 0.000000 0.000000 0.500000
#
# Coordination Sequence:
#
# PCOD8005658 Si02
#       8
#     2   2   2   2   2   2   2   2
#     4  10  24  41  59  89 126 161 203 249 302 362
#     4   9  18  38  64  86 120 159 195 244 309 366
#     4  10  21  37  63  88 122 155 201 247 297 364
#     4  11  22  40  57  89 122 159 199 252 302 355
#     4   9  21  41  59  87 123 162 201 250 303 356
#     4   9  19  37  60  84 122 157 196 252 303 353
#     4  12  23  39  64  89 123 160 206 254 299 358
#     4  10  20  39  61  89 116 163 199 246 302 364
#
# _framework density 22.450634999999998
#
# number of rings (size 3 to 8) (size 9 to 14) (size 15 to 20)
#    0.000    2.000    1.250    3.750    1.750    2.500 
#    2.250    6.250    0.000    0.000    0.000    0.000 
#    0.000    0.000    0.000    0.000    0.000    0.000 
#
# Total GULP energy -198294.504969 kJ/mol
# GULP energy per Si atom -12393.406561 kJ/mol
# Density = 2.239954 g / cm^3
# Si number density = 22.450635 Si / 1000 Ang^3
#
#
#
# Elastic Constant Matrix: (Units=GPa)
#
#
# Indices 1 2 3 4 5 6 
#
# 1 56.9712 27.0084 2.4786 -7.8510 7.8816 5.9925
# 2 27.0084 60.9688 11.1698 -11.6936 -0.3070 -0.7615
# 3 2.4786 11.1698 114.9835 -18.6199 -5.2647 -7.4982
# 4 -7.8510 -11.6936 -18.6199 31.6735 -5.6100 1.8957
# 5 7.8816 -0.3070 -5.2647 -5.6100 32.2053 -5.0672
# 6 5.9925 -0.7615 -7.4982 1.8957 -5.0672 23.3199
#
#
#
# Elastic Compliance Matrix: (Units=1/GPa)
#
#
# Indices 1 2 3 4 5 6 
#
# 1 0.024776 -0.010848 -0.000164 0.001252 -0.007307 -0.008463
# 2 -0.010848 0.022499 -0.000555 0.005841 0.004398 0.003825
# 3 -0.000164 -0.000555 0.010118 0.006077 0.003298 0.003500
# 4 0.001252 0.005841 0.006077 0.038935 0.007573 0.000303
# 5 -0.007307 0.004398 0.003298 0.007573 0.036371 0.010369
# 6 -0.008463 0.003825 0.003500 0.000303 0.010369 0.048535
#
#
# Mechanical properties :
#
#
# Convention : Reuss Voigt Hill
#
# Bulk Modulus (GPa) = 29.18912 34.91525 32.05219
# Shear Modulus (GPa) = 23.17094 30.25750 26.71422
#
# Velocity S-wave (km/s) = 3.21609 3.67513 3.45325
# Velocity P-wave (km/s) = 5.17887 5.79608 5.49615
#
# Compressibility (1/GPa) = 0.03425934
#
# Stress axis : x y z
#
# Youngs Moduli (GPa) = 40.36136 44.44594 98.83694
#
# Poissons Ratio (x) = 0.48214 0.01620
# Poissons Ratio (y) = 0.43783 0.05487
# Poissons Ratio (z) = 0.00662 0.02467
#
# Static dielectric constant tensor:
#      x y z
#    x 3.826420 0.136480 0.083280 
#    y 0.136480 4.401050 0.056040 
#    z 0.083280 0.056040 4.285900 
# 
# 
# High freq. dielectric constant tensor:
#      x y z
#    x 1.853100 0.005670 0.000510 
#    y 0.005670 1.888240 -0.006160 
#    z 0.000510 -0.006160 1.900030 
# 
# From -- ./inp_files/178674.got.cif
#   From: 2010.06.25/outbox.cif.g09.slc.cpg/sg2_90_cif.got.tgz:178674.got - 2010.06.27 13:26:56.
