data_PCOD8005268
_publ_section_title
;
Structure prediction by ZEFSAII (Michael W. Deem and Ramdas Pophale) SiO2 
 PCOD8005268
Probable space group: P -1
;
_chemical_formula_sum "Si O2"
_cell_formula_units_Z 16
_cell_length_a 12.279630
_cell_length_b 8.890613
_cell_length_c 13.288694
_cell_angle_alpha 72.457824
_cell_angle_beta 147.143701
_cell_angle_gamma 106.745407
_cell_volume 748.777178
_symmetry_space_group_name_H-M "P -1"
_symmetry_group_IT_number 2
_symmetry_cell_setting 'triclinic'
loop_
_space_group_symop_operation_xyz
x,y,z
-x,-y,-z
loop_
_atom_site_type_symbol
_atom_site_label
_atom_site_fract_x
_atom_site_fract_y
_atom_site_fract_z
Si Si1 0.298938 0.294996 0.344788
Si Si2 0.718185 0.994309 0.479469
Si Si3 0.869144 0.801420 0.230382
Si Si4 0.701027 0.428600 0.563752
Si Si5 0.013508 0.489039 0.394657
Si Si6 0.126329 0.161093 0.552257
Si Si7 0.271979 0.042645 0.101146
Si Si8 0.976755 0.245447 0.956698
O O1 0.259346 0.111393 0.381868
O O2 0.500260 0.313320 0.429393
O O3 0.337548 0.403424 0.450627
O O4 0.106068 0.345511 0.121462
O O5 0.716752 0.874089 0.406662
O O6 0.506690 0.073777 0.302724
O O7 0.896552 0.132219 0.590264
O O8 0.860825 0.621064 0.213973
O O9 0.770084 0.796724 0.266964
O O10 0.752452 0.913639 0.044319
O O11 0.768647 0.457347 0.495029
O O12 0.880283 0.356404 0.779277
O O13 0.000000 0.500000 0.500000
O O14 0.980488 0.302337 0.377484
O O15 0.000000 0.000000 0.500000
O O16 0.139230 0.145642 0.047521
O O17 0.200200 0.860053 0.102772
#
# Coordination Sequence:
#
# PCOD8005268 Si02
#       8
#     2   2   2   2   2   2   2   2
#     4  11  23  37  62  88 123 163 203 251 304 360
#     4  11  21  38  61  89 123 161 206 248 299 365
#     4  10  21  39  63  87 123 162 199 255 302 353
#     4  11  22  40  62  89 122 162 203 251 306 361
#     4  10  20  38  66  90 116 158 201 248 305 359
#     4   9  20  39  65  90 116 158 205 250 308 361
#     4  11  23  35  59  88 122 162 204 242 302 362
#     4  11  23  38  55  89 126 160 201 247 299 362
#
# _framework density 21.368172999999999
#
# number of rings (size 3 to 8) (size 9 to 14) (size 15 to 20)
#    0.000    1.500    5.000    0.375    1.750    1.000 
#    0.000    0.000    0.000   18.750    0.000    0.000 
#    0.000    0.000    0.000    0.000    0.000    0.000 
#
# Total GULP energy -198213.431293 kJ/mol
# GULP energy per Si atom -12388.339456 kJ/mol
# Density = 2.131954 g / cm^3
# Si number density = 21.368173 Si / 1000 Ang^3
#
#
#
# Elastic Constant Matrix: (Units=GPa)
#
#
# Indices 1 2 3 4 5 6 
#
# 1 96.8252 23.5408 15.9076 -5.7418 -1.2887 17.6545
# 2 23.5408 91.6257 13.9139 -17.6837 0.5160 5.2953
# 3 15.9076 13.9139 92.4818 -6.4825 3.2313 13.3529
# 4 -5.7418 -17.6837 -6.4825 26.8705 0.8324 -0.5804
# 5 -1.2887 0.5160 3.2313 0.8324 23.6835 -5.6302
# 6 17.6545 5.2953 13.3529 -0.5804 -5.6302 30.6810
#
#
#
# Elastic Compliance Matrix: (Units=1/GPa)
#
#
# Indices 1 2 3 4 5 6 
#
# 1 0.012265 -0.002538 -0.000729 0.000658 -0.000728 -0.006424
# 2 -0.002538 0.013274 -0.000919 0.007984 -0.000679 -0.000404
# 3 -0.000729 -0.000919 0.012079 0.002134 -0.002975 -0.005184
# 4 0.000658 0.007984 0.002134 0.043152 -0.002499 -0.002328
# 5 -0.000728 -0.000679 -0.002975 -0.002499 0.045083 0.010057
# 6 -0.006424 -0.000404 -0.005184 -0.002328 0.010057 0.040417
#
#
# Mechanical properties :
#
#
# Convention : Reuss Voigt Hill
#
# Bulk Modulus (GPa) = 34.19259 43.07304 38.63281
# Shear Modulus (GPa) = 27.11637 31.41836 29.26736
#
# Velocity S-wave (km/s) = 3.56618 3.83865 3.70492
# Velocity P-wave (km/s) = 5.74397 6.31255 6.03496
#
# Compressibility (1/GPa) = 0.02924611
#
# Stress axis : x y z
#
# Youngs Moduli (GPa) = 81.53067 75.33735 82.79110
#
# Poissons Ratio (x) = 0.19122 0.06034
# Poissons Ratio (y) = 0.20694 0.07607
# Poissons Ratio (z) = 0.05942 0.06922
#
# Static dielectric constant tensor:
#      x y z
#    x 4.604460 -0.047100 -0.056930 
#    y -0.047100 4.250940 -0.242200 
#    z -0.056930 -0.242200 3.499950 
# 
# 
# High freq. dielectric constant tensor:
#      x y z
#    x 1.858370 0.006700 -0.002970 
#    y 0.006700 1.847170 -0.022350 
#    z -0.002970 -0.022350 1.791370 
# 
# From -- ./inp_files/272646.got.cif
#   From: 2010.06.25/outbox.cif.g09.slc.cpg/sg2_137_cif.got.tgz:272646.got - 2010.06.27 13:26:56.
