data_PCOD8005772
_publ_section_title
;
Structure prediction by ZEFSAII (Michael W. Deem and Ramdas Pophale) SiO2 
 PCOD8005772
Probable space group: P -1
;
_chemical_formula_sum "Si O2"
_cell_formula_units_Z 16
_cell_length_a 10.317033
_cell_length_b 7.636979
_cell_length_c 22.003101
_cell_angle_alpha 104.102394
_cell_angle_beta 135.725631
_cell_angle_gamma 43.948502
_cell_volume 695.251283
_symmetry_space_group_name_H-M "P -1"
_symmetry_group_IT_number 2
_symmetry_cell_setting 'triclinic'
loop_
_space_group_symop_operation_xyz
x,y,z
-x,-y,-z
loop_
_atom_site_type_symbol
_atom_site_label
_atom_site_fract_x
_atom_site_fract_y
_atom_site_fract_z
Si Si1 0.960094 0.089468 0.874405
Si Si2 0.272937 0.723880 0.706269
Si Si3 0.249648 0.228043 0.014318
Si Si4 0.128145 0.704688 0.533228
Si Si5 0.987753 0.667942 0.861103
Si Si6 0.176215 0.799618 0.302423
Si Si7 0.087893 0.349141 0.762362
Si Si8 0.711446 0.892642 0.313620
O O1 0.620048 0.393892 0.815782
O O2 0.949454 0.091088 0.798561
O O3 0.203703 0.049797 0.974636
O O4 0.085946 0.797864 0.915802
O O5 0.146865 0.674373 0.610485
O O6 0.306908 0.888456 0.697847
O O7 0.040334 0.911623 0.701152
O O8 0.215458 0.359263 0.949915
O O9 0.000000 0.500000 0.000000
O O10 0.588740 0.998968 0.136620
O O11 0.469226 0.407271 0.592352
O O12 0.894916 0.740659 0.426962
O O13 0.000000 0.000000 0.500000
O O14 0.022541 0.587564 0.794994
O O15 0.628853 0.925205 0.780450
O O16 0.181598 0.584993 0.306450
O O17 0.102859 0.371947 0.696941
#
# Coordination Sequence:
#
# PCOD8005772 Si02
#       8
#     2   2   2   2   2   2   2   2
#     4  11  24  41  64  93 130 166 208 257 310 372
#     4   9  18  38  63  89 127 169 203 263 312 365
#     4  12  23  46  65  91 129 165 208 259 315 371
#     4   9  18  32  62  97 126 161 214 257 313 375
#     4  12  24  41  65  91 129 168 207 260 310 371
#     4  10  20  39  62  92 129 166 209 259 314 369
#     4  11  22  39  65  88 128 168 206 262 313 368
#     4  10  20  39  62  93 126 166 210 258 315 368
#
# _framework density 23.013261
#
# number of rings (size 3 to 8) (size 9 to 14) (size 15 to 20)
#    0.000    1.500    3.750    2.625    0.000    7.500 
#    0.000    2.500    0.000    4.500    0.000    0.000 
#    0.000    0.000    0.000    0.000    0.000    0.000 
#
# Total GULP energy -198405.432075 kJ/mol
# GULP energy per Si atom -12400.339505 kJ/mol
# Density = 2.296088 g / cm^3
# Si number density = 23.013261 Si / 1000 Ang^3
#
#
#
# Elastic Constant Matrix: (Units=GPa)
#
#
# Indices 1 2 3 4 5 6 
#
# 1 51.0954 40.5558 11.3648 10.0580 5.7375 -13.0204
# 2 40.5558 108.4092 -0.1788 18.9940 0.5096 -10.7502
# 3 11.3648 -0.1788 67.2596 18.8226 2.5262 -0.4737
# 4 10.0580 18.9940 18.8226 29.3570 -6.7543 3.5094
# 5 5.7375 0.5096 2.5262 -6.7543 17.0370 5.7968
# 6 -13.0204 -10.7502 -0.4737 3.5094 5.7968 43.1763
#
#
#
# Elastic Compliance Matrix: (Units=1/GPa)
#
#
# Indices 1 2 3 4 5 6 
#
# 1 0.035135 -0.010297 -0.002554 -0.009390 -0.018706 0.011278
# 2 -0.010297 0.014998 0.004634 -0.009861 -0.002181 0.001774
# 3 -0.002554 0.004634 0.020918 -0.018475 -0.010923 0.003581
# 4 -0.009390 -0.009861 -0.018475 0.066116 0.037833 -0.015943
# 5 -0.018706 -0.002181 -0.010923 0.037833 0.088933 -0.021319
# 6 0.011278 0.001774 0.003581 -0.015943 -0.021319 0.031201
#
#
# Mechanical properties :
#
#
# Convention : Reuss Voigt Hill
#
# Bulk Modulus (GPa) = 18.30994 36.69419 27.50207
# Shear Modulus (GPa) = 17.12680 29.58223 23.35451
#
# Velocity S-wave (km/s) = 2.73099 3.58920 3.18909
# Velocity P-wave (km/s) = 4.23296 5.75811 5.05340
#
# Compressibility (1/GPa) = 0.05461513
#
# Stress axis : x y z
#
# Youngs Moduli (GPa) = 28.46167 66.67655 47.80676
#
# Poissons Ratio (x) = 0.68655 0.12212
# Poissons Ratio (y) = 0.29306 -0.22152
# Poissons Ratio (z) = 0.07270 -0.30895
#
# Static dielectric constant tensor:
#      x y z
#    x 3.968650 -0.318580 -0.050610 
#    y -0.318580 4.297460 0.338900 
#    z -0.050610 0.338900 4.562400 
# 
# 
# High freq. dielectric constant tensor:
#      x y z
#    x 1.885240 -0.027010 0.006540 
#    y -0.027010 1.913540 0.013470 
#    z 0.006540 0.013470 1.905450 
# 
# From -- ./inp_files/609850.got.cif
#   From: 2010.06.25/outbox.cif.g09.slc.cpg/sg2_305_cif.got.tgz:609850.got - 2010.06.27 13:26:56.
