data_PCOD8005932
_publ_section_title
;
Structure prediction by ZEFSAII (Michael W. Deem and Ramdas Pophale) SiO2 
 PCOD8005932
Probable space group: P -1
;
_chemical_formula_sum "Si O2"
_cell_formula_units_Z 16
_cell_length_a 27.438976
_cell_length_b 13.206520
_cell_length_c 8.762489
_cell_angle_alpha 120.392004
_cell_angle_beta 47.468248
_cell_angle_gamma 156.533561
_cell_volume 858.345315
_symmetry_space_group_name_H-M "P -1"
_symmetry_group_IT_number 2
_symmetry_cell_setting 'triclinic'
loop_
_space_group_symop_operation_xyz
x,y,z
-x,-y,-z
loop_
_atom_site_type_symbol
_atom_site_label
_atom_site_fract_x
_atom_site_fract_y
_atom_site_fract_z
Si Si1 0.568008 0.667079 0.834403
Si Si2 0.595583 0.239252 0.087255
Si Si3 0.096351 0.612080 0.604935
Si Si4 0.815705 0.980574 0.340999
Si Si5 0.139808 0.499129 0.154746
Si Si6 0.757689 0.139114 0.983757
Si Si7 0.627341 0.959865 0.445524
Si Si8 0.609680 0.516752 0.201928
O O1 0.430469 0.487353 0.876284
O O2 0.679798 0.752213 0.580504
O O3 0.666623 0.938945 0.880994
O O4 0.500000 0.500000 0.000000
O O5 0.481177 0.097847 0.358965
O O6 0.648629 0.441064 0.034984
O O7 0.747684 0.423233 0.972399
O O8 0.500000 0.000000 0.000000
O O9 0.148533 0.826369 0.616925
O O10 0.117567 0.562896 0.377787
O O11 0.917025 0.323089 0.817405
O O12 0.203924 0.738478 0.610971
O O13 0.973187 0.173187 0.218136
O O14 0.759439 0.822731 0.188090
O O15 0.207549 0.670229 0.989548
O O16 0.648725 0.955398 0.223025
O O17 0.541239 0.717935 0.542227
#
# Coordination Sequence:
#
# PCOD8005932 Si02
#       8
#     2   2   2   2   2   2   2   2
#     4  12  22  35  61  86 118 150 186 246 303 346
#     4  10  20  39  64  80 112 166 198 231 282 348
#     4  11  19  37  60  84 123 153 189 236 301 349
#     4  11  20  37  58  86 120 152 191 240 293 346
#     4  11  20  38  62  85 116 164 196 228 288 345
#     4  11  21  35  55  97 118 143 194 247 292 340
#     4  10  21  36  59  87 117 150 193 239 288 340
#     4  10  23  39  57  85 116 155 197 235 290 351
#
# _framework density 18.640516000000002
#
# number of rings (size 3 to 8) (size 9 to 14) (size 15 to 20)
#    0.750    0.500    5.000    3.000    1.750    1.000 
#    0.000    0.000    0.000    0.750    0.000    0.000 
#    0.000    0.000    0.000    0.000    0.000    0.000 
#
# Total GULP energy -198346.029891 kJ/mol
# GULP energy per Si atom -12396.626868 kJ/mol
# Density = 1.859809 g / cm^3
# Si number density = 18.640516 Si / 1000 Ang^3
#
#
#
# Elastic Constant Matrix: (Units=GPa)
#
#
# Indices 1 2 3 4 5 6 
#
# 1 118.0367 47.3970 50.5365 -8.5276 -11.8557 23.1934
# 2 47.3970 121.8779 32.4451 6.5990 -11.0148 33.2566
# 3 50.5365 32.4451 87.4692 -0.6884 -7.5109 8.4498
# 4 -8.5276 6.5990 -0.6884 24.0099 6.4413 -1.3112
# 5 -11.8557 -11.0148 -7.5109 6.4413 33.1727 -7.9186
# 6 23.1934 33.2566 8.4498 -1.3112 -7.9186 32.0763
#
#
#
# Elastic Compliance Matrix: (Units=1/GPa)
#
#
# Indices 1 2 3 4 5 6 
#
# 1 0.013611 -0.002335 -0.006400 0.004890 0.000392 -0.005438
# 2 -0.002335 0.013266 -0.002402 -0.005538 0.001401 -0.011314
# 3 -0.006400 -0.002402 0.015827 -0.001397 0.001551 0.003275
# 4 0.004890 -0.005538 -0.001397 0.047427 -0.009074 0.002272
# 5 0.000392 0.001401 0.001551 -0.009074 0.034284 0.005947
# 6 -0.005438 -0.011314 0.003275 0.002272 0.005947 0.047536
#
#
# Mechanical properties :
#
#
# Convention : Reuss Voigt Hill
#
# Bulk Modulus (GPa) = 48.94809 65.34901 57.14855
# Shear Modulus (GPa) = 24.87123 30.98546 27.92834
#
# Velocity S-wave (km/s) = 3.65671 4.08151 3.87494
# Velocity P-wave (km/s) = 6.64415 7.57266 7.12355
#
# Compressibility (1/GPa) = 0.02042980
#
# Stress axis : x y z
#
# Youngs Moduli (GPa) = 73.47008 75.38090 63.18154
#
# Poissons Ratio (x) = 0.17599 0.40439
# Poissons Ratio (y) = 0.17153 0.15177
# Poissons Ratio (z) = 0.47024 0.18108
#
# Static dielectric constant tensor:
#      x y z
#    x 3.275690 0.240250 -0.138350 
#    y 0.240250 3.665030 -0.102180 
#    z -0.138350 -0.102180 3.318650 
# 
# 
# High freq. dielectric constant tensor:
#      x y z
#    x 1.703660 0.018330 -0.002930 
#    y 0.018330 1.737520 -0.000440 
#    z -0.002930 -0.000440 1.705730 
# 
# From -- ./inp_files/358787.got.cif
#   From: 2010.06.25/outbox.cif.g09.slc.cpg/sg2_180_cif.got.tgz:358787.got - 2010.06.27 13:26:56.
