data_PCOD8005439
_publ_section_title
;
Structure prediction by ZEFSAII (Michael W. Deem and Ramdas Pophale) SiO2 
 PCOD8005439
Probable space group: P -1
;
_chemical_formula_sum "Si O2"
_cell_formula_units_Z 14
_cell_length_a 9.275529
_cell_length_b 12.078243
_cell_length_c 9.229478
_cell_angle_alpha 123.108567
_cell_angle_beta 131.145661
_cell_angle_gamma 78.658132
_cell_volume 630.137029
_symmetry_space_group_name_H-M "P -1"
_symmetry_group_IT_number 2
_symmetry_cell_setting 'triclinic'
loop_
_space_group_symop_operation_xyz
x,y,z
-x,-y,-z
loop_
_atom_site_type_symbol
_atom_site_label
_atom_site_fract_x
_atom_site_fract_y
_atom_site_fract_z
Si Si1 0.755121 0.700825 0.061087
Si Si2 0.633952 0.642797 0.242777
Si Si3 0.691027 0.194088 0.874730
Si Si4 0.805378 0.170995 0.629185
Si Si5 0.084607 0.414306 0.380102
Si Si6 0.444953 0.067967 0.872632
Si Si7 0.207330 0.541236 0.248623
O O1 0.793376 0.687005 0.248581
O O2 0.594749 0.788581 0.002719
O O3 0.957923 0.778026 0.173438
O O4 0.665935 0.552858 0.815719
O O5 0.490096 0.740802 0.232736
O O6 0.749463 0.644376 0.471285
O O7 0.500000 0.500000 0.000000
O O8 0.725228 0.116515 0.696156
O O9 0.627014 0.092697 0.896091
O O10 0.900951 0.298424 0.118756
O O11 0.708458 0.294988 0.601990
O O12 0.747971 0.038657 0.395175
O O13 0.188133 0.508426 0.382683
O O14 0.000000 0.500000 0.500000
O O15 0.500000 0.000000 0.000000
O O16 0.000000 0.500000 0.000000
#
# Coordination Sequence:
#
# PCOD8005439 Si02
#       7
#     2   2   2   2   2   2   2
#     4  10  22  44  68  96 134 177 222 283 344 398
#     4  11  23  38  64 101 137 174 225 280 340 404
#     4  11  24  45  66  95 138 178 230 281 337 407
#     4  11  22  45  69  93 141 182 216 280 350 395
#     4  12  22  38  71 100 136 181 222 280 350 398
#     4  11  27  43  67  98 136 180 230 280 336 410
#     4  10  20  38  70 102 131 171 221 284 337 399
#
# _framework density 22.217390999999999
#
# number of rings (size 3 to 8) (size 9 to 14) (size 15 to 20)
#    0.000    1.143    4.286    3.429    4.000    1.143 
#    0.000    2.857    0.000    0.000    0.000    0.000 
#    0.000    0.000    0.000    0.000    0.000    0.000 
#
# Total GULP energy -173539.967784 kJ/mol
# GULP energy per Si atom -12395.711985 kJ/mol
# Density = 2.216682 g / cm^3
# Si number density = 22.217391 Si / 1000 Ang^3
#
#
#
# Elastic Constant Matrix: (Units=GPa)
#
#
# Indices 1 2 3 4 5 6 
#
# 1 119.0021 39.4108 24.5287 -20.8803 -16.6783 18.6117
# 2 39.4108 100.7015 21.6783 -18.3657 -14.6220 16.1778
# 3 24.5287 21.6783 58.5291 -15.3887 -12.5332 -6.0738
# 4 -20.8803 -18.3657 -15.3887 43.0595 6.8659 -13.1257
# 5 -16.6783 -14.6220 -12.5332 6.8659 35.6125 0.3758
# 6 18.6117 16.1778 -6.0738 -13.1257 0.3758 39.7341
#
#
#
# Elastic Compliance Matrix: (Units=1/GPa)
#
#
# Indices 1 2 3 4 5 6 
#
# 1 0.011182 -0.002278 -0.003279 0.001490 0.002906 -0.004347
# 2 -0.002278 0.012882 -0.003254 0.001492 0.002834 -0.004209
# 3 -0.003279 -0.003254 0.023365 0.007465 0.003818 0.008863
# 4 0.001490 0.001492 0.007465 0.030620 -0.002071 0.009970
# 5 0.002906 0.002834 0.003818 -0.002071 0.032378 -0.002922
# 6 -0.004347 -0.004209 0.008863 0.009970 -0.002922 0.033593
#
#
# Mechanical properties :
#
#
# Convention : Reuss Voigt Hill
#
# Bulk Modulus (GPa) = 33.55082 49.94092 41.74587
# Shear Modulus (GPa) = 29.14083 36.52221 32.83152
#
# Velocity S-wave (km/s) = 3.62556 4.05885 3.84831
# Velocity P-wave (km/s) = 5.71491 6.67029 6.21100
#
# Compressibility (1/GPa) = 0.02980553
#
# Stress axis : x y z
#
# Youngs Moduli (GPa) = 89.42720 77.62565 42.79861
#
# Poissons Ratio (x) = 0.17685 0.14036
# Poissons Ratio (y) = 0.20374 0.13928
# Poissons Ratio (z) = 0.29327 0.25263
#
# Static dielectric constant tensor:
#      x y z
#    x 4.529620 0.141270 -0.736620 
#    y 0.141270 4.464930 -0.067260 
#    z -0.736620 -0.067260 5.227050 
# 
# 
# High freq. dielectric constant tensor:
#      x y z
#    x 1.889740 0.012960 -0.016210 
#    y 0.012960 1.868990 0.001520 
#    z -0.016210 0.001520 1.861050 
# 
# From -- ./inp_files/179797.got.cif
#   From: 2010.06.25/outbox.cif.g09.slc.cpg/sg2_90_cif.got.tgz:179797.got - 2010.06.27 13:26:56.
