data_PCOD8005270
_publ_section_title
;
Structure prediction by ZEFSAII (Michael W. Deem and Ramdas Pophale) SiO2 
 PCOD8005270
Probable space group: P -1
;
_chemical_formula_sum "Si O2"
_cell_formula_units_Z 14
_cell_length_a 13.409681
_cell_length_b 8.550596
_cell_length_c 9.584958
_cell_angle_alpha 48.015355
_cell_angle_beta 109.375214
_cell_angle_gamma 125.222932
_cell_volume 664.709366
_symmetry_space_group_name_H-M "P -1"
_symmetry_group_IT_number 2
_symmetry_cell_setting 'triclinic'
loop_
_space_group_symop_operation_xyz
x,y,z
-x,-y,-z
loop_
_atom_site_type_symbol
_atom_site_label
_atom_site_fract_x
_atom_site_fract_y
_atom_site_fract_z
Si Si1 0.888776 0.750575 0.541621
Si Si2 0.690589 0.071190 0.195397
Si Si3 0.872916 0.778051 0.022815
Si Si4 0.278558 0.294375 0.745175
Si Si5 0.523309 0.660627 0.549586
Si Si6 0.052456 0.588641 0.816132
Si Si7 0.717223 0.580943 0.813548
O O1 0.845209 0.762212 0.359780
O O2 0.768340 0.638613 0.646955
O O3 0.944657 0.572216 0.680123
O O4 0.000000 0.000000 0.500000
O O5 0.826720 0.143729 0.270327
O O6 0.671467 0.888571 0.166147
O O7 0.594866 0.938857 0.358069
O O8 0.681872 0.305215 0.003740
O O9 0.761281 0.735446 0.095466
O O10 0.897978 0.557361 0.159817
O O11 0.821766 0.786978 0.839891
O O12 0.000000 0.000000 0.000000
O O13 0.389685 0.574305 0.606155
O O14 0.500000 0.500000 0.500000
O O15 0.598345 0.610062 0.734679
O O16 0.000000 0.500000 0.000000
#
# Coordination Sequence:
#
# PCOD8005270 Si02
#       7
#     2   2   2   2   2   2   2
#     4  12  20  36  66  90 120 165 205 258 314 366
#     4  10  20  38  66  90 120 166 215 257 300 373
#     4  11  24  39  61  96 129 159 202 266 320 372
#     4  11  23  39  61  93 131 157 206 266 313 360
#     4  10  21  41  62  94 124 162 215 262 298 368
#     4  11  20  37  63  90 118 160 216 249 307 384
#     4  11  22  40  67  90 120 171 217 244 314 376
#
# _framework density 21.061837000000001
#
# number of rings (size 3 to 8) (size 9 to 14) (size 15 to 20)
#    0.000    1.143    7.143    1.714    0.000    3.429 
#    0.000    4.286    0.000    0.000    0.000    0.000 
#    0.000    0.000    0.000    0.000    0.000    0.000 
#
# Total GULP energy -173452.098891 kJ/mol
# GULP energy per Si atom -12389.435635 kJ/mol
# Density = 2.101390 g / cm^3
# Si number density = 21.061837 Si / 1000 Ang^3
#
#
#
# Elastic Constant Matrix: (Units=GPa)
#
#
# Indices 1 2 3 4 5 6 
#
# 1 75.8088 23.8090 14.6494 -6.1973 -12.3094 5.4361
# 2 23.8090 77.1194 21.6857 -3.5589 -4.4041 11.6345
# 3 14.6494 21.6857 71.6482 -8.9587 0.2527 1.4023
# 4 -6.1973 -3.5589 -8.9587 34.2632 16.6658 -4.3759
# 5 -12.3094 -4.4041 0.2527 16.6658 43.6213 1.5420
# 6 5.4361 11.6345 1.4023 -4.3759 1.5420 36.4573
#
#
#
# Elastic Compliance Matrix: (Units=1/GPa)
#
#
# Indices 1 2 3 4 5 6 
#
# 1 0.015523 -0.003805 -0.002051 -0.000310 0.004170 -0.001235
# 2 -0.003805 0.016009 -0.004143 -0.001289 0.001221 -0.004589
# 3 -0.002051 -0.004143 0.016258 0.005202 -0.003141 0.001760
# 4 -0.000310 -0.001289 0.005202 0.038413 -0.015118 0.005508
# 5 0.004170 0.001221 -0.003141 -0.015118 0.030160 -0.003981
# 6 -0.001235 -0.004589 0.001760 0.005508 -0.003981 0.029840
#
#
# Mechanical properties :
#
#
# Convention : Reuss Voigt Hill
#
# Bulk Modulus (GPa) = 35.98408 38.31828 37.15118
# Shear Modulus (GPa) = 28.49566 33.83051 31.16309
#
# Velocity S-wave (km/s) = 3.68224 4.01215 3.85073
# Velocity P-wave (km/s) = 5.93301 6.30046 6.11949
#
# Compressibility (1/GPa) = 0.02779007
#
# Stress axis : x y z
#
# Youngs Moduli (GPa) = 64.42062 62.46379 61.50970
#
# Poissons Ratio (x) = 0.23770 0.12618
# Poissons Ratio (y) = 0.24515 0.25484
# Poissons Ratio (z) = 0.13215 0.25879
#
# Static dielectric constant tensor:
#      x y z
#    x 4.260400 0.270340 -0.122280 
#    y 0.270340 4.792270 0.127690 
#    z -0.122280 0.127690 4.075300 
# 
# 
# High freq. dielectric constant tensor:
#      x y z
#    x 1.822650 0.027230 -0.002460 
#    y 0.027230 1.816730 -0.005650 
#    z -0.002460 -0.005650 1.818540 
# 
# From -- ./inp_files/179612.got.cif
#   From: 2010.06.25/outbox.cif.g09.slc.cpg/sg2_90_cif.got.tgz:179612.got - 2010.06.27 13:26:56.
