data_PCOD8005243
_publ_section_title
;
Structure prediction by ZEFSAII (Michael W. Deem and Ramdas Pophale) SiO2 
 PCOD8005243
Probable space group: P -1
;
_chemical_formula_sum "Si O2"
_cell_formula_units_Z 14
_cell_length_a 18.283699
_cell_length_b 8.375953
_cell_length_c 8.722107
_cell_angle_alpha 146.842778
_cell_angle_beta 74.421998
_cell_angle_gamma 118.955192
_cell_volume 612.590334
_symmetry_space_group_name_H-M "P -1"
_symmetry_group_IT_number 2
_symmetry_cell_setting 'triclinic'
loop_
_space_group_symop_operation_xyz
x,y,z
-x,-y,-z
loop_
_atom_site_type_symbol
_atom_site_label
_atom_site_fract_x
_atom_site_fract_y
_atom_site_fract_z
Si Si1 0.391976 0.902467 0.309909
Si Si2 0.175097 0.063911 0.075993
Si Si3 0.443783 0.112670 0.775087
Si Si4 0.719919 0.287998 0.273854
Si Si5 0.016004 0.254117 0.059958
Si Si6 0.702722 0.687286 0.326811
Si Si7 0.871300 0.009622 0.311419
O O1 0.492325 0.020117 0.300756
O O2 0.388638 0.881613 0.478462
O O3 0.356076 0.142988 0.461957
O O4 0.332747 0.532310 0.982465
O O5 0.223850 0.868874 0.952902
O O6 0.080029 0.871543 0.057882
O O7 0.170341 0.045697 0.879097
O O8 0.226991 0.451065 0.410388
O O9 0.370705 0.034776 0.880587
O O10 0.500000 0.500000 0.000000
O O11 0.697306 0.470409 0.300559
O O12 0.052412 0.614792 0.404525
O O13 0.000000 0.000000 0.000000
O O14 0.084235 0.227891 0.883306
O O15 0.801935 0.947901 0.434993
#
# Coordination Sequence:
#
# PCOD8005243 Si02
#       7
#     2   2   2   2   2   2   2
#     4  11  24  44  69  91 131 162 220 257 322 374
#     4  11  22  42  65  95 126 170 218 263 314 369
#     4  11  25  46  70  99 122 164 220 269 317 373
#     4  12  27  41  65  94 136 168 213 260 318 387
#     4  10  20  38  65  99 122 163 218 272 309 363
#     4  12  25  44  62  99 132 175 206 255 326 383
#     4  11  21  39  69  92 130 164 218 265 314 372
#
# _framework density 22.853771999999999
#
# number of rings (size 3 to 8) (size 9 to 14) (size 15 to 20)
#    0.000    0.857    1.429    7.714    4.000    1.143 
#    0.000    4.286    0.000    0.000    0.000    0.000 
#    0.000    0.000    0.000    0.000    0.000    0.000 
#
# Total GULP energy -173547.047350 kJ/mol
# GULP energy per Si atom -12396.217668 kJ/mol
# Density = 2.280176 g / cm^3
# Si number density = 22.853772 Si / 1000 Ang^3
#
#
#
# Elastic Constant Matrix: (Units=GPa)
#
#
# Indices 1 2 3 4 5 6 
#
# 1 143.5404 39.5869 -5.3872 -1.7211 -29.7514 28.8650
# 2 39.5869 71.9858 2.5571 9.4669 10.8266 16.5400
# 3 -5.3872 2.5571 56.1432 5.6429 -4.3820 26.8282
# 4 -1.7211 9.4669 5.6429 19.5521 3.5132 1.4012
# 5 -29.7514 10.8266 -4.3820 3.5132 43.7735 4.1235
# 6 28.8650 16.5400 26.8282 1.4012 4.1235 12.7444
#
#
#
# Elastic Compliance Matrix: (Units=1/GPa)
#
#
# Indices 1 2 3 4 5 6 
#
# 1 0.004226 -0.008483 -0.011445 0.005835 0.001044 0.024550
# 2 -0.008483 0.021034 -0.002422 -0.008415 -0.010666 0.001388
# 3 -0.011445 -0.002422 -0.006417 0.000893 -0.012269 0.046444
# 4 0.005835 -0.008415 0.000893 0.055790 0.002713 -0.011187
# 5 0.001044 -0.010666 -0.012269 0.002713 0.021929 0.029912
# 6 0.024550 0.001388 0.046444 -0.011187 0.029912 -0.085156
#
#
# Mechanical properties :
#
#
# Convention : Reuss Voigt Hill
#
# Bulk Modulus (GPa) = -38.67777 38.35364 -0.16206
# Shear Modulus (GPa) = 105.29390 30.87483 68.08436
#
# Velocity S-wave (km/s) = 6.79506 3.67955 5.46406
# Velocity P-wave (km/s) = 6.67856 5.90514 6.30372
#
# Compressibility (1/GPa) = -0.02585465
#
# Stress axis : x y z
#
# Youngs Moduli (GPa) = 236.63220 47.54132 -155.84070
#
# Poissons Ratio (x) = 0.40327 -1.78353
# Poissons Ratio (y) = 2.00726 -0.37743
# Poissons Ratio (z) = 2.70815 0.11514
#
# Static dielectric constant tensor:
#      x y z
#    x 5.354730 0.529510 -0.243800 
#    y 0.529510 3.661940 -0.047440 
#    z -0.243800 -0.047440 4.296820 
# 
# 
# High freq. dielectric constant tensor:
#      x y z
#    x 1.925000 0.021120 -0.008440 
#    y 0.021120 1.863100 0.007620 
#    z -0.008440 0.007620 1.913710 
# 
# From -- ./inp_files/329715.got.cif
#   From: 2010.06.25/outbox.cif.g09.slc.cpg/sg2_165_cif.got.tgz:329715.got - 2010.06.27 13:26:56.
