data_PCOD8005124
_publ_section_title
;
Structure prediction by ZEFSAII (Michael W. Deem and Ramdas Pophale) SiO2 
 PCOD8005124
Probable space group: P -1
;
_chemical_formula_sum "Si O2"
_cell_formula_units_Z 12
_cell_length_a 27.441503
_cell_length_b 27.453911
_cell_length_c 8.047107
_cell_angle_alpha 28.382168
_cell_angle_beta 151.387205
_cell_angle_gamma 169.883876
_cell_volume 501.128922
_symmetry_space_group_name_H-M "P -1"
_symmetry_group_IT_number 2
_symmetry_cell_setting 'triclinic'
loop_
_space_group_symop_operation_xyz
x,y,z
-x,-y,-z
loop_
_atom_site_type_symbol
_atom_site_label
_atom_site_fract_x
_atom_site_fract_y
_atom_site_fract_z
Si Si1 0.913333 0.871707 0.450868
Si Si2 0.192331 0.567521 0.666807
Si Si3 0.246183 0.066639 0.285292
Si Si4 0.776473 0.471977 0.759371
Si Si5 0.550750 0.725895 0.103567
Si Si6 0.626369 0.121274 0.197159
O O1 0.625147 0.542045 0.595798
O O2 0.160538 0.024880 0.676421
O O3 0.000000 0.000000 0.500000
O O4 0.870043 0.929063 0.027539
O O5 0.906889 0.315099 0.466116
O O6 0.378768 0.846213 0.400951
O O7 0.106039 0.453460 0.935530
O O8 0.387480 0.669225 0.854326
O O9 0.490084 0.267303 0.544111
O O10 0.384323 0.193210 0.136979
O O11 0.001982 0.753964 0.496629
O O12 0.707394 0.311779 0.915860
O O13 0.500000 0.000000 0.000000
#
# Coordination Sequence:
#
# PCOD8005124 Si02
#       6
#     2   2   2   2   2   2
#     4  10  20  38  64  96 129 170 220 273 318 372
#     4  12  26  46  67  98 136 172 213 273 336 390
#     4  11  22  41  67  97 130 176 224 266 319 393
#     4  12  25  44  67  98 136 176 213 268 336 394
#     4  11  22  40  66  96 129 172 222 272 318 379
#     4  12  26  45  70  99 128 172 224 272 321 392
#
# _framework density 23.945931999999999
#
# number of rings (size 3 to 8) (size 9 to 14) (size 15 to 20)
#    0.000    0.667    0.000   10.500    0.000    4.000 
#    0.000    5.000    0.000    0.000    0.000    0.000 
#    0.000    0.000    0.000    0.000    0.000    0.000 
#
# Total GULP energy -148818.364398 kJ/mol
# GULP energy per Si atom -12401.530367 kJ/mol
# Density = 2.389143 g / cm^3
# Si number density = 23.945932 Si / 1000 Ang^3
#
#
#
# Elastic Constant Matrix: (Units=GPa)
#
#
# Indices 1 2 3 4 5 6 
#
# 1 55.6027 35.2915 41.1343 9.4098 -4.1983 2.0174
# 2 35.2915 165.8691 78.2243 5.5630 -9.0187 4.7423
# 3 41.1343 78.2243 160.0135 9.6943 -8.7540 0.1636
# 4 9.4098 5.5630 9.6943 71.5391 5.2493 -0.6373
# 5 -4.1983 -9.0187 -8.7540 5.2493 16.5249 2.7943
# 6 2.0174 4.7423 0.1636 -0.6373 2.7943 25.7511
#
#
#
# Elastic Compliance Matrix: (Units=1/GPa)
#
#
# Indices 1 2 3 4 5 6 
#
# 1 0.023707 -0.002615 -0.004476 -0.002569 0.003341 -0.001773
# 2 -0.002615 0.008294 -0.003245 -0.000053 0.002425 -0.001566
# 3 -0.004476 -0.003245 0.009127 -0.000535 0.001985 0.000662
# 4 -0.002569 -0.000053 -0.000535 0.014836 -0.005884 0.001220
# 5 0.003341 0.002425 0.001985 -0.005884 0.066984 -0.008135
# 6 -0.001773 -0.001566 0.000662 0.001220 -0.008135 0.040169
#
#
# Mechanical properties :
#
#
# Convention : Reuss Voigt Hill
#
# Bulk Modulus (GPa) = 48.88381 76.75395 62.81888
# Shear Modulus (GPa) = 26.23214 37.88537 32.05876
#
# Velocity S-wave (km/s) = 3.31338 3.98190 3.66293
# Velocity P-wave (km/s) = 5.92424 7.29817 6.64680
#
# Compressibility (1/GPa) = 0.02045667
#
# Stress axis : x y z
#
# Youngs Moduli (GPa) = 42.18185 120.57036 109.56839
#
# Poissons Ratio (x) = 0.31526 0.49040
# Poissons Ratio (y) = 0.11029 0.35554
# Poissons Ratio (z) = 0.18880 0.39124
#
# Static dielectric constant tensor:
#      x y z
#    x 3.784810 0.126020 0.133590 
#    y 0.126020 4.933010 0.305670 
#    z 0.133590 0.305670 5.444380 
# 
# 
# High freq. dielectric constant tensor:
#      x y z
#    x 1.908210 0.006330 0.005000 
#    y 0.006330 1.976900 0.003970 
#    z 0.005000 0.003970 1.981060 
# 
# From -- ./inp_files/312862.got.cif
#   From: 2010.06.25/outbox.cif.g09.slc.cpg/sg2_157_cif.got.tgz:312862.got - 2010.06.27 13:26:56.
