data_PCOD8005230
_publ_section_title
;
Structure prediction by ZEFSAII (Michael W. Deem and Ramdas Pophale) SiO2 
 PCOD8005230
Probable space group: P -1
;
_chemical_formula_sum "Si O2"
_cell_formula_units_Z 16
_cell_length_a 11.965276
_cell_length_b 12.804768
_cell_length_c 7.959231
_cell_angle_alpha 48.668047
_cell_angle_beta 110.987680
_cell_angle_gamma 84.555635
_cell_volume 753.375400
_symmetry_space_group_name_H-M "P -1"
_symmetry_group_IT_number 2
_symmetry_cell_setting 'triclinic'
loop_
_space_group_symop_operation_xyz
x,y,z
-x,-y,-z
loop_
_atom_site_type_symbol
_atom_site_label
_atom_site_fract_x
_atom_site_fract_y
_atom_site_fract_z
Si Si1 0.641446 0.369363 0.782553
Si Si2 0.058990 0.360676 0.312717
Si Si3 0.477042 0.826236 0.159750
Si Si4 0.789980 0.415977 0.267456
Si Si5 0.334186 0.775599 0.714012
Si Si6 0.414297 0.261740 0.315684
Si Si7 0.748342 0.556199 0.463779
Si Si8 0.710455 0.928103 0.438105
O O1 0.500000 0.500000 0.500000
O O2 0.653669 0.206616 0.888945
O O3 0.757624 0.411605 0.738167
O O4 0.634952 0.362446 0.987563
O O5 0.139949 0.397605 0.461398
O O6 0.153008 0.198337 0.441185
O O7 0.942630 0.336399 0.366914
O O8 0.000000 0.500000 0.000000
O O9 0.523982 0.794481 0.408224
O O10 0.600056 0.709307 0.229086
O O11 0.408663 0.000614 0.850589
O O12 0.748973 0.273184 0.413533
O O13 0.778813 0.497709 0.352548
O O14 0.694806 0.554561 0.939661
O O15 0.470073 0.768969 0.722926
O O16 0.255379 0.946809 0.578567
O O17 0.338539 0.155658 0.356369
#
# Coordination Sequence:
#
# PCOD8005230 Si02
#       8
#     2   2   2   2   2   2   2   2
#     4   9  17  34  58  90 127 160 197 257 316 370
#     4  12  24  45  66  90 126 174 219 254 312 385
#     4  10  20  38  65  96 130 164 210 266 325 368
#     4  12  24  41  65  96 129 172 214 259 307 387
#     4  11  24  39  64  99 129 161 213 268 324 369
#     4  12  21  40  68  99 130 165 212 266 320 378
#     4  11  22  40  66  96 128 165 217 263 314 374
#     4  11  24  42  64  97 129 170 206 265 325 375
#
# _framework density 21.237752
#
# number of rings (size 3 to 8) (size 9 to 14) (size 15 to 20)
#    0.000    1.000    2.500    6.750    0.000    0.500 
#    0.000    0.000    0.000    4.500    0.000    0.000 
#    0.000    0.000    0.000    0.000    0.000    0.000 
#
# Total GULP energy -198240.167816 kJ/mol
# GULP energy per Si atom -12390.010488 kJ/mol
# Density = 2.118941 g / cm^3
# Si number density = 21.237752 Si / 1000 Ang^3
#
#
#
# Elastic Constant Matrix: (Units=GPa)
#
#
# Indices 1 2 3 4 5 6 
#
# 1 106.6713 33.8141 37.7673 -17.9595 -5.4819 -14.6837
# 2 33.8141 117.3683 51.4182 -9.1632 6.4491 -2.2672
# 3 37.7673 51.4182 80.5098 -18.4412 -4.4886 -6.1575
# 4 -17.9595 -9.1632 -18.4412 17.4539 -4.8595 6.1658
# 5 -5.4819 6.4491 -4.4886 -4.8595 30.3500 1.2033
# 6 -14.6837 -2.2672 -6.1575 6.1658 1.2033 33.1574
#
#
#
# Elastic Compliance Matrix: (Units=1/GPa)
#
#
# Indices 1 2 3 4 5 6 
#
# 1 0.013177 -0.002355 -0.001812 0.010416 0.004151 0.003250
# 2 -0.002355 0.012919 -0.008979 -0.006520 -0.005526 -0.000414
# 3 -0.001812 -0.008979 0.024483 0.022208 0.008810 -0.001319
# 4 0.010416 -0.006520 0.022208 0.098184 0.022700 -0.010791
# 5 0.004151 -0.005526 0.008810 0.022700 0.039913 -0.002573
# 6 0.003250 -0.000414 -0.001319 -0.010791 -0.002573 0.033425
#
#
# Mechanical properties :
#
#
# Convention : Reuss Voigt Hill
#
# Bulk Modulus (GPa) = 41.17449 61.17206 51.17328
# Shear Modulus (GPa) = 19.49410 28.29560 23.89485
#
# Velocity S-wave (km/s) = 3.03297 3.65406 3.35791
# Velocity P-wave (km/s) = 5.62981 6.83146 6.25954
#
# Compressibility (1/GPa) = 0.02428688
#
# Stress axis : x y z
#
# Youngs Moduli (GPa) = 75.89079 77.40515 40.84535
#
# Poissons Ratio (x) = 0.18227 0.07399
# Poissons Ratio (y) = 0.17871 0.36677
# Poissons Ratio (z) = 0.13748 0.69506
#
# Static dielectric constant tensor:
#      x y z
#    x 4.539870 0.694400 -0.537320 
#    y 0.694400 4.350860 -0.399140 
#    z -0.537320 -0.399140 4.124610 
# 
# 
# High freq. dielectric constant tensor:
#      x y z
#    x 1.834480 0.020220 -0.022340 
#    y 0.020220 1.843020 0.003880 
#    z -0.022340 0.003880 1.816620 
# 
# From -- ./inp_files/269631.got.cif
#   From: 2010.06.25/outbox.cif.g09.slc.cpg/sg2_135_cif.got.tgz:269631.got - 2010.06.27 13:26:56.
