data_PCOD8005258
_publ_section_title
;
Structure prediction by ZEFSAII (Michael W. Deem and Ramdas Pophale) SiO2 
 PCOD8005258
Probable space group: P -1
;
_chemical_formula_sum "Si O2"
_cell_formula_units_Z 16
_cell_length_a 13.533957
_cell_length_b 12.926754
_cell_length_c 6.851123
_cell_angle_alpha 144.858953
_cell_angle_beta 70.895754
_cell_angle_gamma 115.272772
_cell_volume 623.323627
_symmetry_space_group_name_H-M "P -1"
_symmetry_group_IT_number 2
_symmetry_cell_setting 'triclinic'
loop_
_space_group_symop_operation_xyz
x,y,z
-x,-y,-z
loop_
_atom_site_type_symbol
_atom_site_label
_atom_site_fract_x
_atom_site_fract_y
_atom_site_fract_z
Si Si1 0.004956 0.201141 0.511340
Si Si2 0.781418 0.900808 0.734533
Si Si3 0.738361 0.306994 0.904401
Si Si4 0.641826 0.535628 0.785611
Si Si5 0.951166 0.455887 0.241900
Si Si6 0.204543 0.684065 0.546450
Si Si7 0.781307 0.937570 0.340252
Si Si8 0.406526 0.454439 0.714436
O O1 0.113429 0.143595 0.310824
O O2 0.988954 0.334046 0.548349
O O3 0.898517 0.020584 0.287525
O O4 0.007415 0.305166 0.881591
O O5 0.804116 0.913149 0.511669
O O6 0.670367 0.742653 0.622040
O O7 0.768070 0.092968 0.123007
O O8 0.794021 0.387186 0.784637
O O9 0.706986 0.080168 0.583807
O O10 0.827137 0.396583 0.148269
O O11 0.630986 0.377103 0.103401
O O12 0.703121 0.375554 0.480131
O O13 0.535197 0.483844 0.632097
O O14 0.720411 0.737774 0.974549
O O15 0.606067 0.549710 0.051417
O O16 0.918279 0.426479 0.455750
#
# Coordination Sequence:
#
# PCOD8005258 Si02
#       8
#     2   2   2   2   2   2   2   2
#     4  10  20  38  66  88 124 173 202 248 319 371
#     4  11  20  37  67  91 124 167 208 252 313 369
#     4  10  20  41  64  92 126 163 207 257 314 368
#     4   9  21  40  61  93 125 162 211 255 314 367
#     4  10  21  41  63  90 129 165 203 259 312 370
#     4  11  23  39  64  94 128 161 211 263 301 374
#     4  10  21  39  63  87 127 167 204 252 310 374
#     4   9  19  39  67  87 124 169 201 260 314 371
#
# _framework density 25.668849000000002
#
# number of rings (size 3 to 8) (size 9 to 14) (size 15 to 20)
#    0.000    2.000    3.750    0.375    0.000    2.000 
#    0.000   13.750    0.000    0.000    0.000    0.000 
#    0.000    0.000    0.000    0.000    0.000    0.000 
#
# Total GULP energy -198416.000584 kJ/mol
# GULP energy per Si atom -12401.000036 kJ/mol
# Density = 2.561043 g / cm^3
# Si number density = 25.668849 Si / 1000 Ang^3
#
#
#
# Elastic Constant Matrix: (Units=GPa)
#
#
# Indices 1 2 3 4 5 6 
#
# 1 142.2105 41.0323 53.6936 29.1602 -34.6986 30.9842
# 2 41.0323 84.7541 40.1761 15.1225 5.6620 10.2364
# 3 53.6936 40.1761 110.4828 27.6010 -25.9901 21.2478
# 4 29.1602 15.1225 27.6010 51.4740 -8.8999 11.4820
# 5 -34.6986 5.6620 -25.9901 -8.8999 27.9827 2.3948
# 6 30.9842 10.2364 21.2478 11.4820 2.3948 46.9254
#
#
#
# Elastic Compliance Matrix: (Units=1/GPa)
#
#
# Indices 1 2 3 4 5 6 
#
# 1 0.020441 -0.013022 0.006196 -0.001831 0.034418 -0.014770
# 2 -0.013022 0.025439 -0.012762 -0.001697 -0.034630 0.011010
# 3 0.006196 -0.012762 0.020550 -0.003185 0.029308 -0.011328
# 4 -0.001831 -0.001697 -0.003185 0.023842 0.002951 -0.002963
# 5 0.034418 -0.034630 0.029308 0.002951 0.116587 -0.035114
# 6 -0.014770 0.011010 -0.011328 -0.002963 -0.035114 0.036308
#
#
# Mechanical properties :
#
#
# Convention : Reuss Voigt Hill
#
# Bulk Modulus (GPa) = 36.69259 67.47238 52.08248
# Shear Modulus (GPa) = 17.15689 38.77943 27.96816
#
# Velocity S-wave (km/s) = 2.58814 3.89106 3.30445
# Velocity P-wave (km/s) = 4.82254 6.82129 5.90707
#
# Compressibility (1/GPa) = 0.02725346
#
# Stress axis : x y z
#
# Youngs Moduli (GPa) = 48.92094 39.30926 48.66244
#
# Poissons Ratio (x) = 0.51188 -0.30149
# Poissons Ratio (y) = 0.63704 0.62103
# Poissons Ratio (z) = -0.30310 0.50167
#
# Static dielectric constant tensor:
#      x y z
#    x 4.963780 -0.193970 0.006030 
#    y -0.193970 4.950760 0.093350 
#    z 0.006030 0.093350 4.610660 
# 
# 
# High freq. dielectric constant tensor:
#      x y z
#    x 2.038820 -0.019260 0.001230 
#    y -0.019260 2.044010 -0.009140 
#    z 0.001230 -0.009140 2.019090 
# 
# From -- ./inp_files/299509.got.cif
#   From: 2010.06.25/outbox.cif.g09.slc.cpg/sg2_150_cif.got.tgz:299509.got - 2010.06.27 13:26:56.
