data_PCOD8005398
_publ_section_title
;
Structure prediction by ZEFSAII (Michael W. Deem and Ramdas Pophale) SiO2 
 PCOD8005398
Probable space group: P -1
;
_chemical_formula_sum "Si O2"
_cell_formula_units_Z 16
_cell_length_a 9.322419
_cell_length_b 15.294805
_cell_length_c 15.287727
_cell_angle_alpha 136.659647
_cell_angle_beta 143.976309
_cell_angle_gamma 35.183875
_cell_volume 724.416162
_symmetry_space_group_name_H-M "P -1"
_symmetry_group_IT_number 2
_symmetry_cell_setting 'triclinic'
loop_
_space_group_symop_operation_xyz
x,y,z
-x,-y,-z
loop_
_atom_site_type_symbol
_atom_site_label
_atom_site_fract_x
_atom_site_fract_y
_atom_site_fract_z
Si Si1 0.415001 0.752549 0.858857
Si Si2 0.666078 0.199430 0.345433
Si Si3 0.662618 0.023316 0.475498
Si Si4 0.285027 0.089342 0.879795
Si Si5 0.839923 0.020314 0.844193
Si Si6 0.716586 0.462003 0.284161
Si Si7 0.657920 0.675501 0.557674
Si Si8 0.324968 0.778865 0.239729
O O1 0.463563 0.723111 0.757169
O O2 0.472507 0.609999 0.842416
O O3 0.072073 0.890777 0.797363
O O4 0.624883 0.801519 0.039176
O O5 0.436050 0.334063 0.396955
O O6 0.663015 0.048118 0.256494
O O7 0.010610 0.137130 0.482174
O O8 0.444648 0.985651 0.297037
O O9 0.626041 0.163719 0.502269
O O10 0.586439 0.104806 0.594461
O O11 0.950593 0.195384 0.824149
O O12 0.500000 0.000000 0.000000
O O13 0.740366 0.183709 0.868643
O O14 0.000000 0.000000 0.000000
O O15 0.730761 0.525002 0.431731
O O16 0.576932 0.597826 0.242328
O O17 0.041006 0.329167 0.308564
#
# Coordination Sequence:
#
# PCOD8005398 Si02
#       8
#     2   2   2   2   2   2   2   2
#     4  11  22  40  63  96 131 174 205 264 327 385
#     4  10  21  37  69  97 124 163 225 270 319 363
#     4  10  20  38  68  96 124 158 223 276 312 368
#     4   9  18  36  65  90 124 160 208 266 317 362
#     4  12  24  38  66 100 128 164 218 271 319 377
#     4  10  23  40  61  90 135 174 210 251 331 389
#     4  10  21  38  61  95 133 168 207 270 321 382
#     4  10  21  42  66  93 124 173 215 262 320 380
#
# _framework density 22.086751
#
# number of rings (size 3 to 8) (size 9 to 14) (size 15 to 20)
#    0.000    1.750    5.000    0.750    1.750    1.000 
#    0.000    0.625    0.000    0.000    0.000    0.000 
#    0.000    0.000    0.000    0.000    0.000    0.000 
#
# Total GULP energy -198228.254842 kJ/mol
# GULP energy per Si atom -12389.265928 kJ/mol
# Density = 2.203648 g / cm^3
# Si number density = 22.086751 Si / 1000 Ang^3
#
#
#
# Elastic Constant Matrix: (Units=GPa)
#
#
# Indices 1 2 3 4 5 6 
#
# 1 91.8818 36.8965 42.1020 0.1941 -8.0020 6.3627
# 2 36.8965 82.7820 24.0525 -6.3377 -3.1410 12.0544
# 3 42.1020 24.0525 111.5543 -7.3837 15.0510 10.3744
# 4 0.1941 -6.3377 -7.3837 19.3601 7.9136 4.1707
# 5 -8.0020 -3.1410 15.0510 7.9136 42.6750 3.3805
# 6 6.3627 12.0544 10.3744 4.1707 3.3805 38.3569
#
#
#
# Elastic Compliance Matrix: (Units=1/GPa)
#
#
# Indices 1 2 3 4 5 6 
#
# 1 0.016773 -0.006096 -0.006459 -0.007432 0.006262 0.001136
# 2 -0.006096 0.015993 -0.000187 0.006522 -0.000745 -0.004608
# 3 -0.006459 -0.000187 0.013251 0.008626 -0.007280 -0.002750
# 4 -0.007432 0.006522 0.008626 0.065352 -0.015369 -0.008901
# 5 0.006262 -0.000745 -0.007280 -0.015369 0.029955 0.000195
# 6 0.001136 -0.004608 -0.002750 -0.008901 0.000195 0.029025
#
#
# Mechanical properties :
#
#
# Convention : Reuss Voigt Hill
#
# Bulk Modulus (GPa) = 48.69876 54.70222 51.70049
# Shear Modulus (GPa) = 24.66971 32.28955 28.47963
#
# Velocity S-wave (km/s) = 3.34570 3.82768 3.59478
# Velocity P-wave (km/s) = 6.08454 6.66000 6.37877
#
# Compressibility (1/GPa) = 0.02053440
#
# Stress axis : x y z
#
# Youngs Moduli (GPa) = 59.61805 62.52545 75.46617
#
# Poissons Ratio (x) = 0.38117 0.48740
# Poissons Ratio (y) = 0.36345 0.01410
# Poissons Ratio (z) = 0.38505 0.01168
#
# Static dielectric constant tensor:
#      x y z
#    x 3.893210 0.117470 0.112450 
#    y 0.117470 3.736740 0.074780 
#    z 0.112450 0.074780 3.957000 
# 
# 
# High freq. dielectric constant tensor:
#      x y z
#    x 1.860600 0.004740 0.009860 
#    y 0.004740 1.847100 -0.008760 
#    z 0.009860 -0.008760 1.860300 
# 
# From -- ./inp_files/504302.got.cif
#   From: 2010.06.25/outbox.cif.g09.slc.cpg/sg2_253_cif.got.tgz:504302.got - 2010.06.27 13:26:56.
