data_PCOD8005595
_publ_section_title
;
Structure prediction by ZEFSAII (Michael W. Deem and Ramdas Pophale) SiO2 
 PCOD8005595
Probable space group: P -1
;
_chemical_formula_sum "Si O2"
_cell_formula_units_Z 16
_cell_length_a 14.817735
_cell_length_b 10.977687
_cell_length_c 13.027104
_cell_angle_alpha 84.530544
_cell_angle_beta 148.582055
_cell_angle_gamma 73.560935
_cell_volume 782.958785
_symmetry_space_group_name_H-M "P -1"
_symmetry_group_IT_number 2
_symmetry_cell_setting 'triclinic'
loop_
_space_group_symop_operation_xyz
x,y,z
-x,-y,-z
loop_
_atom_site_type_symbol
_atom_site_label
_atom_site_fract_x
_atom_site_fract_y
_atom_site_fract_z
Si Si1 0.826695 0.691752 0.098009
Si Si2 0.753005 0.051736 0.761920
Si Si3 0.156905 0.670000 0.562115
Si Si4 0.279706 0.378868 0.201517
Si Si5 0.476268 0.924392 0.256477
Si Si6 0.449272 0.342688 0.013014
Si Si7 0.349018 0.964136 0.904583
Si Si8 0.894092 0.736616 0.811670
O O1 0.724791 0.652633 0.088138
O O2 0.070879 0.639469 0.378978
O O3 0.869533 0.595962 0.043893
O O4 0.624436 0.889922 0.859279
O O5 0.571912 0.218930 0.497344
O O6 0.659566 0.087003 0.785583
O O7 0.803530 0.892043 0.780695
O O8 0.000000 0.000000 0.000000
O O9 0.265396 0.519200 0.758399
O O10 0.366340 0.665665 0.739135
O O11 0.930172 0.854056 0.378013
O O12 0.204136 0.340032 0.229943
O O13 0.187661 0.568084 0.104106
O O14 0.762536 0.804160 0.567699
O O15 0.442682 0.879974 0.116227
O O16 0.618088 0.174616 0.118143
O O17 0.500000 0.000000 0.000000
#
# Coordination Sequence:
#
# PCOD8005595 Si02
#       8
#     2   2   2   2   2   2   2   2
#     4  11  20  39  65  90 122 163 209 247 309 367
#     4  11  22  40  62  87 129 159 193 257 309 362
#     4  10  24  40  60  90 124 164 203 257 301 365
#     4  10  21  37  62  90 112 157 205 249 296 366
#     4  10  20  39  60  90 117 158 210 241 304 364
#     4  11  23  42  61  89 129 163 203 256 310 358
#     4  11  22  38  64  92 121 167 206 251 306 366
#     4  10  20  39  61  85 119 154 201 251 299 364
#
# _framework density 20.435302
#
# number of rings (size 3 to 8) (size 9 to 14) (size 15 to 20)
#    0.000    1.500    5.000    1.500    1.750    2.500 
#    0.000    2.500    0.000    0.000    0.000    0.000 
#    0.000    0.000    0.000    0.000    0.000    0.000 
#
# Total GULP energy -198224.227817 kJ/mol
# GULP energy per Si atom -12389.014239 kJ/mol
# Density = 2.038879 g / cm^3
# Si number density = 20.435302 Si / 1000 Ang^3
#
#
#
# Elastic Constant Matrix: (Units=GPa)
#
#
# Indices 1 2 3 4 5 6 
#
# 1 -96.6618 198.1053 12.9622 31.2347 -150.9179 96.4460
# 2 198.1053 -105.5929 77.0045 -18.7400 135.8928 -109.6537
# 3 12.9622 77.0045 152.8887 -1.8565 -25.0165 11.7471
# 4 31.2347 -18.7400 -1.8565 31.5523 17.1130 -14.1727
# 5 -150.9179 135.8928 -25.0165 17.1130 -92.9564 90.6758
# 6 96.4460 -109.6537 11.7471 -14.1727 90.6758 -39.2790
#
#
#
# Elastic Compliance Matrix: (Units=1/GPa)
#
#
# Indices 1 2 3 4 5 6 
#
# 1 0.012269 0.002256 -0.003964 -0.003148 -0.005640 0.010758
# 2 0.002256 0.015270 -0.005240 -0.003530 0.013615 -0.005952
# 3 -0.003964 -0.005240 0.009086 0.002995 -0.002598 0.000533
# 4 -0.003148 -0.003530 0.002995 0.030500 0.002420 -0.002398
# 5 -0.005640 0.013615 -0.002598 0.002420 0.026159 0.006879
# 6 0.010758 -0.005952 0.000533 -0.002398 0.006879 0.034476
#
#
# Mechanical properties :
#
#
# Convention : Reuss Voigt Hill
#
# Bulk Modulus (GPa) = 43.99701 58.53090 51.26396
# Shear Modulus (GPa) = 33.50471 -42.63247 -4.56388
#
# Velocity S-wave (km/s) = 4.05353 -4.57247 -1.49605
# Velocity P-wave (km/s) = 6.59430 0.90974 4.70704
#
# Compressibility (1/GPa) = 0.02272882
#
# Stress axis : x y z
#
# Youngs Moduli (GPa) = 81.50598 65.48844 110.05727
#
# Poissons Ratio (x) = -0.14773 0.43627
# Poissons Ratio (y) = -0.18386 0.57669
# Poissons Ratio (z) = 0.32309 0.34315
#
# Static dielectric constant tensor:
#      x y z
#    x 3.716390 -0.267900 -0.113860 
#    y -0.267900 3.688720 -0.134950 
#    z -0.113860 -0.134950 4.326850 
# 
# 
# High freq. dielectric constant tensor:
#      x y z
#    x 1.776240 -0.005200 -0.015570 
#    y -0.005200 1.798040 -0.016090 
#    z -0.015570 -0.016090 1.818450 
# 
# From -- ./inp_files/428042.got.cif
#   From: 2010.06.25/outbox.cif.g09.slc.cpg/sg2_215_cif.got.tgz:428042.got - 2010.06.27 13:26:56.
