data_PCOD8005401
_publ_section_title
;
Structure prediction by ZEFSAII (Michael W. Deem and Ramdas Pophale) SiO2 
 PCOD8005401
Probable space group: P -1
;
_chemical_formula_sum "Si O2"
_cell_formula_units_Z 16
_cell_length_a 15.191169
_cell_length_b 8.156218
_cell_length_c 14.135347
_cell_angle_alpha 40.828569
_cell_angle_beta 134.828499
_cell_angle_gamma 137.899495
_cell_volume 725.346824
_symmetry_space_group_name_H-M "P -1"
_symmetry_group_IT_number 2
_symmetry_cell_setting 'triclinic'
loop_
_space_group_symop_operation_xyz
x,y,z
-x,-y,-z
loop_
_atom_site_type_symbol
_atom_site_label
_atom_site_fract_x
_atom_site_fract_y
_atom_site_fract_z
Si Si1 0.920585 0.688704 0.251910
Si Si2 0.126462 0.806029 0.965774
Si Si3 0.262653 0.157011 0.735397
Si Si4 0.339351 0.774708 0.843077
Si Si5 0.595494 0.023424 0.793562
Si Si6 0.561550 0.553800 0.825720
Si Si7 0.431751 0.106357 0.481337
Si Si8 0.842991 0.431526 0.501972
O O1 0.780411 0.448183 0.212421
O O2 0.924790 0.638116 0.388502
O O3 0.055060 0.664785 0.320569
O O4 0.925144 0.991393 0.105581
O O5 0.166366 0.917061 0.840255
O O6 0.000000 0.500000 0.000000
O O7 0.254644 0.793134 0.125252
O O8 0.399263 0.362557 0.806723
O O9 0.199648 0.363578 0.556767
O O10 0.301961 0.025439 0.731942
O O11 0.484886 0.872872 0.857493
O O12 0.353619 0.625830 0.015371
O O13 0.611833 0.805922 0.829046
O O14 0.535811 0.207392 0.606775
O O15 0.588898 0.645090 0.695161
O O16 0.500000 0.000000 0.500000
O O17 0.285845 0.849204 0.512415
#
# Coordination Sequence:
#
# PCOD8005401 Si02
#       8
#     2   2   2   2   2   2   2   2
#     4  10  22  41  69  91 123 181 225 259 322 407
#     4  11  24  44  66  97 134 171 218 273 330 389
#     4  11  23  40  65  97 134 167 217 281 325 377
#     4  12  22  39  69 103 125 173 227 267 327 390
#     4  11  20  41  72  94 124 176 221 264 323 403
#     4  11  21  39  69 100 130 166 218 279 327 383
#     4  10  20  38  68  97 127 166 221 271 325 383
#     4  10  20  42  65  90 132 176 218 268 328 382
#
# _framework density 22.058413000000002
#
# number of rings (size 3 to 8) (size 9 to 14) (size 15 to 20)
#    0.000    1.250    6.250    1.500    0.000    1.500 
#    4.500    5.625    0.000    0.000    0.000    0.000 
#    0.000    0.000    0.000    0.000    0.000    0.000 
#
# Total GULP energy -198271.908533 kJ/mol
# GULP energy per Si atom -12391.994283 kJ/mol
# Density = 2.200821 g / cm^3
# Si number density = 22.058413 Si / 1000 Ang^3
#
#
#
# Elastic Constant Matrix: (Units=GPa)
#
#
# Indices 1 2 3 4 5 6 
#
# 1 56.1353 38.5751 49.1653 -0.4025 20.2841 -3.1729
# 2 38.5751 141.1552 49.8589 8.8565 12.0907 13.4080
# 3 49.1653 49.8589 142.8777 1.6016 16.0866 1.6353
# 4 -0.4025 8.8565 1.6016 22.8532 2.1821 3.9672
# 5 20.2841 12.0907 16.0866 2.1821 36.9177 -3.2903
# 6 -3.1729 13.4080 1.6353 3.9672 -3.2903 28.9055
#
#
#
# Elastic Compliance Matrix: (Units=1/GPa)
#
#
# Indices 1 2 3 4 5 6 
#
# 1 0.034254 -0.006029 -0.008320 0.003894 -0.013004 0.005012
# 2 -0.006029 0.009788 -0.001303 -0.003041 0.000439 -0.004661
# 3 -0.008320 -0.001303 0.010277 -0.000267 0.000465 -0.000801
# 4 0.003894 -0.003041 -0.000267 0.046289 -0.004207 -0.004979
# 5 -0.013004 0.000439 0.000465 -0.004207 0.034387 0.002834
# 6 0.005012 -0.004661 -0.000801 -0.004979 0.002834 0.038359
#
#
# Mechanical properties :
#
#
# Convention : Reuss Voigt Hill
#
# Bulk Modulus (GPa) = 43.45027 68.37407 55.91217
# Shear Modulus (GPa) = 23.54817 31.23988 27.39403
#
# Velocity S-wave (km/s) = 3.27086 3.76737 3.52786
# Velocity P-wave (km/s) = 5.83141 7.07024 6.48049
#
# Compressibility (1/GPa) = 0.02301482
#
# Stress axis : x y z
#
# Youngs Moduli (GPa) = 29.19343 102.16398 97.30822
#
# Poissons Ratio (x) = 0.61592 0.80963
# Poissons Ratio (y) = 0.17600 0.12681
# Poissons Ratio (z) = 0.24290 0.13313
#
# Static dielectric constant tensor:
#      x y z
#    x 4.135580 0.368280 -0.194310 
#    y 0.368280 4.007600 -0.554710 
#    z -0.194310 -0.554710 5.428200 
# 
# 
# High freq. dielectric constant tensor:
#      x y z
#    x 1.846480 0.009060 0.015330 
#    y 0.009060 1.850100 -0.000890 
#    z 0.015330 -0.000890 1.878970 
# 
# From -- ./inp_files/529305.got.cif
#   From: 2010.06.25/outbox.cif.g09.slc.cpg/sg2_265_cif.got.tgz:529305.got - 2010.06.27 13:26:56.
