data_PCOD8005052
_publ_section_title
;
Structure prediction by ZEFSAII (Michael W. Deem and Ramdas Pophale) SiO2 
 PCOD8005052
Probable space group: P -1
;
_chemical_formula_sum "Si O2"
_cell_formula_units_Z 16
_cell_length_a 8.334857
_cell_length_b 20.698566
_cell_length_c 11.749338
_cell_angle_alpha 151.966359
_cell_angle_beta 106.571985
_cell_angle_gamma 89.712560
_cell_volume 763.939030
_symmetry_space_group_name_H-M "P -1"
_symmetry_group_IT_number 2
_symmetry_cell_setting 'triclinic'
loop_
_space_group_symop_operation_xyz
x,y,z
-x,-y,-z
loop_
_atom_site_type_symbol
_atom_site_label
_atom_site_fract_x
_atom_site_fract_y
_atom_site_fract_z
Si Si1 0.912305 0.455680 0.686352
Si Si2 0.585447 0.669365 0.353505
Si Si3 0.932207 0.100480 0.711964
Si Si4 0.724573 0.551647 0.607584
Si Si5 0.352998 0.820995 0.641451
Si Si6 0.697277 0.491670 0.251285
Si Si7 0.930500 0.225628 0.681247
Si Si8 0.275550 0.178605 0.608823
O O1 0.778465 0.453277 0.552116
O O2 0.804969 0.275819 0.439677
O O3 0.137879 0.523127 0.801821
O O4 0.935398 0.576655 0.980731
O O5 0.437404 0.710253 0.447815
O O6 0.708101 0.653442 0.456357
O O7 0.712511 0.819269 0.523233
O O8 0.500000 0.500000 0.000000
O O9 0.842956 0.163078 0.694919
O O10 0.767376 0.990457 0.605323
O O11 0.000000 0.000000 0.500000
O O12 0.128149 0.253716 0.046569
O O13 0.500000 0.500000 0.500000
O O14 0.751539 0.507712 0.418572
O O15 0.253751 0.848114 0.555358
O O16 0.500000 0.000000 0.000000
O O17 0.476695 0.330534 0.939060
O O18 0.079099 0.174543 0.593239
#
# Coordination Sequence:
#
# PCOD8005052 Si02
#       8
#     2   2   2   2   2   2   2   2
#     4  11  23  41  62  88 123 167 209 249 307 384
#     4  10  21  40  63  88 119 166 209 246 306 379
#     4   9  20  36  59  89 117 155 201 248 304 362
#     4  11  22  39  62  89 122 162 204 252 308 371
#     4  12  26  41  62  96 128 158 206 270 319 357
#     4  11  22  39  62  89 118 160 209 256 303 368
#     4  10  20  40  63  87 121 167 208 248 307 382
#     4  10  20  38  64  90 118 161 210 255 301 363
#
# _framework density 20.944082000000002
#
# number of rings (size 3 to 8) (size 9 to 14) (size 15 to 20)
#    0.000    1.500    0.000    7.500    0.000    6.000 
#    0.000    7.500    0.000    0.000    0.000    0.000 
#    0.000    0.000    0.000    0.000    0.000    0.000 
#
# Total GULP energy -198275.343974 kJ/mol
# GULP energy per Si atom -12392.208998 kJ/mol
# Density = 2.089641 g / cm^3
# Si number density = 20.944082 Si / 1000 Ang^3
#
#
#
# Elastic Constant Matrix: (Units=GPa)
#
#
# Indices 1 2 3 4 5 6 
#
# 1 78.9925 32.0609 14.7366 -2.4578 3.2356 -13.1581
# 2 32.0609 148.8817 63.4217 2.5057 25.9993 0.5985
# 3 14.7366 63.4217 109.0092 -0.3670 8.4134 -3.9406
# 4 -2.4578 2.5057 -0.3670 38.8490 1.3927 8.6610
# 5 3.2356 25.9993 8.4134 1.3927 26.5836 -4.9576
# 6 -13.1581 0.5985 -3.9406 8.6610 -4.9576 35.5105
#
#
#
# Elastic Compliance Matrix: (Units=1/GPa)
#
#
# Indices 1 2 3 4 5 6 
#
# 1 0.015097 -0.003899 0.000213 -0.000280 0.003076 0.006181
# 2 -0.003899 0.011700 -0.005651 0.000119 -0.009872 -0.003676
# 3 0.000213 -0.005651 0.012349 0.000022 0.001928 0.001808
# 4 -0.000280 0.000119 0.000022 0.027422 -0.002867 -0.007191
# 5 0.003076 -0.009872 0.001928 -0.002867 0.048104 0.008935
# 6 0.006181 -0.003676 0.001808 -0.007191 0.008935 0.033715
#
#
# Mechanical properties :
#
#
# Convention : Reuss Voigt Hill
#
# Bulk Modulus (GPa) = 48.84654 61.92464 55.38559
# Shear Modulus (GPa) = 28.75466 35.29957 32.02712
#
# Velocity S-wave (km/s) = 3.70932 4.10984 3.91471
# Velocity P-wave (km/s) = 6.45898 7.22163 6.85092
#
# Compressibility (1/GPa) = 0.02047228
#
# Stress axis : x y z
#
# Youngs Moduli (GPa) = 66.23773 85.46898 80.97839
#
# Poissons Ratio (x) = 0.33323 -0.01721
# Poissons Ratio (y) = 0.25825 0.45758
# Poissons Ratio (z) = -0.01408 0.48296
#
# Static dielectric constant tensor:
#      x y z
#    x 3.668400 -0.028330 -0.004330 
#    y -0.028330 5.125750 0.348210 
#    z -0.004330 0.348210 3.769830 
# 
# 
# High freq. dielectric constant tensor:
#      x y z
#    x 1.811290 0.001160 0.001100 
#    y 0.001160 1.850650 0.002300 
#    z 0.001100 0.002300 1.801240 
# 
# From -- ./inp_files/405124.got.cif
#   From: 2010.06.25/outbox.cif.g09.slc.cpg/sg2_203_cif.got.tgz:405124.got - 2010.06.27 13:26:56.
