data_PCOD8005142
_publ_section_title
;
Structure prediction by ZEFSAII (Michael W. Deem and Ramdas Pophale) SiO2 
 PCOD8005142
Probable space group: P -1
;
_chemical_formula_sum "Si O2"
_cell_formula_units_Z 16
_cell_length_a 8.548443
_cell_length_b 13.951180
_cell_length_c 9.362934
_cell_angle_alpha 72.730146
_cell_angle_beta 100.662781
_cell_angle_gamma 136.699495
_cell_volume 730.467468
_symmetry_space_group_name_H-M "P -1"
_symmetry_group_IT_number 2
_symmetry_cell_setting 'triclinic'
loop_
_space_group_symop_operation_xyz
x,y,z
-x,-y,-z
loop_
_atom_site_type_symbol
_atom_site_label
_atom_site_fract_x
_atom_site_fract_y
_atom_site_fract_z
Si Si1 0.736772 0.379833 0.541779
Si Si2 0.952135 0.854835 0.212778
Si Si3 0.851335 0.531254 0.971534
Si Si4 0.113746 0.138559 0.124992
Si Si5 0.773179 0.145580 0.107630
Si Si6 0.528372 0.415725 0.720497
Si Si7 0.549392 0.405745 0.247769
Si Si8 0.680921 0.138801 0.772982
O O1 0.699694 0.457425 0.607588
O O2 0.602501 0.335820 0.390029
O O3 0.658596 0.237938 0.655766
O O4 0.000000 0.500000 0.500000
O O5 0.714788 0.737743 0.308462
O O6 0.101812 0.822081 0.270191
O O7 0.851745 0.828534 0.050342
O O8 0.102504 0.016470 0.219770
O O9 0.761879 0.516473 0.123671
O O10 0.628493 0.418539 0.885283
O O11 0.000000 0.500000 0.000000
O O12 0.020659 0.693899 0.866663
O O13 0.319187 0.283582 0.177087
O O14 0.868490 0.075739 0.146912
O O15 0.546906 0.032622 0.217884
O O16 0.704498 0.163073 0.936372
O O17 0.490503 0.517183 0.690239
#
# Coordination Sequence:
#
# PCOD8005142 Si02
#       8
#     2   2   2   2   2   2   2   2
#     4  12  26  46  67  99 143 184 224 277 353 418
#     4  10  21  38  69  98 133 175 233 276 339 393
#     4  12  24  38  70 104 134 171 229 290 335 390
#     4  10  20  38  65 101 134 174 221 290 334 397
#     4  10  20  39  63  96 133 170 229 282 331 390
#     4  12  23  43  69  99 130 185 235 275 337 403
#     4  12  24  43  68 103 142 176 230 282 341 410
#     4  10  22  40  65  95 136 182 220 279 342 404
#
# _framework density 21.903782
#
# number of rings (size 3 to 8) (size 9 to 14) (size 15 to 20)
#    0.000    1.000    2.500    6.000    1.750    2.000 
#    0.000    3.125    0.000    0.000    0.000    0.000 
#    0.000    0.000    0.000    0.000    0.000    0.000 
#
# Total GULP energy -198322.995868 kJ/mol
# GULP energy per Si atom -12395.187242 kJ/mol
# Density = 2.185393 g / cm^3
# Si number density = 21.903782 Si / 1000 Ang^3
#
#
#
# Elastic Constant Matrix: (Units=GPa)
#
#
# Indices 1 2 3 4 5 6 
#
# 1 134.2123 45.0321 45.8215 -17.3204 -5.5119 5.2206
# 2 45.0321 107.4392 26.4164 -19.6838 -6.4923 8.6737
# 3 45.8215 26.4164 77.3507 -11.8621 6.1465 4.1490
# 4 -17.3204 -19.6838 -11.8621 21.4851 0.2543 -2.5345
# 5 -5.5119 -6.4923 6.1465 0.2543 40.8074 -2.0896
# 6 5.2206 8.6737 4.1490 -2.5345 -2.0896 34.6991
#
#
#
# Elastic Compliance Matrix: (Units=1/GPa)
#
#
# Indices 1 2 3 4 5 6 
#
# 1 0.010489 -0.002429 -0.004994 0.003451 0.001760 -0.000016
# 2 -0.002429 0.012508 -0.001587 0.008386 0.001754 -0.001853
# 3 -0.004994 -0.001587 0.017384 0.004060 -0.003614 -0.000852
# 4 0.003451 0.008386 0.004060 0.059392 0.000885 0.001291
# 5 0.001760 0.001754 -0.003614 0.000885 0.025629 0.001337
# 6 -0.000016 -0.001853 -0.000852 0.001291 0.001337 0.029561
#
#
# Mechanical properties :
#
#
# Convention : Reuss Voigt Hill
#
# Bulk Modulus (GPa) = 44.71911 61.50467 53.11189
# Shear Modulus (GPa) = 27.71064 32.84713 30.27888
#
# Velocity S-wave (km/s) = 3.56069 3.87668 3.72204
# Velocity P-wave (km/s) = 6.11271 6.94108 6.54002
#
# Compressibility (1/GPa) = 0.02236180
#
# Stress axis : x y z
#
# Youngs Moduli (GPa) = 95.33809 79.95153 57.52425
#
# Poissons Ratio (x) = 0.19417 0.28727
# Poissons Ratio (y) = 0.23154 0.09128
# Poissons Ratio (z) = 0.47611 0.12687
#
# Static dielectric constant tensor:
#      x y z
#    x 4.235970 0.102570 0.091870 
#    y 0.102570 3.957470 -0.084680 
#    z 0.091870 -0.084680 3.803940 
# 
# 
# High freq. dielectric constant tensor:
#      x y z
#    x 1.884120 0.013490 0.008530 
#    y 0.013490 1.861870 -0.009830 
#    z 0.008530 -0.009830 1.826620 
# 
# From -- ./inp_files/206467.got.cif
#   From: 2010.06.25/outbox.cif.g09.slc.cpg/sg2_104_cif.got.tgz:206467.got - 2010.06.27 13:26:56.
