data_PCOD8005653
_publ_section_title
;
Structure prediction by ZEFSAII (Michael W. Deem and Ramdas Pophale) SiO2 
 PCOD8005653
Probable space group: P -1
;
_chemical_formula_sum "Si O2"
_cell_formula_units_Z 12
_cell_length_a 5.146234
_cell_length_b 12.591680
_cell_length_c 10.980939
_cell_angle_alpha 122.711258
_cell_angle_beta 57.472871
_cell_angle_gamma 117.659634
_cell_volume 489.440809
_symmetry_space_group_name_H-M "P -1"
_symmetry_group_IT_number 2
_symmetry_cell_setting 'triclinic'
loop_
_space_group_symop_operation_xyz
x,y,z
-x,-y,-z
loop_
_atom_site_type_symbol
_atom_site_label
_atom_site_fract_x
_atom_site_fract_y
_atom_site_fract_z
Si Si1 0.259065 0.238160 0.769863
Si Si2 0.027438 0.368354 0.558253
Si Si3 0.645150 0.305497 0.940446
Si Si4 0.349718 0.957463 0.139537
Si Si5 0.551190 0.522115 0.698094
Si Si6 0.209307 0.129899 0.470551
O O1 0.537873 0.317135 0.835408
O O2 0.030587 0.337047 0.861727
O O3 0.034443 0.106811 0.807247
O O4 0.406142 0.204011 0.582493
O O5 0.241048 0.468438 0.661401
O O6 0.187030 0.383560 0.393641
O O7 0.687647 0.405629 0.650255
O O8 0.995350 0.220311 0.521035
O O9 0.489847 0.154318 0.920380
O O10 0.522190 0.396298 0.119711
O O11 0.430040 0.086488 0.285639
O O12 0.500000 0.000000 0.000000
O O13 0.000000 0.000000 0.500000
#
# Coordination Sequence:
#
# PCOD8005653 Si02
#       6
#     2   2   2   2   2   2
#     4   9  22  37  60  87 127 160 203 248 318 371
#     4  10  22  40  64  94 122 172 203 262 320 360
#     4  10  20  39  61  88 121 163 204 260 308 365
#     4   9  20  38  63  92 120 164 210 262 307 364
#     4  10  21  41  65  92 128 156 220 261 306 377
#     4  10  21  44  63  95 131 168 209 258 313 388
#
# _framework density 24.517776000000001
#
# number of rings (size 3 to 8) (size 9 to 14) (size 15 to 20)
#    1.000    1.333    0.000    2.000    0.000    2.667 
#    6.000    5.000    0.000    0.000    0.000    0.000 
#    0.000    0.000    0.000    0.000    0.000    0.000 
#
# Total GULP energy -148669.315640 kJ/mol
# GULP energy per Si atom -12389.109637 kJ/mol
# Density = 2.446197 g / cm^3
# Si number density = 24.517776 Si / 1000 Ang^3
#
#
#
# Elastic Constant Matrix: (Units=GPa)
#
#
# Indices 1 2 3 4 5 6 
#
# 1 129.0097 32.9152 50.9049 12.9790 19.9003 -7.6126
# 2 32.9152 102.0601 55.7643 8.0978 0.4288 -32.2878
# 3 50.9049 55.7643 232.2087 16.4672 10.9425 -12.2025
# 4 12.9790 8.0978 16.4672 34.7240 -9.1708 2.3786
# 5 19.9003 0.4288 10.9425 -9.1708 35.6795 -2.0414
# 6 -7.6126 -32.2878 -12.2025 2.3786 -2.0414 28.7804
#
#
#
# Elastic Compliance Matrix: (Units=1/GPa)
#
#
# Indices 1 2 3 4 5 6 
#
# 1 0.010228 -0.002587 -0.001040 -0.004400 -0.006528 -0.000737
# 2 -0.002587 0.018429 -0.002776 -0.002674 0.002485 0.019210
# 3 -0.001040 -0.002776 0.005348 -0.001838 -0.001561 -0.001081
# 4 -0.004400 -0.002674 -0.001838 0.035532 0.011780 -0.007044
# 5 -0.006528 0.002485 -0.001561 0.011780 0.035255 0.001926
# 6 -0.000737 0.019210 -0.001081 -0.007044 0.001926 0.056363
#
#
# Mechanical properties :
#
#
# Convention : Reuss Voigt Hill
#
# Bulk Modulus (GPa) = 47.17473 82.49416 64.83445
# Shear Modulus (GPa) = 27.62010 41.41636 34.51823
#
# Velocity S-wave (km/s) = 3.36003 4.11449 3.75625
# Velocity P-wave (km/s) = 5.85968 7.50279 6.73155
#
# Compressibility (1/GPa) = 0.02119779
#
# Stress axis : x y z
#
# Youngs Moduli (GPa) = 97.77240 54.26361 186.97363
#
# Poissons Ratio (x) = 0.14038 0.19445
# Poissons Ratio (y) = 0.25294 0.51912
# Poissons Ratio (z) = 0.10168 0.15066
#
# Static dielectric constant tensor:
#      x y z
#    x 4.208060 -0.259660 -0.029260 
#    y -0.259660 4.690150 0.196030 
#    z -0.029260 0.196030 5.049080 
# 
# 
# High freq. dielectric constant tensor:
#      x y z
#    x 1.954220 -0.008730 0.006620 
#    y -0.008730 1.986990 -0.009780 
#    z 0.006620 -0.009780 1.992780 
# 
# From -- ./inp_files/135825.got.cif
#   From: 2010.06.25/outbox.cif.g09.slc.cpg/sg2_68_cif.got.tgz:135825.got - 2010.06.27 13:26:56.
