data_PCOD8005364
_publ_section_title
;
Structure prediction by ZEFSAII (Michael W. Deem and Ramdas Pophale) SiO2 
 PCOD8005364
Probable space group: P -1
;
_chemical_formula_sum "Si O2"
_cell_formula_units_Z 16
_cell_length_a 8.762632
_cell_length_b 15.943371
_cell_length_c 18.378198
_cell_angle_alpha 150.664739
_cell_angle_beta 38.561768
_cell_angle_gamma 140.522966
_cell_volume 749.123496
_symmetry_space_group_name_H-M "P -1"
_symmetry_group_IT_number 2
_symmetry_cell_setting 'triclinic'
loop_
_space_group_symop_operation_xyz
x,y,z
-x,-y,-z
loop_
_atom_site_type_symbol
_atom_site_label
_atom_site_fract_x
_atom_site_fract_y
_atom_site_fract_z
Si Si1 0.663628 0.039086 0.094766
Si Si2 0.997201 0.034534 0.205117
Si Si3 0.963220 0.326251 0.833087
Si Si4 0.012579 0.590124 0.757923
Si Si5 0.899835 0.988040 0.691938
Si Si6 0.153107 0.439412 0.459176
Si Si7 0.244461 0.381668 0.621470
Si Si8 0.626530 0.800908 0.063417
O O1 0.365221 0.001715 0.167576
O O2 0.788054 0.240949 0.229687
O O3 0.713029 0.892721 0.021774
O O4 0.801660 0.051736 0.974170
O O5 0.932519 0.997297 0.286425
O O6 0.140339 0.240184 0.293070
O O7 0.726853 0.953446 0.203074
O O8 0.675821 0.268416 0.865756
O O9 0.164136 0.367666 0.724506
O O10 0.022761 0.163418 0.730709
O O11 0.000000 0.500000 0.000000
O O12 0.989931 0.432602 0.588942
O O13 0.125747 0.530261 0.743882
O O14 0.744095 0.634405 0.904986
O O15 0.867089 0.809036 0.521868
O O16 0.448554 0.554736 0.447058
O O17 0.000000 0.500000 0.500000
#
# Coordination Sequence:
#
# PCOD8005364 Si02
#       8
#     2   2   2   2   2   2   2   2
#     4  10  20  38  67  96 140 173 211 273 334 388
#     4  11  22  38  68 105 130 171 217 275 339 382
#     4  11  29  48  71  90 127 186 233 269 323 396
#     4  11  21  41  68 100 137 169 215 276 335 393
#     4  11  23  45  65  96 135 176 223 267 337 396
#     4  12  24  38  70 105 140 167 218 267 339 403
#     4  12  26  46  66  98 140 179 214 275 333 396
#     4  10  24  45  66  98 138 175 224 273 326 386
#
# _framework density 21.358294999999998
#
# number of rings (size 3 to 8) (size 9 to 14) (size 15 to 20)
#    0.000    1.000    2.500    4.875   10.500    0.500 
#    0.000    0.625    0.000    0.000    0.000    0.000 
#    0.000    0.000    0.000    0.000    0.000    0.000 
#
# Total GULP energy -198314.624697 kJ/mol
# GULP energy per Si atom -12394.664044 kJ/mol
# Density = 2.130968 g / cm^3
# Si number density = 21.358295 Si / 1000 Ang^3
#
#
#
# Elastic Constant Matrix: (Units=GPa)
#
#
# Indices 1 2 3 4 5 6 
#
# 1 94.2674 33.9155 42.5269 -1.4100 9.2951 -14.8981
# 2 33.9155 67.2086 36.4983 6.3367 -1.0266 -7.5497
# 3 42.5269 36.4983 101.1769 9.0039 14.1649 -7.2041
# 4 -1.4100 6.3367 9.0039 30.1018 -5.1134 4.0621
# 5 9.2951 -1.0266 14.1649 -5.1134 42.0996 8.2704
# 6 -14.8981 -7.5497 -7.2041 4.0621 8.2704 32.7508
#
#
#
# Elastic Compliance Matrix: (Units=1/GPa)
#
#
# Indices 1 2 3 4 5 6 
#
# 1 0.015484 -0.005266 -0.003936 0.001738 -0.003098 0.005531
# 2 -0.005266 0.020878 -0.005458 -0.002597 0.003041 0.000771
# 3 -0.003936 -0.005458 0.014799 -0.004632 -0.005218 0.002099
# 4 0.001738 -0.002597 -0.004632 0.037416 0.007081 -0.007255
# 5 -0.003098 0.003041 -0.005218 0.007081 0.029108 -0.010085
# 6 0.005531 0.000771 0.002099 -0.007255 -0.010085 0.037135
#
#
# Mechanical properties :
#
#
# Convention : Reuss Voigt Hill
#
# Bulk Modulus (GPa) = 45.78426 54.28156 50.03291
# Shear Modulus (GPa) = 26.12037 30.97126 28.54582
#
# Velocity S-wave (km/s) = 3.50088 3.81212 3.65981
# Velocity P-wave (km/s) = 6.15015 6.69674 6.42926
#
# Compressibility (1/GPa) = 0.02184157
#
# Stress axis : x y z
#
# Youngs Moduli (GPa) = 64.58331 47.89628 67.57206
#
# Poissons Ratio (x) = 0.25224 0.26594
# Poissons Ratio (y) = 0.34012 0.36880
# Poissons Ratio (z) = 0.25417 0.26141
#
# Static dielectric constant tensor:
#      x y z
#    x 3.992700 -0.079700 0.017680 
#    y -0.079700 3.771330 0.215010 
#    z 0.017680 0.215010 3.742880 
# 
# 
# High freq. dielectric constant tensor:
#      x y z
#    x 1.844910 -0.007500 0.005540 
#    y -0.007500 1.820590 0.012720 
#    z 0.005540 0.012720 1.850650 
# 
# From -- ./inp_files/226113.got.cif
#   From: 2010.06.25/outbox.cif.g09.slc.cpg/sg2_114_cif.got.tgz:226113.got - 2010.06.27 13:26:56.
