data_PCOD8005278
_publ_section_title
;
Structure prediction by ZEFSAII (Michael W. Deem and Ramdas Pophale) SiO2 
 PCOD8005278
Probable space group: P -1
;
_chemical_formula_sum "Si O2"
_cell_formula_units_Z 16
_cell_length_a 24.100613
_cell_length_b 11.416660
_cell_length_c 7.891835
_cell_angle_alpha 136.268173
_cell_angle_beta 125.532567
_cell_angle_gamma 30.605441
_cell_volume 759.088912
_symmetry_space_group_name_H-M "P -1"
_symmetry_group_IT_number 2
_symmetry_cell_setting 'triclinic'
loop_
_space_group_symop_operation_xyz
x,y,z
-x,-y,-z
loop_
_atom_site_type_symbol
_atom_site_label
_atom_site_fract_x
_atom_site_fract_y
_atom_site_fract_z
Si Si1 0.641992 0.057131 0.427379
Si Si2 0.916106 0.872155 0.617627
Si Si3 0.488080 0.718909 0.237932
Si Si4 0.681049 0.356253 0.755016
Si Si5 0.883952 0.549789 0.220169
Si Si6 0.669965 0.513551 0.544708
Si Si7 0.902281 0.187308 0.651619
Si Si8 0.466506 0.904886 0.037946
O O1 0.587403 0.086576 0.530801
O O2 0.633040 0.276071 0.658273
O O3 0.767807 0.752506 0.320233
O O4 0.576180 0.140528 0.227761
O O5 0.897936 0.715511 0.347608
O O6 0.021353 0.674870 0.714719
O O7 0.807186 0.136096 0.808992
O O8 0.934618 0.976950 0.618774
O O9 0.611685 0.546902 0.312159
O O10 0.435420 0.907792 0.176525
O O11 0.500000 0.500000 0.000000
O O12 0.686317 0.343485 0.544900
O O13 0.599546 0.659358 0.000038
O O14 0.890459 0.399043 0.926529
O O15 0.786531 0.366751 0.544287
O O16 0.588934 0.808341 0.794282
O O17 0.000000 0.000000 0.500000
#
# Coordination Sequence:
#
# PCOD8005278 Si02
#       8
#     2   2   2   2   2   2   2   2
#     4  11  22  42  67  94 132 177 213 268 334 390
#     4   9  22  40  68  98 126 176 227 266 332 394
#     4  12  25  40  63  98 132 171 221 266 327 400
#     4  10  20  38  66  91 128 176 211 265 327 392
#     4  10  21  44  67  95 131 172 227 271 328 400
#     4  11  24  42  60  96 132 173 220 270 337 397
#     4  11  24  43  67  96 134 173 219 279 335 392
#     4  12  22  39  65  93 134 170 215 268 325 395
#
# _framework density 21.077901000000001
#
# number of rings (size 3 to 8) (size 9 to 14) (size 15 to 20)
#    0.000    1.250    3.750    2.250    0.000    2.500 
#    2.250    0.000    0.000    0.000    0.000    0.000 
#    0.000    0.000    0.000    0.000    0.000    0.000 
#
# Total GULP energy -198350.509435 kJ/mol
# GULP energy per Si atom -12396.906840 kJ/mol
# Density = 2.102993 g / cm^3
# Si number density = 21.077901 Si / 1000 Ang^3
#
#
#
# Elastic Constant Matrix: (Units=GPa)
#
#
# Indices 1 2 3 4 5 6 
#
# 1 105.8917 47.5043 41.0799 -2.5097 -10.1871 -14.7482
# 2 47.5043 141.8232 46.1285 8.7718 -8.6732 -28.4559
# 3 41.0799 46.1285 89.7046 -1.0045 -4.1564 -20.6644
# 4 -2.5097 8.7718 -1.0045 35.5963 1.7679 -2.5742
# 5 -10.1871 -8.6732 -4.1564 1.7679 31.2555 1.2269
# 6 -14.7482 -28.4559 -20.6644 -2.5742 1.2269 40.2287
#
#
#
# Elastic Compliance Matrix: (Units=1/GPa)
#
#
# Indices 1 2 3 4 5 6 
#
# 1 0.012624 -0.002681 -0.004119 0.001344 0.002723 0.000619
# 2 -0.002681 0.010013 -0.002860 -0.002491 0.001491 0.004425
# 3 -0.004119 -0.002860 0.015549 0.001197 -0.000314 0.004540
# 4 0.001344 -0.002491 0.001197 0.029015 -0.001784 0.001257
# 5 0.002723 0.001491 -0.000314 -0.001784 0.033325 0.000761
# 6 0.000619 0.004425 0.004540 0.001257 0.000761 0.030604
#
#
# Mechanical properties :
#
#
# Convention : Reuss Voigt Hill
#
# Bulk Modulus (GPa) = 53.00601 67.42723 60.21662
# Shear Modulus (GPa) = 31.90006 34.92989 33.41498
#
# Velocity S-wave (km/s) = 3.89451 4.07526 3.98591
# Velocity P-wave (km/s) = 6.73982 7.36225 7.05790
#
# Compressibility (1/GPa) = 0.01886578
#
# Stress axis : x y z
#
# Youngs Moduli (GPa) = 79.21237 99.87336 64.31128
#
# Poissons Ratio (x) = 0.26781 0.26487
# Poissons Ratio (y) = 0.21240 0.18394
# Poissons Ratio (z) = 0.32625 0.28566
#
# Static dielectric constant tensor:
#      x y z
#    x 3.945470 -0.037500 0.156910 
#    y -0.037500 4.229600 0.048490 
#    z 0.156910 0.048490 3.792010 
# 
# 
# High freq. dielectric constant tensor:
#      x y z
#    x 1.824890 -0.006460 0.016260 
#    y -0.006460 1.842950 0.010860 
#    z 0.016260 0.010860 1.813660 
# 
# From -- ./inp_files/353740.got.cif
#   From: 2010.06.25/outbox.cif.g09.slc.cpg/sg2_177_cif.got.tgz:353740.got - 2010.06.27 13:26:56.
