data_PCOD8005977
_publ_section_title
;
Structure prediction by ZEFSAII (Michael W. Deem and Ramdas Pophale) SiO2 
 PCOD8005977
Probable space group: P -1
;
_chemical_formula_sum "Si O2"
_cell_formula_units_Z 16
_cell_length_a 19.812500
_cell_length_b 14.067027
_cell_length_c 12.165689
_cell_angle_alpha 35.476383
_cell_angle_beta 144.513328
_cell_angle_gamma 160.859658
_cell_volume 626.979127
_symmetry_space_group_name_H-M "P -1"
_symmetry_group_IT_number 2
_symmetry_cell_setting 'triclinic'
loop_
_space_group_symop_operation_xyz
x,y,z
-x,-y,-z
loop_
_atom_site_type_symbol
_atom_site_label
_atom_site_fract_x
_atom_site_fract_y
_atom_site_fract_z
Si Si1 0.625687 0.736359 0.281800
Si Si2 0.453199 0.199130 0.202530
Si Si3 0.974185 0.343071 0.947996
Si Si4 0.931388 0.618256 0.733739
Si Si5 0.770024 0.769190 0.651343
Si Si6 0.307139 0.792428 0.581110
Si Si7 0.146594 0.764492 0.596516
Si Si8 0.225571 0.265963 0.727806
O O1 0.662914 0.632225 0.517290
O O2 0.381900 0.504780 0.203143
O O3 0.656877 0.720003 0.212646
O O4 0.812670 0.086138 0.225823
O O5 0.564406 0.227382 0.225656
O O6 0.614459 0.525697 0.154365
O O7 0.223462 0.999216 0.043443
O O8 0.412960 0.036065 0.405380
O O9 0.847291 0.345847 0.834762
O O10 0.126871 0.597563 0.818897
O O11 0.102607 0.398413 0.163020
O O12 0.820760 0.627160 0.507093
O O13 0.794140 0.988717 0.510921
O O14 0.995947 0.940578 0.781728
O O15 0.321838 0.901720 0.614983
O O16 0.070656 0.467629 0.538616
#
# Coordination Sequence:
#
# PCOD8005977 Si02
#       8
#     2   2   2   2   2   2   2   2
#     4  10  21  33  58  82 106 149 190 230 270 321
#     4  10  18  33  52  83 107 145 185 225 275 332
#     4  10  20  33  58  77 116 148 172 224 286 341
#     4  10  19  36  55  81 111 148 183 220 280 336
#     4  10  18  32  52  85 111 136 186 240 269 315
#     4   9  17  26  51  76 110 138 179 226 271 321
#     4  10  16  30  49  82 109 140 173 229 281 318
#     4  11  19  36  60  84 108 145 190 234 271 318
#
# _framework density 25.519190999999999
#
# number of rings (size 3 to 8) (size 9 to 14) (size 15 to 20)
#    0.000    2.000    3.750    3.750    0.000    0.000 
#    0.000    0.625   11.000    3.750    0.000    0.000 
#    0.000    0.000    0.000    0.000    0.000    0.000 
#
# Total GULP energy -198211.088362 kJ/mol
# GULP energy per Si atom -12388.193023 kJ/mol
# Density = 2.546111 g / cm^3
# Si number density = 25.519191 Si / 1000 Ang^3
#
#
#
# Elastic Constant Matrix: (Units=GPa)
#
#
# Indices 1 2 3 4 5 6 
#
# 1 138.2925 35.4957 26.3059 9.6953 -20.9192 17.2291
# 2 35.4957 108.9513 12.1544 3.6953 -2.5147 3.6094
# 3 26.3059 12.1544 84.7257 7.7729 -6.2737 23.5384
# 4 9.6953 3.6953 7.7729 29.7227 7.0621 -3.6323
# 5 -20.9192 -2.5147 -6.2737 7.0621 32.8401 -2.6167
# 6 17.2291 3.6094 23.5384 -3.6323 -2.6167 38.6823
#
#
#
# Elastic Compliance Matrix: (Units=1/GPa)
#
#
# Indices 1 2 3 4 5 6 
#
# 1 0.009859 -0.002695 -0.000722 -0.004725 0.006658 -0.003694
# 2 -0.002695 0.010101 -0.000928 0.000223 -0.001107 0.000769
# 3 -0.000722 -0.000928 0.015470 -0.005516 0.002868 -0.009330
# 4 -0.004725 0.000223 -0.005516 0.040502 -0.012085 0.008426
# 5 0.006658 -0.001107 0.002868 -0.012085 0.037498 -0.003205
# 6 -0.003694 0.000769 -0.009330 0.008426 -0.003205 0.033677
#
#
# Mechanical properties :
#
#
# Convention : Reuss Voigt Hill
#
# Bulk Modulus (GPa) = 37.39665 53.32016 45.35840
# Shear Modulus (GPa) = 30.35627 37.44990 33.90309
#
# Velocity S-wave (km/s) = 3.45272 3.83498 3.64886
# Velocity P-wave (km/s) = 5.53003 6.36780 5.96364
#
# Compressibility (1/GPa) = 0.02674036
#
# Stress axis : x y z
#
# Youngs Moduli (GPa) = 101.43437 98.99596 64.63926
#
# Poissons Ratio (x) = 0.26680 0.04665
# Poissons Ratio (y) = 0.27337 0.06001
# Poissons Ratio (z) = 0.07320 0.09191
#
# Static dielectric constant tensor:
#      x y z
#    x 4.882920 0.033470 -0.250480 
#    y 0.033470 4.853170 -0.044540 
#    z -0.250480 -0.044540 4.669540 
# 
# 
# High freq. dielectric constant tensor:
#      x y z
#    x 2.020580 -0.009760 -0.010280 
#    y -0.009760 2.024870 -0.005440 
#    z -0.010280 -0.005440 2.014590 
# 
# From -- ./inp_files/397804.got.cif
#   From: 2010.06.25/outbox.cif.g09.slc.cpg/sg2_199_cif.got.tgz:397804.got - 2010.06.27 13:26:56.
