data_PCOD8005705
_publ_section_title
;
Structure prediction by ZEFSAII (Michael W. Deem and Ramdas Pophale) SiO2 
 PCOD8005705
Probable space group: P -1
;
_chemical_formula_sum "Si O2"
_cell_formula_units_Z 14
_cell_length_a 17.911998
_cell_length_b 8.108789
_cell_length_c 5.507450
_cell_angle_alpha 120.750816
_cell_angle_beta 109.026487
_cell_angle_gamma 67.688068
_cell_volume 627.175860
_symmetry_space_group_name_H-M "P -1"
_symmetry_group_IT_number 2
_symmetry_cell_setting 'triclinic'
loop_
_space_group_symop_operation_xyz
x,y,z
-x,-y,-z
loop_
_atom_site_type_symbol
_atom_site_label
_atom_site_fract_x
_atom_site_fract_y
_atom_site_fract_z
Si Si1 0.449020 0.751456 0.376454
Si Si2 0.320247 0.085521 0.693621
Si Si3 0.108475 0.770499 0.782160
Si Si4 0.936856 0.958693 0.639492
Si Si5 0.204395 0.014556 0.864935
Si Si6 0.542795 0.700821 0.940538
Si Si7 0.842843 0.695026 0.574112
O O1 0.492198 0.780395 0.701202
O O2 0.431628 0.536956 0.196868
O O3 0.364153 0.924202 0.416638
O O4 0.496847 0.784820 0.207828
O O5 0.234404 0.224557 0.622557
O O6 0.294863 0.964409 0.803545
O O7 0.375892 0.226716 0.940827
O O8 0.193145 0.842965 0.909825
O O9 0.130318 0.539113 0.588253
O O10 0.032502 0.874246 0.592366
O O11 0.072099 0.838376 0.061583
O O12 0.918808 0.783087 0.657206
O O13 0.868859 0.998728 0.395961
O O14 0.187333 0.232403 0.132343
#
# Coordination Sequence:
#
# PCOD8005705 Si02
#       7
#     2   2   2   2   2   2   2
#     4  10  23  43  67  97 124 164 218 259 314 384
#     4  11  24  39  62  86 129 159 196 258 317 376
#     4  10  20  39  62  84 121 162 209 257 308 374
#     4   9  20  39  60  85 119 162 208 261 306 366
#     4  10  23  37  56  92 121 160 207 250 320 371
#     4  10  23  42  68  97 122 167 215 261 315 379
#     4  10  23  37  57  92 121 162 205 253 317 376
#
# _framework density 22.322289000000001
#
# number of rings (size 3 to 8) (size 9 to 14) (size 15 to 20)
#    0.000    2.000    0.000    1.714    4.000    7.429 
#    2.571    0.000    0.000    0.000    0.000    0.000 
#    0.000    0.000    0.000    0.000    0.000    0.000 
#
# Total GULP energy -173471.478435 kJ/mol
# GULP energy per Si atom -12390.819888 kJ/mol
# Density = 2.227148 g / cm^3
# Si number density = 22.322289 Si / 1000 Ang^3
#
#
#
# Elastic Constant Matrix: (Units=GPa)
#
#
# Indices 1 2 3 4 5 6 
#
# 1 154.8288 0.5526 35.0139 11.2144 3.7601 7.8430
# 2 0.5526 31.0320 8.4951 17.1096 -0.1986 -7.2168
# 3 35.0139 8.4951 110.5113 20.3900 -0.6538 -0.5019
# 4 11.2144 17.1096 20.3900 37.7182 1.3265 -3.7385
# 5 3.7601 -0.1986 -0.6538 1.3265 28.0578 1.9278
# 6 7.8430 -7.2168 -0.5019 -3.7385 1.9278 21.3415
#
#
#
# Elastic Compliance Matrix: (Units=1/GPa)
#
#
# Indices 1 2 3 4 5 6 
#
# 1 0.007188 0.000675 -0.002056 -0.001570 -0.000749 -0.002669
# 2 0.000675 0.045906 -0.000023 -0.019859 0.000365 0.011763
# 3 -0.002056 -0.000023 0.010660 -0.005165 0.000766 0.000025
# 4 -0.001570 -0.019859 -0.005165 0.038921 -0.001941 0.000733
# 5 -0.000749 0.000365 0.000766 -0.001941 0.036072 -0.003182
# 6 -0.002669 0.011763 0.000025 0.000733 -0.003182 0.052232
#
#
# Mechanical properties :
#
#
# Convention : Reuss Voigt Hill
#
# Bulk Modulus (GPa) = 16.40793 42.72170 29.56482
# Shear Modulus (GPa) = 23.35316 34.24419 28.79867
#
# Velocity S-wave (km/s) = 3.23798 3.92098 3.59574
# Velocity P-wave (km/s) = 4.62015 6.29912 5.52380
#
# Compressibility (1/GPa) = 0.06094613
#
# Stress axis : x y z
#
# Youngs Moduli (GPa) = 139.11128 21.78342 93.81034
#
# Poissons Ratio (x) = -0.01470 0.19290
# Poissons Ratio (y) = -0.09390 0.00216
# Poissons Ratio (z) = 0.28606 0.00050
#
# Static dielectric constant tensor:
#      x y z
#    x 4.536910 0.286370 -0.162140 
#    y 0.286370 3.836280 -0.135980 
#    z -0.162140 -0.135980 4.176990 
# 
# 
# High freq. dielectric constant tensor:
#      x y z
#    x 1.898870 0.010510 0.002550 
#    y 0.010510 1.856010 -0.000510 
#    z 0.002550 -0.000510 1.892520 
# 
# From -- ./inp_files/43985.got.cif
#   From: 2010.06.25/outbox.cif.g09.slc.cpg/sg2_22_cif.got.tgz:43985.got - 2010.06.27 13:26:56.
