data_PCOD8005443
_publ_section_title
;
Structure prediction by ZEFSAII (Michael W. Deem and Ramdas Pophale) SiO2 
 PCOD8005443
Probable space group: P -1
;
_chemical_formula_sum "Si O2"
_cell_formula_units_Z 14
_cell_length_a 13.331028
_cell_length_b 7.364078
_cell_length_c 21.513222
_cell_angle_alpha 53.000722
_cell_angle_beta 20.702814
_cell_angle_gamma 51.163938
_cell_volume 580.691350
_symmetry_space_group_name_H-M "P -1"
_symmetry_group_IT_number 2
_symmetry_cell_setting 'triclinic'
loop_
_space_group_symop_operation_xyz
x,y,z
-x,-y,-z
loop_
_atom_site_type_symbol
_atom_site_label
_atom_site_fract_x
_atom_site_fract_y
_atom_site_fract_z
Si Si1 0.774746 0.401996 0.317808
Si Si2 0.525372 0.055790 0.266328
Si Si3 0.993260 0.159876 0.884639
Si Si4 0.343255 0.582719 0.440624
Si Si5 0.174322 0.619328 0.185117
Si Si6 0.206164 0.945493 0.204577
Si Si7 0.920598 0.190042 0.562657
O O1 0.500000 0.500000 0.500000
O O2 0.990496 0.580688 0.154434
O O3 0.627099 0.383543 0.338503
O O4 0.935208 0.151460 0.301033
O O5 0.720675 0.037443 0.219578
O O6 0.411890 0.819980 0.377194
O O7 0.221051 0.254172 0.401392
O O8 0.710534 0.094435 0.091447
O O9 0.952619 0.165844 0.832780
O O10 0.294975 0.589093 0.392034
O O11 0.042322 0.557720 0.654555
O O12 0.165680 0.714230 0.240435
O O13 0.500000 0.500000 0.000000
O O14 0.240352 0.899309 0.267979
O O15 0.500000 0.000000 0.000000
O O16 0.000000 0.000000 0.500000
#
# Coordination Sequence:
#
# PCOD8005443 Si02
#       7
#     2   2   2   2   2   2   2
#     4  11  21  45  73 107 143 194 239 302 360 437
#     4   9  20  37  70 104 136 190 243 292 361 432
#     4  10  20  38  70 104 137 188 246 293 365 428
#     4  10  22  40  72  97 142 187 241 285 370 423
#     4  12  26  42  71 105 147 193 242 302 364 431
#     4  12  29  44  72 113 147 186 253 303 362 440
#     4  10  22  42  70  99 141 193 235 298 371 425
#
# _framework density 24.109192
#
# number of rings (size 3 to 8) (size 9 to 14) (size 15 to 20)
#    0.000    1.429    1.429    4.286    8.000    1.143 
#    0.000    0.714    3.143    0.000    0.000    0.000 
#    0.000    0.000    0.000    0.000    0.000    0.000 
#
# Total GULP energy -173452.445572 kJ/mol
# GULP energy per Si atom -12389.460398 kJ/mol
# Density = 2.405432 g / cm^3
# Si number density = 24.109192 Si / 1000 Ang^3
#
#
#
# Elastic Constant Matrix: (Units=GPa)
#
#
# Indices 1 2 3 4 5 6 
#
# 1 166.3239 38.7664 53.5764 6.6684 19.4384 -48.6331
# 2 38.7664 58.0735 29.4076 3.8468 4.4585 -20.0901
# 3 53.5764 29.4076 163.1696 -17.6771 2.5949 -12.2949
# 4 6.6684 3.8468 -17.6771 37.0203 -6.7566 -6.8359
# 5 19.4384 4.4585 2.5949 -6.7566 39.9413 -5.0583
# 6 -48.6331 -20.0901 -12.2949 -6.8359 -5.0583 54.5650
#
#
#
# Elastic Compliance Matrix: (Units=1/GPa)
#
#
# Indices 1 2 3 4 5 6 
#
# 1 0.009907 -0.002620 -0.002449 -0.002157 -0.003888 0.006683
# 2 -0.002620 0.022440 -0.003088 -0.002600 -0.000858 0.004826
# 3 -0.002449 -0.003088 0.007913 0.004709 0.001719 -0.000788
# 4 -0.002157 -0.002600 0.004709 0.031662 0.006741 0.002772
# 5 -0.003888 -0.000858 0.001719 0.006741 0.028060 0.000052
# 6 0.006683 0.004826 -0.000788 0.002772 0.000052 0.026234
#
#
# Mechanical properties :
#
#
# Convention : Reuss Voigt Hill
#
# Bulk Modulus (GPa) = 41.76257 70.11864 55.94061
# Shear Modulus (GPa) = 33.21994 44.02645 38.62319
#
# Velocity S-wave (km/s) = 3.71603 4.27796 4.00686
# Velocity P-wave (km/s) = 5.98094 7.31766 6.68281
#
# Compressibility (1/GPa) = 0.02394489
#
# Stress axis : x y z
#
# Youngs Moduli (GPa) = 100.94038 44.56345 126.37752
#
# Poissons Ratio (x) = 0.11675 0.30951
# Poissons Ratio (y) = 0.26444 0.39031
# Poissons Ratio (z) = 0.24721 0.13763
#
# Static dielectric constant tensor:
#      x y z
#    x 6.775560 -1.668540 -1.182270 
#    y -1.668540 5.025920 0.444030 
#    z -1.182270 0.444030 4.880360 
# 
# 
# High freq. dielectric constant tensor:
#      x y z
#    x 1.976910 -0.046830 -0.019230 
#    y -0.046830 1.922580 -0.019840 
#    z -0.019230 -0.019840 1.962410 
# 
# From -- ./inp_files/611482.got.cif
#   From: 2010.06.25/outbox.cif.g09.slc.cpg/sg2_306_cif.got.tgz:611482.got - 2010.06.27 13:26:56.
