data_PCOD8005719
_publ_section_title
;
Structure prediction by ZEFSAII (Michael W. Deem and Ramdas Pophale) SiO2 
 PCOD8005719
Probable space group: P -1
;
_chemical_formula_sum "Si O2"
_cell_formula_units_Z 14
_cell_length_a 22.134671
_cell_length_b 14.136288
_cell_length_c 14.566810
_cell_angle_alpha 151.006882
_cell_angle_beta 160.355510
_cell_angle_gamma 20.916618
_cell_volume 546.565397
_symmetry_space_group_name_H-M "P -1"
_symmetry_group_IT_number 2
_symmetry_cell_setting 'triclinic'
loop_
_space_group_symop_operation_xyz
x,y,z
-x,-y,-z
loop_
_atom_site_type_symbol
_atom_site_label
_atom_site_fract_x
_atom_site_fract_y
_atom_site_fract_z
Si Si1 0.451840 0.312915 0.383226
Si Si2 0.428192 0.524979 0.025634
Si Si3 0.935511 0.791681 0.117865
Si Si4 0.839366 0.489630 0.630978
Si Si5 0.996682 0.134237 0.400255
Si Si6 0.289525 0.271963 0.729633
Si Si7 0.563704 0.652692 0.809884
O O1 0.223256 0.517682 0.295421
O O2 0.619246 0.385592 0.684983
O O3 0.326456 0.370009 0.151265
O O4 0.617377 0.013223 0.401292
O O5 0.445055 0.297608 0.904688
O O6 0.134026 0.783288 0.817098
O O7 0.500000 0.500000 0.000000
O O8 0.580601 0.564665 0.339177
O O9 0.919152 0.769266 0.185422
O O10 0.877706 0.055835 0.232153
O O11 0.787481 0.754645 0.806939
O O12 0.929689 0.389541 0.570229
O O13 0.276678 0.890689 0.581335
O O14 0.000000 0.500000 0.500000
O O15 0.341295 0.278243 0.915968
#
# Coordination Sequence:
#
# PCOD8005719 Si02
#       7
#     2   2   2   2   2   2   2
#     4  10  22  41  65  94 125 161 214 261 312 380
#     4  10  23  40  60  91 130 168 205 259 316 365
#     4  10  21  36  63  91 117 165 211 256 312 370
#     4  10  21  38  59  90 125 162 210 257 311 372
#     4  10  20  39  62  86 124 164 208 257 309 370
#     4  12  25  42  66  94 126 168 213 260 318 380
#     4  10  22  42  67  93 124 165 209 266 319 371
#
# _framework density 25.614502000000002
#
# number of rings (size 3 to 8) (size 9 to 14) (size 15 to 20)
#    0.000    1.714    0.000    4.286    0.000    9.143 
#    0.000    8.571    0.000    0.000    0.000    0.000 
#    0.000    0.000    0.000    0.000    0.000    0.000 
#
# Total GULP energy -173459.191300 kJ/mol
# GULP energy per Si atom -12389.942236 kJ/mol
# Density = 2.555620 g / cm^3
# Si number density = 25.614502 Si / 1000 Ang^3
#
#
#
# Elastic Constant Matrix: (Units=GPa)
#
#
# Indices 1 2 3 4 5 6 
#
# 1 43.6737 -6.3673 -13.5954 5.4534 -0.4961 3.2938
# 2 -6.3673 88.0416 32.0240 1.5061 -10.7160 9.7779
# 3 -13.5954 32.0240 124.0300 4.5804 -21.5895 0.5864
# 4 5.4534 1.5061 4.5804 30.0900 1.8484 -6.7464
# 5 -0.4961 -10.7160 -21.5895 1.8484 32.4459 1.3422
# 6 3.2938 9.7779 0.5864 -6.7464 1.3422 27.7055
#
#
#
# Elastic Compliance Matrix: (Units=1/GPa)
#
#
# Indices 1 2 3 4 5 6 
#
# 1 0.025473 0.001853 0.003243 -0.006681 0.003770 -0.005561
# 2 0.001853 0.013480 -0.002641 -0.002046 0.003070 -0.005569
# 3 0.003243 -0.002641 0.010272 -0.002530 0.006181 -0.000586
# 4 -0.006681 -0.002046 -0.002530 0.037709 -0.005065 0.010998
# 5 0.003770 0.003070 0.006181 -0.005065 0.036486 -0.004663
# 6 -0.005561 -0.005569 -0.000586 0.010998 -0.004663 0.041637
#
#
# Mechanical properties :
#
#
# Convention : Reuss Voigt Hill
#
# Bulk Modulus (GPa) = 18.47195 31.09642 24.78418
# Shear Modulus (GPa) = 28.05964 34.29389 31.17677
#
# Velocity S-wave (km/s) = 3.31336 3.66299 3.49256
# Velocity P-wave (km/s) = 4.67600 5.48239 5.09517
#
# Compressibility (1/GPa) = 0.05413615
#
# Stress axis : x y z
#
# Youngs Moduli (GPa) = 39.25673 74.18345 97.35173
#
# Poissons Ratio (x) = -0.13749 -0.31571
# Poissons Ratio (y) = -0.07276 0.25711
# Poissons Ratio (z) = -0.12731 0.19592
#
# Static dielectric constant tensor:
#      x y z
#    x 4.773850 0.176920 0.116450 
#    y 0.176920 4.617030 -0.162220 
#    z 0.116450 -0.162220 5.035250 
# 
# 
# High freq. dielectric constant tensor:
#      x y z
#    x 2.028640 0.005350 0.004450 
#    y 0.005350 2.012790 0.002070 
#    z 0.004450 0.002070 2.029220 
# 
# From -- ./inp_files/543074.got.cif
#   From: 2010.06.25/outbox.cif.g09.slc.cpg/sg2_272_cif.got.tgz:543074.got - 2010.06.27 13:26:56.
