data_PCOD8005135
_publ_section_title
;
Structure prediction by ZEFSAII (Michael W. Deem and Ramdas Pophale) SiO2 
 PCOD8005135
Probable space group: P -1
;
_chemical_formula_sum "Si O2"
_cell_formula_units_Z 14
_cell_length_a 10.113175
_cell_length_b 6.599154
_cell_length_c 11.442583
_cell_angle_alpha 118.609167
_cell_angle_beta 90.212471
_cell_angle_gamma 115.892500
_cell_volume 580.814318
_symmetry_space_group_name_H-M "P -1"
_symmetry_group_IT_number 2
_symmetry_cell_setting 'triclinic'
loop_
_space_group_symop_operation_xyz
x,y,z
-x,-y,-z
loop_
_atom_site_type_symbol
_atom_site_label
_atom_site_fract_x
_atom_site_fract_y
_atom_site_fract_z
Si Si1 0.620263 0.543342 0.113714
Si Si2 0.787886 0.101184 0.396735
Si Si3 0.103995 0.377044 0.995044
Si Si4 0.619680 0.824159 0.525371
Si Si5 0.127142 0.339212 0.480890
Si Si6 0.569104 0.707170 0.738728
Si Si7 0.874389 0.777650 0.806599
O O1 0.742640 0.473562 0.040169
O O2 0.548005 0.341908 0.169673
O O3 0.702205 0.845707 0.242231
O O4 0.500000 0.500000 0.000000
O O5 0.814063 0.357338 0.391525
O O6 0.949375 0.140251 0.458108
O O7 0.676745 0.063309 0.497933
O O8 0.138888 0.419586 0.144386
O O9 0.027794 0.062432 0.885056
O O10 0.000000 0.500000 0.000000
O O11 0.760683 0.762496 0.504788
O O12 0.582039 0.891766 0.675316
O O13 0.469727 0.568983 0.402642
O O14 0.129537 0.373768 0.351112
O O15 0.734275 0.834917 0.832931
#
# Coordination Sequence:
#
# PCOD8005135 Si02
#       7
#     2   2   2   2   2   2   2
#     4  11  21  43  70  96 135 175 219 279 330 385
#     4  10  21  38  64  98 129 176 215 268 338 385
#     4  11  24  43  66  96 127 181 228 263 329 396
#     4   9  19  37  59  92 134 166 211 268 324 390
#     4  10  20  38  64  98 129 170 220 269 330 398
#     4   9  19  38  64  91 128 173 210 265 332 379
#     4  10  21  42  65  89 137 172 216 280 323 386
#
# _framework density 24.104087
#
# number of rings (size 3 to 8) (size 9 to 14) (size 15 to 20)
#    0.000    2.000    2.857    0.429    0.000    2.286 
#   12.857   18.571    0.000    0.000    0.000    0.000 
#    0.000    0.000    0.000    0.000    0.000    0.000 
#
# Total GULP energy -173449.915316 kJ/mol
# GULP energy per Si atom -12389.279665 kJ/mol
# Density = 2.404923 g / cm^3
# Si number density = 24.104087 Si / 1000 Ang^3
#
#
#
# Elastic Constant Matrix: (Units=GPa)
#
#
# Indices 1 2 3 4 5 6 
#
# 1 74.2614 20.1623 25.0290 -14.4500 -12.8629 29.9853
# 2 20.1623 69.3106 32.3123 -19.4945 -6.2209 26.9799
# 3 25.0290 32.3123 86.2948 -23.2168 6.3328 12.7219
# 4 -14.4500 -19.4945 -23.2168 40.2091 10.5486 -6.7000
# 5 -12.8629 -6.2209 6.3328 10.5486 32.7801 -3.6760
# 6 29.9853 26.9799 12.7219 -6.7000 -3.6760 40.1760
#
#
#
# Elastic Compliance Matrix: (Units=1/GPa)
#
#
# Indices 1 2 3 4 5 6 
#
# 1 0.022947 0.003785 -0.005735 0.001775 0.008376 -0.016790
# 2 0.003785 0.024610 -0.006690 0.005778 0.003803 -0.015921
# 3 -0.005735 -0.006690 0.018109 0.008171 -0.009249 0.003555
# 4 0.001775 0.005778 0.008171 0.035574 -0.011560 -0.002918
# 5 0.008376 0.003803 -0.009249 -0.011560 0.039553 -0.004186
# 6 -0.016790 -0.015921 0.003555 -0.002918 -0.004186 0.046118
#
#
# Mechanical properties :
#
#
# Convention : Reuss Voigt Hill
#
# Bulk Modulus (GPa) = 20.66685 42.76377 31.71531
# Shear Modulus (GPa) = 22.69438 32.79059 27.74248
#
# Velocity S-wave (km/s) = 3.07174 3.69233 3.39624
# Velocity P-wave (km/s) = 4.60146 5.99646 5.34467
#
# Compressibility (1/GPa) = 0.04838666
#
# Stress axis : x y z
#
# Youngs Moduli (GPa) = 43.57911 40.63429 55.21964
#
# Poissons Ratio (x) = -0.15380 0.31667
# Poissons Ratio (y) = -0.16495 0.36942
# Poissons Ratio (z) = 0.24991 0.27184
#
# Static dielectric constant tensor:
#      x y z
#    x 4.302330 0.606760 0.201310 
#    y 0.606760 4.318350 -0.277750 
#    z 0.201310 -0.277750 4.458110 
# 
# 
# High freq. dielectric constant tensor:
#      x y z
#    x 1.952700 0.039210 0.014760 
#    y 0.039210 1.949400 -0.016330 
#    z 0.014760 -0.016330 1.951030 
# 
# From -- ./inp_files/409497.got.cif
#   From: 2010.06.25/outbox.cif.g09.slc.cpg/sg2_205_cif.got.tgz:409497.got - 2010.06.27 13:26:56.
