data_PCOD8005024
_publ_section_title
;
Structure prediction by ZEFSAII (Michael W. Deem and Ramdas Pophale) SiO2 
 PCOD8005024
Probable space group: P -1
;
_chemical_formula_sum "Si O2"
_cell_formula_units_Z 16
_cell_length_a 14.164821
_cell_length_b 18.231552
_cell_length_c 5.078227
_cell_angle_alpha 86.072481
_cell_angle_beta 118.720744
_cell_angle_gamma 135.429635
_cell_volume 722.821262
_symmetry_space_group_name_H-M "P -1"
_symmetry_group_IT_number 2
_symmetry_cell_setting 'triclinic'
loop_
_space_group_symop_operation_xyz
x,y,z
-x,-y,-z
loop_
_atom_site_type_symbol
_atom_site_label
_atom_site_fract_x
_atom_site_fract_y
_atom_site_fract_z
Si Si1 0.537987 0.201371 0.597659
Si Si2 0.539325 0.687229 0.686260
Si Si3 0.944463 0.282671 0.750040
Si Si4 0.753784 0.601211 0.174585
Si Si5 0.762911 0.321423 0.368538
Si Si6 0.404853 0.980428 0.622286
Si Si7 0.833833 0.511778 0.623515
Si Si8 0.391512 0.363792 0.691087
O O1 0.415725 0.203815 0.338888
O O2 0.639921 0.228489 0.466082
O O3 0.417401 0.075234 0.593753
O O4 0.664803 0.293895 0.980710
O O5 0.333497 0.574413 0.388405
O O6 0.648065 0.694676 0.627246
O O7 0.585202 0.687109 0.043409
O O8 0.882632 0.314641 0.456078
O O9 0.791955 0.146063 0.634958
O O10 0.094044 0.305791 0.851400
O O11 0.003064 0.362114 0.059738
O O12 0.781548 0.531164 0.297626
O O13 0.762735 0.663522 0.417907
O O14 0.559975 0.504572 0.830565
O O15 0.873153 0.449634 0.592825
O O16 0.500000 0.000000 0.500000
O O17 0.500000 0.000000 0.000000
#
# Coordination Sequence:
#
# PCOD8005024 Si02
#       8
#     2   2   2   2   2   2   2   2
#     4  11  21  43  62  91 117 171 208 255 296 364
#     4  10  20  38  64  86 121 157 208 251 307 368
#     4  12  24  39  61  91 129 169 202 255 305 372
#     4  10  23  36  60  89 129 159 206 248 315 370
#     4  11  24  38  64  85 134 160 206 248 304 375
#     4  12  25  44  63  88 124 170 214 250 297 359
#     4  10  23  37  58  97 126 165 198 250 317 373
#     4  10  21  39  61  90 122 162 200 256 309 371
#
# _framework density 22.135486
#
# number of rings (size 3 to 8) (size 9 to 14) (size 15 to 20)
#    0.000    1.250    3.750    2.625    7.000    2.000 
#    0.000    0.000    0.000    1.500    0.000    0.000 
#    0.000    0.000    0.000    0.000    0.000    0.000 
#
# Total GULP energy -198251.020863 kJ/mol
# GULP energy per Si atom -12390.688804 kJ/mol
# Density = 2.208510 g / cm^3
# Si number density = 22.135486 Si / 1000 Ang^3
#
#
#
# Elastic Constant Matrix: (Units=GPa)
#
#
# Indices 1 2 3 4 5 6 
#
# 1 116.2611 15.6437 13.0264 8.9176 -1.9586 9.6094
# 2 15.6437 101.7396 33.8568 11.0852 4.2758 -6.5737
# 3 13.0264 33.8568 49.3965 0.5364 -15.0645 14.4157
# 4 8.9176 11.0852 0.5364 33.1428 1.5447 -4.8077
# 5 -1.9586 4.2758 -15.0645 1.5447 27.4987 -5.5360
# 6 9.6094 -6.5737 14.4157 -4.8077 -5.5360 28.1371
#
#
#
# Elastic Compliance Matrix: (Units=1/GPa)
#
#
# Indices 1 2 3 4 5 6 
#
# 1 0.009326 -0.001191 -0.000569 -0.002626 -0.000046 -0.003629
# 2 -0.001191 0.017519 -0.018059 -0.003144 -0.010272 0.011194
# 3 -0.000569 -0.018059 0.046730 0.000977 0.023653 -0.023146
# 4 -0.002626 -0.003144 0.000977 0.032675 0.000060 0.005256
# 5 -0.000046 -0.010272 0.023653 0.000060 0.049976 -0.004660
# 6 -0.003629 0.011194 -0.023146 0.005256 -0.004660 0.051235
#
#
# Mechanical properties :
#
#
# Convention : Reuss Voigt Hill
#
# Bulk Modulus (GPa) = 29.46684 43.60568 36.53626
# Shear Modulus (GPa) = 19.34896 31.41374 25.38135
#
# Velocity S-wave (km/s) = 2.95975 3.77126 3.38988
# Velocity P-wave (km/s) = 5.00211 6.22137 5.64475
#
# Compressibility (1/GPa) = 0.03393646
#
# Stress axis : x y z
#
# Youngs Moduli (GPa) = 107.22707 57.07928 21.39949
#
# Poissons Ratio (x) = 0.06798 0.01218
# Poissons Ratio (y) = 0.12771 0.38646
# Poissons Ratio (z) = 0.06104 1.03081
#
# Static dielectric constant tensor:
#      x y z
#    x 4.313430 -0.151160 0.065080 
#    y -0.151160 5.433310 -0.004700 
#    z 0.065080 -0.004700 3.731750 
# 
# 
# High freq. dielectric constant tensor:
#      x y z
#    x 1.881390 -0.008370 -0.010260 
#    y -0.008370 1.854990 -0.035920 
#    z -0.010260 -0.035920 1.843510 
# 
# From -- ./inp_files/70669.got.cif
#   From: 2010.06.25/outbox.cif.g09.slc.cpg/sg2_36_cif.got.tgz:70669.got - 2010.06.27 13:26:56.
