data_PCOD8005587
_publ_section_title
;
Structure prediction by ZEFSAII (Michael W. Deem and Ramdas Pophale) SiO2 
 PCOD8005587
Probable space group: P -1
;
_chemical_formula_sum "Si O2"
_cell_formula_units_Z 14
_cell_length_a 9.238890
_cell_length_b 23.894316
_cell_length_c 5.424048
_cell_angle_alpha 90.876445
_cell_angle_beta 97.290744
_cell_angle_gamma 143.753252
_cell_volume 687.980281
_symmetry_space_group_name_H-M "P -1"
_symmetry_group_IT_number 2
_symmetry_cell_setting 'triclinic'
loop_
_space_group_symop_operation_xyz
x,y,z
-x,-y,-z
loop_
_atom_site_type_symbol
_atom_site_label
_atom_site_fract_x
_atom_site_fract_y
_atom_site_fract_z
Si Si1 0.545874 0.264730 0.141127
Si Si2 0.051022 0.452159 0.062889
Si Si3 0.702628 0.768645 0.415955
Si Si4 0.714688 0.932473 0.936022
Si Si5 0.843581 0.008396 0.468963
Si Si6 0.308320 0.465479 0.767497
Si Si7 0.580090 0.608101 0.440347
O O1 0.450455 0.259253 0.378683
O O2 0.480270 0.179127 0.106574
O O3 0.848653 0.366125 0.210222
O O4 0.438520 0.262022 0.873237
O O5 0.337783 0.536434 0.209614
O O6 0.048952 0.410764 0.817889
O O7 0.000000 0.500000 0.000000
O O8 0.745712 0.715636 0.450813
O O9 0.975956 0.881755 0.480180
O O10 0.672271 0.955438 0.677372
O O11 0.676005 0.957649 0.178073
O O12 0.000000 0.000000 0.000000
O O13 0.000000 0.000000 0.500000
O O14 0.460955 0.564473 0.681861
O O15 0.246471 0.393136 0.569849
O O16 0.500000 0.500000 0.000000
#
# Coordination Sequence:
#
# PCOD8005587 Si02
#       7
#     2   2   2   2   2   2   2
#     4  12  22  31  52  84 119 145 183 226 289 331
#     4  11  22  35  55  85 117 146 182 235 283 335
#     4  12  21  32  54  85 112 148 185 230 280 335
#     4  10  16  31  46  70 113 150 173 221 278 333
#     4  10  16  30  48  71 112 144 181 221 278 324
#     4   9  21  42  56  73 110 154 193 230 278 328
#     4  10  22  38  58  77 113 152 192 230 273 340
#
# _framework density 20.349419999999999
#
# number of rings (size 3 to 8) (size 9 to 14) (size 15 to 20)
#    0.000    1.429    7.143    0.857    4.000    1.143 
#    0.000    0.000    0.000    0.000    0.000    2.000 
#    0.000    0.000    0.000    0.000    0.000    0.000 
#
# Total GULP energy -173433.121668 kJ/mol
# GULP energy per Si atom -12388.080119 kJ/mol
# Density = 2.030310 g / cm^3
# Si number density = 20.349420 Si / 1000 Ang^3
#
#
#
# Elastic Constant Matrix: (Units=GPa)
#
#
# Indices 1 2 3 4 5 6 
#
# 1 70.8460 36.1877 25.0813 -9.5283 -12.3861 -14.1552
# 2 36.1877 151.6503 23.7986 -21.2159 -7.5377 -31.0954
# 3 25.0813 23.7986 140.0077 -26.5665 -16.4074 -9.2102
# 4 -9.5283 -21.2159 -26.5665 34.9630 -0.3537 1.8135
# 5 -12.3861 -7.5377 -16.4074 -0.3537 17.2651 -3.0521
# 6 -14.1552 -31.0954 -9.2102 1.8135 -3.0521 23.5467
#
#
#
# Elastic Compliance Matrix: (Units=1/GPa)
#
#
# Indices 1 2 3 4 5 6 
#
# 1 0.020774 -0.000659 0.000253 0.004925 0.017360 0.013588
# 2 -0.000659 0.011101 0.001625 0.007077 0.008802 0.015495
# 3 0.000253 0.001625 0.010380 0.008688 0.012219 0.007272
# 4 0.004925 0.007077 0.008688 0.040248 0.018353 0.014983
# 5 0.017360 0.008802 0.012219 0.018353 0.092827 0.037458
# 6 0.013588 0.015495 0.007272 0.014983 0.037458 0.077647
#
#
# Mechanical properties :
#
#
# Convention : Reuss Voigt Hill
#
# Bulk Modulus (GPa) = 22.37465 59.18216 40.77840
# Shear Modulus (GPa) = 18.83685 33.65072 26.24378
#
# Velocity S-wave (km/s) = 3.04578 4.07092 3.59508
# Velocity P-wave (km/s) = 4.83613 7.15839 6.10863
#
# Compressibility (1/GPa) = 0.04469344
#
# Stress axis : x y z
#
# Youngs Moduli (GPa) = 48.13608 90.08030 96.34008
#
# Poissons Ratio (x) = 0.05936 -0.02439
# Poissons Ratio (y) = 0.03172 -0.15652
# Poissons Ratio (z) = -0.01219 -0.14635
#
# Static dielectric constant tensor:
#      x y z
#    x 4.409960 -0.100470 -1.188180 
#    y -0.100470 3.894340 -0.225980 
#    z -1.188180 -0.225980 5.502710 
# 
# 
# High freq. dielectric constant tensor:
#      x y z
#    x 1.738760 -0.024840 -0.015340 
#    y -0.024840 1.793400 -0.016080 
#    z -0.015340 -0.016080 1.822380 
# 
# From -- ./inp_files/35500.got.cif
#   From: 2010.06.25/outbox.cif.g09.slc.cpg/sg2_18_cif.got.tgz:35500.got - 2010.06.27 13:26:56.
