data_PCOD8005006
_publ_section_title
;
Structure prediction by ZEFSAII (Michael W. Deem and Ramdas Pophale) SiO2 
 PCOD8005006
Probable space group: P -1
;
_chemical_formula_sum "Si O2"
_cell_formula_units_Z 14
_cell_length_a 12.064264
_cell_length_b 10.117611
_cell_length_c 12.261042
_cell_angle_alpha 145.893999
_cell_angle_beta 45.840734
_cell_angle_gamma 120.759475
_cell_volume 594.026163
_symmetry_space_group_name_H-M "P -1"
_symmetry_group_IT_number 2
_symmetry_cell_setting 'triclinic'
loop_
_space_group_symop_operation_xyz
x,y,z
-x,-y,-z
loop_
_atom_site_type_symbol
_atom_site_label
_atom_site_fract_x
_atom_site_fract_y
_atom_site_fract_z
Si Si1 0.409817 0.769619 0.026457
Si Si2 0.939583 0.675104 0.564252
Si Si3 0.532573 0.725705 0.247495
Si Si4 0.817066 0.294512 0.282213
Si Si5 0.765502 0.153630 0.594040
Si Si6 0.834799 0.874540 0.146200
Si Si7 0.322908 0.920976 0.951312
O O1 0.469810 0.485737 0.807028
O O2 0.549108 0.916980 0.052923
O O3 0.268122 0.891386 0.286394
O O4 0.344293 0.796928 0.968192
O O5 0.804643 0.569099 0.516369
O O6 0.000000 0.500000 0.500000
O O7 0.089733 0.703108 0.408557
O O8 0.852104 0.927905 0.840898
O O9 0.403180 0.691142 0.221160
O O10 0.714023 0.703474 0.067029
O O11 0.500000 0.000000 0.500000
O O12 0.795888 0.133589 0.292011
O O13 0.680904 0.279520 0.276781
O O14 0.991589 0.244902 0.079960
O O15 0.807841 0.921801 0.327747
#
# Coordination Sequence:
#
# PCOD8005006 Si02
#       7
#     2   2   2   2   2   2   2
#     4  11  25  46  66  95 141 180 222 275 342 401
#     4  12  22  41  73 102 134 175 229 280 331 395
#     4  10  22  39  67  98 129 171 227 281 327 392
#     4  11  21  41  67  98 137 174 222 279 334 394
#     4  11  21  40  68 101 131 173 226 283 330 392
#     4  10  20  38  64 104 129 166 228 279 332 391
#     4  11  26  47  66  99 138 183 223 272 339 411
#
# _framework density 23.567986999999999
#
# number of rings (size 3 to 8) (size 9 to 14) (size 15 to 20)
#    0.000    1.143    2.857    3.857    2.000    0.571 
#    5.143    2.857    0.000    0.000    0.000    0.000 
#    0.000    0.000    0.000    0.000    0.000    0.000 
#
# Total GULP energy -173504.378849 kJ/mol
# GULP energy per Si atom -12393.169918 kJ/mol
# Density = 2.351434 g / cm^3
# Si number density = 23.567987 Si / 1000 Ang^3
#
#
#
# Elastic Constant Matrix: (Units=GPa)
#
#
# Indices 1 2 3 4 5 6 
#
# 1 106.9862 42.9296 6.0502 12.1929 22.5605 25.3042
# 2 42.9296 131.0020 20.5445 -6.4479 7.0104 18.4917
# 3 6.0502 20.5445 34.1522 -7.5659 9.1861 -4.7586
# 4 12.1929 -6.4479 -7.5659 28.6598 0.6069 3.1103
# 5 22.5605 7.0104 9.1861 0.6069 34.1786 3.7294
# 6 25.3042 18.4917 -4.7586 3.1103 3.7294 34.1054
#
#
#
# Elastic Compliance Matrix: (Units=1/GPa)
#
#
# Indices 1 2 3 4 5 6 
#
# 1 0.015150 -0.003588 -0.000902 -0.006457 -0.008039 -0.007953
# 2 -0.003588 0.010414 -0.006285 0.002634 0.002351 -0.004358
# 3 -0.000902 -0.006285 0.039111 0.008435 -0.009851 0.009842
# 4 -0.006457 0.002634 0.008435 0.040359 0.000653 0.000788
# 5 -0.008039 0.002351 -0.009851 0.000653 0.036803 -0.000768
# 6 -0.007953 -0.004358 0.009842 0.000788 -0.000768 0.038970
#
#
# Mechanical properties :
#
#
# Convention : Reuss Voigt Hill
#
# Bulk Modulus (GPa) = 23.18832 45.68768 34.43800
# Shear Modulus (GPa) = 23.07006 32.89647 27.98326
#
# Velocity S-wave (km/s) = 3.13209 3.74011 3.44952
# Velocity P-wave (km/s) = 4.78960 6.17080 5.52354
#
# Compressibility (1/GPa) = 0.04312516
#
# Stress axis : x y z
#
# Youngs Moduli (GPa) = 66.00631 96.02393 25.56838
#
# Poissons Ratio (x) = 0.34457 0.02305
# Poissons Ratio (y) = 0.23686 0.16070
# Poissons Ratio (z) = 0.05950 0.60351
#
# Static dielectric constant tensor:
#      x y z
#    x 4.439370 0.543370 0.207010 
#    y 0.543370 4.378930 -0.131190 
#    z 0.207010 -0.131190 4.264460 
# 
# 
# High freq. dielectric constant tensor:
#      x y z
#    x 1.933830 0.038140 0.015730 
#    y 0.038140 1.928540 -0.015980 
#    z 0.015730 -0.015980 1.934690 
# 
# From -- ./inp_files/420157.got.cif
#   From: 2010.06.25/outbox.cif.g09.slc.cpg/sg2_211_cif.got.tgz:420157.got - 2010.06.27 13:26:56.
