data_PCOD8005390
_publ_section_title
;
Structure prediction by ZEFSAII (Michael W. Deem and Ramdas Pophale) SiO2 
 PCOD8005390
Probable space group: P -1
;
_chemical_formula_sum "Si O2"
_cell_formula_units_Z 16
_cell_length_a 11.694372
_cell_length_b 11.147672
_cell_length_c 12.169464
_cell_angle_alpha 84.385579
_cell_angle_beta 112.796182
_cell_angle_gamma 40.906426
_cell_volume 730.134757
_symmetry_space_group_name_H-M "P -1"
_symmetry_group_IT_number 2
_symmetry_cell_setting 'triclinic'
loop_
_space_group_symop_operation_xyz
x,y,z
-x,-y,-z
loop_
_atom_site_type_symbol
_atom_site_label
_atom_site_fract_x
_atom_site_fract_y
_atom_site_fract_z
Si Si1 0.293919 0.554892 0.019009
Si Si2 0.862551 0.790476 0.146811
Si Si3 0.630905 0.910060 0.442136
Si Si4 0.426708 0.131156 0.807444
Si Si5 0.891634 0.030980 0.562165
Si Si6 0.811661 0.108353 0.140351
Si Si7 0.381876 0.360408 0.290482
Si Si8 0.118348 0.592639 0.736231
O O1 0.212918 0.763950 0.970538
O O2 0.135489 0.602672 0.872894
O O3 0.581286 0.307326 0.119172
O O4 0.252925 0.537049 0.125871
O O5 0.758534 0.816309 0.217445
O O6 0.155756 0.514513 0.273411
O O7 0.835696 0.956730 0.113061
O O8 0.704330 0.868873 0.978235
O O9 0.589487 0.849083 0.333670
O O10 0.912351 0.674094 0.607901
O O11 0.500000 0.000000 0.500000
O O12 0.527614 0.118654 0.328961
O O13 0.367148 0.316806 0.813105
O O14 0.595298 0.262247 0.434468
O O15 0.000000 0.000000 0.500000
O O16 0.941500 0.072181 0.682289
O O17 0.061179 0.769172 0.647802
#
# Coordination Sequence:
#
# PCOD8005390 Si02
#       8
#     2   2   2   2   2   2   2   2
#     4  10  20  38  68  93 125 170 219 260 316 381
#     4  11  25  40  65 100 129 168 218 265 321 371
#     4  11  25  43  64  94 130 168 214 265 327 383
#     4  11  24  43  66  94 128 172 215 266 318 383
#     4  10  21  39  66  95 126 173 212 259 328 383
#     4  10  20  40  64  92 131 168 213 261 316 390
#     4  11  24  40  64  96 129 170 215 271 317 380
#     4  10  22  40  65  94 125 167 218 263 317 383
#
# _framework density 21.913762999999999
#
# number of rings (size 3 to 8) (size 9 to 14) (size 15 to 20)
#    0.000    1.500    2.500    1.875    5.250    1.500 
#    0.000    0.000    0.000    0.000    0.000    0.000 
#    0.000    0.000    0.000    0.000    0.000    0.000 
#
# Total GULP energy -198243.654089 kJ/mol
# GULP energy per Si atom -12390.228381 kJ/mol
# Density = 2.186389 g / cm^3
# Si number density = 21.913763 Si / 1000 Ang^3
#
#
#
# Elastic Constant Matrix: (Units=GPa)
#
#
# Indices 1 2 3 4 5 6 
#
# 1 76.4685 25.6561 41.8120 5.5125 1.2323 -1.4761
# 2 25.6561 63.6803 31.1781 2.1552 3.6742 5.7155
# 3 41.8120 31.1781 124.9035 5.1961 13.0642 -6.5560
# 4 5.5125 2.1552 5.1961 35.2510 -5.5276 2.7836
# 5 1.2323 3.6742 13.0642 -5.5276 41.5586 -3.7733
# 6 -1.4761 5.7155 -6.5560 2.7836 -3.7733 35.8203
#
#
#
# Elastic Compliance Matrix: (Units=1/GPa)
#
#
# Indices 1 2 3 4 5 6 
#
# 1 0.017330 -0.004820 -0.004613 -0.001613 0.001229 0.000894
# 2 -0.004820 0.019743 -0.003450 0.000244 -0.000857 -0.004089
# 3 -0.004613 -0.003450 0.010888 -0.001306 -0.002960 0.002143
# 4 -0.001613 0.000244 -0.001306 0.029627 0.004177 -0.002207
# 5 0.001229 -0.000857 -0.002960 0.004177 0.025773 0.002036
# 6 0.000894 -0.004089 0.002143 -0.002207 0.002036 0.029385
#
#
# Mechanical properties :
#
#
# Convention : Reuss Voigt Hill
#
# Bulk Modulus (GPa) = 45.05408 51.37162 48.21285
# Shear Modulus (GPa) = 30.13694 33.61973 31.87833
#
# Velocity S-wave (km/s) = 3.71246 3.92111 3.81821
# Velocity P-wave (km/s) = 6.24346 6.63278 6.44106
#
# Compressibility (1/GPa) = 0.02219555
#
# Stress axis : x y z
#
# Youngs Moduli (GPa) = 57.70178 50.65161 91.84598
#
# Poissons Ratio (x) = 0.24416 0.42366
# Poissons Ratio (y) = 0.27815 0.31683
# Poissons Ratio (z) = 0.26616 0.17473
#
# Static dielectric constant tensor:
#      x y z
#    x 3.990660 0.167870 0.187330 
#    y 0.167870 3.640850 -0.205590 
#    z 0.187330 -0.205590 4.354100 
# 
# 
# High freq. dielectric constant tensor:
#      x y z
#    x 1.859020 0.016570 0.003920 
#    y 0.016570 1.831110 -0.010260 
#    z 0.003920 -0.010260 1.883570 
# 
# From -- ./inp_files/417015.got.cif
#   From: 2010.06.25/outbox.cif.g09.slc.cpg/sg2_209_cif.got.tgz:417015.got - 2010.06.27 13:26:56.
