data_PCOD8005549
_publ_section_title
;
Structure prediction by ZEFSAII (Michael W. Deem and Ramdas Pophale) SiO2 
 PCOD8005549
Probable space group: P -1
;
_chemical_formula_sum "Si O2"
_cell_formula_units_Z 14
_cell_length_a 8.257801
_cell_length_b 9.101030
_cell_length_c 21.580854
_cell_angle_alpha 49.556365
_cell_angle_beta 147.903952
_cell_angle_gamma 132.510261
_cell_volume 623.110541
_symmetry_space_group_name_H-M "P -1"
_symmetry_group_IT_number 2
_symmetry_cell_setting 'triclinic'
loop_
_space_group_symop_operation_xyz
x,y,z
-x,-y,-z
loop_
_atom_site_type_symbol
_atom_site_label
_atom_site_fract_x
_atom_site_fract_y
_atom_site_fract_z
Si Si1 0.299443 0.501337 0.527740
Si Si2 0.524626 0.349555 0.855065
Si Si3 0.684997 0.054069 0.903597
Si Si4 0.570409 0.659944 0.033962
Si Si5 0.781392 0.113243 0.665728
Si Si6 0.409298 0.671149 0.649105
Si Si7 0.311985 0.783277 0.265551
O O1 0.356067 0.720288 0.455403
O O2 0.356022 0.526289 0.612334
O O3 0.560288 0.397217 0.618829
O O4 0.949910 0.341400 0.442145
O O5 0.757047 0.242324 0.924198
O O6 0.612924 0.391690 0.945022
O O7 0.576808 0.571375 0.782629
O O8 0.167008 0.195415 0.768102
O O9 0.516459 0.103791 0.772536
O O10 0.470641 0.852746 0.924231
O O11 0.000000 0.000000 0.000000
O O12 0.938395 0.690425 0.157737
O O13 0.500000 0.500000 0.000000
O O14 0.643517 0.062612 0.704744
O O15 0.635847 0.897388 0.643387
#
# Coordination Sequence:
#
# PCOD8005549 Si02
#       7
#     2   2   2   2   2   2   2
#     4  10  20  39  59  91 129 156 199 255 300 365
#     4  10  21  42  64  88 127 162 199 260 308 361
#     4  10  21  41  62  83 121 162 204 254 310 356
#     4  10  23  40  62  92 120 158 212 256 306 366
#     4  10  22  37  63  93 122 162 203 245 306 375
#     4  10  21  37  63  93 121 159 205 243 310 373
#     4  10  21  40  60  86 126 161 199 257 305 357
#
# _framework density 22.467922999999999
#
# number of rings (size 3 to 8) (size 9 to 14) (size 15 to 20)
#    0.000    2.000    1.429    1.286    2.000    1.714 
#    2.571    2.857    0.000    0.000    0.000    0.000 
#    0.000    0.000    0.000    0.000    0.000    0.000 
#
# Total GULP energy -173473.605348 kJ/mol
# GULP energy per Si atom -12390.971811 kJ/mol
# Density = 2.241678 g / cm^3
# Si number density = 22.467923 Si / 1000 Ang^3
#
#
#
# Elastic Constant Matrix: (Units=GPa)
#
#
# Indices 1 2 3 4 5 6 
#
# 1 95.9523 8.0926 32.7144 -10.9168 -19.1994 -20.7375
# 2 8.0926 85.5423 32.7832 -13.1660 5.3756 1.7208
# 3 32.7144 32.7832 76.7807 -20.6278 -10.2019 -8.9096
# 4 -10.9168 -13.1660 -20.6278 32.5445 -3.5171 -3.0079
# 5 -19.1994 5.3756 -10.2019 -3.5171 37.6030 -6.2409
# 6 -20.7375 1.7208 -8.9096 -3.0079 -6.2409 33.4420
#
#
#
# Elastic Compliance Matrix: (Units=1/GPa)
#
#
# Indices 1 2 3 4 5 6 
#
# 1 0.016785 -0.000648 -0.002374 0.006155 0.010644 0.012349
# 2 -0.000648 0.014938 -0.007121 0.000403 -0.005019 -0.003968
# 3 -0.002374 -0.007121 0.022252 0.012000 0.008199 0.007432
# 4 0.006155 0.000403 0.012000 0.043141 0.012570 0.013219
# 5 0.010644 -0.005019 0.008199 0.012570 0.039043 0.017460
# 6 0.012349 -0.003968 0.007432 0.013219 0.017460 0.044192
#
#
# Mechanical properties :
#
#
# Convention : Reuss Voigt Hill
#
# Bulk Modulus (GPa) = 29.68398 45.05063 37.36730
# Shear Modulus (GPa) = 23.59986 33.03022 28.31504
#
# Velocity S-wave (km/s) = 3.24447 3.83836 3.55384
# Velocity P-wave (km/s) = 5.22263 6.30385 5.78854
#
# Compressibility (1/GPa) = 0.03368821
#
# Stress axis : x y z
#
# Youngs Moduli (GPa) = 59.57722 66.94463 44.94062
#
# Poissons Ratio (x) = 0.04338 0.10669
# Poissons Ratio (y) = 0.03861 0.32002
# Poissons Ratio (z) = 0.14144 0.47671
#
# Static dielectric constant tensor:
#      x y z
#    x 4.600260 -0.031260 -0.646650 
#    y -0.031260 3.812550 -0.185810 
#    z -0.646650 -0.185810 4.722610 
# 
# 
# High freq. dielectric constant tensor:
#      x y z
#    x 1.892130 -0.012070 -0.017610 
#    y -0.012070 1.864670 -0.021430 
#    z -0.017610 -0.021430 1.888070 
# 
# From -- ./inp_files/178356.got.cif
#   From: 2010.06.25/outbox.cif.g09.slc.cpg/sg2_90_cif.got.tgz:178356.got - 2010.06.27 13:26:56.
