data_PCOD8005215
_publ_section_title
;
Structure prediction by ZEFSAII (Michael W. Deem and Ramdas Pophale) SiO2 
 PCOD8005215
Probable space group: P -1
;
_chemical_formula_sum "Si O2"
_cell_formula_units_Z 14
_cell_length_a 11.118307
_cell_length_b 13.927493
_cell_length_c 17.247930
_cell_angle_alpha 157.899231
_cell_angle_beta 37.930564
_cell_angle_gamma 139.026489
_cell_volume 614.305341
_symmetry_space_group_name_H-M "P -1"
_symmetry_group_IT_number 2
_symmetry_cell_setting 'triclinic'
loop_
_space_group_symop_operation_xyz
x,y,z
-x,-y,-z
loop_
_atom_site_type_symbol
_atom_site_label
_atom_site_fract_x
_atom_site_fract_y
_atom_site_fract_z
Si Si1 0.678312 0.958833 0.291368
Si Si2 0.690953 0.459779 0.470869
Si Si3 0.011887 0.251866 0.757071
Si Si4 0.245681 0.897376 0.474030
Si Si5 0.271447 0.217443 0.461798
Si Si6 0.102165 0.333689 0.161418
Si Si7 0.773499 0.530590 0.644501
O O1 0.460939 0.817381 0.282090
O O2 0.748486 0.926439 0.319818
O O3 0.652451 0.255715 0.512923
O O4 0.836300 0.848991 0.073677
O O5 0.489079 0.272773 0.428240
O O6 0.724279 0.656351 0.530516
O O7 0.693054 0.631583 0.678806
O O8 0.865938 0.270136 0.247089
O O9 0.107864 0.336894 0.688581
O O10 0.157011 0.057895 0.572207
O O11 0.795044 0.090779 0.740485
O O12 0.000000 0.500000 0.000000
O O13 0.113573 0.630813 0.353471
O O14 0.235374 0.295748 0.143057
O O15 0.000000 0.500000 0.500000
#
# Coordination Sequence:
#
# PCOD8005215 Si02
#       7
#     2   2   2   2   2   2   2
#     4  10  21  36  63  96 124 169 205 260 336 382
#     4  10  20  41  66  91 136 169 206 273 319 380
#     4  11  24  43  67  93 126 175 224 264 321 378
#     4  10  21  39  59  92 132 159 213 275 312 384
#     4  10  23  43  64  93 129 172 218 266 320 370
#     4  10  20  38  65  94 126 169 209 258 332 389
#     4   9  20  37  56  91 128 160 205 262 313 377
#
# _framework density 22.78997
#
# number of rings (size 3 to 8) (size 9 to 14) (size 15 to 20)
#    0.000    2.000    1.429    1.286    2.000    2.286 
#    0.000   18.571    0.000    0.000    0.000    0.000 
#    0.000    0.000    0.000    0.000    0.000    0.000 
#
# Total GULP energy -173472.269108 kJ/mol
# GULP energy per Si atom -12390.876365 kJ/mol
# Density = 2.273810 g / cm^3
# Si number density = 22.789970 Si / 1000 Ang^3
#
#
#
# Elastic Constant Matrix: (Units=GPa)
#
#
# Indices 1 2 3 4 5 6 
#
# 1 122.4110 47.6235 19.8482 -0.8379 15.8452 2.3802
# 2 47.6235 124.4805 30.7640 0.9079 13.9108 13.6056
# 3 19.8482 30.7640 90.4385 -6.4341 21.0695 6.3563
# 4 -0.8379 0.9079 -6.4341 25.6318 -0.2269 6.1427
# 5 15.8452 13.9108 21.0695 -0.2269 19.8770 0.0788
# 6 2.3802 13.6056 6.3563 6.1427 0.0788 46.9562
#
#
#
# Elastic Compliance Matrix: (Units=1/GPa)
#
#
# Indices 1 2 3 4 5 6 
#
# 1 0.010207 -0.003343 0.000331 0.000393 -0.006145 0.000365
# 2 -0.003343 0.010371 -0.002099 -0.000427 -0.002363 -0.002491
# 3 0.000331 -0.002099 0.015755 0.004405 -0.015437 -0.002092
# 4 0.000393 -0.000427 0.004405 0.041529 -0.004186 -0.005918
# 5 -0.006145 -0.002363 -0.015437 -0.004186 0.073163 0.003511
# 6 0.000365 -0.002491 -0.002092 -0.005918 0.003511 0.023051
#
#
# Mechanical properties :
#
#
# Convention : Reuss Voigt Hill
#
# Bulk Modulus (GPa) = 38.29743 59.31124 48.80433
# Shear Modulus (GPa) = 25.90655 34.43263 30.16959
#
# Velocity S-wave (km/s) = 3.37523 3.89120 3.64237
# Velocity P-wave (km/s) = 5.65956 6.80223 6.25703
#
# Compressibility (1/GPa) = 0.02611142
#
# Stress axis : x y z
#
# Youngs Moduli (GPa) = 97.97119 96.42724 63.47093
#
# Poissons Ratio (x) = 0.32234 -0.02100
# Poissons Ratio (y) = 0.32751 0.13321
# Poissons Ratio (z) = -0.03242 0.20238
#
# Static dielectric constant tensor:
#      x y z
#    x 4.596990 -0.335560 0.576420 
#    y -0.335560 5.436680 -0.206170 
#    z 0.576420 -0.206170 3.634240 
# 
# 
# High freq. dielectric constant tensor:
#      x y z
#    x 1.912120 -0.000650 0.035430 
#    y -0.000650 1.926310 -0.004330 
#    z 0.035430 -0.004330 1.849310 
# 
# From -- ./inp_files/569847.got.cif
#   From: 2010.06.25/outbox.cif.g09.slc.cpg/sg2_285_cif.got.tgz:569847.got - 2010.06.27 13:26:56.
