data_PCOD8005129
_publ_section_title
;
Structure prediction by ZEFSAII (Michael W. Deem and Ramdas Pophale) SiO2 
 PCOD8005129
Probable space group: P -1
;
_chemical_formula_sum "Si O2"
_cell_formula_units_Z 16
_cell_length_a 8.070968
_cell_length_b 9.244345
_cell_length_c 9.548425
_cell_angle_alpha 91.046161
_cell_angle_beta 82.829090
_cell_angle_gamma 88.867690
_cell_volume 706.551104
_symmetry_space_group_name_H-M "P -1"
_symmetry_group_IT_number 2
_symmetry_cell_setting 'triclinic'
loop_
_space_group_symop_operation_xyz
x,y,z
-x,-y,-z
loop_
_atom_site_type_symbol
_atom_site_label
_atom_site_fract_x
_atom_site_fract_y
_atom_site_fract_z
Si Si1 0.326558 0.484786 0.734640
Si Si2 0.181278 0.925256 0.208471
Si Si3 0.796229 0.820823 0.595870
Si Si4 0.662702 0.345565 0.732280
Si Si5 0.599628 0.642355 0.831785
Si Si6 0.346900 0.102928 0.978539
Si Si7 0.894395 0.366449 0.462230
Si Si8 0.179498 0.200123 0.735304
O O1 0.485797 0.378099 0.672456
O O2 0.402512 0.596033 0.843315
O O3 0.254509 0.586963 0.623447
O O4 0.186023 0.369092 0.789295
O O5 0.331505 0.801208 0.176706
O O6 0.005197 0.849904 0.218118
O O7 0.204460 0.012819 0.352852
O O8 0.192233 0.038917 0.081457
O O9 0.651718 0.734125 0.690489
O O10 0.764959 0.813379 0.432567
O O11 0.978879 0.753706 0.617060
O O12 0.707976 0.490708 0.819063
O O13 0.808211 0.302907 0.607028
O O14 0.624291 0.730668 0.973195
O O15 0.305188 0.103868 0.818105
O O16 0.500000 0.000000 0.000000
O O17 0.000000 0.500000 0.500000
#
# Coordination Sequence:
#
# PCOD8005129 Si02
#       8
#     2   2   2   2   2   2   2   2
#     4  10  22  37  65 100 131 171 216 270 325 391
#     4  11  24  46  67  97 138 175 218 278 330 392
#     4  11  23  40  69 103 136 168 220 272 335 393
#     4  10  20  38  64  96 134 170 214 266 326 385
#     4   9  23  44  68  97 134 172 220 271 327 393
#     4  11  26  49  67  91 135 181 222 276 328 393
#     4  12  18  34  64  97 140 165 207 271 334 380
#     4  12  23  41  68  98 130 178 222 268 329 393
#
# _framework density 22.645211
#
# number of rings (size 3 to 8) (size 9 to 14) (size 15 to 20)
#    0.750    0.500    3.750    1.875    1.750    1.500 
#    0.000    2.500    0.000    0.000    0.000    0.000 
#    0.000    0.000    0.000    0.000    0.000    0.000 
#
# Total GULP energy -198217.954317 kJ/mol
# GULP energy per Si atom -12388.622145 kJ/mol
# Density = 2.259367 g / cm^3
# Si number density = 22.645211 Si / 1000 Ang^3
#
#
#
# Elastic Constant Matrix: (Units=GPa)
#
#
# Indices 1 2 3 4 5 6 
#
# 1 82.8866 50.5952 30.9855 8.2264 21.8250 6.5976
# 2 50.5952 159.4854 41.6878 10.7773 14.9800 3.2490
# 3 30.9855 41.6878 93.0990 -1.0254 21.7341 -4.2961
# 4 8.2264 10.7773 -1.0254 23.5558 -8.0630 2.8874
# 5 21.8250 14.9800 21.7341 -8.0630 28.0486 -7.4064
# 6 6.5976 3.2490 -4.2961 2.8874 -7.4064 48.3964
#
#
#
# Elastic Compliance Matrix: (Units=1/GPa)
#
#
# Indices 1 2 3 4 5 6 
#
# 1 0.021091 -0.003774 -0.001548 -0.011168 -0.017673 -0.004798
# 2 -0.003774 0.008329 -0.002398 -0.002743 -0.000487 -0.000168
# 3 -0.001548 -0.002398 0.014393 -0.000792 -0.008802 0.000350
# 4 -0.011168 -0.002743 -0.000792 0.056764 0.027745 0.002496
# 5 -0.017673 -0.000487 -0.008802 0.027745 0.067176 0.010286
# 6 -0.004798 -0.000168 0.000350 0.002496 0.010286 0.022784
#
#
# Mechanical properties :
#
#
# Convention : Reuss Voigt Hill
#
# Bulk Modulus (GPa) = 35.24566 64.66755 49.95660
# Shear Modulus (GPa) = 23.20905 34.14698 28.67801
#
# Velocity S-wave (km/s) = 3.20488 3.88740 3.56252
# Velocity P-wave (km/s) = 5.41231 6.98341 6.24744
#
# Compressibility (1/GPa) = 0.02837229
#
# Stress axis : x y z
#
# Youngs Moduli (GPa) = 47.41404 120.06819 69.48044
#
# Poissons Ratio (x) = 0.45311 0.10758
# Poissons Ratio (y) = 0.17893 0.16660
# Poissons Ratio (z) = 0.07341 0.28789
#
# Static dielectric constant tensor:
#      x y z
#    x 4.391380 -0.119940 0.143920 
#    y -0.119940 5.085900 -0.567450 
#    z 0.143920 -0.567450 4.144600 
# 
# 
# High freq. dielectric constant tensor:
#      x y z
#    x 1.888450 0.016750 -0.001390 
#    y 0.016750 1.908910 -0.019810 
#    z -0.001390 -0.019810 1.869780 
# 
# From -- ./inp_files/158730.got.cif
#   From: 2010.06.25/outbox.cif.g09.slc.cpg/sg2_80_cif.got.tgz:158730.got - 2010.06.27 13:26:56.
