data_PCOD8005960
_publ_section_title
;
Structure prediction by ZEFSAII (Michael W. Deem and Ramdas Pophale) SiO2 
 PCOD8005960
Probable space group: P -1
;
_chemical_formula_sum "Si O2"
_cell_formula_units_Z 16
_cell_length_a 10.105209
_cell_length_b 17.234220
_cell_length_c 7.152550
_cell_angle_alpha 126.500996
_cell_angle_beta 99.351254
_cell_angle_gamma 57.172385
_cell_volume 817.470887
_symmetry_space_group_name_H-M "P -1"
_symmetry_group_IT_number 2
_symmetry_cell_setting 'triclinic'
loop_
_space_group_symop_operation_xyz
x,y,z
-x,-y,-z
loop_
_atom_site_type_symbol
_atom_site_label
_atom_site_fract_x
_atom_site_fract_y
_atom_site_fract_z
Si Si1 0.232357 0.235115 0.477783
Si Si2 0.001641 0.309317 0.864786
Si Si3 0.167630 0.942418 0.560627
Si Si4 0.152558 0.140718 0.997922
Si Si5 0.138791 0.473591 0.635979
Si Si6 0.422082 0.504116 0.687488
Si Si7 0.696092 0.323221 0.762195
Si Si8 0.564301 0.029708 0.383670
O O1 0.225309 0.345127 0.553973
O O2 0.421179 0.134985 0.383127
O O3 0.159858 0.251810 0.691158
O O4 0.129832 0.202915 0.278296
O O5 0.849635 0.326035 0.742605
O O6 0.030664 0.233783 0.949078
O O7 0.953402 0.437365 0.088378
O O8 0.244770 0.809884 0.441106
O O9 0.306885 0.941441 0.470608
O O10 0.128790 0.032888 0.855011
O O11 0.000000 0.000000 0.500000
O O12 0.338273 0.084421 0.891064
O O13 0.271712 0.491875 0.600633
O O14 0.000000 0.500000 0.500000
O O15 0.500000 0.500000 0.500000
O O16 0.553925 0.395341 0.685363
O O17 0.362514 0.622843 0.962641
O O18 0.500000 0.000000 0.500000
#
# Coordination Sequence:
#
# PCOD8005960 Si02
#       8
#     2   2   2   2   2   2   2   2
#     4  12  22  41  64  91 127 165 200 262 310 357
#     4  11  22  40  66  90 125 165 204 255 314 361
#     4  10  20  39  64  89 126 163 197 254 306 360
#     4  10  22  39  62  90 127 160 204 254 304 364
#     4  11  24  41  64  95 124 156 213 256 307 371
#     4  10  24  44  64  90 123 166 202 256 308 361
#     4  10  21  43  65  89 125 163 207 250 305 371
#     4  10  21  39  63  90 122 162 207 247 308 364
#
# _framework density 19.572562000000001
#
# number of rings (size 3 to 8) (size 9 to 14) (size 15 to 20)
#    0.750    0.750    3.750    1.500    1.750    0.000 
#    6.750    1.875    0.000    0.000    0.000    0.000 
#    0.000    0.000    0.000    0.000    0.000    0.000 
#
# Total GULP energy -198229.966974 kJ/mol
# GULP energy per Si atom -12389.372936 kJ/mol
# Density = 1.952801 g / cm^3
# Si number density = 19.572562 Si / 1000 Ang^3
#
#
#
# Elastic Constant Matrix: (Units=GPa)
#
#
# Indices 1 2 3 4 5 6 
#
# 1 101.6234 25.8507 41.7839 -12.6722 14.5470 -11.2354
# 2 25.8507 110.2674 41.9654 10.1984 12.0051 -7.0255
# 3 41.7839 41.9654 99.6056 9.3377 13.7033 12.1050
# 4 -12.6722 10.1984 9.3377 34.0680 4.1593 5.1485
# 5 14.5470 12.0051 13.7033 4.1593 33.4559 2.7155
# 6 -11.2354 -7.0255 12.1050 5.1485 2.7155 34.5486
#
#
#
# Elastic Compliance Matrix: (Units=1/GPa)
#
#
# Indices 1 2 3 4 5 6 
#
# 1 0.015195 -0.000662 -0.006891 0.007364 -0.004991 0.006516
# 2 -0.000662 0.011769 -0.004665 -0.002910 -0.002020 0.004405
# 3 -0.006891 -0.004665 0.016418 -0.004319 -0.000849 -0.008232
# 4 0.007364 -0.002910 -0.004319 0.034941 -0.004609 -0.001529
# 5 -0.004991 -0.002020 -0.000849 -0.004609 0.034008 -0.003723
# 6 0.006516 0.004405 -0.008232 -0.001529 -0.003723 0.035364
#
#
# Mechanical properties :
#
#
# Convention : Reuss Voigt Hill
#
# Bulk Modulus (GPa) = 52.78294 58.96627 55.87460
# Shear Modulus (GPa) = 28.01942 33.87425 30.94684
#
# Velocity S-wave (km/s) = 3.78771 4.16468 3.98066
# Velocity P-wave (km/s) = 6.79377 7.30195 7.05244
#
# Compressibility (1/GPa) = 0.01894552
#
# Stress axis : x y z
#
# Youngs Moduli (GPa) = 65.81077 84.96597 60.90887
#
# Poissons Ratio (x) = 0.05627 0.41971
# Poissons Ratio (y) = 0.04358 0.28417
# Poissons Ratio (z) = 0.45349 0.39640
#
# Static dielectric constant tensor:
#      x y z
#    x 4.080890 -0.254490 0.272050 
#    y -0.254490 3.738660 0.310050 
#    z 0.272050 0.310050 3.634670 
# 
# 
# High freq. dielectric constant tensor:
#      x y z
#    x 1.761150 -0.022690 0.010410 
#    y -0.022690 1.770240 0.021890 
#    z 0.010410 0.021890 1.754330 
# 
# From -- ./inp_files/81718.got.cif
#   From: 2010.06.25/outbox.cif.g09.slc.cpg/sg2_41_cif.got.tgz:81718.got - 2010.06.27 13:26:56.
