data_PCOD8005422
_publ_section_title
;
Structure prediction by ZEFSAII (Michael W. Deem and Ramdas Pophale) SiO2 
 PCOD8005422
Probable space group: P -1
;
_chemical_formula_sum "Si O2"
_cell_formula_units_Z 16
_cell_length_a 8.566523
_cell_length_b 12.510074
_cell_length_c 17.159327
_cell_angle_alpha 123.194191
_cell_angle_beta 33.430705
_cell_angle_gamma 130.097426
_cell_volume 774.768083
_symmetry_space_group_name_H-M "P -1"
_symmetry_group_IT_number 2
_symmetry_cell_setting 'triclinic'
loop_
_space_group_symop_operation_xyz
x,y,z
-x,-y,-z
loop_
_atom_site_type_symbol
_atom_site_label
_atom_site_fract_x
_atom_site_fract_y
_atom_site_fract_z
Si Si1 0.587602 0.143011 0.919312
Si Si2 0.044616 0.694965 0.395168
Si Si3 0.649727 0.388300 0.897617
Si Si4 0.695132 0.469976 0.566812
Si Si5 0.527868 0.850199 0.849308
Si Si6 0.206720 0.930933 0.538776
Si Si7 0.831216 0.458178 0.135903
Si Si8 0.205237 0.203577 0.604044
O O1 0.449400 0.235095 0.960441
O O2 0.954679 0.201024 0.772278
O O3 0.450499 0.975063 0.893052
O O4 0.523921 0.163223 0.042498
O O5 0.771461 0.565953 0.497137
O O6 0.876426 0.757778 0.430757
O O7 0.278095 0.641465 0.232494
O O8 0.239886 0.810313 0.424082
O O9 0.961517 0.455900 0.844936
O O10 0.500000 0.500000 0.000000
O O11 0.466235 0.505550 0.732547
O O12 0.539749 0.310552 0.538426
O O13 0.000000 0.500000 0.500000
O O14 0.279891 0.705114 0.860427
O O15 0.880401 0.868595 0.695872
O O16 0.500000 0.000000 0.500000
O O17 0.212077 0.053651 0.528903
O O18 0.000000 0.500000 0.000000
#
# Coordination Sequence:
#
# PCOD8005422 Si02
#       8
#     2   2   2   2   2   2   2   2
#     4   9  19  41  64  91 127 171 221 269 330 400
#     4  11  23  43  63  91 136 171 223 274 339 403
#     4  11  25  45  66  96 138 178 224 278 345 403
#     4  12  24  38  65 102 132 173 231 280 331 401
#     4  10  20  38  69  93 128 171 222 274 328 396
#     4  11  23  41  64 100 130 170 224 274 335 400
#     4  12  23  43  69  99 134 178 229 278 338 399
#     4  10  21  40  65  89 132 177 209 274 341 398
#
# _framework density 20.651342
#
# number of rings (size 3 to 8) (size 9 to 14) (size 15 to 20)
#    0.000    1.250    5.000    1.500    1.750    0.000 
#    6.750    0.625    0.000    0.000    0.000    0.000 
#    0.000    0.000    0.000    0.000    0.000    0.000 
#
# Total GULP energy -198318.282345 kJ/mol
# GULP energy per Si atom -12394.892647 kJ/mol
# Density = 2.060434 g / cm^3
# Si number density = 20.651342 Si / 1000 Ang^3
#
#
#
# Elastic Constant Matrix: (Units=GPa)
#
#
# Indices 1 2 3 4 5 6 
#
# 1 81.3164 33.5784 47.5443 -1.8285 4.1154 3.0896
# 2 33.5784 149.3707 50.1210 -3.5078 5.5520 -0.8433
# 3 47.5443 50.1210 108.7728 3.8285 17.2059 -6.7636
# 4 -1.8285 -3.5078 3.8285 38.9530 -2.3611 1.2672
# 5 4.1154 5.5520 17.2059 -2.3611 31.1049 4.2176
# 6 3.0896 -0.8433 -6.7636 1.2672 4.2176 43.0206
#
#
#
# Elastic Compliance Matrix: (Units=1/GPa)
#
#
# Indices 1 2 3 4 5 6 
#
# 1 0.017318 -0.001431 -0.007561 0.001678 0.002649 -0.002770
# 2 -0.001431 0.008114 -0.003280 0.001039 0.000682 -0.000351
# 3 -0.007561 -0.003280 0.015567 -0.002772 -0.007746 0.003767
# 4 0.001678 0.001039 -0.002772 0.026373 0.003351 -0.001641
# 5 0.002649 0.000682 -0.007746 0.003351 0.036909 -0.005112
# 6 -0.002770 -0.000351 0.003767 -0.001641 -0.005112 0.024578
#
#
# Mechanical properties :
#
#
# Convention : Reuss Voigt Hill
#
# Bulk Modulus (GPa) = 60.76702 66.88304 63.82503
# Shear Modulus (GPa) = 31.46885 36.49677 33.98281
#
# Velocity S-wave (km/s) = 3.90784 4.20847 4.06094
# Velocity P-wave (km/s) = 7.06051 7.48813 7.27746
#
# Compressibility (1/GPa) = 0.01645630
#
# Stress axis : x y z
#
# Youngs Moduli (GPa) = 57.74353 123.24477 64.24021
#
# Poissons Ratio (x) = 0.17634 0.48570
# Poissons Ratio (y) = 0.08262 0.21068
# Poissons Ratio (z) = 0.43658 0.40419
#
# Static dielectric constant tensor:
#      x y z
#    x 3.624700 -0.356840 0.166150 
#    y -0.356840 4.748820 -0.094950 
#    z 0.166150 -0.094950 3.788340 
# 
# 
# High freq. dielectric constant tensor:
#      x y z
#    x 1.780120 -0.007600 0.017380 
#    y -0.007600 1.843020 0.000940 
#    z 0.017380 0.000940 1.803840 
# 
# From -- ./inp_files/332305.got.cif
#   From: 2010.06.25/outbox.cif.g09.slc.cpg/sg2_167_cif.got.tgz:332305.got - 2010.06.27 13:26:56.
