data_PCOD8005163
_publ_section_title
;
Structure prediction by ZEFSAII (Michael W. Deem and Ramdas Pophale) SiO2 
 PCOD8005163
Probable space group: P -1
;
_chemical_formula_sum "Si O2"
_cell_formula_units_Z 12
_cell_length_a 10.135889
_cell_length_b 13.420983
_cell_length_c 7.538799
_cell_angle_alpha 116.053045
_cell_angle_beta 60.120759
_cell_angle_gamma 142.034546
_cell_volume 544.953832
_symmetry_space_group_name_H-M "P -1"
_symmetry_group_IT_number 2
_symmetry_cell_setting 'triclinic'
loop_
_space_group_symop_operation_xyz
x,y,z
-x,-y,-z
loop_
_atom_site_type_symbol
_atom_site_label
_atom_site_fract_x
_atom_site_fract_y
_atom_site_fract_z
Si Si1 0.264537 0.161714 0.861636
Si Si2 0.291415 0.408080 0.939355
Si Si3 0.410331 0.304872 0.259478
Si Si4 0.052322 0.647594 0.658450
Si Si5 0.516100 0.824254 0.584289
Si Si6 0.051483 0.857035 0.584920
O O1 0.165604 0.222638 0.886790
O O2 0.473953 0.240900 0.655448
O O3 0.075883 0.963496 0.812091
O O4 0.364182 0.220547 0.036794
O O5 0.393136 0.498817 0.750848
O O6 0.500000 0.500000 0.000000
O O7 0.127363 0.417001 0.122698
O O8 0.498100 0.262423 0.305073
O O9 0.183451 0.243129 0.432831
O O10 0.295230 0.781495 0.693286
O O11 0.046543 0.731934 0.568076
O O12 0.000000 0.500000 0.500000
O O13 0.742081 0.020787 0.595513
#
# Coordination Sequence:
#
# PCOD8005163 Si02
#       6
#     2   2   2   2   2   2
#     4   9  21  40  67  92 122 168 208 251 308 365
#     4  10  20  38  65  89 119 171 204 251 307 362
#     4  11  20  41  66  96 125 158 217 254 297 380
#     4  12  23  42  64  91 130 166 206 258 317 371
#     4  10  25  39  64  99 124 160 210 257 317 360
#     4  10  22  40  67  90 126 169 204 253 315 370
#
# _framework density 22.020213999999999
#
# number of rings (size 3 to 8) (size 9 to 14) (size 15 to 20)
#    1.000    0.667    3.333    3.500    0.000    1.333 
#    0.000    0.833    0.000    0.000    0.000    0.000 
#    0.000    0.000    0.000    0.000    0.000    0.000 
#
# Total GULP energy -148708.417926 kJ/mol
# GULP energy per Si atom -12392.368161 kJ/mol
# Density = 2.197010 g / cm^3
# Si number density = 22.020214 Si / 1000 Ang^3
#
#
#
# Elastic Constant Matrix: (Units=GPa)
#
#
# Indices 1 2 3 4 5 6 
#
# 1 98.5754 24.3162 32.0737 -19.1124 -22.1756 -1.7977
# 2 24.3162 119.8058 27.4239 -15.0954 -17.2301 -14.9262
# 3 32.0737 27.4239 47.3803 -5.8227 -20.5230 8.8278
# 4 -19.1124 -15.0954 -5.8227 43.6839 -1.8017 -11.3620
# 5 -22.1756 -17.2301 -20.5230 -1.8017 40.5054 -9.7689
# 6 -1.7977 -14.9262 8.8278 -11.3620 -9.7689 39.0341
#
#
#
# Elastic Compliance Matrix: (Units=1/GPa)
#
#
# Indices 1 2 3 4 5 6 
#
# 1 0.016242 0.002058 -0.009408 0.008978 0.007357 0.008117
# 2 0.002058 0.012506 -0.007236 0.007071 0.005493 0.009946
# 3 -0.009408 -0.007236 0.036354 -0.004280 0.007392 -0.010818
# 4 0.008978 0.007071 -0.004280 0.033488 0.011260 0.016651
# 5 0.007357 0.005493 0.007392 0.011260 0.038604 0.013706
# 6 0.008117 0.009946 -0.010818 0.016651 0.013706 0.040519
#
#
# Mechanical properties :
#
#
# Convention : Reuss Voigt Hill
#
# Bulk Modulus (GPa) = 27.83276 48.15432 37.99354
# Shear Modulus (GPa) = 22.84550 36.77452 29.81001
#
# Velocity S-wave (km/s) = 3.22449 4.09104 3.68333
# Velocity P-wave (km/s) = 5.15074 6.65065 5.94817
#
# Compressibility (1/GPa) = 0.03592888
#
# Stress axis : x y z
#
# Youngs Moduli (GPa) = 61.56940 79.96409 27.50732
#
# Poissons Ratio (x) = -0.16453 0.25878
# Poissons Ratio (y) = -0.12668 0.19904
# Poissons Ratio (z) = 0.57923 0.57862
#
# Static dielectric constant tensor:
#      x y z
#    x 3.761750 -0.098050 -0.284310 
#    y -0.098050 4.690820 -0.163180 
#    z -0.284310 -0.163180 3.764940 
# 
# 
# High freq. dielectric constant tensor:
#      x y z
#    x 1.847600 -0.004550 -0.016260 
#    y -0.004550 1.891330 -0.017360 
#    z -0.016260 -0.017360 1.843000 
# 
# From -- ./inp_files/189820.got.cif
#   From: 2010.06.25/outbox.cif.g09.slc.cpg/sg2_95_cif.got.tgz:189820.got - 2010.06.27 13:26:56.
