data_PCOD8005173
_publ_section_title
;
Structure prediction by ZEFSAII (Michael W. Deem and Ramdas Pophale) SiO2 
 PCOD8005173
Probable space group: P -1
;
_chemical_formula_sum "Si O2"
_cell_formula_units_Z 16
_cell_length_a 13.664041
_cell_length_b 6.575403
_cell_length_c 9.148424
_cell_angle_alpha 98.433034
_cell_angle_beta 108.166576
_cell_angle_gamma 83.781700
_cell_volume 770.824397
_symmetry_space_group_name_H-M "P -1"
_symmetry_group_IT_number 2
_symmetry_cell_setting 'triclinic'
loop_
_space_group_symop_operation_xyz
x,y,z
-x,-y,-z
loop_
_atom_site_type_symbol
_atom_site_label
_atom_site_fract_x
_atom_site_fract_y
_atom_site_fract_z
Si Si1 0.381001 0.044357 0.958748
Si Si2 0.461211 0.316189 0.560445
Si Si3 0.968428 0.721801 0.080065
Si Si4 0.091938 0.090190 0.642351
Si Si5 0.373291 0.987310 0.280055
Si Si6 0.840863 0.056052 0.887144
Si Si7 0.782226 0.245397 0.169769
Si Si8 0.278960 0.321654 0.702141
O O1 0.354100 0.079943 0.118932
O O2 0.343771 0.240169 0.864867
O O3 0.500000 0.000000 0.000000
O O4 0.327439 0.845215 0.852119
O O5 0.500000 0.500000 0.500000
O O6 0.555943 0.228333 0.699365
O O7 0.358140 0.368219 0.613708
O O8 0.433129 0.146172 0.415574
O O9 0.937682 0.719283 0.237870
O O10 0.064727 0.863465 0.148110
O O11 0.000000 0.500000 0.000000
O O12 0.875326 0.835253 0.954893
O O13 0.189005 0.167438 0.599924
O O14 0.125011 0.891000 0.730541
O O15 0.000000 0.000000 0.500000
O O16 0.254824 0.963709 0.273584
O O17 0.802550 0.233684 0.004411
O O18 0.783447 0.470634 0.257934
#
# Coordination Sequence:
#
# PCOD8005173 Si02
#       8
#     2   2   2   2   2   2   2   2
#     4  10  20  38  65  90 118 166 210 263 311 363
#     4  11  26  41  60  91 130 172 206 257 318 381
#     4  10  20  38  65  92 124 158 209 260 314 374
#     4  10  23  41  63  93 128 167 207 262 324 377
#     4  10  23  43  61  88 132 161 212 260 317 377
#     4   9  20  39  62  89 122 161 199 262 313 363
#     4   9  21  38  61  91 127 159 207 261 310 375
#     4  11  23  41  66  93 128 166 215 261 311 385
#
# _framework density 20.756999
#
# number of rings (size 3 to 8) (size 9 to 14) (size 15 to 20)
#    0.000    2.000    1.250    1.500    3.500    5.000 
#    2.250    0.000    0.000    0.000    0.000    0.000 
#    0.000    0.000    0.000    0.000    0.000    0.000 
#
# Total GULP energy -198229.072595 kJ/mol
# GULP energy per Si atom -12389.317037 kJ/mol
# Density = 2.070976 g / cm^3
# Si number density = 20.756999 Si / 1000 Ang^3
#
#
#
# Elastic Constant Matrix: (Units=GPa)
#
#
# Indices 1 2 3 4 5 6 
#
# 1 134.5100 39.2572 44.3438 -3.8471 15.9281 6.2463
# 2 39.2572 89.2426 39.3446 3.0657 -5.6618 -9.6771
# 3 44.3438 39.3446 83.0415 -0.7506 11.3734 6.6562
# 4 -3.8471 3.0657 -0.7506 20.7460 6.0960 -7.3233
# 5 15.9281 -5.6618 11.3734 6.0960 42.6205 -0.5833
# 6 6.2463 -9.6771 6.6562 -7.3233 -0.5833 30.0873
#
#
#
# Elastic Compliance Matrix: (Units=1/GPa)
#
#
# Indices 1 2 3 4 5 6 
#
# 1 0.010123 -0.003740 -0.002905 0.002748 -0.003926 -0.002069
# 2 -0.003740 0.017646 -0.007869 -0.002750 0.006340 0.007647
# 3 -0.002905 -0.007869 0.018501 0.000684 -0.005076 -0.005953
# 4 0.002748 -0.002750 0.000684 0.056105 -0.009437 0.011867
# 5 -0.003926 0.006340 -0.005076 -0.009437 0.028507 0.002233
# 6 -0.002069 0.007647 -0.005953 0.011867 0.002233 0.040374
#
#
# Mechanical properties :
#
#
# Convention : Reuss Voigt Hill
#
# Bulk Modulus (GPa) = 58.00426 61.40947 59.70687
# Shear Modulus (GPa) = 24.26802 30.94732 27.60767
#
# Velocity S-wave (km/s) = 3.42299 3.86545 3.65093
# Velocity P-wave (km/s) = 6.60512 7.04070 6.82638
#
# Compressibility (1/GPa) = 0.01724011
#
# Stress axis : x y z
#
# Youngs Moduli (GPa) = 98.78114 56.67035 54.05237
#
# Poissons Ratio (x) = 0.21196 0.15704
# Poissons Ratio (y) = 0.36946 0.42536
# Poissons Ratio (z) = 0.28699 0.44596
#
# Static dielectric constant tensor:
#      x y z
#    x 4.269690 -0.189450 0.102920 
#    y -0.189450 3.698750 -0.021470 
#    z 0.102920 -0.021470 3.826570 
# 
# 
# High freq. dielectric constant tensor:
#      x y z
#    x 1.837360 0.004260 0.009430 
#    y 0.004260 1.796910 -0.002490 
#    z 0.009430 -0.002490 1.796780 
# 
# From -- ./inp_files/49321.got.cif
#   From: 2010.06.25/outbox.cif.g09.slc.cpg/sg2_25_cif.got.tgz:49321.got - 2010.06.27 13:26:56.
