data_PCOD8005086
_publ_section_title
;
Structure prediction by ZEFSAII (Michael W. Deem and Ramdas Pophale) SiO2 
 PCOD8005086
Probable space group: P -1
;
_chemical_formula_sum "Si O2"
_cell_formula_units_Z 16
_cell_length_a 27.722218
_cell_length_b 9.447897
_cell_length_c 15.292101
_cell_angle_alpha 133.002141
_cell_angle_beta 160.237984
_cell_angle_gamma 36.538809
_cell_volume 749.640050
_symmetry_space_group_name_H-M "P -1"
_symmetry_group_IT_number 2
_symmetry_cell_setting 'triclinic'
loop_
_space_group_symop_operation_xyz
x,y,z
-x,-y,-z
loop_
_atom_site_type_symbol
_atom_site_label
_atom_site_fract_x
_atom_site_fract_y
_atom_site_fract_z
Si Si1 0.488617 0.596939 0.133157
Si Si2 0.962675 0.601581 0.244907
Si Si3 0.857374 0.135841 0.079464
Si Si4 0.623893 0.071680 0.766913
Si Si5 0.202664 0.646543 0.559417
Si Si6 0.003212 0.133183 0.144739
Si Si7 0.360658 0.902106 0.763220
Si Si8 0.754244 0.590088 0.205765
O O1 0.498700 0.661466 0.277297
O O2 0.617432 0.610323 0.293163
O O3 0.626558 0.285183 0.227068
O O4 0.278146 0.727266 0.798000
O O5 0.915503 0.415681 0.084247
O O6 0.107797 0.537906 0.390374
O O7 0.050197 0.586527 0.480831
O O8 0.769661 0.883452 0.012819
O O9 0.881131 0.142670 0.018693
O O10 0.775154 0.411912 0.091604
O O11 0.711324 0.092848 0.838127
O O12 0.056507 0.901458 0.360670
O O13 0.500000 0.000000 0.500000
O O14 0.218675 0.982135 0.475406
O O15 0.000000 0.000000 0.000000
O O16 0.283089 0.160632 0.791484
O O17 0.574906 0.720052 0.016864
#
# Coordination Sequence:
#
# PCOD8005086 Si02
#       8
#     2   2   2   2   2   2   2   2
#     4  11  20  39  64  94 130 160 203 261 312 371
#     4  10  22  41  61  94 124 163 205 262 308 371
#     4  11  22  42  66  91 122 167 209 263 308 368
#     4  11  25  41  64  89 128 168 209 253 307 372
#     4  10  21  37  66  96 122 158 208 256 324 362
#     4  11  26  43  62  88 129 173 212 251 305 373
#     4  10  20  38  64  93 127 165 197 263 307 368
#     4  10  20  38  66  95 128 158 208 258 324 358
#
# _framework density 21.343577
#
# number of rings (size 3 to 8) (size 9 to 14) (size 15 to 20)
#    0.000    1.500    3.750    0.750    1.750    5.000 
#    4.500    5.000    0.000    0.000    0.000    0.000 
#    0.000    0.000    0.000    0.000    0.000    0.000 
#
# Total GULP energy -198209.561707 kJ/mol
# GULP energy per Si atom -12388.097607 kJ/mol
# Density = 2.129500 g / cm^3
# Si number density = 21.343577 Si / 1000 Ang^3
#
#
#
# Elastic Constant Matrix: (Units=GPa)
#
#
# Indices 1 2 3 4 5 6 
#
# 1 114.4646 57.8832 34.8578 17.6213 7.4755 -2.5950
# 2 57.8832 101.8382 40.2210 11.6089 -0.0831 5.2022
# 3 34.8578 40.2210 87.0463 16.9171 12.4486 -4.7505
# 4 17.6213 11.6089 16.9171 31.3943 2.1295 -3.3382
# 5 7.4755 -0.0831 12.4486 2.1295 27.1464 3.9040
# 6 -2.5950 5.2022 -4.7505 -3.3382 3.9040 28.0406
#
#
#
# Elastic Compliance Matrix: (Units=1/GPa)
#
#
# Indices 1 2 3 4 5 6 
#
# 1 0.013393 -0.006988 -0.000729 -0.004054 -0.003403 0.002404
# 2 -0.006988 0.016377 -0.005857 0.000077 0.005435 -0.005425
# 3 -0.000729 -0.005857 0.016909 -0.005554 -0.007755 0.004302
# 4 -0.004054 0.000077 -0.005554 0.037401 0.000286 0.003082
# 5 -0.003403 0.005435 -0.007755 0.000286 0.042551 -0.008527
# 6 0.002404 -0.005425 0.004302 0.003082 -0.008527 0.039175
#
#
# Mechanical properties :
#
#
# Convention : Reuss Voigt Hill
#
# Bulk Modulus (GPa) = 51.19779 63.25259 57.22519
# Shear Modulus (GPa) = 25.06716 28.67539 26.87128
#
# Velocity S-wave (km/s) = 3.43076 3.66937 3.55207
# Velocity P-wave (km/s) = 6.30341 6.90305 6.61004
#
# Compressibility (1/GPa) = 0.01953209
#
# Stress axis : x y z
#
# Youngs Moduli (GPa) = 74.66744 61.05962 59.13852
#
# Poissons Ratio (x) = 0.42668 0.04308
# Poissons Ratio (y) = 0.52177 0.34640
# Poissons Ratio (z) = 0.05440 0.35765
#
# Static dielectric constant tensor:
#      x y z
#    x 3.882760 0.382290 0.230310 
#    y 0.382290 4.068410 -0.094480 
#    z 0.230310 -0.094480 3.834220 
# 
# 
# High freq. dielectric constant tensor:
#      x y z
#    x 1.831540 0.018510 0.019940 
#    y 0.018510 1.838040 -0.009140 
#    z 0.019940 -0.009140 1.832370 
# 
# From -- ./inp_files/543870.got.cif
#   From: 2010.06.25/outbox.cif.g09.slc.cpg/sg2_272_cif.got.tgz:543870.got - 2010.06.27 13:26:56.
