data_PCOD8005271
_publ_section_title
;
Structure prediction by ZEFSAII (Michael W. Deem and Ramdas Pophale) SiO2 
 PCOD8005271
Probable space group: P -1
;
_chemical_formula_sum "Si O2"
_cell_formula_units_Z 14
_cell_length_a 12.217590
_cell_length_b 19.272857
_cell_length_c 13.041024
_cell_angle_alpha 153.663151
_cell_angle_beta 52.256845
_cell_angle_gamma 144.897525
_cell_volume 689.537735
_symmetry_space_group_name_H-M "P -1"
_symmetry_group_IT_number 2
_symmetry_cell_setting 'triclinic'
loop_
_space_group_symop_operation_xyz
x,y,z
-x,-y,-z
loop_
_atom_site_type_symbol
_atom_site_label
_atom_site_fract_x
_atom_site_fract_y
_atom_site_fract_z
Si Si1 0.603264 0.386382 0.575801
Si Si2 0.714833 0.871737 0.406121
Si Si3 0.483387 0.030733 0.864031
Si Si4 0.407654 0.289020 0.348362
Si Si5 0.973757 0.850027 0.101322
Si Si6 0.593553 0.163179 0.564514
Si Si7 0.064504 0.698490 0.021385
O O1 0.414503 0.289082 0.629646
O O2 0.567450 0.416078 0.521217
O O3 0.607878 0.201261 0.331765
O O4 0.834466 0.652753 0.829769
O O5 0.820045 0.813931 0.217257
O O6 0.542650 0.798513 0.329781
O O7 0.902120 0.156571 0.708469
O O8 0.743630 0.262729 0.034647
O O9 0.416154 0.961459 0.691642
O O10 0.383013 0.101142 0.057989
O O11 0.500000 0.500000 0.500000
O O12 0.164031 0.121062 0.302032
O O13 0.084878 0.810026 0.050780
O O14 0.500000 0.000000 0.500000
O O15 0.838264 0.416739 0.787448
#
# Coordination Sequence:
#
# PCOD8005271 Si02
#       7
#     2   2   2   2   2   2   2
#     4  10  22  41  68  94 121 164 220 257 304 385
#     4  10  22  37  65 100 124 155 214 258 309 384
#     4  10  23  44  63  92 123 165 223 248 300 396
#     4  12  28  43  61  93 131 168 209 265 319 361
#     4  12  22  39  68  95 125 167 211 260 315 365
#     4  10  22  39  63  96 127 164 204 263 319 366
#     4  10  20  38  66  90 121 170 205 253 318 362
#
# _framework density 20.303459
#
# number of rings (size 3 to 8) (size 9 to 14) (size 15 to 20)
#    0.000    1.714    5.714    1.286    0.000    8.000 
#    0.000    0.000    0.000    0.000    0.000    0.000 
#    0.000    0.000    0.000    0.000    0.000    0.000 
#
# Total GULP energy -173607.245408 kJ/mol
# GULP energy per Si atom -12400.517529 kJ/mol
# Density = 2.025725 g / cm^3
# Si number density = 20.303459 Si / 1000 Ang^3
#
#
#
# Elastic Constant Matrix: (Units=GPa)
#
#
# Indices 1 2 3 4 5 6 
#
# 1 60.8528 32.0183 42.0818 -3.6173 11.1288 -16.4960
# 2 32.0183 77.6518 39.7322 16.7217 -6.2866 -20.6000
# 3 42.0818 39.7322 100.6591 8.5927 18.0846 1.3553
# 4 -3.6173 16.7217 8.5927 35.8832 8.5630 -0.8238
# 5 11.1288 -6.2866 18.0846 8.5630 37.2661 1.7106
# 6 -16.4960 -20.6000 1.3553 -0.8238 1.7106 38.8733
#
#
#
# Elastic Compliance Matrix: (Units=1/GPa)
#
#
# Indices 1 2 3 4 5 6 
#
# 1 0.033752 -0.010111 -0.009460 0.013158 -0.010679 0.010044
# 2 -0.010111 0.028872 -0.008703 -0.015797 0.015270 0.010307
# 3 -0.009460 -0.008703 0.018756 0.000165 -0.007372 -0.008952
# 4 0.013158 -0.015797 0.000165 0.040276 -0.015872 -0.001241
# 5 -0.010679 0.015270 -0.007372 -0.015872 0.039744 0.001732
# 6 0.010044 0.010307 -0.008952 -0.001241 0.001732 0.035658
#
#
# Mechanical properties :
#
#
# Convention : Reuss Voigt Hill
#
# Bulk Modulus (GPa) = 40.26881 51.86981 46.06931
# Shear Modulus (GPa) = 19.09250 30.75995 24.92622
#
# Velocity S-wave (km/s) = 3.06985 3.89654 3.50763
# Velocity P-wave (km/s) = 5.69577 6.77102 6.25654
#
# Compressibility (1/GPa) = 0.02483312
#
# Stress axis : x y z
#
# Youngs Moduli (GPa) = 29.62769 34.63506 53.31743
#
# Poissons Ratio (x) = 0.35018 0.50436
# Poissons Ratio (y) = 0.29955 0.46405
# Poissons Ratio (z) = 0.28026 0.30145
#
# Static dielectric constant tensor:
#      x y z
#    x 3.839310 0.162070 0.560340 
#    y 0.162070 3.630270 0.140010 
#    z 0.560340 0.140010 4.107490 
# 
# 
# High freq. dielectric constant tensor:
#      x y z
#    x 1.785540 0.005700 0.024990 
#    y 0.005700 1.783500 -0.000160 
#    z 0.024990 -0.000160 1.800310 
# 
# From -- ./inp_files/281581.got.cif
#   From: 2010.06.25/outbox.cif.g09.slc.cpg/sg2_141_cif.got.tgz:281581.got - 2010.06.27 13:26:56.
