data_PCOD8005161
_publ_section_title
;
Structure prediction by ZEFSAII (Michael W. Deem and Ramdas Pophale) SiO2 
 PCOD8005161
Probable space group: P -1
;
_chemical_formula_sum "Si O2"
_cell_formula_units_Z 14
_cell_length_a 25.492637
_cell_length_b 5.195376
_cell_length_c 18.704615
_cell_angle_alpha 65.321149
_cell_angle_beta 161.448496
_cell_angle_gamma 122.183797
_cell_volume 630.925515
_symmetry_space_group_name_H-M "P -1"
_symmetry_group_IT_number 2
_symmetry_cell_setting 'triclinic'
loop_
_space_group_symop_operation_xyz
x,y,z
-x,-y,-z
loop_
_atom_site_type_symbol
_atom_site_label
_atom_site_fract_x
_atom_site_fract_y
_atom_site_fract_z
Si Si1 0.209520 0.835908 0.639915
Si Si2 0.005101 0.864918 0.599523
Si Si3 0.652977 0.805163 0.705029
Si Si4 0.582076 0.284704 0.464614
Si Si5 0.420745 0.130461 0.128594
Si Si6 0.469353 0.820993 0.092506
Si Si7 0.029596 0.194274 0.086950
O O1 0.136410 0.510679 0.538790
O O2 0.055581 0.953658 0.440654
O O3 0.372160 0.092589 0.771665
O O4 0.284891 0.800065 0.819174
O O5 0.000000 0.000000 0.500000
O O6 0.202103 0.883072 0.871495
O O7 0.500000 0.500000 0.500000
O O8 0.598461 0.724279 0.727690
O O9 0.649655 0.115752 0.630759
O O10 0.877281 0.920546 0.975542
O O11 0.515584 0.083283 0.328441
O O12 0.751204 0.647400 0.623685
O O13 0.432173 0.477161 0.111676
O O14 0.522203 0.071337 0.197904
O O15 0.000000 0.500000 0.000000
O O16 0.000000 0.000000 0.000000
#
# Coordination Sequence:
#
# PCOD8005161 Si02
#       7
#     2   2   2   2   2   2   2
#     4  11  22  41  65  88 122 169 223 257 300 391
#     4  12  21  39  64  93 124 169 215 259 317 374
#     4  10  20  41  69  92 119 169 217 253 316 393
#     4  10  24  41  62  95 131 163 211 267 320 379
#     4  12  25  40  63  93 131 163 207 269 324 366
#     4  11  23  41  63  90 123 170 212 261 319 371
#     4  10  20  38  65  89 118 160 205 253 308 379
#
# _framework density 22.189623000000001
#
# number of rings (size 3 to 8) (size 9 to 14) (size 15 to 20)
#    0.000    1.143    4.286    2.143    2.000    2.286 
#    5.143    0.000    0.000    0.000    0.000    0.000 
#    0.000    0.000    0.000    0.000    0.000    0.000 
#
# Total GULP energy -173470.578371 kJ/mol
# GULP energy per Si atom -12390.755598 kJ/mol
# Density = 2.213912 g / cm^3
# Si number density = 22.189623 Si / 1000 Ang^3
#
#
#
# Elastic Constant Matrix: (Units=GPa)
#
#
# Indices 1 2 3 4 5 6 
#
# 1 128.7219 29.9699 52.8296 5.0864 1.4490 -20.6547
# 2 29.9699 61.4062 9.1621 20.8388 9.0482 -16.2096
# 3 52.8296 9.1621 100.5100 30.3139 11.1542 10.7521
# 4 5.0864 20.8388 30.3139 35.0476 0.6917 3.9853
# 5 1.4490 9.0482 11.1542 0.6917 42.2785 2.5644
# 6 -20.6547 -16.2096 10.7521 3.9853 2.5644 34.1110
#
#
#
# Elastic Compliance Matrix: (Units=1/GPa)
#
#
# Indices 1 2 3 4 5 6 
#
# 1 0.015549 -0.008682 -0.012465 0.012764 0.003954 0.007430
# 2 -0.008682 0.032906 0.009837 -0.027906 -0.009566 0.011259
# 3 -0.012465 0.009837 0.024508 -0.024273 -0.007309 -0.007212
# 4 0.012764 -0.027906 -0.024273 0.064761 0.011261 -0.006294
# 5 0.003954 -0.009566 -0.007309 0.011261 0.027505 -0.003231
# 6 0.007430 0.011259 -0.007212 -0.006294 -0.003231 0.042417
#
#
# Mechanical properties :
#
#
# Convention : Reuss Voigt Hill
#
# Bulk Modulus (GPa) = 19.86312 52.72903 36.29607
# Shear Modulus (GPa) = 20.23924 35.53253 27.88588
#
# Velocity S-wave (km/s) = 3.02338 4.00598 3.54885
# Velocity P-wave (km/s) = 4.59986 6.72396 5.76066
#
# Compressibility (1/GPa) = 0.05034456
#
# Stress axis : x y z
#
# Youngs Moduli (GPa) = 64.31244 30.38949 40.80351
#
# Poissons Ratio (x) = 0.26384 0.50860
# Poissons Ratio (y) = 0.55835 -0.40140
# Poissons Ratio (z) = 0.80163 -0.29895
#
# Static dielectric constant tensor:
#      x y z
#    x 4.206650 -0.044920 0.456540 
#    y -0.044920 4.061010 0.371140 
#    z 0.456540 0.371140 4.488840 
# 
# 
# High freq. dielectric constant tensor:
#      x y z
#    x 1.876050 -0.016010 0.021240 
#    y -0.016010 1.862610 0.024100 
#    z 0.021240 0.024100 1.868410 
# 
# From -- ./inp_files/48765.got.cif
#   From: 2010.06.25/outbox.cif.g09.slc.cpg/sg2_25_cif.got.tgz:48765.got - 2010.06.27 13:26:56.
