data_PCOD8005714
_publ_section_title
;
Structure prediction by ZEFSAII (Michael W. Deem and Ramdas Pophale) SiO2 
 PCOD8005714
Probable space group: P -1
;
_chemical_formula_sum "Si O2"
_cell_formula_units_Z 16
_cell_length_a 12.446560
_cell_length_b 13.607518
_cell_length_c 11.667482
_cell_angle_alpha 97.532805
_cell_angle_beta 57.376589
_cell_angle_gamma 142.754329
_cell_volume 817.148949
_symmetry_space_group_name_H-M "P -1"
_symmetry_group_IT_number 2
_symmetry_cell_setting 'triclinic'
loop_
_space_group_symop_operation_xyz
x,y,z
-x,-y,-z
loop_
_atom_site_type_symbol
_atom_site_label
_atom_site_fract_x
_atom_site_fract_y
_atom_site_fract_z
Si Si1 0.200126 0.469081 0.625666
Si Si2 0.686121 0.805942 0.530798
Si Si3 0.669058 0.018376 0.882658
Si Si4 0.610324 0.354865 0.936650
Si Si5 0.851136 0.603657 0.617113
Si Si6 0.069471 0.581891 0.845429
Si Si7 0.393318 0.028271 0.351082
Si Si8 0.249923 0.232463 0.267855
O O1 0.471838 0.611701 0.541403
O O2 0.117171 0.521226 0.725151
O O3 0.973038 0.240957 0.760651
O O4 0.233430 0.491281 0.473082
O O5 0.632090 0.728278 0.676107
O O6 0.637913 0.889196 0.554989
O O7 0.986552 0.993068 0.354132
O O8 0.615786 0.950000 0.773686
O O9 0.572729 0.865146 0.996600
O O10 0.500000 0.000000 0.000000
O O11 0.451402 0.343556 0.068647
O O12 0.707133 0.438243 0.765557
O O13 0.848994 0.501501 0.907803
O O14 0.788920 0.676801 0.684491
O O15 0.161092 0.797148 0.482028
O O16 0.328012 0.824704 0.746552
O O17 0.000000 0.500000 0.000000
#
# Coordination Sequence:
#
# PCOD8005714 Si02
#       8
#     2   2   2   2   2   2   2   2
#     4  10  21  38  60  87 118 145 195 241 290 341
#     4   9  18  36  66  84 105 150 198 245 280 326
#     4  11  19  35  58  87 114 149 189 240 285 341
#     4  12  22  37  60  85 121 155 190 233 298 342
#     4  10  24  38  57  84 123 158 185 236 291 347
#     4  11  19  36  66  88 111 148 199 245 282 340
#     4   9  18  37  58  86 112 144 196 237 284 338
#     4  10  20  39  62  86 111 152 203 238 279 338
#
# _framework density 19.580273999999999
#
# number of rings (size 3 to 8) (size 9 to 14) (size 15 to 20)
#    0.000    1.750    3.750    1.125    1.750    1.500 
#    0.000    0.625   16.500    0.000    0.000    0.000 
#    0.000    0.000    0.000    0.000    0.000    0.000 
#
# Total GULP energy -198313.661056 kJ/mol
# GULP energy per Si atom -12394.603816 kJ/mol
# Density = 1.953571 g / cm^3
# Si number density = 19.580274 Si / 1000 Ang^3
#
#
#
# Elastic Constant Matrix: (Units=GPa)
#
#
# Indices 1 2 3 4 5 6 
#
# 1 76.8159 44.0231 61.1869 -8.9595 -10.3442 25.4042
# 2 44.0231 96.6884 61.0547 -6.5797 -4.5126 20.9063
# 3 61.1869 61.0547 150.9514 -5.6642 9.4017 21.0964
# 4 -8.9595 -6.5797 -5.6642 30.5943 1.7719 -11.9284
# 5 -10.3442 -4.5126 9.4017 1.7719 33.9386 -7.8899
# 6 25.4042 20.9063 21.0964 -11.9284 -7.8899 36.5743
#
#
#
# Elastic Compliance Matrix: (Units=1/GPa)
#
#
# Indices 1 2 3 4 5 6 
#
# 1 0.025941 -0.004488 -0.007863 0.001274 0.007349 -0.008916
# 2 -0.004488 0.015781 -0.004180 -0.000030 0.001133 -0.003257
# 3 -0.007863 -0.004180 0.011968 -0.000898 -0.006389 -0.000723
# 4 0.001274 -0.000030 -0.000898 0.037566 0.001515 0.012229
# 5 0.007349 0.001133 -0.006389 0.001515 0.034933 0.005963
# 6 -0.008916 -0.003257 -0.000723 0.012229 0.005963 0.041089
#
#
# Mechanical properties :
#
#
# Convention : Reuss Voigt Hill
#
# Bulk Modulus (GPa) = 48.48132 72.99833 60.73982
# Shear Modulus (GPa) = 24.12953 30.76753 27.44853
#
# Velocity S-wave (km/s) = 3.51428 3.96833 3.74819
# Velocity P-wave (km/s) = 6.42502 7.63933 7.05834
#
# Compressibility (1/GPa) = 0.02062650
#
# Stress axis : x y z
#
# Youngs Moduli (GPa) = 38.54955 63.36915 83.55660
#
# Poissons Ratio (x) = 0.28440 0.65703
# Poissons Ratio (y) = 0.17301 0.34926
# Poissons Ratio (z) = 0.30313 0.26488
#
# Static dielectric constant tensor:
#      x y z
#    x 3.475950 0.258730 -0.377310 
#    y 0.258730 3.636110 -0.206420 
#    z -0.377310 -0.206420 3.803300 
# 
# 
# High freq. dielectric constant tensor:
#      x y z
#    x 1.741590 0.011120 -0.023200 
#    y 0.011120 1.758740 -0.003340 
#    z -0.023200 -0.003340 1.771010 
# 
# From -- ./inp_files/470945.got.cif
#   From: 2010.06.25/outbox.cif.g09.slc.cpg/sg2_236_cif.got.tgz:470945.got - 2010.06.27 13:26:56.
