data_PCOD8005294
_publ_section_title
;
Structure prediction by ZEFSAII (Michael W. Deem and Ramdas Pophale) SiO2 
 PCOD8005294
Probable space group: P -1
;
_chemical_formula_sum "Si O2"
_cell_formula_units_Z 16
_cell_length_a 19.230718
_cell_length_b 15.648303
_cell_length_c 8.842316
_cell_angle_alpha 141.600079
_cell_angle_beta 143.203922
_cell_angle_gamma 27.671602
_cell_volume 713.115306
_symmetry_space_group_name_H-M "P -1"
_symmetry_group_IT_number 2
_symmetry_cell_setting 'triclinic'
loop_
_space_group_symop_operation_xyz
x,y,z
-x,-y,-z
loop_
_atom_site_type_symbol
_atom_site_label
_atom_site_fract_x
_atom_site_fract_y
_atom_site_fract_z
Si Si1 0.214668 0.914654 0.274444
Si Si2 0.320388 0.099596 0.844460
Si Si3 0.291841 0.574644 0.269113
Si Si4 0.049958 0.011358 0.406545
Si Si5 0.746506 0.095117 0.004544
Si Si6 0.164338 0.185770 0.992929
Si Si7 0.482780 0.493280 0.213061
Si Si8 0.919842 0.520254 0.231235
O O1 0.050054 0.017932 0.228504
O O2 0.329242 0.687663 0.133714
O O3 0.310852 0.944408 0.587241
O O4 0.190210 0.999402 0.183395
O O5 0.273158 0.170405 0.034486
O O6 0.207362 0.264959 0.752699
O O7 0.500000 0.000000 0.000000
O O8 0.208833 0.793076 0.419209
O O9 0.419436 0.452975 0.186349
O O10 0.392729 0.492171 0.487212
O O11 0.161793 0.561681 0.009382
O O12 0.053041 0.161998 0.687273
O O13 0.890127 0.075404 0.289081
O O14 0.576092 0.315443 0.012778
O O15 0.730653 0.972887 0.911231
O O16 0.058417 0.393186 0.170049
O O17 0.000000 0.500000 0.500000
#
# Coordination Sequence:
#
# PCOD8005294 Si02
#       8
#     2   2   2   2   2   2   2   2
#     4  10  23  40  58  94 132 160 206 266 327 377
#     4  11  26  46  66  89 127 185 223 262 309 390
#     4  10  20  39  65  92 124 165 211 258 325 389
#     4  10  20  38  66  94 121 163 204 268 324 380
#     4  12  20  36  63 100 128 153 203 269 336 382
#     4  11  23  42  67  95 125 169 226 262 316 396
#     4  10  21  36  65  96 127 161 206 266 332 386
#     4  12  25  44  67  95 135 173 220 271 322 378
#
# _framework density 22.436764
#
# number of rings (size 3 to 8) (size 9 to 14) (size 15 to 20)
#    0.000    1.250    2.500    3.750    3.500    0.000 
#    4.500    1.250    0.000    0.000    0.000    0.000 
#    0.000    0.000    0.000    0.000    0.000    0.000 
#
# Total GULP energy -198366.927796 kJ/mol
# GULP energy per Si atom -12397.932987 kJ/mol
# Density = 2.238570 g / cm^3
# Si number density = 22.436764 Si / 1000 Ang^3
#
#
#
# Elastic Constant Matrix: (Units=GPa)
#
#
# Indices 1 2 3 4 5 6 
#
# 1 130.9020 32.4783 23.5114 -5.3603 -16.2847 -8.0469
# 2 32.4783 99.7165 2.3625 9.6835 -9.7016 -4.6873
# 3 23.5114 2.3625 42.0443 4.2050 -9.5743 -3.2436
# 4 -5.3603 9.6835 4.2050 25.0592 -1.5929 -6.0790
# 5 -16.2847 -9.7016 -9.5743 -1.5929 37.2364 -2.5648
# 6 -8.0469 -4.6873 -3.2436 -6.0790 -2.5648 41.0848
#
#
#
# Elastic Compliance Matrix: (Units=1/GPa)
#
#
# Indices 1 2 3 4 5 6 
#
# 1 0.010031 -0.003279 -0.005178 0.004947 0.002556 0.002073
# 2 -0.003279 0.011775 0.002181 -0.005445 0.001975 0.000191
# 3 -0.005178 0.002181 0.028480 -0.006164 0.005425 0.000910
# 4 0.004947 -0.005445 -0.006164 0.045838 0.001585 0.006742
# 5 0.002556 0.001975 0.005425 0.001585 0.030176 0.003273
# 6 0.002073 0.000191 0.000910 0.006742 0.003273 0.026042
#
#
# Mechanical properties :
#
#
# Convention : Reuss Voigt Hill
#
# Bulk Modulus (GPa) = 26.50163 43.26301 34.88232
# Shear Modulus (GPa) = 28.17381 34.96345 31.56863
#
# Velocity S-wave (km/s) = 3.54743 3.95183 3.75508
# Velocity P-wave (km/s) = 5.34942 6.33614 5.86357
#
# Compressibility (1/GPa) = 0.03773353
#
# Stress axis : x y z
#
# Youngs Moduli (GPa) = 99.69372 84.92882 35.11296
#
# Poissons Ratio (x) = 0.27845 0.18181
# Poissons Ratio (y) = 0.32686 -0.07658
# Poissons Ratio (z) = 0.51620 -0.18522
#
# Static dielectric constant tensor:
#      x y z
#    x 4.345220 -0.080940 -0.206010 
#    y -0.080940 3.870840 0.074600 
#    z -0.206010 0.074600 3.747700 
# 
# 
# High freq. dielectric constant tensor:
#      x y z
#    x 1.901950 -0.008540 -0.020190 
#    y -0.008540 1.878440 0.004300 
#    z -0.020190 0.004300 1.859470 
# 
# From -- ./inp_files/201466.got.cif
#   From: 2010.06.25/outbox.cif.g09.slc.cpg/sg2_101_cif.got.tgz:201466.got - 2010.06.27 13:26:56.
