data_PCOD8005453
_publ_section_title
;
Structure prediction by ZEFSAII (Michael W. Deem and Ramdas Pophale) SiO2 
 PCOD8005453
Probable space group: P -1
;
_chemical_formula_sum "Si O2"
_cell_formula_units_Z 16
_cell_length_a 23.674755
_cell_length_b 9.534852
_cell_length_c 8.223340
_cell_angle_alpha 61.251368
_cell_angle_beta 54.002134
_cell_angle_gamma 28.293661
_cell_volume 708.603616
_symmetry_space_group_name_H-M "P -1"
_symmetry_group_IT_number 2
_symmetry_cell_setting 'triclinic'
loop_
_space_group_symop_operation_xyz
x,y,z
-x,-y,-z
loop_
_atom_site_type_symbol
_atom_site_label
_atom_site_fract_x
_atom_site_fract_y
_atom_site_fract_z
Si Si1 0.680222 0.583284 0.859865
Si Si2 0.860945 0.821685 0.489985
Si Si3 0.444504 0.159966 0.740790
Si Si4 0.794190 0.838300 0.916367
Si Si5 0.359686 0.075181 0.676868
Si Si6 0.987887 0.835926 0.081905
Si Si7 0.172736 0.416548 0.514089
Si Si8 0.096159 0.072316 0.186445
O O1 0.552686 0.837123 0.821690
O O2 0.755974 0.606672 0.723562
O O3 0.772491 0.273741 0.793610
O O4 0.646816 0.598774 0.094530
O O5 0.765101 0.993599 0.712603
O O6 0.875720 0.972981 0.310660
O O7 0.808171 0.804153 0.449691
O O8 0.000000 0.500000 0.500000
O O9 0.364248 0.218040 0.709889
O O10 0.515557 0.169234 0.518772
O O11 0.877582 0.788495 0.924514
O O12 0.875750 0.518297 0.920734
O O13 0.657495 0.051457 0.113282
O O14 0.230124 0.336169 0.641264
O O15 0.941937 0.901922 0.941800
O O16 0.000000 0.000000 0.000000
O O17 0.019288 0.753242 0.591645
#
# Coordination Sequence:
#
# PCOD8005453 Si02
#       8
#     2   2   2   2   2   2   2   2
#     4  10  23  38  65  93 129 175 211 277 311 381
#     4  10  21  37  59  85 142 171 200 248 314 394
#     4   9  21  44  60  92 124 166 237 265 313 362
#     4  11  22  42  62  94 133 176 202 260 333 380
#     4  10  20  38  71  86 120 178 212 272 315 378
#     4  11  24  37  59  94 137 170 207 246 316 406
#     4  11  20  37  63  99 132 169 207 255 338 387
#     4  12  23  37  62  98 139 158 214 255 331 402
#
# _framework density 22.579619999999998
#
# number of rings (size 3 to 8) (size 9 to 14) (size 15 to 20)
#    0.000    1.500    3.750    2.250    5.250    1.000 
#    0.000    1.250    0.000    0.000    0.000    0.000 
#    0.000    0.000    0.000    0.000    0.000    0.000 
#
# Total GULP energy -198305.756026 kJ/mol
# GULP energy per Si atom -12394.109752 kJ/mol
# Density = 2.252823 g / cm^3
# Si number density = 22.579620 Si / 1000 Ang^3
#
#
#
# Elastic Constant Matrix: (Units=GPa)
#
#
# Indices 1 2 3 4 5 6 
#
# 1 142.1032 32.1239 60.9627 1.6047 -6.4243 17.5347
# 2 32.1239 52.0120 28.6614 4.0101 -10.6327 14.1646
# 3 60.9627 28.6614 200.7177 9.7377 -16.6083 14.3810
# 4 1.6047 4.0101 9.7377 28.1267 0.8001 -7.2065
# 5 -6.4243 -10.6327 -16.6083 0.8001 40.2787 -3.3862
# 6 17.5347 14.1646 14.3810 -7.2065 -3.3862 26.1331
#
#
#
# Elastic Compliance Matrix: (Units=1/GPa)
#
#
# Indices 1 2 3 4 5 6 
#
# 1 0.009127 -0.003812 -0.002066 -0.000015 -0.000655 -0.003010
# 2 -0.003812 0.027231 -0.001057 -0.006727 0.005202 -0.012802
# 3 -0.002066 -0.001057 0.006160 -0.002391 0.001823 -0.001854
# 4 -0.000015 -0.006727 -0.002391 0.041539 -0.002233 0.016138
# 5 -0.000655 0.005202 0.001823 -0.002233 0.026848 -0.000520
# 6 -0.003010 -0.012802 -0.001854 0.016138 -0.000520 0.052627
#
#
# Mechanical properties :
#
#
# Convention : Reuss Voigt Hill
#
# Bulk Modulus (GPa) = 34.90374 70.92544 52.91459
# Shear Modulus (GPa) = 26.74492 37.11337 31.92914
#
# Velocity S-wave (km/s) = 3.44535 4.05861 3.76449
# Velocity P-wave (km/s) = 5.59633 7.31044 6.51005
#
# Compressibility (1/GPa) = 0.02865022
#
# Stress axis : x y z
#
# Youngs Moduli (GPa) = 109.56536 36.72237 162.33484
#
# Poissons Ratio (x) = 0.13998 0.33532
# Poissons Ratio (y) = 0.41764 0.17154
# Poissons Ratio (z) = 0.22632 0.03881
#
# Static dielectric constant tensor:
#      x y z
#    x 4.117040 -0.020530 -0.048870 
#    y -0.020530 3.663190 0.074810 
#    z -0.048870 0.074810 5.095280 
# 
# 
# High freq. dielectric constant tensor:
#      x y z
#    x 1.899560 -0.003730 -0.000610 
#    y -0.003730 1.824500 0.006900 
#    z -0.000610 0.006900 1.920030 
# 
# From -- ./inp_files/279820.got.cif
#   From: 2010.06.25/outbox.cif.g09.slc.cpg/sg2_140_cif.got.tgz:279820.got - 2010.06.27 13:26:56.
