data_PCOD8005253
_publ_section_title
;
Structure prediction by ZEFSAII (Michael W. Deem and Ramdas Pophale) SiO2 
 PCOD8005253
Probable space group: P -1
;
_chemical_formula_sum "Si O2"
_cell_formula_units_Z 14
_cell_length_a 9.386286
_cell_length_b 12.361566
_cell_length_c 9.462812
_cell_angle_alpha 68.375866
_cell_angle_beta 115.793277
_cell_angle_gamma 61.274583
_cell_volume 591.005829
_symmetry_space_group_name_H-M "P -1"
_symmetry_group_IT_number 2
_symmetry_cell_setting 'triclinic'
loop_
_space_group_symop_operation_xyz
x,y,z
-x,-y,-z
loop_
_atom_site_type_symbol
_atom_site_label
_atom_site_fract_x
_atom_site_fract_y
_atom_site_fract_z
Si Si1 0.022137 0.665323 0.638619
Si Si2 0.694627 0.668771 0.884143
Si Si3 0.782847 0.535968 0.432949
Si Si4 0.868541 0.419844 0.844364
Si Si5 0.069673 0.071713 0.087272
Si Si6 0.856469 0.987821 0.534346
Si Si7 0.492822 0.099422 0.824554
O O1 0.179072 0.595961 0.593312
O O2 0.740788 0.788073 0.431005
O O3 0.169577 0.478823 0.864761
O O4 0.013909 0.782313 0.676941
O O5 0.670616 0.601070 0.766680
O O6 0.422141 0.863618 0.717106
O O7 0.863232 0.688733 0.928086
O O8 0.806114 0.480248 0.627681
O O9 0.532138 0.753110 0.196931
O O10 0.000000 0.500000 0.500000
O O11 0.850613 0.289063 0.915332
O O12 0.158384 0.974770 0.323993
O O13 0.267268 0.039542 0.102819
O O14 0.000000 0.000000 0.000000
O O15 0.000000 0.000000 0.500000
O O16 0.500000 0.000000 0.000000
#
# Coordination Sequence:
#
# PCOD8005253 Si02
#       7
#     2   2   2   2   2   2   2
#     4  11  24  45  74 109 142 185 248 307 367 432
#     4  11  24  46  79 105 142 184 247 321 363 428
#     4  10  20  38  66 110 138 177 235 296 362 426
#     4  11  22  45  74 106 143 184 250 310 369 423
#     4  12  28  48  70 106 154 198 244 300 375 448
#     4  12  30  48  69 108 152 200 244 296 380 448
#     4  11  24  43  79 113 141 191 252 307 361 436
#
# _framework density 23.68843
#
# number of rings (size 3 to 8) (size 9 to 14) (size 15 to 20)
#    0.000    0.857    4.286    3.429    8.000    1.714 
#    2.571    1.429    0.000    0.000    0.000    0.000 
#    0.000    0.000    0.000    0.000    0.000    0.000 
#
# Total GULP energy -173486.141296 kJ/mol
# GULP energy per Si atom -12391.867235 kJ/mol
# Density = 2.363451 g / cm^3
# Si number density = 23.688430 Si / 1000 Ang^3
#
#
#
# Elastic Constant Matrix: (Units=GPa)
#
#
# Indices 1 2 3 4 5 6 
#
# 1 66.0648 22.4083 23.2139 5.2443 -23.4010 -4.5823
# 2 22.4083 159.8936 38.4204 6.7860 -7.2900 10.0337
# 3 23.2139 38.4204 112.7865 6.5623 -23.9682 -1.8008
# 4 5.2443 6.7860 6.5623 44.4981 -6.9976 -8.5745
# 5 -23.4010 -7.2900 -23.9682 -6.9976 26.3779 1.6928
# 6 -4.5823 10.0337 -1.8008 -8.5745 1.6928 43.8321
#
#
#
# Elastic Compliance Matrix: (Units=1/GPa)
#
#
# Indices 1 2 3 4 5 6 
#
# 1 0.023179 -0.002633 0.000428 0.001300 0.020408 0.002510
# 2 -0.002633 0.007288 -0.002493 -0.001294 -0.002790 -0.002191
# 3 0.000428 -0.002493 0.011851 0.000384 0.010511 0.000771
# 4 0.001300 -0.001294 0.000384 0.024573 0.007344 0.004971
# 5 0.020408 -0.002790 0.010511 0.007344 0.066610 0.002068
# 6 0.002510 -0.002191 0.000771 0.004971 0.002068 0.024503
#
#
# Mechanical properties :
#
#
# Convention : Reuss Voigt Hill
#
# Bulk Modulus (GPa) = 30.37649 56.31446 43.34547
# Shear Modulus (GPa) = 28.03075 39.92178 33.97626
#
# Velocity S-wave (km/s) = 3.44366 4.10968 3.79132
# Velocity P-wave (km/s) = 5.35377 6.80763 6.12400
#
# Compressibility (1/GPa) = 0.03292019
#
# Stress axis : x y z
#
# Youngs Moduli (GPa) = 43.14204 137.22118 84.37894
#
# Poissons Ratio (x) = 0.36136 -0.03608
# Poissons Ratio (y) = 0.11361 0.21036
# Poissons Ratio (z) = -0.01845 0.34210
#
# Static dielectric constant tensor:
#      x y z
#    x 3.904930 0.085290 0.112970 
#    y 0.085290 5.871690 -0.273300 
#    z 0.112970 -0.273300 4.031400 
# 
# 
# High freq. dielectric constant tensor:
#      x y z
#    x 1.901420 -0.009710 -0.024910 
#    y -0.009710 1.973210 -0.004350 
#    z -0.024910 -0.004350 1.933430 
# 
# From -- ./inp_files/186011.got.cif
#   From: 2010.06.25/outbox.cif.g09.slc.cpg/sg2_94_cif.got.tgz:186011.got - 2010.06.27 13:26:56.
