data_PCOD8005551
_publ_section_title
;
Structure prediction by ZEFSAII (Michael W. Deem and Ramdas Pophale) SiO2 
 PCOD8005551
Probable space group: P -1
;
_chemical_formula_sum "Si O2"
_cell_formula_units_Z 16
_cell_length_a 9.308362
_cell_length_b 13.148408
_cell_length_c 23.403078
_cell_angle_alpha 27.464929
_cell_angle_beta 48.452148
_cell_angle_gamma 36.850446
_cell_volume 780.853423
_symmetry_space_group_name_H-M "P -1"
_symmetry_group_IT_number 2
_symmetry_cell_setting 'triclinic'
loop_
_space_group_symop_operation_xyz
x,y,z
-x,-y,-z
loop_
_atom_site_type_symbol
_atom_site_label
_atom_site_fract_x
_atom_site_fract_y
_atom_site_fract_z
Si Si1 0.720520 0.985036 0.472909
Si Si2 0.276473 0.929149 0.859211
Si Si3 0.075503 0.469035 0.711165
Si Si4 0.729601 0.691216 0.078123
Si Si5 0.263932 0.735077 0.777483
Si Si6 0.637241 0.473759 0.308751
Si Si7 0.655049 0.570797 0.845398
Si Si8 0.095339 0.001659 0.160647
O O1 0.810697 0.073414 0.353654
O O2 0.651354 0.198607 0.437090
O O3 0.500000 0.000000 0.500000
O O4 0.928111 0.677230 0.593903
O O5 0.512408 0.799766 0.820228
O O6 0.238514 0.161028 0.795317
O O7 0.305526 0.703152 0.006347
O O8 0.036974 0.066637 0.814899
O O9 0.269625 0.514302 0.659883
O O10 0.904262 0.508396 0.789392
O O11 0.672009 0.564798 0.104229
O O12 0.811772 0.482822 0.213733
O O13 0.500000 0.000000 0.000000
O O14 0.935551 0.724654 0.990852
O O15 0.491741 0.680868 0.776681
O O16 0.024431 0.918072 0.786519
O O17 0.367546 0.732413 0.233002
#
# Coordination Sequence:
#
# PCOD8005551 Si02
#       8
#     2   2   2   2   2   2   2   2
#     4  11  22  43  64  88 118 163 216 251 295 370
#     4  10  23  39  63  96 125 156 210 252 307 374
#     4  12  23  41  66  87 126 168 201 254 314 355
#     4   9  19  32  59  88 123 156 199 246 304 374
#     4  10  21  38  61  92 120 162 205 256 306 359
#     4  10  23  39  60  93 122 160 208 246 308 370
#     4  10  22  40  63  94 125 160 205 256 308 367
#     4  10  20  39  59  92 125 158 198 254 311 366
#
# _framework density 20.490403000000001
#
# number of rings (size 3 to 8) (size 9 to 14) (size 15 to 20)
#    0.000    1.750    1.250    2.625    7.000    0.000 
#    9.000    2.500    0.000    0.000    0.000    0.000 
#    0.000    0.000    0.000    0.000    0.000    0.000 
#
# Total GULP energy -198301.667262 kJ/mol
# GULP energy per Si atom -12393.854204 kJ/mol
# Density = 2.044377 g / cm^3
# Si number density = 20.490403 Si / 1000 Ang^3
#
#
#
# Elastic Constant Matrix: (Units=GPa)
#
#
# Indices 1 2 3 4 5 6 
#
# 1 96.6744 42.3219 24.4948 -9.6665 -6.7396 19.2397
# 2 42.3219 99.8549 35.5983 -4.6100 -9.5819 15.0736
# 3 24.4948 35.5983 75.0624 -9.4598 -1.1635 9.8142
# 4 -9.6665 -4.6100 -9.4598 25.7658 1.4375 1.2476
# 5 -6.7396 -9.5819 -1.1635 1.4375 37.0167 -5.8490
# 6 19.2397 15.0736 9.8142 1.2476 -5.8490 22.8871
#
#
#
# Elastic Compliance Matrix: (Units=1/GPa)
#
#
# Indices 1 2 3 4 5 6 
#
# 1 0.014849 -0.004304 -0.000937 0.004927 -0.000140 -0.009551
# 2 -0.004304 0.014269 -0.005052 -0.000902 0.002317 -0.002972
# 3 -0.000937 -0.005052 0.017194 0.005350 -0.001778 -0.004004
# 4 0.004927 -0.000902 0.005350 0.043011 -0.002222 -0.008755
# 5 -0.000140 0.002317 -0.001778 -0.002222 0.028695 0.006809
# 6 -0.009551 -0.002972 -0.004004 -0.008755 0.006809 0.057614
#
#
# Mechanical properties :
#
#
# Convention : Reuss Voigt Hill
#
# Bulk Modulus (GPa) = 38.86960 52.93576 45.90268
# Shear Modulus (GPa) = 24.41500 28.41237 26.41368
#
# Velocity S-wave (km/s) = 3.45560 3.72777 3.59427
# Velocity P-wave (km/s) = 5.91037 6.66475 6.29886
#
# Compressibility (1/GPa) = 0.02572704
#
# Stress axis : x y z
#
# Youngs Moduli (GPa) = 67.34385 70.08259 58.15961
#
# Poissons Ratio (x) = 0.30162 0.05450
# Poissons Ratio (y) = 0.28983 0.29380
# Poissons Ratio (z) = 0.06311 0.35403
#
# Static dielectric constant tensor:
#      x y z
#    x 3.847860 0.105080 -0.181580 
#    y 0.105080 3.722200 0.188810 
#    z -0.181580 0.188810 4.039290 
# 
# 
# High freq. dielectric constant tensor:
#      x y z
#    x 1.807740 0.010130 0.000740 
#    y 0.010130 1.793830 0.000790 
#    z 0.000740 0.000790 1.797950 
# 
# From -- ./inp_files/181470.got.cif
#   From: 2010.06.25/outbox.cif.g09.slc.cpg/sg2_91_cif.got.tgz:181470.got - 2010.06.27 13:26:56.
