data_PCOD8005285
_publ_section_title
;
Structure prediction by ZEFSAII (Michael W. Deem and Ramdas Pophale) SiO2 
 PCOD8005285
Probable space group: P -1
;
_chemical_formula_sum "Si O2"
_cell_formula_units_Z 16
_cell_length_a 7.817782
_cell_length_b 11.037504
_cell_length_c 14.458425
_cell_angle_alpha 84.217870
_cell_angle_beta 52.411843
_cell_angle_gamma 122.408386
_cell_volume 641.827459
_symmetry_space_group_name_H-M "P -1"
_symmetry_group_IT_number 2
_symmetry_cell_setting 'triclinic'
loop_
_space_group_symop_operation_xyz
x,y,z
-x,-y,-z
loop_
_atom_site_type_symbol
_atom_site_label
_atom_site_fract_x
_atom_site_fract_y
_atom_site_fract_z
Si Si1 0.199775 0.554881 0.683877
Si Si2 0.352952 0.674428 0.823191
Si Si3 0.806425 0.588681 0.470476
Si Si4 0.835127 0.745200 0.787229
Si Si5 0.461950 0.874334 0.440688
Si Si6 0.513515 0.348711 0.910151
Si Si7 0.836668 0.056130 0.582101
Si Si8 0.437316 0.696633 0.296654
O O1 0.371746 0.616625 0.721913
O O2 0.323185 0.488583 0.588543
O O3 0.308696 0.723133 0.581170
O O4 0.804942 0.382834 0.845962
O O5 0.656980 0.761819 0.777218
O O6 0.458726 0.862145 0.756953
O O7 0.000000 0.500000 0.000000
O O8 0.571216 0.441527 0.642055
O O9 0.945724 0.785735 0.420843
O O10 0.087269 0.600514 0.382648
O O11 0.696203 0.555351 0.823372
O O12 0.231804 0.921356 0.630774
O O13 0.771868 0.761272 0.912166
O O14 0.182743 0.851502 0.499987
O O15 0.590772 0.855178 0.308925
O O16 0.356887 0.237603 0.871904
O O17 0.000000 0.000000 0.500000
#
# Coordination Sequence:
#
# PCOD8005285 Si02
#       8
#     2   2   2   2   2   2   2   2
#     4  10  21  43  73  91 133 177 220 275 329 389
#     4  12  27  45  61  96 137 179 220 275 332 389
#     4   8  17  38  65 100 125 170 219 271 330 389
#     4  11  25  39  63  98 136 169 229 268 326 393
#     4  10  23  42  68 106 128 169 224 275 331 393
#     4  10  20  38  66  92 125 188 214 266 322 397
#     4  11  25  42  69 101 138 169 217 279 329 394
#     4   8  16  35  68  95 131 164 218 274 324 391
#
# _framework density 24.928816999999999
#
# number of rings (size 3 to 8) (size 9 to 14) (size 15 to 20)
#    0.000    2.000    1.250    3.000    7.000    1.500 
#    0.000    2.500    0.000    0.000    0.000    0.000 
#    0.000    0.000    0.000    0.000    0.000    0.000 
#
# Total GULP energy -198267.536480 kJ/mol
# GULP energy per Si atom -12391.721030 kJ/mol
# Density = 2.487208 g / cm^3
# Si number density = 24.928817 Si / 1000 Ang^3
#
#
#
# Elastic Constant Matrix: (Units=GPa)
#
#
# Indices 1 2 3 4 5 6 
#
# 1 67.9275 33.1784 33.6435 3.9938 13.7382 -2.9412
# 2 33.1784 163.6384 44.2142 15.7019 18.2542 2.9276
# 3 33.6435 44.2142 88.9023 6.2226 13.0980 -3.7599
# 4 3.9938 15.7019 6.2226 45.4982 11.5084 0.4361
# 5 13.7382 18.2542 13.0980 11.5084 35.4744 11.5441
# 6 -2.9412 2.9276 -3.7599 0.4361 11.5441 40.4400
#
#
#
# Elastic Compliance Matrix: (Units=1/GPa)
#
#
# Indices 1 2 3 4 5 6 
#
# 1 0.019674 -0.001999 -0.005565 0.001163 -0.005791 0.002699
# 2 -0.001999 0.007578 -0.002709 -0.001711 -0.001398 -0.000528
# 3 -0.005565 -0.002709 0.015182 0.000012 -0.002703 0.001974
# 4 0.001163 -0.001711 0.000012 0.024540 -0.008287 0.002311
# 5 -0.005791 -0.001398 -0.002703 -0.008287 0.038579 -0.011495
# 6 0.002699 -0.000528 0.001974 0.002311 -0.011495 0.028402
#
#
# Mechanical properties :
#
#
# Convention : Reuss Voigt Hill
#
# Bulk Modulus (GPa) = 45.68675 60.28228 52.98451
# Shear Modulus (GPa) = 30.90287 38.24467 34.57377
#
# Velocity S-wave (km/s) = 3.52468 3.92108 3.72815
# Velocity P-wave (km/s) = 5.91026 6.68835 6.31131
#
# Compressibility (1/GPa) = 0.02188819
#
# Stress axis : x y z
#
# Youngs Moduli (GPa) = 50.82819 131.96387 65.86582
#
# Poissons Ratio (x) = 0.26383 0.36655
# Poissons Ratio (y) = 0.10162 0.17842
# Poissons Ratio (z) = 0.28286 0.35746
#
# Static dielectric constant tensor:
#      x y z
#    x 4.673500 0.215080 0.140570 
#    y 0.215080 4.786440 0.183390 
#    z 0.140570 0.183390 4.692560 
# 
# 
# High freq. dielectric constant tensor:
#      x y z
#    x 2.000250 0.012210 0.007630 
#    y 0.012210 2.003340 0.026450 
#    z 0.007630 0.026450 1.986030 
# 
# From -- ./inp_files/500457.got.cif
#   From: 2010.06.25/outbox.cif.g09.slc.cpg/sg2_251_cif.got.tgz:500457.got - 2010.06.27 13:26:56.
