data_PCOD8005486
_publ_section_title
;
Structure prediction by ZEFSAII (Michael W. Deem and Ramdas Pophale) SiO2 
 PCOD8005486
Probable space group: P -1
;
_chemical_formula_sum "Si O2"
_cell_formula_units_Z 14
_cell_length_a 18.375178
_cell_length_b 5.121468
_cell_length_c 6.578194
_cell_angle_alpha 116.154784
_cell_angle_beta 104.353199
_cell_angle_gamma 86.597222
_cell_volume 537.439757
_symmetry_space_group_name_H-M "P -1"
_symmetry_group_IT_number 2
_symmetry_cell_setting 'triclinic'
loop_
_space_group_symop_operation_xyz
x,y,z
-x,-y,-z
loop_
_atom_site_type_symbol
_atom_site_label
_atom_site_fract_x
_atom_site_fract_y
_atom_site_fract_z
Si Si1 0.064254 0.723180 0.264166
Si Si2 0.823315 0.122047 0.934406
Si Si3 0.664257 0.028813 0.713474
Si Si4 0.550362 0.240076 0.001284
Si Si5 0.167426 0.426482 0.508684
Si Si6 0.321136 0.628039 0.551615
Si Si7 0.898805 0.783875 0.230774
O O1 0.088921 0.493844 0.369143
O O2 0.974806 0.682241 0.138704
O O3 0.113905 0.661574 0.070435
O O4 0.078244 0.044198 0.484277
O O5 0.810920 0.885621 0.661058
O O6 0.736963 0.212827 0.927311
O O7 0.854196 0.981260 0.114588
O O8 0.660119 0.108194 0.499736
O O9 0.671494 0.688406 0.652005
O O10 0.584838 0.112992 0.777516
O O11 0.621294 0.352557 0.219058
O O12 0.500000 0.500000 0.000000
O O13 0.500000 0.000000 0.000000
O O14 0.235119 0.660722 0.580346
O O15 0.156206 0.463011 0.765529
#
# Coordination Sequence:
#
# PCOD8005486 Si02
#       7
#     2   2   2   2   2   2   2
#     4  10  20  39  57  89 129 171 225 281 340 395
#     4  10  22  38  60  91 126 173 233 275 333 408
#     4  11  25  45  72 103 139 186 232 278 351 413
#     4  12  28  47  74 110 139 176 228 278 351 430
#     4  10  22  38  60  90 128 172 231 273 340 403
#     4  11  25  46  73 101 144 184 225 292 338 411
#     4  10  22  35  60  90 129 175 220 288 336 386
#
# _framework density 26.049433000000001
#
# number of rings (size 3 to 8) (size 9 to 14) (size 15 to 20)
#    0.000    1.429    1.429    2.571    2.000    8.571 
#    0.000    0.000    0.000    0.000    0.000    0.000 
#    0.000    0.000    0.000    0.000    0.000    0.000 
#
# Total GULP energy -173624.958343 kJ/mol
# GULP energy per Si atom -12401.782739 kJ/mol
# Density = 2.599014 g / cm^3
# Si number density = 26.049433 Si / 1000 Ang^3
#
#
#
# Elastic Constant Matrix: (Units=GPa)
#
#
# Indices 1 2 3 4 5 6 
#
# 1 137.5473 31.5425 38.2724 -15.4231 -16.0511 0.1927
# 2 31.5425 107.2799 17.4510 -35.1910 -7.6824 2.0459
# 3 38.2724 17.4510 108.6014 -25.4636 -16.2166 6.7328
# 4 -15.4231 -35.1910 -25.4636 52.0666 -0.3005 2.3283
# 5 -16.0511 -7.6824 -16.2166 -0.3005 55.6903 -7.4521
# 6 0.1927 2.0459 6.7328 2.3283 -7.4521 47.0015
#
#
#
# Elastic Compliance Matrix: (Units=1/GPa)
#
#
# Indices 1 2 3 4 5 6 
#
# 1 0.008617 -0.002055 -0.002540 -0.000099 0.001549 0.000669
# 2 -0.002055 0.012660 0.000927 0.008448 0.001352 -0.000880
# 3 -0.002540 0.000927 0.011790 0.005727 0.002648 -0.001583
# 4 -0.000099 0.008448 0.005727 0.027799 0.002668 -0.002142
# 5 0.001549 0.001352 0.002648 0.002668 0.019716 0.002549
# 6 0.000669 -0.000880 -0.001583 -0.002142 0.002549 0.022048
#
#
# Mechanical properties :
#
#
# Convention : Reuss Voigt Hill
#
# Bulk Modulus (GPa) = 38.86240 58.66227 48.76234
# Shear Modulus (GPa) = 42.17896 48.69584 45.43740
#
# Velocity S-wave (km/s) = 4.02828 4.32830 4.18098
# Velocity P-wave (km/s) = 6.04873 6.89546 6.48593
#
# Compressibility (1/GPa) = 0.02573181
#
# Stress axis : x y z
#
# Youngs Moduli (GPa) = 116.05121 78.99115 84.81525
#
# Poissons Ratio (x) = 0.16231 0.21542
# Poissons Ratio (y) = 0.23846 -0.07864
# Poissons Ratio (z) = 0.29476 -0.07324
#
# Static dielectric constant tensor:
#      x y z
#    x 5.226460 0.180020 -0.188470 
#    y 0.180020 4.946940 0.514960 
#    z -0.188470 0.514960 5.011880 
# 
# 
# High freq. dielectric constant tensor:
#      x y z
#    x 2.061220 0.008030 -0.012860 
#    y 0.008030 2.057150 0.022150 
#    z -0.012860 0.022150 2.076040 
# 
# From -- ./inp_files/7738.got.cif
#   From: 2010.06.25/outbox.cif.g09.slc.cpg/sg2_4_cif.got.tgz:7738.got - 2010.06.27 13:26:56.
