data_PCOD8005000
_publ_section_title
;
Structure prediction by ZEFSAII (Michael W. Deem and Ramdas Pophale) SiO2 
 PCOD8005000
Probable space group: P -1
;
_chemical_formula_sum "Si O2"
_cell_formula_units_Z 14
_cell_length_a 8.569045
_cell_length_b 16.193047
_cell_length_c 6.658486
_cell_angle_alpha 99.577135
_cell_angle_beta 98.325933
_cell_angle_gamma 42.484494
_cell_volume 614.973691
_symmetry_space_group_name_H-M "P -1"
_symmetry_group_IT_number 2
_symmetry_cell_setting 'triclinic'
loop_
_space_group_symop_operation_xyz
x,y,z
-x,-y,-z
loop_
_atom_site_type_symbol
_atom_site_label
_atom_site_fract_x
_atom_site_fract_y
_atom_site_fract_z
Si Si1 0.466623 0.813435 0.513987
Si Si2 0.513481 0.459288 0.708832
Si Si3 0.785669 0.479540 0.999630
Si Si4 0.814574 0.192986 0.803325
Si Si5 0.332645 0.029206 0.807517
Si Si6 0.745087 0.761921 0.200720
Si Si7 0.478295 0.275357 0.097079
O O1 0.247921 0.865906 0.363647
O O2 0.695161 0.727765 0.380176
O O3 0.506991 0.729069 0.661707
O O4 0.435025 0.918240 0.639190
O O5 0.500000 0.500000 0.500000
O O6 0.565231 0.522318 0.870082
O O7 0.717212 0.311301 0.712533
O O8 0.267558 0.515093 0.768738
O O9 0.759427 0.587072 0.970899
O O10 0.012370 0.348689 0.905263
O O11 0.085327 0.091345 0.864054
O O12 0.700468 0.231135 0.018384
O O13 0.279761 0.131387 0.703264
O O14 0.500000 0.000000 0.000000
O O15 0.550967 0.809782 0.017657
#
# Coordination Sequence:
#
# PCOD8005000 Si02
#       7
#     2   2   2   2   2   2   2
#     4  11  24  43  66  94 134 174 221 267 325 391
#     4  10  20  38  64 100 132 170 212 264 328 392
#     4  10  21  38  64  95 136 167 214 268 322 393
#     4  10  23  44  67  96 134 167 222 272 323 392
#     4  12  24  47  68  94 128 178 222 276 327 377
#     4  11  23  43  63  96 135 169 219 275 321 387
#     4  10  22  42  66  99 129 174 213 266 336 393
#
# _framework density 22.765201000000001
#
# number of rings (size 3 to 8) (size 9 to 14) (size 15 to 20)
#    0.000    1.429    2.857    2.143    0.000    2.286 
#    5.143    0.000    0.000    0.000    0.000    0.000 
#    0.000    0.000    0.000    0.000    0.000    0.000 
#
# Total GULP energy -173432.871502 kJ/mol
# GULP energy per Si atom -12388.062250 kJ/mol
# Density = 2.271339 g / cm^3
# Si number density = 22.765201 Si / 1000 Ang^3
#
#
#
# Elastic Constant Matrix: (Units=GPa)
#
#
# Indices 1 2 3 4 5 6 
#
# 1 101.9295 44.0197 59.1618 -4.9497 -8.9561 -7.2527
# 2 44.0197 83.0589 40.5116 12.2384 -10.2034 -16.8538
# 3 59.1618 40.5116 138.0195 -2.0455 -28.8345 -11.9961
# 4 -4.9497 12.2384 -2.0455 25.3523 6.9082 1.6022
# 5 -8.9561 -10.2034 -28.8345 6.9082 50.1083 7.8252
# 6 -7.2527 -16.8538 -11.9961 1.6022 7.8252 38.8514
#
#
#
# Elastic Compliance Matrix: (Units=1/GPa)
#
#
# Indices 1 2 3 4 5 6 
#
# 1 0.016211 -0.007773 -0.005217 0.007265 -0.002413 -0.001770
# 2 -0.007773 0.020624 -0.001794 -0.012725 0.002443 0.006975
# 3 -0.005217 -0.001794 0.011121 -0.000685 0.005089 0.000685
# 4 0.007265 -0.012725 -0.000685 0.049364 -0.007735 -0.004853
# 5 -0.002413 0.002443 0.005089 -0.007735 0.024395 -0.002414
# 6 -0.001770 0.006975 0.000685 -0.004853 -0.002414 0.029332
#
#
# Mechanical properties :
#
#
# Convention : Reuss Voigt Hill
#
# Bulk Modulus (GPa) = 54.38384 67.82159 61.10271
# Shear Modulus (GPa) = 26.77454 34.81670 30.79562
#
# Velocity S-wave (km/s) = 3.43318 3.91497 3.68196
# Velocity P-wave (km/s) = 6.29734 7.09172 6.70630
#
# Compressibility (1/GPa) = 0.01838782
#
# Stress axis : x y z
#
# Youngs Moduli (GPa) = 61.68797 48.48639 89.92045
#
# Poissons Ratio (x) = 0.37687 0.46916
# Poissons Ratio (y) = 0.47948 0.16130
# Poissons Ratio (z) = 0.32186 0.08698
#
# Static dielectric constant tensor:
#      x y z
#    x 4.616570 0.314180 -0.055230 
#    y 0.314180 3.923430 0.227470 
#    z -0.055230 0.227470 4.105340 
# 
# 
# High freq. dielectric constant tensor:
#      x y z
#    x 1.921850 0.020630 -0.005600 
#    y 0.020630 1.878720 0.019810 
#    z -0.005600 0.019810 1.890180 
# 
# From -- ./inp_files/48307.got.cif
#   From: 2010.06.25/outbox.cif.g09.slc.cpg/sg2_25_cif.got.tgz:48307.got - 2010.06.27 13:26:56.
