data_PCOD8005207
_publ_section_title
;
Structure prediction by ZEFSAII (Michael W. Deem and Ramdas Pophale) SiO2 
 PCOD8005207
Probable space group: P -1
;
_chemical_formula_sum "Si O2"
_cell_formula_units_Z 14
_cell_length_a 25.118666
_cell_length_b 9.049956
_cell_length_c 10.125209
_cell_angle_alpha 107.014512
_cell_angle_beta 143.404608
_cell_angle_gamma 44.868653
_cell_volume 729.651184
_symmetry_space_group_name_H-M "P -1"
_symmetry_group_IT_number 2
_symmetry_cell_setting 'triclinic'
loop_
_space_group_symop_operation_xyz
x,y,z
-x,-y,-z
loop_
_atom_site_type_symbol
_atom_site_label
_atom_site_fract_x
_atom_site_fract_y
_atom_site_fract_z
Si Si1 0.926367 0.552182 0.504339
Si Si2 0.773851 0.197682 0.749502
Si Si3 0.435945 0.635340 0.265219
Si Si4 0.639716 0.920999 0.868032
Si Si5 0.003428 0.625284 0.930089
Si Si6 0.887645 0.024710 0.229676
Si Si7 0.285316 0.371900 0.300096
O O1 0.000000 0.500000 0.500000
O O2 0.939818 0.660926 0.671799
O O3 0.737258 0.803780 0.166701
O O4 0.007972 0.279370 0.645059
O O5 0.593670 0.382544 0.421588
O O6 0.775648 0.366365 0.738942
O O7 0.830277 0.134184 0.995747
O O8 0.894417 0.924753 0.832609
O O9 0.500000 0.500000 0.500000
O O10 0.386566 0.886261 0.220615
O O11 0.275003 0.764440 0.948705
O O12 0.739748 0.658501 0.906150
O O13 0.474072 0.084536 0.630557
O O14 0.187715 0.413419 0.224294
O O15 0.000000 0.500000 0.000000
O O16 0.000000 0.000000 0.500000
#
# Coordination Sequence:
#
# PCOD8005207 Si02
#       7
#     2   2   2   2   2   2   2
#     4  12  22  40  65  91 121 163 209 255 302 368
#     4  10  22  40  60  89 123 167 203 248 309 373
#     4   9  19  36  59  89 125 160 204 250 303 366
#     4  10  20  38  65  94 117 160 214 256 298 355
#     4  12  24  42  63  89 130 166 201 252 320 375
#     4  11  21  36  61  95 123 153 210 259 304 350
#     4  10  21  39  65  90 123 162 207 252 306 369
#
# _framework density 19.187249999999999
#
# number of rings (size 3 to 8) (size 9 to 14) (size 15 to 20)
#    0.000    1.429    4.286    1.286    2.000    1.143 
#    0.000    5.000    0.000    0.000    0.000    0.000 
#    0.000    0.000    0.000    0.000    0.000    0.000 
#
# Total GULP energy -173506.935141 kJ/mol
# GULP energy per Si atom -12393.352510 kJ/mol
# Density = 1.914358 g / cm^3
# Si number density = 19.187250 Si / 1000 Ang^3
#
#
#
# Elastic Constant Matrix: (Units=GPa)
#
#
# Indices 1 2 3 4 5 6 
#
# 1 113.4670 39.2641 55.9628 -1.1684 30.4846 -6.7816
# 2 39.2641 105.4224 35.1045 -2.7375 19.1349 -13.4359
# 3 55.9628 35.1045 122.8427 3.6485 30.2145 -8.8993
# 4 -1.1684 -2.7375 3.6485 30.0434 1.3650 -2.1115
# 5 30.4846 19.1349 30.2145 1.3650 39.7973 -2.4553
# 6 -6.7816 -13.4359 -8.8993 -2.1115 -2.4553 25.5658
#
#
#
# Elastic Compliance Matrix: (Units=1/GPa)
#
#
# Indices 1 2 3 4 5 6 
#
# 1 0.013215 -0.002474 -0.003832 0.001055 -0.006036 0.000378
# 2 -0.002474 0.012018 -0.001348 0.001637 -0.002603 0.005076
# 3 -0.003832 -0.001348 0.011704 -0.001337 -0.005149 0.001744
# 4 0.001055 0.001637 -0.001337 0.033942 -0.001539 0.003331
# 5 -0.006036 -0.002603 -0.005149 -0.001539 0.034869 -0.001539
# 6 0.000378 0.005076 0.001744 0.003331 -0.001539 0.042617
#
#
# Mechanical properties :
#
#
# Convention : Reuss Voigt Hill
#
# Bulk Modulus (GPa) = 46.23793 66.93275 56.58534
# Shear Modulus (GPa) = 29.25989 33.17468 31.21728
#
# Velocity S-wave (km/s) = 3.90932 4.16263 4.03796
# Velocity P-wave (km/s) = 6.67290 7.61991 7.16207
#
# Compressibility (1/GPa) = 0.02162726
#
# Stress axis : x y z
#
# Youngs Moduli (GPa) = 75.67366 83.20953 85.44113
#
# Poissons Ratio (x) = 0.20590 0.32744
# Poissons Ratio (y) = 0.18725 0.11516
# Poissons Ratio (z) = 0.29001 0.11215
#
# Static dielectric constant tensor:
#      x y z
#    x 3.573210 0.079220 0.503610 
#    y 0.079220 3.517220 -0.194560 
#    z 0.503610 -0.194560 2.985330 
# 
# 
# High freq. dielectric constant tensor:
#      x y z
#    x 1.744410 0.016350 0.019920 
#    y 0.016350 1.737070 -0.016830 
#    z 0.019920 -0.016830 1.754760 
# 
# From -- ./inp_files/189891.got.cif
#   From: 2010.06.25/outbox.cif.g09.slc.cpg/sg2_95_cif.got.tgz:189891.got - 2010.06.27 13:26:56.
