data_PCOD8005602
_publ_section_title
;
Structure prediction by ZEFSAII (Michael W. Deem and Ramdas Pophale) SiO2 
 PCOD8005602
Probable space group: P -1
;
_chemical_formula_sum "Si O2"
_cell_formula_units_Z 16
_cell_length_a 7.859641
_cell_length_b 11.509967
_cell_length_c 9.373511
_cell_angle_alpha 94.799115
_cell_angle_beta 88.838472
_cell_angle_gamma 64.036190
_cell_volume 758.176117
_symmetry_space_group_name_H-M "P -1"
_symmetry_group_IT_number 2
_symmetry_cell_setting 'triclinic'
loop_
_space_group_symop_operation_xyz
x,y,z
-x,-y,-z
loop_
_atom_site_type_symbol
_atom_site_label
_atom_site_fract_x
_atom_site_fract_y
_atom_site_fract_z
Si Si1 0.659029 0.936635 0.106352
Si Si2 0.920852 0.464308 0.357606
Si Si3 0.669146 0.357513 0.480773
Si Si4 0.635763 0.197485 0.225755
Si Si5 0.056234 0.849618 0.991947
Si Si6 0.254147 0.395305 0.124919
Si Si7 0.780098 0.683549 0.193303
Si Si8 0.818983 0.330483 0.779300
O O1 0.620280 0.834219 0.196657
O O2 0.854324 0.843525 0.006708
O O3 0.681277 0.045110 0.214363
O O4 0.500000 0.000000 0.000000
O O5 0.842584 0.362102 0.390849
O O6 0.745705 0.594879 0.305605
O O7 0.000000 0.500000 0.500000
O O8 0.087404 0.401343 0.232412
O O9 0.500000 0.500000 0.500000
O O10 0.607796 0.257007 0.391054
O O11 0.733370 0.304367 0.632842
O O12 0.446217 0.268442 0.143459
O O13 0.812522 0.214782 0.154058
O O14 0.186893 0.773336 0.117230
O O15 0.000000 0.000000 0.000000
O O16 0.299535 0.519661 0.153840
O O17 0.189868 0.391144 0.964521
O O18 0.967969 0.690601 0.248415
#
# Coordination Sequence:
#
# PCOD8005602 Si02
#       8
#     2   2   2   2   2   2   2   2
#     4  10  20  41  63  87 125 161 210 256 298 362
#     4  11  21  39  63  87 125 164 204 244 312 366
#     4  12  24  40  58  94 134 163 192 254 316 377
#     4  11  23  38  63  95 127 160 202 253 321 359
#     4   9  22  40  61  92 122 162 206 253 306 359
#     4  11  21  37  62  96 118 157 208 261 304 361
#     4  10  21  37  65  92 116 158 215 259 297 354
#     4  10  20  39  60  90 130 159 203 249 311 365
#
# _framework density 21.103273999999999
#
# number of rings (size 3 to 8) (size 9 to 14) (size 15 to 20)
#    0.000    1.500    5.000    1.500    5.250    1.500 
#    0.000    5.625    0.000    3.000    0.000    0.000 
#    0.000    0.000    0.000    0.000    0.000    0.000 
#
# Total GULP energy -198250.006618 kJ/mol
# GULP energy per Si atom -12390.625414 kJ/mol
# Density = 2.105524 g / cm^3
# Si number density = 21.103274 Si / 1000 Ang^3
#
#
#
# Elastic Constant Matrix: (Units=GPa)
#
#
# Indices 1 2 3 4 5 6 
#
# 1 46.8321 10.2497 20.6636 2.6205 7.1684 -10.4819
# 2 10.2497 120.6568 47.8967 -9.1676 1.4912 -3.1104
# 3 20.6636 47.8967 126.6230 -4.3313 24.8400 -0.2804
# 4 2.6205 -9.1676 -4.3313 33.8415 -0.6898 3.7079
# 5 7.1684 1.4912 24.8400 -0.6898 30.7297 -1.3865
# 6 -10.4819 -3.1104 -0.2804 3.7079 -1.3865 30.8943
#
#
#
# Elastic Compliance Matrix: (Units=1/GPa)
#
#
# Indices 1 2 3 4 5 6 
#
# 1 0.025685 -0.000840 -0.003417 -0.003689 -0.002869 0.008913
# 2 -0.000840 0.010206 -0.004279 0.002285 0.003237 0.000575
# 3 -0.003417 -0.004279 0.011776 0.000651 -0.008588 -0.001947
# 4 -0.003689 0.002285 0.000651 0.031068 0.000708 -0.004713
# 5 -0.002869 0.003237 -0.008588 0.000708 0.040056 0.000987
# 6 0.008913 0.000575 -0.001947 -0.004713 0.000987 0.036042
#
#
# Mechanical properties :
#
#
# Convention : Reuss Voigt Hill
#
# Bulk Modulus (GPa) = 32.68586 50.19243 41.43915
# Shear Modulus (GPa) = 27.45644 33.44658 30.45151
#
# Velocity S-wave (km/s) = 3.61092 3.98540 3.80277
# Velocity P-wave (km/s) = 5.73648 6.70922 6.24183
#
# Compressibility (1/GPa) = 0.03059427
#
# Stress axis : x y z
#
# Youngs Moduli (GPa) = 38.93318 97.97691 84.91577
#
# Poissons Ratio (x) = 0.08235 0.29017
# Poissons Ratio (y) = 0.03272 0.36337
# Poissons Ratio (z) = 0.13304 0.41926
#
# Static dielectric constant tensor:
#      x y z
#    x 4.161250 0.160720 -0.205700 
#    y 0.160720 4.370080 -0.279660 
#    z -0.205700 -0.279660 3.848470 
# 
# 
# High freq. dielectric constant tensor:
#      x y z
#    x 1.815870 -0.002760 0.012630 
#    y -0.002760 1.837030 -0.009360 
#    z 0.012630 -0.009360 1.813010 
# 
# From -- ./inp_files/180308.got.cif
#   From: 2010.06.25/outbox.cif.g09.slc.cpg/sg2_91_cif.got.tgz:180308.got - 2010.06.27 13:26:56.
