data_PCOD8005917
_publ_section_title
;
Structure prediction by ZEFSAII (Michael W. Deem and Ramdas Pophale) SiO2 
 PCOD8005917
Probable space group: P -1
;
_chemical_formula_sum "Si O2"
_cell_formula_units_Z 16
_cell_length_a 14.574860
_cell_length_b 9.755782
_cell_length_c 13.933136
_cell_angle_alpha 79.292201
_cell_angle_beta 41.647565
_cell_angle_gamma 47.169151
_cell_volume 724.400243
_symmetry_space_group_name_H-M "P -1"
_symmetry_group_IT_number 2
_symmetry_cell_setting 'triclinic'
loop_
_space_group_symop_operation_xyz
x,y,z
-x,-y,-z
loop_
_atom_site_type_symbol
_atom_site_label
_atom_site_fract_x
_atom_site_fract_y
_atom_site_fract_z
Si Si1 0.210779 0.482362 0.774871
Si Si2 0.046797 0.604669 0.203672
Si Si3 0.650439 0.106401 0.363600
Si Si4 0.156072 0.806436 0.678205
Si Si5 0.701756 0.774370 0.090704
Si Si6 0.206331 0.344211 0.438595
Si Si7 0.665178 0.364747 0.981680
Si Si8 0.596852 0.541815 0.649885
O O1 0.380001 0.272687 0.583957
O O2 0.214349 0.646358 0.737434
O O3 0.331867 0.332205 0.800013
O O4 0.928466 0.674762 0.964259
O O5 0.866995 0.687193 0.410050
O O6 0.238166 0.331389 0.048838
O O7 0.203801 0.596071 0.128269
O O8 0.868396 0.809862 0.229890
O O9 0.711586 0.164133 0.394014
O O10 0.630266 0.190734 0.262664
O O11 0.249989 0.676412 0.518140
O O12 0.864149 0.073994 0.859805
O O13 0.463380 0.070990 0.232234
O O14 0.232338 0.484486 0.429338
O O15 0.000000 0.500000 0.500000
O O16 0.504590 0.479531 0.188495
O O17 0.500000 0.500000 0.000000
#
# Coordination Sequence:
#
# PCOD8005917 Si02
#       8
#     2   2   2   2   2   2   2   2
#     4  10  20  39  63  96 134 158 208 272 326 384
#     4  11  25  40  67  98 130 173 215 273 334 383
#     4  10  22  40  68 100 139 158 219 271 339 401
#     4  10  23  41  66  98 133 166 214 274 327 400
#     4  11  25  38  66  96 129 171 212 272 324 386
#     4  12  27  47  65  93 134 180 228 264 315 398
#     4  11  26  43  63  97 133 172 228 267 312 396
#     4  11  24  41  71  91 127 183 209 270 343 371
#
# _framework density 22.087236999999998
#
# number of rings (size 3 to 8) (size 9 to 14) (size 15 to 20)
#    0.000    1.250    1.250    4.500    8.750    4.000 
#    0.000    0.000    0.000    0.000    0.000    0.000 
#    0.000    0.000    0.000    0.000    0.000    0.000 
#
# Total GULP energy -198401.310110 kJ/mol
# GULP energy per Si atom -12400.081882 kJ/mol
# Density = 2.203697 g / cm^3
# Si number density = 22.087237 Si / 1000 Ang^3
#
#
#
# Elastic Constant Matrix: (Units=GPa)
#
#
# Indices 1 2 3 4 5 6 
#
# 1 83.0078 14.7359 30.3236 21.5750 4.5503 -9.7273
# 2 14.7359 50.6287 30.8461 5.6995 3.4677 -5.0982
# 3 30.3236 30.8461 102.4162 4.0020 2.8409 3.3008
# 4 21.5750 5.6995 4.0020 31.9847 -2.1677 -1.4546
# 5 4.5503 3.4677 2.8409 -2.1677 31.7236 4.8030
# 6 -9.7273 -5.0982 3.3008 -1.4546 4.8030 39.2187
#
#
#
# Elastic Compliance Matrix: (Units=1/GPa)
#
#
# Indices 1 2 3 4 5 6 
#
# 1 0.017462 -0.000234 -0.004717 -0.011172 -0.003534 0.004716
# 2 -0.000234 0.025386 -0.007493 -0.003440 -0.002927 0.004104
# 3 -0.004717 -0.007493 0.013389 0.002759 0.000983 -0.003289
# 4 -0.011172 -0.003440 0.002759 0.039277 0.004806 -0.002582
# 5 -0.003534 -0.002927 0.000983 0.004806 0.033384 -0.005250
# 6 0.004716 0.004104 -0.003289 -0.002582 -0.005250 0.028025
#
#
# Mechanical properties :
#
#
# Convention : Reuss Voigt Hill
#
# Bulk Modulus (GPa) = 31.90000 43.09598 37.49799
# Shear Modulus (GPa) = 26.00635 31.26188 28.63412
#
# Velocity S-wave (km/s) = 3.43510 3.76624 3.60448
# Velocity P-wave (km/s) = 5.49612 6.20216 5.85978
#
# Compressibility (1/GPa) = 0.03134796
#
# Stress axis : x y z
#
# Youngs Moduli (GPa) = 57.26746 39.39177 74.69093
#
# Poissons Ratio (x) = 0.00921 0.35233
# Poissons Ratio (y) = 0.01339 0.55968
# Poissons Ratio (z) = 0.27014 0.29517
#
# Static dielectric constant tensor:
#      x y z
#    x 3.838570 -0.031120 -0.045560 
#    y -0.031120 4.104820 -0.026030 
#    z -0.045560 -0.026030 4.218070 
# 
# 
# High freq. dielectric constant tensor:
#      x y z
#    x 1.858460 0.007530 -0.002870 
#    y 0.007530 1.867090 -0.002290 
#    z -0.002870 -0.002290 1.883290 
# 
# From -- ./inp_files/529637.got.cif
#   From: 2010.06.25/outbox.cif.g09.slc.cpg/sg2_265_cif.got.tgz:529637.got - 2010.06.27 13:26:56.
