data_PCOD8005531
_publ_section_title
;
Structure prediction by ZEFSAII (Michael W. Deem and Ramdas Pophale) SiO2 
 PCOD8005531
Probable space group: P -1
;
_chemical_formula_sum "Si O2"
_cell_formula_units_Z 16
_cell_length_a 15.113725
_cell_length_b 23.035043
_cell_length_c 15.236153
_cell_angle_alpha 19.835593
_cell_angle_beta 151.194258
_cell_angle_gamma 153.185932
_cell_volume 788.201656
_symmetry_space_group_name_H-M "P -1"
_symmetry_group_IT_number 2
_symmetry_cell_setting 'triclinic'
loop_
_space_group_symop_operation_xyz
x,y,z
-x,-y,-z
loop_
_atom_site_type_symbol
_atom_site_label
_atom_site_fract_x
_atom_site_fract_y
_atom_site_fract_z
Si Si1 0.385264 0.948337 0.710972
Si Si2 0.668475 0.310523 0.702445
Si Si3 0.949519 0.706577 0.427645
Si Si4 0.426552 0.387861 0.855229
Si Si5 0.652152 0.989760 0.035150
Si Si6 0.603908 0.159747 0.432930
Si Si7 0.046363 0.159910 0.563614
Si Si8 0.362141 0.540024 0.250185
O O1 0.171646 0.961087 0.496933
O O2 0.542365 0.073233 0.597469
O O3 0.493788 0.034141 0.774650
O O4 0.342390 0.730436 0.983932
O O5 0.842222 0.476428 0.674839
O O6 0.593575 0.419528 0.408331
O O7 0.473420 0.198447 0.752178
O O8 0.753102 0.170212 0.930787
O O9 0.800465 0.765331 0.153080
O O10 0.982764 0.815261 0.393818
O O11 0.156583 0.755594 0.487234
O O12 0.557098 0.435730 0.812210
O O13 0.523554 0.320262 0.114965
O O14 0.820383 0.958668 0.167722
O O15 0.500000 0.000000 0.500000
O O16 0.144737 0.363905 0.313370
O O17 0.500000 0.500000 0.500000
#
# Coordination Sequence:
#
# PCOD8005531 Si02
#       8
#     2   2   2   2   2   2   2   2
#     4  12  25  38  60  97 126 159 210 256 306 366
#     4   9  22  45  66  90 123 171 198 252 317 375
#     4  10  21  40  64  91 122 164 207 252 310 363
#     4  10  20  39  59  86 124 162 201 245 309 358
#     4  11  22  44  65  92 130 155 210 255 309 371
#     4  12  24  39  59  95 126 166 207 258 301 363
#     4  12  21  36  67  97 121 160 199 263 318 364
#     4  12  18  36  60  91 127 153 190 261 321 353
#
# _framework density 20.299372999999999
#
# number of rings (size 3 to 8) (size 9 to 14) (size 15 to 20)
#    0.750    0.250    6.250    1.125    0.000    2.500 
#    2.250    2.500    0.000    0.000    0.000    0.000 
#    0.000    0.000    0.000    0.000    0.000    0.000 
#
# Total GULP energy -198249.115246 kJ/mol
# GULP energy per Si atom -12390.569703 kJ/mol
# Density = 2.025317 g / cm^3
# Si number density = 20.299373 Si / 1000 Ang^3
#
#
#
# Elastic Constant Matrix: (Units=GPa)
#
#
# Indices 1 2 3 4 5 6 
#
# 1 61.6193 39.7421 39.8091 5.7653 10.4047 10.0953
# 2 39.7421 70.6588 15.9223 15.0765 12.1894 18.1493
# 3 39.8091 15.9223 73.4061 8.4257 0.7597 5.2754
# 4 5.7653 15.0765 8.4257 28.8271 1.0528 6.0010
# 5 10.4047 12.1894 0.7597 1.0528 23.6883 1.2558
# 6 10.0953 18.1493 5.2754 6.0010 1.2558 33.0283
#
#
#
# Elastic Compliance Matrix: (Units=1/GPa)
#
#
# Indices 1 2 3 4 5 6 
#
# 1 0.041907 -0.019436 -0.019306 0.007753 -0.008123 -0.000145
# 2 -0.019436 0.029385 0.006155 -0.011209 -0.005810 -0.008933
# 3 -0.019306 0.006155 0.023454 -0.006336 0.004856 -0.000261
# 4 0.007753 -0.011209 -0.006336 0.041394 0.000872 -0.002753
# 5 -0.008123 -0.005810 0.004856 0.000872 0.048424 0.002900
# 6 -0.000145 -0.008933 -0.000261 -0.002753 0.002900 0.035661
#
#
# Mechanical properties :
#
#
# Convention : Reuss Voigt Hill
#
# Bulk Modulus (GPa) = 33.81607 44.07014 38.94310
# Shear Modulus (GPa) = 16.93438 24.45613 20.69525
#
# Velocity S-wave (km/s) = 2.89144 3.47475 3.19643
# Velocity P-wave (km/s) = 5.27656 6.15270 5.73140
#
# Compressibility (1/GPa) = 0.02957174
#
# Stress axis : x y z
#
# Youngs Moduli (GPa) = 23.86247 34.03045 42.63730
#
# Poissons Ratio (x) = 0.66140 0.82317
# Poissons Ratio (y) = 0.46378 -0.26243
# Poissons Ratio (z) = 0.46070 -0.20946
#
# Static dielectric constant tensor:
#      x y z
#    x 3.422150 0.105570 0.105470 
#    y 0.105570 3.708710 0.066380 
#    z 0.105470 0.066380 3.894600 
# 
# 
# High freq. dielectric constant tensor:
#      x y z
#    x 1.778720 0.017460 0.000950 
#    y 0.017460 1.781190 -0.001520 
#    z 0.000950 -0.001520 1.792330 
# 
# From -- ./inp_files/535380.got.cif
#   From: 2010.06.25/outbox.cif.g09.slc.cpg/sg2_268_cif.got.tgz:535380.got - 2010.06.27 13:26:56.
