data_PCOD8005435
_publ_section_title
;
Structure prediction by ZEFSAII (Michael W. Deem and Ramdas Pophale) SiO2 
 PCOD8005435
Probable space group: P -1
;
_chemical_formula_sum "Si O2"
_cell_formula_units_Z 14
_cell_length_a 8.948647
_cell_length_b 9.123054
_cell_length_c 21.731566
_cell_angle_alpha 29.411081
_cell_angle_beta 44.069353
_cell_angle_gamma 46.494380
_cell_volume 595.726209
_symmetry_space_group_name_H-M "P -1"
_symmetry_group_IT_number 2
_symmetry_cell_setting 'triclinic'
loop_
_space_group_symop_operation_xyz
x,y,z
-x,-y,-z
loop_
_atom_site_type_symbol
_atom_site_label
_atom_site_fract_x
_atom_site_fract_y
_atom_site_fract_z
Si Si1 0.179635 0.203791 0.369081
Si Si2 0.534818 0.332821 0.463321
Si Si3 0.300952 0.483178 0.773713
Si Si4 0.506053 0.810745 0.954355
Si Si5 0.810397 0.586065 0.843663
Si Si6 0.217802 0.635089 0.876805
Si Si7 0.184910 0.316461 0.663140
O O1 0.249215 0.228872 0.268995
O O2 0.071844 0.526827 0.313435
O O3 0.386679 0.023078 0.410951
O O4 0.000000 0.000000 0.500000
O O5 0.549244 0.366469 0.373216
O O6 0.286144 0.409132 0.534367
O O7 0.677186 0.564977 0.366071
O O8 0.266726 0.678681 0.774513
O O9 0.068199 0.475497 0.814072
O O10 0.424614 0.149743 0.877777
O O11 0.712271 0.800818 0.850969
O O12 0.305679 0.707416 0.015054
O O13 0.577107 0.591719 0.071612
O O14 0.190015 0.959167 0.800149
O O15 0.000000 0.500000 0.000000
#
# Coordination Sequence:
#
# PCOD8005435 Si02
#       7
#     2   2   2   2   2   2   2
#     4  10  20  38  70 100 132 165 223 290 335 387
#     4  10  23  42  73 101 133 173 242 275 339 400
#     4  12  25  43  70  99 142 180 223 288 342 411
#     4  11  27  42  69  96 140 186 233 283 332 408
#     4  11  23  41  70 105 130 174 247 277 336 399
#     4  12  27  48  66 100 147 184 226 278 354 411
#     4  10  23  42  69  98 135 180 220 288 332 403
#
# _framework density 23.500727999999999
#
# number of rings (size 3 to 8) (size 9 to 14) (size 15 to 20)
#    0.000    1.143    4.286    1.714   12.000    0.571 
#    2.571    0.714    0.000    0.000    0.000    0.000 
#    0.000    0.000    0.000    0.000    0.000    0.000 
#
# Total GULP energy -173608.628793 kJ/mol
# GULP energy per Si atom -12400.616342 kJ/mol
# Density = 2.344724 g / cm^3
# Si number density = 23.500728 Si / 1000 Ang^3
#
#
#
# Elastic Constant Matrix: (Units=GPa)
#
#
# Indices 1 2 3 4 5 6 
#
# 1 61.6660 25.8873 25.9905 -3.5672 13.2647 -0.8601
# 2 25.8873 98.8457 38.3671 -1.9414 14.4352 11.1090
# 3 25.9905 38.3671 96.8897 -1.1359 25.2881 13.2086
# 4 -3.5672 -1.9414 -1.1359 60.7699 1.8920 10.7825
# 5 13.2647 14.4352 25.2881 1.8920 38.9482 8.6897
# 6 -0.8601 11.1090 13.2086 10.7825 8.6897 24.1446
#
#
#
# Elastic Compliance Matrix: (Units=1/GPa)
#
#
# Indices 1 2 3 4 5 6 
#
# 1 0.020461 -0.004003 -0.003550 0.000062 -0.004549 0.006122
# 2 -0.004003 0.013058 -0.003378 0.000948 -0.000298 -0.004618
# 3 -0.003550 -0.003378 0.014909 0.001037 -0.006159 -0.004974
# 4 0.000062 0.000948 0.001037 0.018126 0.000112 -0.009136
# 5 -0.004549 -0.000298 -0.006159 0.000112 0.033265 -0.008677
# 6 0.006122 -0.004618 -0.004974 -0.009136 -0.008677 0.053685
#
#
# Mechanical properties :
#
#
# Convention : Reuss Voigt Hill
#
# Bulk Modulus (GPa) = 37.64444 48.65459 43.14951
# Shear Modulus (GPa) = 27.14142 35.91630 31.52886
#
# Velocity S-wave (km/s) = 3.40210 3.91360 3.66678
# Velocity P-wave (km/s) = 5.61120 6.41639 6.02725
#
# Compressibility (1/GPa) = 0.02656435
#
# Stress axis : x y z
#
# Youngs Moduli (GPa) = 48.87455 76.58321 67.07377
#
# Poissons Ratio (x) = 0.30658 0.23811
# Poissons Ratio (y) = 0.19565 0.22659
# Poissons Ratio (z) = 0.17350 0.25872
#
# Static dielectric constant tensor:
#      x y z
#    x 4.118260 -0.455560 0.187550 
#    y -0.455560 5.034450 0.016040 
#    z 0.187550 0.016040 4.058660 
# 
# 
# High freq. dielectric constant tensor:
#      x y z
#    x 1.898870 -0.008730 0.000700 
#    y -0.008730 1.944390 0.013720 
#    z 0.000700 0.013720 1.935240 
# 
# From -- ./inp_files/433453.got.cif
#   From: 2010.06.25/outbox.cif.g09.slc.cpg/sg2_217_cif.got.tgz:433453.got - 2010.06.27 13:26:56.
