data_PCOD8005432
_publ_section_title
;
Structure prediction by ZEFSAII (Michael W. Deem and Ramdas Pophale) SiO2 
 PCOD8005432
Probable space group: P -1
;
_chemical_formula_sum "Si O2"
_cell_formula_units_Z 16
_cell_length_a 13.763551
_cell_length_b 10.025008
_cell_length_c 10.098566
_cell_angle_alpha 74.027971
_cell_angle_beta 135.905465
_cell_angle_gamma 131.724268
_cell_volume 666.191262
_symmetry_space_group_name_H-M "P -1"
_symmetry_group_IT_number 2
_symmetry_cell_setting 'triclinic'
loop_
_space_group_symop_operation_xyz
x,y,z
-x,-y,-z
loop_
_atom_site_type_symbol
_atom_site_label
_atom_site_fract_x
_atom_site_fract_y
_atom_site_fract_z
Si Si1 0.850780 0.943544 0.257169
Si Si2 0.430661 0.864491 0.270079
Si Si3 0.517427 0.249292 0.898502
Si Si4 0.057389 0.527654 0.700594
Si Si5 0.554695 0.854052 0.658888
Si Si6 0.685490 0.668586 0.942040
Si Si7 0.025325 0.697741 0.844772
Si Si8 0.996520 0.243777 0.915937
O O1 0.949169 0.120624 0.205122
O O2 0.666844 0.900413 0.146589
O O3 0.778535 0.759807 0.153487
O O4 0.000000 0.000000 0.500000
O O5 0.422391 0.765345 0.422546
O O6 0.524751 0.081218 0.336999
O O7 0.551158 0.861634 0.279817
O O8 0.216349 0.737065 0.039760
O O9 0.705889 0.295991 0.121198
O O10 0.556995 0.441158 0.875427
O O11 0.941658 0.565474 0.665647
O O12 0.000000 0.500000 0.500000
O O13 0.999369 0.341499 0.761119
O O14 0.540529 0.694605 0.756611
O O15 0.778988 0.043948 0.788880
O O16 0.858706 0.782009 0.971322
O O17 0.916683 0.617435 0.904321
#
# Coordination Sequence:
#
# PCOD8005432 Si02
#       8
#     2   2   2   2   2   2   2   2
#     4  12  27  43  68  95 136 184 233 278 340 404
#     4   9  20  40  62  96 127 172 217 280 338 397
#     4  10  25  44  66  94 144 172 224 285 337 401
#     4  10  23  42  69 103 136 181 223 275 350 404
#     4  10  20  38  69  98 132 172 230 273 343 402
#     4  11  23  44  66  97 133 178 227 282 338 402
#     4  10  22  43  63 100 133 175 229 281 332 405
#     4  10  21  39  68  93 137 174 219 283 330 405
#
# _framework density 24.017128
#
# number of rings (size 3 to 8) (size 9 to 14) (size 15 to 20)
#    0.000    1.750    2.500    1.125    5.250    4.500 
#    2.250    2.500    0.000    0.000    0.000    0.000 
#    0.000    0.000    0.000    0.000    0.000    0.000 
#
# Total GULP energy -198273.930582 kJ/mol
# GULP energy per Si atom -12392.120661 kJ/mol
# Density = 2.396246 g / cm^3
# Si number density = 24.017128 Si / 1000 Ang^3
#
#
#
# Elastic Constant Matrix: (Units=GPa)
#
#
# Indices 1 2 3 4 5 6 
#
# 1 136.6507 12.5444 54.0013 -2.3259 -37.3478 -27.0375
# 2 12.5444 48.1902 27.9787 -16.3438 -8.0480 -22.1707
# 3 54.0013 27.9787 148.6591 -18.2084 -28.5900 -18.9402
# 4 -2.3259 -16.3438 -18.2084 28.3750 -3.2518 -3.1751
# 5 -37.3478 -8.0480 -28.5900 -3.2518 46.0018 5.9697
# 6 -27.0375 -22.1707 -18.9402 -3.1751 5.9697 37.5939
#
#
#
# Elastic Compliance Matrix: (Units=1/GPa)
#
#
# Indices 1 2 3 4 5 6 
#
# 1 0.011999 0.005953 -0.001839 0.005379 0.008685 0.010289
# 2 0.005953 0.047555 -0.000951 0.032160 0.010567 0.032885
# 3 -0.001839 -0.000951 0.009520 0.006215 0.004340 0.002748
# 4 0.005379 0.032160 0.006215 0.063106 0.014556 0.028984
# 5 0.008685 0.010567 0.004340 0.014556 0.032982 0.010657
# 6 0.010289 0.032885 0.002748 0.028984 0.010657 0.055534
#
#
# Mechanical properties :
#
#
# Convention : Reuss Voigt Hill
#
# Bulk Modulus (GPa) = 13.26287 58.06096 35.66191
# Shear Modulus (GPa) = 20.87636 38.32584 29.60110
#
# Velocity S-wave (km/s) = 2.95147 3.99904 3.51451
# Velocity P-wave (km/s) = 4.14115 6.74911 5.59909
#
# Compressibility (1/GPa) = 0.07539848
#
# Stress axis : x y z
#
# Youngs Moduli (GPa) = 83.33776 21.02821 105.04269
#
# Poissons Ratio (x) = -0.12517 0.19318
# Poissons Ratio (y) = -0.49607 0.09994
# Poissons Ratio (z) = 0.15327 0.02001
#
# Static dielectric constant tensor:
#      x y z
#    x 4.787020 -0.194630 -0.304260 
#    y -0.194630 3.988710 0.006900 
#    z -0.304260 0.006900 4.384990 
# 
# 
# High freq. dielectric constant tensor:
#      x y z
#    x 1.965870 -0.017190 -0.019090 
#    y -0.017190 1.930860 -0.006750 
#    z -0.019090 -0.006750 1.949850 
# 
# From -- ./inp_files/305028.got.cif
#   From: 2010.06.25/outbox.cif.g09.slc.cpg/sg2_153_cif.got.tgz:305028.got - 2010.06.27 13:26:56.
