data_PCOD8005079
_publ_section_title
;
Structure prediction by ZEFSAII (Michael W. Deem and Ramdas Pophale) SiO2 
 PCOD8005079
Probable space group: P -1
;
_chemical_formula_sum "Si O2"
_cell_formula_units_Z 14
_cell_length_a 8.970945
_cell_length_b 11.616915
_cell_length_c 6.569601
_cell_angle_alpha 102.760868
_cell_angle_beta 89.175812
_cell_angle_gamma 99.167907
_cell_volume 659.054625
_symmetry_space_group_name_H-M "P -1"
_symmetry_group_IT_number 2
_symmetry_cell_setting 'triclinic'
loop_
_space_group_symop_operation_xyz
x,y,z
-x,-y,-z
loop_
_atom_site_type_symbol
_atom_site_label
_atom_site_fract_x
_atom_site_fract_y
_atom_site_fract_z
Si Si1 0.902477 0.445316 0.287360
Si Si2 0.190183 0.439586 0.053367
Si Si3 0.964058 0.164696 0.640677
Si Si4 0.171921 0.079319 0.302174
Si Si5 0.751726 0.805711 0.068980
Si Si6 0.454637 0.129614 0.576288
Si Si7 0.258889 0.670616 0.405074
O O1 0.768307 0.353840 0.361176
O O2 0.000000 0.500000 0.500000
O O3 0.020134 0.389567 0.120236
O O4 0.821573 0.531937 0.177132
O O5 0.272391 0.553285 0.225219
O O6 0.290474 0.334296 0.048364
O O7 0.886351 0.280845 0.664046
O O8 0.018773 0.122687 0.403113
O O9 0.113221 0.196391 0.779258
O O10 0.842145 0.061606 0.705089
O O11 0.324563 0.148029 0.427083
O O12 0.185788 0.103219 0.073252
O O13 0.608937 0.854343 0.189368
O O14 0.592960 0.232966 0.573845
O O15 0.500000 0.000000 0.500000
#
# Coordination Sequence:
#
# PCOD8005079 Si02
#       7
#     2   2   2   2   2   2   2
#     4   9  18  35  62  93 125 158 197 250 309 359
#     4  10  21  38  59  97 124 154 206 254 302 370
#     4  10  20  38  64  93 122 155 208 258 302 363
#     4  10  22  41  63  89 123 164 204 256 308 359
#     4  11  23  40  63  90 126 159 204 255 311 367
#     4  11  25  45  59  87 128 166 210 254 300 370
#     4  11  22  39  66  90 126 166 199 253 309 362
#
# _framework density 21.242550000000001
#
# number of rings (size 3 to 8) (size 9 to 14) (size 15 to 20)
#    0.000    1.714    1.429    3.857    0.000    5.714 
#    5.143    1.429    0.000    0.000    0.000    0.000 
#    0.000    0.000    0.000    0.000    0.000    0.000 
#
# Total GULP energy -173535.483612 kJ/mol
# GULP energy per Si atom -12395.391687 kJ/mol
# Density = 2.119420 g / cm^3
# Si number density = 21.242550 Si / 1000 Ang^3
#
#
#
# Elastic Constant Matrix: (Units=GPa)
#
#
# Indices 1 2 3 4 5 6 
#
# 1 78.8050 51.4424 29.7559 -6.9449 -19.4116 10.1826
# 2 51.4424 125.4849 78.9323 -3.9019 -27.1268 10.0252
# 3 29.7559 78.9323 107.5779 -25.5969 -28.1514 -3.0351
# 4 -6.9449 -3.9019 -25.5969 43.6105 3.2082 -6.8082
# 5 -19.4116 -27.1268 -28.1514 3.2082 28.5515 2.4097
# 6 10.1826 10.0252 -3.0351 -6.8082 2.4097 39.2190
#
#
#
# Elastic Compliance Matrix: (Units=1/GPa)
#
#
# Indices 1 2 3 4 5 6 
#
# 1 0.019369 -0.007870 0.003486 0.003341 0.008982 -0.002719
# 2 -0.007870 0.021693 -0.015935 -0.009769 0.001195 -0.006504
# 3 0.003486 -0.015935 0.026798 0.015143 0.011345 0.007174
# 4 0.003341 -0.009769 0.015143 0.032497 0.003576 0.008223
# 5 0.008982 0.001195 0.011345 0.003576 0.053424 -0.004421
# 6 -0.002719 -0.006504 0.007174 0.008223 -0.004421 0.030121
#
#
# Mechanical properties :
#
#
# Convention : Reuss Voigt Hill
#
# Bulk Modulus (GPa) = 36.73595 70.23654 53.48625
# Shear Modulus (GPa) = 21.40282 32.39201 26.89742
#
# Velocity S-wave (km/s) = 3.17763 3.90919 3.56224
# Velocity P-wave (km/s) = 5.54925 7.31516 6.49252
#
# Compressibility (1/GPa) = 0.02722129
#
# Stress axis : x y z
#
# Youngs Moduli (GPa) = 51.62843 46.09804 37.31665
#
# Poissons Ratio (x) = 0.36279 -0.13007
# Poissons Ratio (y) = 0.40632 0.59464
# Poissons Ratio (z) = -0.17996 0.73457
#
# Static dielectric constant tensor:
#      x y z
#    x 3.721090 0.059240 -0.332200 
#    y 0.059240 4.032280 -0.121860 
#    z -0.332200 -0.121860 4.193730 
# 
# 
# High freq. dielectric constant tensor:
#      x y z
#    x 1.811800 0.004140 -0.009360 
#    y 0.004140 1.838560 -0.005480 
#    z -0.009360 -0.005480 1.837530 
# 
# From -- ./inp_files/27304.got.cif
#   From: 2010.06.25/outbox.cif.g09.slc.cpg/sg2_14_cif.got.tgz:27304.got - 2010.06.27 13:26:56.
