data_PCOD8005920
_publ_section_title
;
Structure prediction by ZEFSAII (Michael W. Deem and Ramdas Pophale) SiO2 
 PCOD8005920
Probable space group: P -1
;
_chemical_formula_sum "Si O2"
_cell_formula_units_Z 16
_cell_length_a 15.791200
_cell_length_b 8.313960
_cell_length_c 15.123019
_cell_angle_alpha 65.234314
_cell_angle_beta 26.279650
_cell_angle_gamma 62.150477
_cell_volume 777.252816
_symmetry_space_group_name_H-M "P -1"
_symmetry_group_IT_number 2
_symmetry_cell_setting 'triclinic'
loop_
_space_group_symop_operation_xyz
x,y,z
-x,-y,-z
loop_
_atom_site_type_symbol
_atom_site_label
_atom_site_fract_x
_atom_site_fract_y
_atom_site_fract_z
Si Si1 0.953849 0.775157 0.384448
Si Si2 0.315318 0.671949 0.835536
Si Si3 0.093097 0.672650 0.867390
Si Si4 0.401359 0.951372 0.295402
Si Si5 0.697311 0.412980 0.479666
Si Si6 0.867511 0.861363 0.632132
Si Si7 0.929886 0.546204 0.776098
Si Si8 0.778848 0.017786 0.013158
O O1 0.978390 0.736517 0.475767
O O2 0.955708 0.590954 0.373211
O O3 0.747192 0.920027 0.526209
O O4 0.128376 0.862731 0.168199
O O5 0.165377 0.722455 0.883387
O O6 0.534429 0.594789 0.611712
O O7 0.317130 0.856542 0.843991
O O8 0.245461 0.525172 0.997569
O O9 0.281096 0.625189 0.636690
O O10 0.000000 0.500000 0.000000
O O11 0.933293 0.845145 0.944110
O O12 0.368581 0.749412 0.371897
O O13 0.621579 0.945071 0.119033
O O14 0.346941 0.030389 0.228577
O O15 0.912240 0.428957 0.305260
O O16 0.836988 0.738938 0.772197
O O17 0.000000 0.000000 0.500000
#
# Coordination Sequence:
#
# PCOD8005920 Si02
#       8
#     2   2   2   2   2   2   2   2
#     4   9  21  40  63  91 131 169 207 262 318 370
#     4  11  26  42  65  97 127 170 212 265 320 380
#     4  12  23  44  69  93 128 168 212 267 318 379
#     4  10  22  39  65  94 125 166 210 260 314 374
#     4  12  23  42  66  94 131 162 218 261 318 376
#     4  10  20  39  63  97 127 171 212 261 316 374
#     4  11  21  42  63  91 133 170 210 264 314 381
#     4  11  23  45  65  94 132 166 213 261 322 380
#
# _framework density 20.585322999999999
#
# number of rings (size 3 to 8) (size 9 to 14) (size 15 to 20)
#    0.750    0.500    3.750    2.625    0.000    0.000 
#    2.250    3.750    0.000    0.000    0.000    0.000 
#    0.000    0.000    0.000    0.000    0.000    0.000 
#
# Total GULP energy -198366.086830 kJ/mol
# GULP energy per Si atom -12397.880427 kJ/mol
# Density = 2.053847 g / cm^3
# Si number density = 20.585323 Si / 1000 Ang^3
#
#
#
# Elastic Constant Matrix: (Units=GPa)
#
#
# Indices 1 2 3 4 5 6 
#
# 1 99.7555 21.1406 20.2013 -1.2207 -0.5079 -10.2272
# 2 21.1406 82.5892 26.7197 4.0524 -0.9732 -2.7410
# 3 20.2013 26.7197 64.0142 7.5678 1.7034 -11.8982
# 4 -1.2207 4.0524 7.5678 31.5090 3.9203 -5.5832
# 5 -0.5079 -0.9732 1.7034 3.9203 29.8966 2.4766
# 6 -10.2272 -2.7410 -11.8982 -5.5832 2.4766 24.7526
#
#
#
# Elastic Compliance Matrix: (Units=1/GPa)
#
#
# Indices 1 2 3 4 5 6 
#
# 1 0.011346 -0.002172 -0.002177 0.001971 -0.000334 0.003879
# 2 -0.002172 0.014500 -0.005708 -0.001142 0.001109 -0.002404
# 3 -0.002177 -0.005708 0.020520 -0.002668 -0.001697 0.007900
# 4 0.001971 -0.001142 -0.002668 0.034593 -0.005027 0.007711
# 5 -0.000334 0.001109 -0.001697 -0.005027 0.034685 -0.005435
# 6 0.003879 -0.002404 0.007900 0.007711 -0.005435 0.047817
#
#
# Mechanical properties :
#
#
# Convention : Reuss Voigt Hill
#
# Bulk Modulus (GPa) = 38.09299 42.49801 40.29550
# Shear Modulus (GPa) = 25.99756 29.11812 27.55784
#
# Velocity S-wave (km/s) = 3.55761 3.76508 3.66281
# Velocity P-wave (km/s) = 5.95152 6.29211 6.12418
#
# Compressibility (1/GPa) = 0.02625155
#
# Stress axis : x y z
#
# Youngs Moduli (GPa) = 88.13916 68.96480 48.73240
#
# Poissons Ratio (x) = 0.14977 0.10610
# Poissons Ratio (y) = 0.19141 0.27819
# Poissons Ratio (z) = 0.19189 0.39368
#
# Static dielectric constant tensor:
#      x y z
#    x 3.819750 0.095200 0.134640 
#    y 0.095200 3.772160 0.032430 
#    z 0.134640 0.032430 3.566270 
# 
# 
# High freq. dielectric constant tensor:
#      x y z
#    x 1.810250 0.007060 0.006390 
#    y 0.007060 1.810200 0.000650 
#    z 0.006390 0.000650 1.796490 
# 
# From -- ./inp_files/529456.got.cif
#   From: 2010.06.25/outbox.cif.g09.slc.cpg/sg2_265_cif.got.tgz:529456.got - 2010.06.27 13:26:56.
