data_PCOD8005038
_publ_section_title
;
Structure prediction by ZEFSAII (Michael W. Deem and Ramdas Pophale) SiO2 
 PCOD8005038
Probable space group: P -1
;
_chemical_formula_sum "Si O2"
_cell_formula_units_Z 16
_cell_length_a 8.108309
_cell_length_b 14.546079
_cell_length_c 12.812315
_cell_angle_alpha 55.728045
_cell_angle_beta 111.681201
_cell_angle_gamma 66.863304
_cell_volume 722.390657
_symmetry_space_group_name_H-M "P -1"
_symmetry_group_IT_number 2
_symmetry_cell_setting 'triclinic'
loop_
_space_group_symop_operation_xyz
x,y,z
-x,-y,-z
loop_
_atom_site_type_symbol
_atom_site_label
_atom_site_fract_x
_atom_site_fract_y
_atom_site_fract_z
Si Si1 0.832990 0.592461 0.294048
Si Si2 0.752046 0.880208 0.054011
Si Si3 0.335025 0.921224 0.282785
Si Si4 0.682374 0.313959 0.606233
Si Si5 0.554305 0.601073 0.937304
Si Si6 0.878803 0.610622 0.706189
Si Si7 0.426407 0.442172 0.254096
Si Si8 0.713779 0.238191 0.017994
O O1 0.862756 0.700826 0.183168
O O2 0.000000 0.500000 0.500000
O O3 0.981496 0.439470 0.343086
O O4 0.501378 0.715454 0.144955
O O5 0.996337 0.839210 0.181974
O O6 0.500000 0.000000 0.000000
O O7 0.658881 0.978261 0.859045
O O8 0.425522 0.760020 0.348624
O O9 0.574137 0.825419 0.490326
O O10 0.033844 0.045208 0.189420
O O11 0.500000 0.500000 0.500000
O O12 0.677567 0.334955 0.466231
O O13 0.458847 0.677713 0.747262
O O14 0.379871 0.752046 0.891266
O O15 0.500000 0.500000 0.000000
O O16 0.897278 0.450709 0.119375
O O17 0.824957 0.507838 0.786226
O O18 0.292306 0.626405 0.078883
#
# Coordination Sequence:
#
# PCOD8005038 Si02
#       8
#     2   2   2   2   2   2   2   2
#     4  11  22  38  58  87 121 163 208 247 296 365
#     4  12  24  36  56  89 125 160 197 251 305 357
#     4  11  23  40  59  90 125 159 200 252 307 360
#     4  11  23  40  62  88 120 164 204 242 299 372
#     4   9  20  39  63  89 118 157 204 251 303 364
#     4  10  21  38  62  87 117 158 203 247 300 367
#     4  10  20  38  64  89 116 158 206 250 299 364
#     4  10  21  39  62  87 120 159 200 254 305 355
#
# _framework density 22.148681
#
# number of rings (size 3 to 8) (size 9 to 14) (size 15 to 20)
#    0.000    1.500    0.000    6.000    0.000    5.000 
#    0.000    5.000    0.000    7.500    0.000    0.000 
#    0.000    0.000    0.000    0.000    0.000    0.000 
#
# Total GULP energy -198268.911885 kJ/mol
# GULP energy per Si atom -12391.806993 kJ/mol
# Density = 2.209827 g / cm^3
# Si number density = 22.148681 Si / 1000 Ang^3
#
#
#
# Elastic Constant Matrix: (Units=GPa)
#
#
# Indices 1 2 3 4 5 6 
#
# 1 90.5139 17.2136 40.5785 1.9657 -1.9573 0.2245
# 2 17.2136 82.8513 47.5978 17.2465 -6.5892 -11.1782
# 3 40.5785 47.5978 111.4878 13.1095 -6.4471 -6.4364
# 4 1.9657 17.2465 13.1095 36.1252 0.0549 -1.5525
# 5 -1.9573 -6.5892 -6.4471 0.0549 40.4317 -3.0966
# 6 0.2245 -11.1782 -6.4364 -1.5525 -3.0966 36.6098
#
#
#
# Elastic Compliance Matrix: (Units=1/GPa)
#
#
# Indices 1 2 3 4 5 6 
#
# 1 0.013282 -0.000351 -0.004898 0.001179 -0.000275 -0.001023
# 2 -0.000351 0.017814 -0.006402 -0.005983 0.002199 0.004248
# 3 -0.004898 -0.006402 0.013764 -0.001652 0.000955 0.000506
# 4 0.001179 -0.005983 -0.001652 0.031036 -0.001294 -0.000918
# 5 -0.000275 0.002199 0.000955 -0.001294 0.025457 0.002939
# 6 -0.001023 0.004248 0.000506 -0.000918 0.002939 0.028917
#
#
# Mechanical properties :
#
#
# Convention : Reuss Voigt Hill
#
# Bulk Modulus (GPa) = 46.38510 55.07030 50.72770
# Shear Modulus (GPa) = 31.10284 34.59754 32.85019
#
# Velocity S-wave (km/s) = 3.75143 3.95658 3.85537
# Velocity P-wave (km/s) = 6.30495 6.76687 6.53999
#
# Compressibility (1/GPa) = 0.02155865
#
# Stress axis : x y z
#
# Youngs Moduli (GPa) = 75.29252 56.13564 72.65284
#
# Poissons Ratio (x) = 0.01970 0.35584
# Poissons Ratio (y) = 0.02642 0.46510
# Poissons Ratio (z) = 0.36877 0.35936
#
# Static dielectric constant tensor:
#      x y z
#    x 9.206450 -4.611800 -1.636580 
#    y -4.611800 8.044070 1.519870 
#    z -1.636580 1.519870 4.512920 
# 
# 
# High freq. dielectric constant tensor:
#      x y z
#    x 1.883730 -0.003440 0.006830 
#    y -0.003440 1.855040 0.015210 
#    z 0.006830 0.015210 1.865410 
# 
# From -- ./inp_files/398811.got.cif
#   From: 2010.06.25/outbox.cif.g09.slc.cpg/sg2_200_cif.got.tgz:398811.got - 2010.06.27 13:26:56.
