data_PCOD8005625
_publ_section_title
;
Structure prediction by ZEFSAII (Michael W. Deem and Ramdas Pophale) SiO2 
 PCOD8005625
Probable space group: P -1
;
_chemical_formula_sum "Si O2"
_cell_formula_units_Z 12
_cell_length_a 22.984280
_cell_length_b 28.044948
_cell_length_c 27.795800
_cell_angle_alpha 169.651186
_cell_angle_beta 167.863263
_cell_angle_gamma 10.829547
_cell_volume 568.967746
_symmetry_space_group_name_H-M "P -1"
_symmetry_group_IT_number 2
_symmetry_cell_setting 'triclinic'
loop_
_space_group_symop_operation_xyz
x,y,z
-x,-y,-z
loop_
_atom_site_type_symbol
_atom_site_label
_atom_site_fract_x
_atom_site_fract_y
_atom_site_fract_z
Si Si1 0.727096 0.162439 0.793923
Si Si2 0.331380 0.694807 0.509456
Si Si3 0.702102 0.117370 0.839131
Si Si4 0.353179 0.931295 0.900203
Si Si5 0.218361 0.864099 0.432513
Si Si6 0.645853 0.125759 0.047693
O O1 0.831364 0.091052 0.863205
O O2 0.445954 0.098456 0.489106
O O3 0.586308 0.524523 0.026886
O O4 0.049030 0.937400 0.799844
O O5 0.500000 0.500000 0.500000
O O6 0.358360 0.442096 0.241831
O O7 0.952207 0.966897 0.485961
O O8 0.523195 0.851147 0.801696
O O9 0.000000 0.000000 0.000000
O O10 0.231330 0.011327 0.935784
O O11 0.043388 0.000989 0.687750
O O12 0.376223 0.495185 0.198516
O O13 0.487381 0.945473 0.717215
#
# Coordination Sequence:
#
# PCOD8005625 Si02
#       6
#     2   2   2   2   2   2
#     4  10  23  40  59  94 124 144 196 243 274 354
#     4  10  20  39  61  81 113 156 207 254 284 338
#     4  10  21  41  68  88 115 159 192 229 288 344
#     4  11  23  39  59  84 116 156 202 251 295 339
#     4  11  23  39  58  83 117 158 198 243 299 345
#     4  12  25  38  59  90 122 154 190 241 301 352
#
# _framework density 21.090826
#
# number of rings (size 3 to 8) (size 9 to 14) (size 15 to 20)
#    0.000    1.333    0.000    7.500    0.000    6.667 
#    0.000    0.000    0.000    0.000    0.000    0.000 
#    0.000    0.000    0.000    0.000    0.000    0.000 
#
# Total GULP energy -148847.658789 kJ/mol
# GULP energy per Si atom -12403.971566 kJ/mol
# Density = 2.104282 g / cm^3
# Si number density = 21.090826 Si / 1000 Ang^3
#
#
#
# Elastic Constant Matrix: (Units=GPa)
#
#
# Indices 1 2 3 4 5 6 
#
# 1 107.1276 57.6584 42.8880 -10.9922 0.9552 -4.6842
# 2 57.6584 72.4539 25.2008 -4.2351 -6.6800 -2.4799
# 3 42.8880 25.2008 106.8580 13.2406 1.2268 12.5764
# 4 -10.9922 -4.2351 13.2406 34.1805 -5.3549 -1.9804
# 5 0.9552 -6.6800 1.2268 -5.3549 17.8361 -5.4810
# 6 -4.6842 -2.4799 12.5764 -1.9804 -5.4810 29.5746
#
#
#
# Elastic Compliance Matrix: (Units=1/GPa)
#
#
# Indices 1 2 3 4 5 6 
#
# 1 0.020003 -0.013308 -0.006334 0.007213 -0.001959 0.004866
# 2 -0.013308 0.026255 -0.001561 0.001655 0.012106 0.003112
# 3 -0.006334 -0.001561 0.014620 -0.009522 -0.006961 -0.009279
# 4 0.007213 0.001655 -0.009522 0.038573 0.015801 0.010842
# 5 -0.001959 0.012106 -0.006961 0.015801 0.071448 0.017964
# 6 0.004866 0.003112 -0.009279 0.010842 0.017964 0.042846
#
#
# Mechanical properties :
#
#
# Convention : Reuss Voigt Hill
#
# Bulk Modulus (GPa) = 54.13314 59.77043 56.95179
# Shear Modulus (GPa) = 19.06160 27.03105 23.04633
#
# Velocity S-wave (km/s) = 3.00957 3.58390 3.30921
# Velocity P-wave (km/s) = 6.14809 6.74736 6.45468
#
# Compressibility (1/GPa) = 0.01847297
#
# Stress axis : x y z
#
# Youngs Moduli (GPa) = 49.99172 38.08863 68.39839
#
# Poissons Ratio (x) = 0.50688 0.43322
# Poissons Ratio (y) = 0.66529 0.10675
# Poissons Ratio (z) = 0.31664 0.05945
#
# Static dielectric constant tensor:
#      x y z
#    x 3.901820 -0.119080 -0.174010 
#    y -0.119080 4.420640 0.548460 
#    z -0.174010 0.548460 4.099000 
# 
# 
# High freq. dielectric constant tensor:
#      x y z
#    x 1.825670 0.006560 -0.003240 
#    y 0.006560 1.824830 0.014910 
#    z -0.003240 0.014910 1.844190 
# 
# From -- ./inp_files/576461.got.cif
#   From: 2010.06.25/outbox.cif.g09.slc.cpg/sg2_289_cif.got.tgz:576461.got - 2010.06.27 13:26:56.
