data_PCOD8005275
_publ_section_title
;
Structure prediction by ZEFSAII (Michael W. Deem and Ramdas Pophale) SiO2 
 PCOD8005275
Probable space group: P -1
;
_chemical_formula_sum "Si O2"
_cell_formula_units_Z 16
_cell_length_a 13.260315
_cell_length_b 25.843228
_cell_length_c 8.974489
_cell_angle_alpha 42.827524
_cell_angle_beta 127.071070
_cell_angle_gamma 157.027092
_cell_volume 784.988381
_symmetry_space_group_name_H-M "P -1"
_symmetry_group_IT_number 2
_symmetry_cell_setting 'triclinic'
loop_
_space_group_symop_operation_xyz
x,y,z
-x,-y,-z
loop_
_atom_site_type_symbol
_atom_site_label
_atom_site_fract_x
_atom_site_fract_y
_atom_site_fract_z
Si Si1 0.810713 0.882059 0.440160
Si Si2 0.998161 0.072901 0.947450
Si Si3 0.117918 0.913062 0.474648
Si Si4 0.463923 0.562808 0.266762
Si Si5 0.035923 0.338046 0.132208
Si Si6 0.301143 0.736858 0.791916
Si Si7 0.824798 0.476552 0.720659
Si Si8 0.800729 0.464583 0.388595
O O1 0.499237 0.709089 0.576938
O O2 0.919746 0.864069 0.491782
O O3 0.000000 0.000000 0.500000
O O4 0.812745 0.954991 0.173430
O O5 0.279284 0.246233 0.905436
O O6 0.907860 0.093664 0.715225
O O7 0.000000 0.000000 0.000000
O O8 0.061185 0.796927 0.716437
O O9 0.426845 0.093718 0.404362
O O10 0.500000 0.500000 0.500000
O O11 0.237632 0.481155 0.335626
O O12 0.340189 0.492084 0.140542
O O13 0.830215 0.266459 0.218065
O O14 0.048538 0.393325 0.876540
O O15 0.126654 0.615932 0.748535
O O16 0.358120 0.694246 0.040581
O O17 0.777918 0.479691 0.505422
O O18 0.000000 0.500000 0.500000
#
# Coordination Sequence:
#
# PCOD8005275 Si02
#       8
#     2   2   2   2   2   2   2   2
#     4  11  25  42  66  96 129 173 218 270 325 391
#     4  10  20  38  66  91 122 163 215 269 317 380
#     4  11  22  41  65  94 129 165 216 275 330 382
#     4  11  21  40  65  99 131 163 220 274 331 383
#     4  11  24  41  64  96 130 171 211 276 329 393
#     4  10  21  40  68  91 125 164 226 270 318 386
#     4  10  21  39  65  94 121 175 216 266 324 390
#     4  12  25  43  66  92 132 172 218 259 331 401
#
# _framework density 20.382469
#
# number of rings (size 3 to 8) (size 9 to 14) (size 15 to 20)
#    0.000    1.250    2.500    4.875    1.750    0.500 
#    2.250    0.625    0.000    0.000    0.000    0.000 
#    0.000    0.000    0.000    0.000    0.000    0.000 
#
# Total GULP energy -198290.764064 kJ/mol
# GULP energy per Si atom -12393.172754 kJ/mol
# Density = 2.033608 g / cm^3
# Si number density = 20.382469 Si / 1000 Ang^3
#
#
#
# Elastic Constant Matrix: (Units=GPa)
#
#
# Indices 1 2 3 4 5 6 
#
# 1 69.9281 27.5741 39.6929 -7.7187 16.2398 6.6842
# 2 27.5741 103.5613 45.2475 -11.0014 3.2326 2.9661
# 3 39.6929 45.2475 138.0740 -0.7144 15.7828 -0.0171
# 4 -7.7187 -11.0014 -0.7144 39.5567 0.4827 -4.3767
# 5 16.2398 3.2326 15.7828 0.4827 29.9198 1.3026
# 6 6.6842 2.9661 -0.0171 -4.3767 1.3026 30.6625
#
#
#
# Elastic Compliance Matrix: (Units=1/GPa)
#
#
# Indices 1 2 3 4 5 6 
#
# 1 0.020307 -0.003072 -0.003838 0.002770 -0.008564 -0.003373
# 2 -0.003072 0.012151 -0.003322 0.002671 0.002073 -0.000214
# 3 -0.003838 -0.003322 0.009739 -0.001344 -0.002721 0.001087
# 4 0.002770 0.002671 -0.001344 0.026896 -0.001650 0.003046
# 5 -0.008564 0.002073 -0.002721 -0.001650 0.039319 -0.000241
# 6 -0.003373 -0.000214 0.001087 0.003046 -0.000241 0.033815
#
#
# Mechanical properties :
#
#
# Convention : Reuss Voigt Hill
#
# Bulk Modulus (GPa) = 46.01419 59.62138 52.81779
# Shear Modulus (GPa) = 29.42296 33.29773 31.36034
#
# Velocity S-wave (km/s) = 3.80352 4.04622 3.92675
# Velocity P-wave (km/s) = 6.47406 7.15151 6.82120
#
# Compressibility (1/GPa) = 0.02173242
#
# Stress axis : x y z
#
# Youngs Moduli (GPa) = 49.24313 82.30069 102.68291
#
# Poissons Ratio (x) = 0.25281 0.39414
# Poissons Ratio (y) = 0.15126 0.34110
# Poissons Ratio (z) = 0.18902 0.27340
#
# Static dielectric constant tensor:
#      x y z
#    x 3.450550 0.406350 0.165900 
#    y 0.406350 3.355870 -0.398870 
#    z 0.165900 -0.398870 3.528740 
# 
# 
# High freq. dielectric constant tensor:
#      x y z
#    x 1.777690 0.002760 0.006000 
#    y 0.002760 1.811930 0.003340 
#    z 0.006000 0.003340 1.796670 
# 
# From -- ./inp_files/207028.got.cif
#   From: 2010.06.25/outbox.cif.g09.slc.cpg/sg2_104_cif.got.tgz:207028.got - 2010.06.27 13:26:56.
