data_PCOD8005245
_publ_section_title
;
Structure prediction by ZEFSAII (Michael W. Deem and Ramdas Pophale) SiO2 
 PCOD8005245
Probable space group: P -1
;
_chemical_formula_sum "Si O2"
_cell_formula_units_Z 14
_cell_length_a 25.914314
_cell_length_b 9.028929
_cell_length_c 5.020732
_cell_angle_alpha 68.575848
_cell_angle_beta 67.919565
_cell_angle_gamma 32.076890
_cell_volume 575.485661
_symmetry_space_group_name_H-M "P -1"
_symmetry_group_IT_number 2
_symmetry_cell_setting 'triclinic'
loop_
_space_group_symop_operation_xyz
x,y,z
-x,-y,-z
loop_
_atom_site_type_symbol
_atom_site_label
_atom_site_fract_x
_atom_site_fract_y
_atom_site_fract_z
Si Si1 0.432968 0.802690 0.522529
Si Si2 0.873064 0.624644 0.152328
Si Si3 0.322142 0.850699 0.059106
Si Si4 0.371574 0.534468 0.665037
Si Si5 0.940498 0.751689 0.253578
Si Si6 0.235189 0.388290 0.345675
Si Si7 0.223611 0.625346 0.719440
O O1 0.500000 0.500000 0.500000
O O2 0.387841 0.853181 0.862074
O O3 0.510221 0.768114 0.409674
O O4 0.342647 0.053989 0.334030
O O5 0.872033 0.801286 0.173233
O O6 0.847772 0.544678 0.461446
O O7 0.790990 0.827542 0.948015
O O8 0.980741 0.334777 0.016855
O O9 0.345566 0.652359 0.936667
O O10 0.337710 0.756617 0.389401
O O11 0.319627 0.491979 0.723537
O O12 0.000000 0.500000 0.500000
O O13 0.870238 0.039641 0.351469
O O14 0.243871 0.507316 0.468489
O O15 0.201996 0.536427 0.030022
#
# Coordination Sequence:
#
# PCOD8005245 Si02
#       7
#     2   2   2   2   2   2   2
#     4   9  22  42  70 101 133 179 234 275 329 404
#     4  10  24  43  69 100 133 176 234 278 333 412
#     4  10  20  38  66 100 127 171 225 282 324 385
#     4  11  21  38  66  94 135 177 219 273 330 392
#     4  11  25  44  75 101 128 180 237 278 336 409
#     4  11  28  46  67 102 143 181 220 279 353 397
#     4  12  27  45  67 101 146 178 220 284 349 397
#
# _framework density 24.327278
#
# number of rings (size 3 to 8) (size 9 to 14) (size 15 to 20)
#    0.000    1.429    1.429    2.143    6.000   10.286 
#    0.000    0.000    0.000    0.000    0.000    0.000 
#    0.000    0.000    0.000    0.000    0.000    0.000 
#
# Total GULP energy -173594.611957 kJ/mol
# GULP energy per Si atom -12399.615140 kJ/mol
# Density = 2.427191 g / cm^3
# Si number density = 24.327278 Si / 1000 Ang^3
#
#
#
# Elastic Constant Matrix: (Units=GPa)
#
#
# Indices 1 2 3 4 5 6 
#
# 1 65.8846 34.3169 1.6133 22.1224 -27.5943 -14.5561
# 2 34.3169 119.4928 23.9061 1.1892 -8.2397 -4.1740
# 3 1.6133 23.9061 77.2001 -13.5151 -9.8527 -9.0922
# 4 22.1224 1.1892 -13.5151 35.6518 -4.1292 4.0839
# 5 -27.5943 -8.2397 -9.8527 -4.1292 43.6987 13.5437
# 6 -14.5561 -4.1740 -9.0922 4.0839 13.5437 39.4735
#
#
#
# Elastic Compliance Matrix: (Units=1/GPa)
#
#
# Indices 1 2 3 4 5 6 
#
# 1 0.035307 -0.008823 0.001604 -0.020140 0.016319 0.008941
# 2 -0.008823 0.011231 -0.003298 0.003723 -0.003189 -0.002116
# 3 0.001604 -0.003298 0.015573 0.005228 0.003779 0.001992
# 4 -0.020140 0.003723 0.005228 0.042957 -0.004022 -0.008893
# 5 0.016319 -0.003189 0.003779 -0.004022 0.034577 -0.004897
# 6 0.008941 -0.002116 0.001992 -0.008893 -0.004897 0.031466
#
#
# Mechanical properties :
#
#
# Convention : Reuss Voigt Hill
#
# Bulk Modulus (GPa) = 24.34383 42.47223 33.40803
# Shear Modulus (GPa) = 24.29106 37.28088 30.78597
#
# Velocity S-wave (km/s) = 3.16335 3.91893 3.56123
# Velocity P-wave (km/s) = 4.83435 6.16230 5.53827
#
# Compressibility (1/GPa) = 0.04107817
#
# Stress axis : x y z
#
# Youngs Moduli (GPa) = 28.32317 89.03616 64.21255
#
# Poissons Ratio (x) = 0.78553 -0.10300
# Poissons Ratio (y) = 0.24988 0.21178
# Poissons Ratio (z) = -0.04543 0.29366
#
# Static dielectric constant tensor:
#      x y z
#    x 4.867250 -0.411860 -0.392330 
#    y -0.411860 4.469030 0.295700 
#    z -0.392330 0.295700 4.393480 
# 
# 
# High freq. dielectric constant tensor:
#      x y z
#    x 1.971130 -0.015420 -0.008110 
#    y -0.015420 1.960060 0.014180 
#    z -0.008110 0.014180 1.965900 
# 
# From -- ./inp_files/42197.got.cif
#   From: 2010.06.25/outbox.cif.g09.slc.cpg/sg2_22_cif.got.tgz:42197.got - 2010.06.27 13:26:56.
