data_PCOD8005833
_publ_section_title
;
Structure prediction by ZEFSAII (Michael W. Deem and Ramdas Pophale) SiO2 
 PCOD8005833
Probable space group: P -1
;
_chemical_formula_sum "Si O2"
_cell_formula_units_Z 16
_cell_length_a 8.162973
_cell_length_b 19.278681
_cell_length_c 16.820629
_cell_angle_alpha 20.032222
_cell_angle_beta 65.913935
_cell_angle_gamma 57.538419
_cell_volume 721.497115
_symmetry_space_group_name_H-M "P -1"
_symmetry_group_IT_number 2
_symmetry_cell_setting 'triclinic'
loop_
_space_group_symop_operation_xyz
x,y,z
-x,-y,-z
loop_
_atom_site_type_symbol
_atom_site_label
_atom_site_fract_x
_atom_site_fract_y
_atom_site_fract_z
Si Si1 0.710816 0.985841 0.446054
Si Si2 0.944499 0.303539 0.201317
Si Si3 0.848159 0.950734 0.133968
Si Si4 0.006882 0.493222 0.662555
Si Si5 0.139250 0.473038 0.180794
Si Si6 0.353875 0.570863 0.268391
Si Si7 0.339867 0.245900 0.737711
Si Si8 0.507922 0.483720 0.870573
O O1 0.845313 0.759468 0.609215
O O2 0.869467 0.944966 0.534166
O O3 0.500000 0.000000 0.500000
O O4 0.644870 0.219535 0.158970
O O5 0.721144 0.375192 0.203351
O O6 0.929260 0.313836 0.097264
O O7 0.000000 0.500000 0.000000
O O8 0.796301 0.793655 0.256204
O O9 0.937832 0.768266 0.384898
O O10 0.671443 0.190922 0.945881
O O11 0.000000 0.000000 0.000000
O O12 0.220780 0.380640 0.694836
O O13 0.028734 0.423293 0.826523
O O14 0.861432 0.405290 0.744354
O O15 0.368321 0.388563 0.261169
O O16 0.443313 0.380708 0.526695
O O17 0.508425 0.506169 0.233090
O O18 0.500000 0.000000 0.000000
#
# Coordination Sequence:
#
# PCOD8005833 Si02
#       8
#     2   2   2   2   2   2   2   2
#     4  11  22  41  66  89 125 167 204 258 318 365
#     4  10  21  41  62  90 126 158 204 258 307 373
#     4  11  18  38  68  83 115 169 208 241 310 371
#     4  10  20  39  63  88 123 161 208 255 300 372
#     4  10  22  40  62  93 123 163 212 255 311 372
#     4  10  21  40  64  91 117 164 210 249 309 373
#     4  11  23  40  58  91 132 156 201 265 305 359
#     4  11  22  42  65  91 127 161 210 261 306 377
#
# _framework density 22.176110000000001
#
# number of rings (size 3 to 8) (size 9 to 14) (size 15 to 20)
#    0.000    1.500    5.000    1.875    0.000    1.000 
#    9.000    1.250    0.000    0.000    0.000    0.000 
#    0.000    0.000    0.000    0.000    0.000    0.000 
#
# Total GULP energy -198241.586972 kJ/mol
# GULP energy per Si atom -12390.099186 kJ/mol
# Density = 2.212564 g / cm^3
# Si number density = 22.176110 Si / 1000 Ang^3
#
#
#
# Elastic Constant Matrix: (Units=GPa)
#
#
# Indices 1 2 3 4 5 6 
#
# 1 40.3119 31.2079 14.0235 6.7827 13.6926 -2.0519
# 2 31.2079 166.8186 77.2045 37.5846 18.9236 15.0398
# 3 14.0235 77.2045 140.9399 7.2370 11.9491 -5.5746
# 4 6.7827 37.5846 7.2370 32.5149 2.6318 -7.9127
# 5 13.6926 18.9236 11.9491 2.6318 34.1306 -2.9488
# 6 -2.0519 15.0398 -5.5746 -7.9127 -2.9488 18.6906
#
#
#
# Elastic Compliance Matrix: (Units=1/GPa)
#
#
# Indices 1 2 3 4 5 6 
#
# 1 0.033594 -0.009607 0.002809 0.007599 -0.008499 0.014132
# 2 -0.009607 0.025954 -0.012520 -0.034736 -0.007059 -0.041492
# 3 0.002809 -0.012520 0.013560 0.015951 0.001690 0.021447
# 4 0.007599 -0.034736 0.015951 0.081935 0.010344 0.069862
# 5 -0.008499 -0.007059 0.001690 0.010344 0.036564 0.015399
# 6 0.014132 -0.041492 0.021447 0.069862 0.015399 0.126844
#
#
# Mechanical properties :
#
#
# Convention : Reuss Voigt Hill
#
# Bulk Modulus (GPa) = 29.00867 65.88246 47.44556
# Shear Modulus (GPa) = 13.56566 32.10953 22.83760
#
# Velocity S-wave (km/s) = 2.47599 3.80930 3.21258
# Velocity P-wave (km/s) = 4.61340 7.00863 5.93314
#
# Compressibility (1/GPa) = 0.03447245
#
# Stress axis : x y z
#
# Youngs Moduli (GPa) = 29.76693 38.53006 73.74623
#
# Poissons Ratio (x) = 0.37015 -0.20717
# Poissons Ratio (y) = 0.28597 0.92332
# Poissons Ratio (z) = -0.08362 0.48241
#
# Static dielectric constant tensor:
#      x y z
#    x 4.001900 0.237860 -0.113870 
#    y 0.237860 4.277370 0.166360 
#    z -0.113870 0.166360 4.027520 
# 
# 
# High freq. dielectric constant tensor:
#      x y z
#    x 1.855210 0.014690 -0.014750 
#    y 0.014690 1.877140 0.016380 
#    z -0.014750 0.016380 1.881840 
# 
# From -- ./inp_files/562539.got.cif
#   From: 2010.06.25/outbox.cif.g09.slc.cpg/sg2_282_cif.got.tgz:562539.got - 2010.06.27 13:26:56.
