data_PCOD8005800
_publ_section_title
;
Structure prediction by ZEFSAII (Michael W. Deem and Ramdas Pophale) SiO2 
 PCOD8005800
Probable space group: P -1
;
_chemical_formula_sum "Si O2"
_cell_formula_units_Z 14
_cell_length_a 8.991145
_cell_length_b 11.324517
_cell_length_c 10.767661
_cell_angle_alpha 67.268805
_cell_angle_beta 64.722373
_cell_angle_gamma 38.003885
_cell_volume 607.952517
_symmetry_space_group_name_H-M "P -1"
_symmetry_group_IT_number 2
_symmetry_cell_setting 'triclinic'
loop_
_space_group_symop_operation_xyz
x,y,z
-x,-y,-z
loop_
_atom_site_type_symbol
_atom_site_label
_atom_site_fract_x
_atom_site_fract_y
_atom_site_fract_z
Si Si1 0.986804 0.385567 0.256157
Si Si2 0.576133 0.696150 0.893171
Si Si3 0.332452 0.200952 0.746290
Si Si4 0.874992 0.049510 0.894808
Si Si5 0.247267 0.003364 0.691015
Si Si6 0.840538 0.964072 0.565757
Si Si7 0.019070 0.689822 0.977572
O O1 0.829934 0.577873 0.314366
O O2 0.274350 0.258330 0.193957
O O3 0.898619 0.434831 0.123956
O O4 0.967310 0.262313 0.384465
O O5 0.766694 0.464727 0.931648
O O6 0.407055 0.798253 0.787204
O O7 0.417539 0.788719 0.040097
O O8 0.280872 0.122656 0.692222
O O9 0.618797 0.083046 0.698453
O O10 0.243366 0.199003 0.912642
O O11 0.959082 0.120890 0.750413
O O12 0.000000 0.000000 0.000000
O O13 0.990919 0.851956 0.878697
O O14 0.307219 0.972398 0.536552
O O15 0.000000 0.000000 0.500000
#
# Coordination Sequence:
#
# PCOD8005800 Si02
#       7
#     2   2   2   2   2   2   2
#     4  11  25  42  67  98 130 173 215 266 329 382
#     4  10  21  40  65  99 130 164 214 267 324 374
#     4  11  23  45  67  97 130 169 223 263 324 385
#     4  10  20  39  62  97 132 165 212 264 323 374
#     4  11  23  44  67  98 131 173 219 260 319 392
#     4  12  27  47  67  92 132 175 218 268 322 385
#     4  11  22  41  67 101 133 165 217 270 324 384
#
# _framework density 23.028113000000001
#
# number of rings (size 3 to 8) (size 9 to 14) (size 15 to 20)
#    0.000    1.143    4.286    3.000    0.000    9.143 
#    2.571    0.000    0.000    0.000    0.000    0.000 
#    0.000    0.000    0.000    0.000    0.000    0.000 
#
# Total GULP energy -173435.737086 kJ/mol
# GULP energy per Si atom -12388.266935 kJ/mol
# Density = 2.297570 g / cm^3
# Si number density = 23.028113 Si / 1000 Ang^3
#
#
#
# Elastic Constant Matrix: (Units=GPa)
#
#
# Indices 1 2 3 4 5 6 
#
# 1 93.8529 50.8121 34.6135 -1.4572 -23.4748 6.6401
# 2 50.8121 104.8966 39.4346 1.4370 -17.4444 1.6839
# 3 34.6135 39.4346 77.4395 -5.6839 -13.0247 -1.7610
# 4 -1.4572 1.4370 -5.6839 26.5367 2.2017 -0.7576
# 5 -23.4748 -17.4444 -13.0247 2.2017 55.1452 -2.4742
# 6 6.6401 1.6839 -1.7610 -0.7576 -2.4742 24.9877
#
#
#
# Elastic Compliance Matrix: (Units=1/GPa)
#
#
# Indices 1 2 3 4 5 6 
#
# 1 0.016515 -0.005817 -0.003818 -0.000048 0.004117 -0.003859
# 2 -0.005817 0.014302 -0.004659 -0.002170 0.001047 0.000292
# 3 -0.003818 -0.004659 0.017503 0.003787 0.001008 0.002777
# 4 -0.000048 -0.002170 0.003787 0.038759 -0.001294 0.001473
# 5 0.004117 0.001047 0.001008 -0.001294 0.020548 0.000902
# 6 -0.003859 0.000292 0.002777 0.001473 0.000902 0.041355
#
#
# Mechanical properties :
#
#
# Convention : Reuss Voigt Hill
#
# Bulk Modulus (GPa) = 50.68318 58.43438 54.55878
# Shear Modulus (GPa) = 27.15205 31.42251 29.28728
#
# Velocity S-wave (km/s) = 3.43750 3.69796 3.57011
# Velocity P-wave (km/s) = 6.14917 6.60784 6.38263
#
# Compressibility (1/GPa) = 0.01973041
#
# Stress axis : x y z
#
# Youngs Moduli (GPa) = 60.55275 69.92116 57.13190
#
# Poissons Ratio (x) = 0.40673 0.21814
# Poissons Ratio (y) = 0.35224 0.26620
# Poissons Ratio (z) = 0.23120 0.32579
#
# Static dielectric constant tensor:
#      x y z
#    x 3.743120 -0.078080 0.024840 
#    y -0.078080 4.183680 0.281860 
#    z 0.024840 0.281860 4.138510 
# 
# 
# High freq. dielectric constant tensor:
#      x y z
#    x 1.904000 -0.000190 -0.019670 
#    y -0.000190 1.900020 0.001830 
#    z -0.019670 0.001830 1.906690 
# 
# From -- ./inp_files/389305.got.cif
#   From: 2010.06.25/outbox.cif.g09.slc.cpg/sg2_195_cif.got.tgz:389305.got - 2010.06.27 13:26:56.
