data_PCOD8005747
_publ_section_title
;
Structure prediction by ZEFSAII (Michael W. Deem and Ramdas Pophale) SiO2 
 PCOD8005747
Probable space group: P -1
;
_chemical_formula_sum "Si O2"
_cell_formula_units_Z 16
_cell_length_a 15.508813
_cell_length_b 14.525705
_cell_length_c 9.576585
_cell_angle_alpha 41.313697
_cell_angle_beta 36.653894
_cell_angle_gamma 36.977579
_cell_volume 737.294452
_symmetry_space_group_name_H-M "P -1"
_symmetry_group_IT_number 2
_symmetry_cell_setting 'triclinic'
loop_
_space_group_symop_operation_xyz
x,y,z
-x,-y,-z
loop_
_atom_site_type_symbol
_atom_site_label
_atom_site_fract_x
_atom_site_fract_y
_atom_site_fract_z
Si Si1 0.163106 0.889609 0.734808
Si Si2 0.479611 0.206654 0.034571
Si Si3 0.499743 0.663716 0.861859
Si Si4 0.258555 0.290380 0.959123
Si Si5 0.900539 0.374682 0.365646
Si Si6 0.492861 0.886565 0.394151
Si Si7 0.820868 0.155515 0.541845
Si Si8 0.857713 0.212237 0.836573
O O1 0.315432 0.914280 0.547899
O O2 0.202356 0.793708 0.648896
O O3 0.122644 0.791274 0.017247
O O4 0.002586 0.064815 0.732236
O O5 0.345177 0.297086 0.982842
O O6 0.667058 0.134871 0.815244
O O7 0.427117 0.341749 0.072068
O O8 0.467939 0.056596 0.287643
O O9 0.576168 0.737307 0.566305
O O10 0.500000 0.500000 0.000000
O O11 0.306051 0.798784 0.972501
O O12 0.180844 0.447365 0.785680
O O13 0.393621 0.148160 0.851130
O O14 0.101306 0.267290 0.221447
O O15 0.812386 0.300186 0.473590
O O16 0.848052 0.372745 0.599317
O O17 0.000000 0.000000 0.500000
#
# Coordination Sequence:
#
# PCOD8005747 Si02
#       8
#     2   2   2   2   2   2   2   2
#     4  10  21  37  64  97 126 173 213 277 322 397
#     4  12  24  41  68 100 131 173 226 277 323 405
#     4  11  24  43  66  96 135 176 217 275 335 394
#     4  11  25  41  65  95 135 178 218 273 344 387
#     4  11  23  42  62  92 136 179 218 277 326 399
#     4  11  23  40  67  98 134 171 220 273 336 392
#     4  12  22  38  67  98 133 169 227 272 329 392
#     4  10  20  39  62  89 128 168 217 264 330 380
#
# _framework density 21.700965
#
# number of rings (size 3 to 8) (size 9 to 14) (size 15 to 20)
#    0.000    1.000    3.750    3.000    0.000    2.500 
#    0.000    3.750    0.000    6.000    0.000    0.000 
#    0.000    0.000    0.000    0.000    0.000    0.000 
#
# Total GULP energy -198257.992231 kJ/mol
# GULP energy per Si atom -12391.124514 kJ/mol
# Density = 2.165157 g / cm^3
# Si number density = 21.700965 Si / 1000 Ang^3
#
#
#
# Elastic Constant Matrix: (Units=GPa)
#
#
# Indices 1 2 3 4 5 6 
#
# 1 121.8574 33.9900 56.1739 -0.4918 12.6686 8.1595
# 2 33.9900 52.4144 20.6291 -1.4687 -2.2044 5.3709
# 3 56.1739 20.6291 133.6913 -3.7464 10.8811 8.2298
# 4 -0.4918 -1.4687 -3.7464 27.3375 -4.4641 -5.5100
# 5 12.6686 -2.2044 10.8811 -4.4641 38.0021 10.1159
# 6 8.1595 5.3709 8.2298 -5.5100 10.1159 33.0181
#
#
#
# Elastic Compliance Matrix: (Units=1/GPa)
#
#
# Indices 1 2 3 4 5 6 
#
# 1 0.012168 -0.006541 -0.003849 -0.001250 -0.003444 -0.000137
# 2 -0.006541 0.024371 -0.001176 0.001160 0.004968 -0.003383
# 3 -0.003849 -0.001176 0.009443 0.000823 -0.001204 -0.000705
# 4 -0.001250 0.001160 0.000823 0.038345 0.003345 0.005289
# 5 -0.003444 0.004968 -0.001204 0.003345 0.030757 -0.008522
# 6 -0.000137 -0.003383 -0.000705 0.005289 -0.008522 0.034540
#
#
# Mechanical properties :
#
#
# Convention : Reuss Voigt Hill
#
# Bulk Modulus (GPa) = 43.76475 58.83880 51.30177
# Shear Modulus (GPa) = 27.72032 32.81621 30.26826
#
# Velocity S-wave (km/s) = 3.57792 3.89292 3.73874
# Velocity P-wave (km/s) = 6.10571 6.88322 6.50609
#
# Compressibility (1/GPa) = 0.02284944
#
# Stress axis : x y z
#
# Youngs Moduli (GPa) = 82.18558 41.03153 105.89540
#
# Poissons Ratio (x) = 0.26840 0.40764
# Poissons Ratio (y) = 0.53760 0.12450
# Poissons Ratio (z) = 0.31637 0.04824
#
# Static dielectric constant tensor:
#      x y z
#    x 4.105740 -0.133300 0.171750 
#    y -0.133300 3.773130 0.199140 
#    z 0.171750 0.199140 4.479890 
# 
# 
# High freq. dielectric constant tensor:
#      x y z
#    x 1.848280 -0.014930 0.013230 
#    y -0.014930 1.837060 0.012060 
#    z 0.013230 0.012060 1.874290 
# 
# From -- ./inp_files/314463.got.cif
#   From: 2010.06.25/outbox.cif.g09.slc.cpg/sg2_158_cif.got.tgz:314463.got - 2010.06.27 13:26:56.
