data_PCOD8005190
_publ_section_title
;
Structure prediction by ZEFSAII (Michael W. Deem and Ramdas Pophale) SiO2 
 PCOD8005190
Probable space group: P -1
;
_chemical_formula_sum "Si O2"
_cell_formula_units_Z 14
_cell_length_a 11.935485
_cell_length_b 9.049683
_cell_length_c 22.379975
_cell_angle_alpha 149.050153
_cell_angle_beta 140.617440
_cell_angle_gamma 38.323351
_cell_volume 731.939170
_symmetry_space_group_name_H-M "P -1"
_symmetry_group_IT_number 2
_symmetry_cell_setting 'triclinic'
loop_
_space_group_symop_operation_xyz
x,y,z
-x,-y,-z
loop_
_atom_site_type_symbol
_atom_site_label
_atom_site_fract_x
_atom_site_fract_y
_atom_site_fract_z
Si Si1 0.644966 0.195963 0.788384
Si Si2 0.876030 0.811705 0.640520
Si Si3 0.108029 0.440502 0.961386
Si Si4 0.702997 0.247961 0.214740
Si Si5 0.532433 0.702484 0.637006
Si Si6 0.776572 0.224468 0.370442
Si Si7 0.878549 0.283005 0.712575
O O1 0.470973 0.501261 0.803073
O O2 0.746400 0.979257 0.700333
O O3 0.565667 0.004087 0.733223
O O4 0.797331 0.306349 0.923033
O O5 0.847001 0.499116 0.507711
O O6 0.099667 0.721968 0.713500
O O7 0.810763 0.039307 0.635516
O O8 0.955844 0.471829 0.857096
O O9 0.276030 0.100717 0.914075
O O10 0.000000 0.500000 0.000000
O O11 0.664231 0.297664 0.286852
O O12 0.500000 0.500000 0.500000
O O13 0.348092 0.822078 0.643652
O O14 0.708774 0.506509 0.681878
O O15 0.955278 0.902319 0.329069
#
# Coordination Sequence:
#
# PCOD8005190 Si02
#       7
#     2   2   2   2   2   2   2
#     4  12  23  39  62  95 125 160 207 248 311 370
#     4  10  20  38  65  92 119 164 208 260 306 348
#     4  10  20  44  68  92 116 159 214 261 304 349
#     4  10  22  38  68  93 117 157 212 267 298 353
#     4  12  27  39  58  95 133 168 196 246 317 377
#     4  10  22  40  61  91 126 163 209 251 311 360
#     4  10  23  42  64  89 125 161 210 259 300 363
#
# _framework density 19.127272000000001
#
# number of rings (size 3 to 8) (size 9 to 14) (size 15 to 20)
#    0.000    1.714    4.286    3.000    4.000    3.429 
#    0.000    2.857    0.000    0.000    0.000    0.000 
#    0.000    0.000    0.000    0.000    0.000    0.000 
#
# Total GULP energy -173592.513654 kJ/mol
# GULP energy per Si atom -12399.465261 kJ/mol
# Density = 1.908374 g / cm^3
# Si number density = 19.127272 Si / 1000 Ang^3
#
#
#
# Elastic Constant Matrix: (Units=GPa)
#
#
# Indices 1 2 3 4 5 6 
#
# 1 87.5813 -11.4380 16.8801 6.2509 -2.8164 17.7471
# 2 -11.4380 -305.9283 1.5394 31.0118 -64.8284 -6.4428
# 3 16.8801 1.5394 108.9548 11.9869 -1.6731 12.3060
# 4 6.2509 31.0118 11.9869 11.8019 10.0797 -1.3423
# 5 -2.8164 -64.8284 -1.6731 10.0797 26.8993 10.6360
# 6 17.7471 -6.4428 12.3060 -1.3423 10.6360 8.6747
#
#
#
# Elastic Compliance Matrix: (Units=1/GPa)
#
#
# Indices 1 2 3 4 5 6 
#
# 1 -0.020662 0.014640 -0.022370 0.059111 -0.053569 0.159706
# 2 0.014640 -0.008359 0.008949 -0.020199 0.019536 -0.075933
# 3 -0.022370 0.008949 -0.003070 0.031659 -0.033409 0.102628
# 4 0.059111 -0.020199 0.031659 -0.042128 0.095783 -0.304802
# 5 -0.053569 0.019536 -0.033409 0.095783 -0.064034 0.264831
# 6 0.159706 -0.075933 0.102628 -0.304802 0.264831 -0.785312
#
#
# Mechanical properties :
#
#
# Convention : Reuss Voigt Hill
#
# Bulk Modulus (GPa) = -33.72294 -10.60326 -22.16310
# Shear Modulus (GPa) = -5.34252 1.71692 -1.81280
#
# Velocity S-wave (km/s) = -1.67308 0.94846 -0.97458
# Velocity P-wave (km/s) = 4.62616 2.08713 3.58870
#
# Compressibility (1/GPa) = -0.02965340
#
# Stress axis : x y z
#
# Youngs Moduli (GPa) = -48.39736 -119.62624 -325.72246
#
# Poissons Ratio (x) = 1.75136 -7.28629
# Poissons Ratio (y) = 0.70855 2.91473
# Poissons Ratio (z) = -1.08263 1.07048
#
# Static dielectric constant tensor:
#      x y z
#    x 4.025660 -0.126550 0.016090 
#    y -0.126550 3.353200 0.087570 
#    z 0.016090 0.087570 3.936810 
# 
# 
# High freq. dielectric constant tensor:
#      x y z
#    x 1.752090 -0.014350 -0.002660 
#    y -0.014350 1.732330 0.006270 
#    z -0.002660 0.006270 1.758230 
# 
# From -- ./inp_files/255517.got.cif
#   From: 2010.06.25/outbox.cif.g09.slc.cpg/sg2_128_cif.got.tgz:255517.got - 2010.06.27 13:26:56.
