data_PCOD8005841
_publ_section_title
;
Structure prediction by ZEFSAII (Michael W. Deem and Ramdas Pophale) SiO2 
 PCOD8005841
Probable space group: P -1
;
_chemical_formula_sum "Si O2"
_cell_formula_units_Z 12
_cell_length_a 12.342259
_cell_length_b 7.856928
_cell_length_c 8.712703
_cell_angle_alpha 106.027299
_cell_angle_beta 51.320247
_cell_angle_gamma 120.280695
_cell_volume 568.621674
_symmetry_space_group_name_H-M "P -1"
_symmetry_group_IT_number 2
_symmetry_cell_setting 'triclinic'
loop_
_space_group_symop_operation_xyz
x,y,z
-x,-y,-z
loop_
_atom_site_type_symbol
_atom_site_label
_atom_site_fract_x
_atom_site_fract_y
_atom_site_fract_z
Si Si1 0.818983 0.017350 0.104224
Si Si2 0.074153 0.980738 0.679864
Si Si3 0.867748 0.357882 0.966377
Si Si4 0.660375 0.559791 0.191012
Si Si5 0.315665 0.379301 0.460513
Si Si6 0.948653 0.635297 0.481403
O O1 0.711061 0.782112 0.140402
O O2 0.849118 0.097486 0.273614
O O3 0.753574 0.154493 0.107603
O O4 0.980657 0.073077 0.885733
O O5 0.964842 0.815108 0.620063
O O6 0.208681 0.144665 0.499752
O O7 0.770944 0.466911 0.005888
O O8 0.940949 0.289090 0.744594
O O9 0.000000 0.500000 0.000000
O O10 0.485051 0.431768 0.255883
O O11 0.667800 0.537242 0.361760
O O12 0.229478 0.471650 0.447443
O O13 0.000000 0.500000 0.500000
#
# Coordination Sequence:
#
# PCOD8005841 Si02
#       6
#     2   2   2   2   2   2
#     4  10  20  39  66  91 119 164 207 252 302 369
#     4  10  20  39  63  89 121 162 209 250 306 363
#     4  12  21  39  65  93 121 162 212 251 296 372
#     4  10  22  41  63  93 125 160 205 253 315 360
#     4  10  21  41  62  88 128 162 197 261 309 357
#     4  12  23  37  64  95 122 162 211 254 298 368
#
# _framework density 21.103662
#
# number of rings (size 3 to 8) (size 9 to 14) (size 15 to 20)
#    0.000    1.333    3.333    4.500    0.000    0.000 
#    3.000    6.667    0.000    0.000    0.000    0.000 
#    0.000    0.000    0.000    0.000    0.000    0.000 
#
# Total GULP energy -148706.663992 kJ/mol
# GULP energy per Si atom -12392.221999 kJ/mol
# Density = 2.105563 g / cm^3
# Si number density = 21.103662 Si / 1000 Ang^3
#
#
#
# Elastic Constant Matrix: (Units=GPa)
#
#
# Indices 1 2 3 4 5 6 
#
# 1 142.8035 55.0039 36.2229 -17.7688 -5.4994 -5.4397
# 2 55.0039 90.6231 31.2260 -14.2039 -1.1617 -2.7677
# 3 36.2229 31.2260 67.7433 -5.6201 -4.1624 9.2301
# 4 -17.7688 -14.2039 -5.6201 37.1302 4.1945 3.7490
# 5 -5.4994 -1.1617 -4.1624 4.1945 36.6194 -8.7826
# 6 -5.4397 -2.7677 9.2301 3.7490 -8.7826 32.3936
#
#
#
# Elastic Compliance Matrix: (Units=1/GPa)
#
#
# Indices 1 2 3 4 5 6 
#
# 1 0.009984 -0.004483 -0.003331 0.002177 0.001291 0.002341
# 2 -0.004483 0.015994 -0.004958 0.003159 -0.000741 0.001460
# 3 -0.003331 -0.004958 0.019745 0.000171 -0.000024 -0.006635
# 4 0.002177 0.003159 0.000171 0.030054 -0.003946 -0.003961
# 5 0.001291 -0.000741 -0.000024 -0.003946 0.030028 0.008758
# 6 0.002341 0.001460 -0.006635 -0.003961 0.008758 0.036112
#
#
# Mechanical properties :
#
#
# Convention : Reuss Voigt Hill
#
# Bulk Modulus (GPa) = 49.55578 60.67507 55.11542
# Shear Modulus (GPa) = 28.70485 33.14312 30.92398
#
# Velocity S-wave (km/s) = 3.69207 3.96724 3.83213
# Velocity P-wave (km/s) = 6.45819 7.05682 6.76413
#
# Compressibility (1/GPa) = 0.02017928
#
# Stress axis : x y z
#
# Youngs Moduli (GPa) = 100.16083 62.52313 50.64606
#
# Poissons Ratio (x) = 0.28028 0.16871
# Poissons Ratio (y) = 0.44900 0.25109
# Poissons Ratio (z) = 0.33366 0.30998
#
# Static dielectric constant tensor:
#      x y z
#    x 4.273240 -0.073630 0.219200 
#    y -0.073630 3.799450 -0.062690 
#    z 0.219200 -0.062690 3.859750 
# 
# 
# High freq. dielectric constant tensor:
#      x y z
#    x 1.827330 -0.014720 0.018700 
#    y -0.014720 1.812020 -0.003310 
#    z 0.018700 -0.003310 1.809820 
# 
# From -- ./inp_files/145882.got.cif
#   From: 2010.06.25/outbox.cif.g09.slc.cpg/sg2_73_cif.got.tgz:145882.got - 2010.06.27 13:26:56.
