data_PCOD8005749
_publ_section_title
;
Structure prediction by ZEFSAII (Michael W. Deem and Ramdas Pophale) SiO2 
 PCOD8005749
Probable space group: P -1
;
_chemical_formula_sum "Si O2"
_cell_formula_units_Z 14
_cell_length_a 13.497363
_cell_length_b 9.800575
_cell_length_c 20.527242
_cell_angle_alpha 137.421706
_cell_angle_beta 153.626254
_cell_angle_gamma 32.301713
_cell_volume 642.080928
_symmetry_space_group_name_H-M "P -1"
_symmetry_group_IT_number 2
_symmetry_cell_setting 'triclinic'
loop_
_space_group_symop_operation_xyz
x,y,z
-x,-y,-z
loop_
_atom_site_type_symbol
_atom_site_label
_atom_site_fract_x
_atom_site_fract_y
_atom_site_fract_z
Si Si1 0.248536 0.367692 0.436580
Si Si2 0.347845 0.376253 0.353369
Si Si3 0.216451 0.934973 0.279898
Si Si4 0.653932 0.849453 0.276891
Si Si5 0.858407 0.560305 0.040988
Si Si6 0.702517 0.232215 0.875843
Si Si7 0.261097 0.096595 0.017828
O O1 0.269382 0.318050 0.354633
O O2 0.540707 0.298145 0.612441
O O3 0.993894 0.660588 0.408317
O O4 0.185900 0.186489 0.368465
O O5 0.500000 0.500000 0.500000
O O6 0.056032 0.575202 0.212075
O O7 0.556438 0.113109 0.343984
O O8 0.323897 0.845807 0.238514
O O9 0.912044 0.006487 0.140586
O O10 0.545411 0.717455 0.207528
O O11 0.545802 0.887011 0.151522
O O12 0.057746 0.332163 0.028354
O O13 0.676458 0.492354 0.948789
O O14 0.663428 0.821707 0.975281
O O15 0.000000 0.000000 0.000000
#
# Coordination Sequence:
#
# PCOD8005749 Si02
#       7
#     2   2   2   2   2   2   2
#     4  11  24  39  62  96 126 165 209 259 310 379
#     4  11  22  41  63  86 133 169 201 253 323 375
#     4  10  20  39  62  89 132 162 206 255 320 368
#     4  11  23  40  68  95 120 164 219 257 307 368
#     4   9  18  34  64  89 121 166 204 253 315 365
#     4  11  17  39  66  91 121 165 210 258 310 367
#     4   9  18  36  63  93 119 166 208 256 312 366
#
# _framework density 21.804106000000001
#
# number of rings (size 3 to 8) (size 9 to 14) (size 15 to 20)
#    0.000    1.714    5.714    0.857    0.000    2.857 
#    0.000    0.714    0.000    0.000    0.000    0.000 
#    0.000    0.000    0.000    0.000    0.000    0.000 
#
# Total GULP energy -173579.382678 kJ/mol
# GULP energy per Si atom -12398.527334 kJ/mol
# Density = 2.175448 g / cm^3
# Si number density = 21.804106 Si / 1000 Ang^3
#
#
#
# Elastic Constant Matrix: (Units=GPa)
#
#
# Indices 1 2 3 4 5 6 
#
# 1 70.8745 44.8590 33.3035 -6.1706 -9.1822 22.5117
# 2 44.8590 74.0599 49.2433 -6.5421 2.9974 13.2808
# 3 33.3035 49.2433 108.7949 7.8943 -10.0531 6.6195
# 4 -6.1706 -6.5421 7.8943 35.8624 12.3620 6.7580
# 5 -9.1822 2.9974 -10.0531 12.3620 32.6384 1.8656
# 6 22.5117 13.2808 6.6195 6.7580 1.8656 39.3409
#
#
#
# Elastic Compliance Matrix: (Units=1/GPa)
#
#
# Indices 1 2 3 4 5 6 
#
# 1 0.029484 -0.015768 -0.000316 0.001143 0.009908 -0.012161
# 2 -0.015768 0.033249 -0.012443 0.011764 -0.015698 -0.001384
# 3 -0.000316 -0.012443 0.016346 -0.009780 0.009630 0.002854
# 4 0.001143 0.011764 -0.009780 0.040494 -0.018591 -0.009054
# 5 0.009908 -0.015698 0.009630 -0.018591 0.044928 -0.000927
# 6 -0.012161 -0.001384 0.002854 -0.009054 -0.000927 0.033964
#
#
# Mechanical properties :
#
#
# Convention : Reuss Voigt Hill
#
# Bulk Modulus (GPa) = 45.40047 56.50453 50.95250
# Shear Modulus (GPa) = 19.02147 29.98993 24.50570
#
# Velocity S-wave (km/s) = 2.95681 3.71270 3.35610
# Velocity P-wave (km/s) = 5.70300 6.65956 6.19975
#
# Compressibility (1/GPa) = 0.02202620
#
# Stress axis : x y z
#
# Youngs Moduli (GPa) = 33.91700 30.07568 61.17727
#
# Poissons Ratio (x) = 0.47423 0.01932
# Poissons Ratio (y) = 0.53480 0.76121
# Poissons Ratio (z) = 0.01071 0.37422
#
# Static dielectric constant tensor:
#      x y z
#    x 4.230770 0.573530 -0.225790 
#    y 0.573530 3.789300 -0.062900 
#    z -0.225790 -0.062900 4.059600 
# 
# 
# High freq. dielectric constant tensor:
#      x y z
#    x 1.852420 0.024760 -0.014210 
#    y 0.024760 1.836650 0.003020 
#    z -0.014210 0.003020 1.861620 
# 
# From -- ./inp_files/537665.got.cif
#   From: 2010.06.25/outbox.cif.g09.slc.cpg/sg2_269_cif.got.tgz:537665.got - 2010.06.27 13:26:56.
