data_PCOD8005296
_publ_section_title
;
Structure prediction by ZEFSAII (Michael W. Deem and Ramdas Pophale) SiO2 
 PCOD8005296
Probable space group: P -1
;
_chemical_formula_sum "Si O2"
_cell_formula_units_Z 14
_cell_length_a 11.773405
_cell_length_b 8.655622
_cell_length_c 9.420128
_cell_angle_alpha 81.736299
_cell_angle_beta 75.783415
_cell_angle_gamma 48.535366
_cell_volume 697.099810
_symmetry_space_group_name_H-M "P -1"
_symmetry_group_IT_number 2
_symmetry_cell_setting 'triclinic'
loop_
_space_group_symop_operation_xyz
x,y,z
-x,-y,-z
loop_
_atom_site_type_symbol
_atom_site_label
_atom_site_fract_x
_atom_site_fract_y
_atom_site_fract_z
Si Si1 0.631744 0.128652 0.812928
Si Si2 0.546861 0.892356 0.351282
Si Si3 0.044202 0.804746 0.092138
Si Si4 0.280823 0.003981 0.895980
Si Si5 0.671722 0.392541 0.137625
Si Si6 0.124224 0.846449 0.364893
Si Si7 0.656627 0.461736 0.436750
O O1 0.596664 0.033360 0.713757
O O2 0.493152 0.375517 0.843458
O O3 0.790616 0.075341 0.730785
O O4 0.667626 0.998198 0.960272
O O5 0.644073 0.654601 0.384547
O O6 0.500000 0.000000 0.500000
O O7 0.643506 0.941681 0.240300
O O8 0.053090 0.813976 0.258662
O O9 0.210883 0.611252 0.000009
O O10 0.903541 0.811199 0.097096
O O11 0.000000 0.000000 0.000000
O O12 0.343508 0.772537 0.886650
O O13 0.738942 0.322870 0.287401
O O14 0.246787 0.632147 0.437038
O O15 0.000000 0.000000 0.500000
O O16 0.500000 0.500000 0.500000
#
# Coordination Sequence:
#
# PCOD8005296 Si02
#       7
#     2   2   2   2   2   2   2
#     4  11  23  40  65  97 119 170 214 258 311 370
#     4  11  25  40  64  91 131 167 207 263 317 370
#     4  10  21  37  61  96 122 163 199 260 315 367
#     4  11  22  40  63  94 131 159 209 257 322 373
#     4  10  20  38  66  94 124 159 218 257 304 374
#     4  12  23  38  67  95 128 158 219 262 308 370
#     4  11  22  41  64  93 123 165 218 257 310 376
#
# _framework density 20.083207000000002
#
# number of rings (size 3 to 8) (size 9 to 14) (size 15 to 20)
#    0.000    1.143    5.714    3.429    2.000    0.000 
#    0.000    3.571    3.143    0.000    0.000    0.000 
#    0.000    0.000    0.000    0.000    0.000    0.000 
#
# Total GULP energy -173504.705720 kJ/mol
# GULP energy per Si atom -12393.193266 kJ/mol
# Density = 2.003750 g / cm^3
# Si number density = 20.083207 Si / 1000 Ang^3
#
#
#
# Elastic Constant Matrix: (Units=GPa)
#
#
# Indices 1 2 3 4 5 6 
#
# 1 108.7882 40.3656 57.6354 -5.7240 3.8060 -3.8473
# 2 40.3656 48.0468 43.7560 -0.2113 -1.3973 -8.0611
# 3 57.6354 43.7560 172.8263 -6.2776 11.0927 -6.6651
# 4 -5.7240 -0.2113 -6.2776 39.3539 -5.0178 2.0354
# 5 3.8060 -1.3973 11.0927 -5.0178 55.3095 -3.8957
# 6 -3.8473 -8.0611 -6.6651 2.0354 -3.8957 26.1087
#
#
#
# Elastic Compliance Matrix: (Units=1/GPa)
#
#
# Indices 1 2 3 4 5 6 
#
# 1 0.014182 -0.010367 -0.002065 0.001673 -0.000805 -0.001889
# 2 -0.010367 0.036254 -0.005666 -0.002270 0.003185 0.008872
# 3 -0.002065 -0.005666 0.008026 0.000766 -0.001562 -0.000298
# 4 0.001673 -0.002270 0.000766 0.026110 0.001901 -0.002011
# 5 -0.000805 0.003185 -0.001562 0.001901 0.018923 0.003141
# 6 -0.001889 0.008872 -0.000298 -0.002011 0.003141 0.041312
#
#
# Mechanical properties :
#
#
# Convention : Reuss Voigt Hill
#
# Bulk Modulus (GPa) = 44.91308 68.13059 56.52184
# Shear Modulus (GPa) = 26.53553 36.68136 31.60845
#
# Velocity S-wave (km/s) = 3.63888 4.27836 3.97151
# Velocity P-wave (km/s) = 6.32988 7.64222 7.01680
#
# Compressibility (1/GPa) = 0.02226523
#
# Stress axis : x y z
#
# Youngs Moduli (GPa) = 70.50948 27.58310 124.59392
#
# Poissons Ratio (x) = 0.28596 0.25733
# Poissons Ratio (y) = 0.73099 0.70597
# Poissons Ratio (z) = 0.14563 0.15629
#
# Static dielectric constant tensor:
#      x y z
#    x 4.535670 -1.967480 0.626740 
#    y -1.967480 7.972610 -1.541430 
#    z 0.626740 -1.541430 5.001640 
# 
# 
# High freq. dielectric constant tensor:
#      x y z
#    x 1.783680 -0.015630 0.007520 
#    y -0.015630 1.752440 -0.003990 
#    z 0.007520 -0.003990 1.815990 
# 
# From -- ./inp_files/153857.got.cif
#   From: 2010.06.25/outbox.cif.g09.slc.cpg/sg2_77_cif.got.tgz:153857.got - 2010.06.27 13:26:56.
