data_PCOD8005009
_publ_section_title
;
Structure prediction by ZEFSAII (Michael W. Deem and Ramdas Pophale) SiO2 
 PCOD8005009
Probable space group: P -1
;
_chemical_formula_sum "Si O2"
_cell_formula_units_Z 16
_cell_length_a 8.624262
_cell_length_b 15.469821
_cell_length_c 9.925853
_cell_angle_alpha 101.919692
_cell_angle_beta 121.419731
_cell_angle_gamma 118.258136
_cell_volume 793.987309
_symmetry_space_group_name_H-M "P -1"
_symmetry_group_IT_number 2
_symmetry_cell_setting 'triclinic'
loop_
_space_group_symop_operation_xyz
x,y,z
-x,-y,-z
loop_
_atom_site_type_symbol
_atom_site_label
_atom_site_fract_x
_atom_site_fract_y
_atom_site_fract_z
Si Si1 0.413580 0.226883 0.193783
Si Si2 0.097584 0.706951 0.590154
Si Si3 0.997906 0.137749 0.759001
Si Si4 0.670896 0.872583 0.596981
Si Si5 0.582893 0.480609 0.895334
Si Si6 0.143352 0.200403 0.549244
Si Si7 0.905370 0.309341 0.726494
Si Si8 0.602247 0.478109 0.415568
O O1 0.620896 0.229806 0.224317
O O2 0.271251 0.130289 0.221610
O O3 0.552790 0.357294 0.369630
O O4 0.227249 0.189521 0.977972
O O5 0.034631 0.658889 0.393367
O O6 0.063578 0.801741 0.607930
O O7 0.902308 0.595139 0.568936
O O8 0.059700 0.131011 0.631238
O O9 0.943311 0.222594 0.767972
O O10 0.748609 0.000538 0.649506
O O11 0.840697 0.870630 0.576086
O O12 0.377823 0.757101 0.389310
O O13 0.415724 0.339137 0.739047
O O14 0.555009 0.545118 0.791175
O O15 0.500000 0.500000 0.000000
O O16 0.882795 0.557531 0.062351
O O17 0.500000 0.500000 0.500000
#
# Coordination Sequence:
#
# PCOD8005009 Si02
#       8
#     2   2   2   2   2   2   2   2
#     4  11  21  37  58  86 111 154 196 225 278 345
#     4   9  20  36  59  82 114 152 187 226 289 347
#     4  11  21  40  62  81 114 154 195 232 272 343
#     4  11  24  39  56  87 117 152 190 234 286 329
#     4  11  17  37  64  83 110 150 191 228 284 343
#     4  10  21  39  61  82 117 149 185 242 288 327
#     4  10  20  38  64  84 108 152 197 231 276 344
#     4  11  20  34  57  87 122 146 175 241 297 330
#
# _framework density 20.151456
#
# number of rings (size 3 to 8) (size 9 to 14) (size 15 to 20)
#    0.000    1.500    5.000    3.000    0.000    0.500 
#    2.250    0.625    0.000    0.000    0.000    0.000 
#    0.000    0.000    0.000    0.000    0.000    0.000 
#
# Total GULP energy -198334.742590 kJ/mol
# GULP energy per Si atom -12395.921412 kJ/mol
# Density = 2.010559 g / cm^3
# Si number density = 20.151456 Si / 1000 Ang^3
#
#
#
# Elastic Constant Matrix: (Units=GPa)
#
#
# Indices 1 2 3 4 5 6 
#
# 1 94.1628 27.3403 23.4227 -12.1899 -3.3651 4.2902
# 2 27.3403 102.9150 13.3769 -5.9895 -1.0344 17.5131
# 3 23.4227 13.3769 49.7978 -10.3433 9.7370 -0.4864
# 4 -12.1899 -5.9895 -10.3433 25.7093 -2.4599 -0.2604
# 5 -3.3651 -1.0344 9.7370 -2.4599 23.9004 -5.5137
# 6 4.2902 17.5131 -0.4864 -0.2604 -5.5137 23.9915
#
#
#
# Elastic Compliance Matrix: (Units=1/GPa)
#
#
# Indices 1 2 3 4 5 6 
#
# 1 0.013456 -0.002647 -0.005704 0.003916 0.004626 0.000516
# 2 -0.002647 0.012152 -0.001755 0.000681 -0.001062 -0.008670
# 3 -0.005704 -0.001755 0.026765 0.006604 -0.011015 0.000384
# 4 0.003916 0.000681 0.006604 0.043797 0.002389 -0.000039
# 5 0.004626 -0.001062 -0.011015 0.002389 0.049760 0.011186
# 6 0.000516 -0.008670 0.000384 -0.000039 0.011186 0.050496
#
#
# Mechanical properties :
#
#
# Convention : Reuss Voigt Hill
#
# Bulk Modulus (GPa) = 31.09343 41.68392 36.38867
# Shear Modulus (GPa) = 21.99169 26.90262 24.44716
#
# Velocity S-wave (km/s) = 3.30710 3.65776 3.48684
# Velocity P-wave (km/s) = 5.48141 6.21041 5.85726
#
# Compressibility (1/GPa) = 0.03216114
#
# Stress axis : x y z
#
# Youngs Moduli (GPa) = 74.31576 82.28915 37.36223
#
# Poissons Ratio (x) = 0.21779 0.21312
# Poissons Ratio (y) = 0.19669 0.06558
# Poissons Ratio (z) = 0.42391 0.14444
#
# Static dielectric constant tensor:
#      x y z
#    x 3.677500 0.096420 0.285090 
#    y 0.096420 3.841310 -0.068640 
#    z 0.285090 -0.068640 3.641890 
# 
# 
# High freq. dielectric constant tensor:
#      x y z
#    x 1.776380 0.008270 0.010430 
#    y 0.008270 1.800400 -0.010780 
#    z 0.010430 -0.010780 1.770390 
# 
# From -- ./inp_files/177540.got.cif
#   From: 2010.06.25/outbox.cif.g09.slc.cpg/sg2_89_cif.got.tgz:177540.got - 2010.06.27 13:26:56.
