data_PCOD8005819
_publ_section_title
;
Structure prediction by ZEFSAII (Michael W. Deem and Ramdas Pophale) SiO2 
 PCOD8005819
Probable space group: P -1
;
_chemical_formula_sum "Si O2"
_cell_formula_units_Z 14
_cell_length_a 20.150660
_cell_length_b 6.561164
_cell_length_c 21.035090
_cell_angle_alpha 130.145539
_cell_angle_beta 20.252961
_cell_angle_gamma 119.693786
_cell_volume 669.936865
_symmetry_space_group_name_H-M "P -1"
_symmetry_group_IT_number 2
_symmetry_cell_setting 'triclinic'
loop_
_space_group_symop_operation_xyz
x,y,z
-x,-y,-z
loop_
_atom_site_type_symbol
_atom_site_label
_atom_site_fract_x
_atom_site_fract_y
_atom_site_fract_z
Si Si1 0.107827 0.664485 0.353886
Si Si2 0.413053 0.330173 0.903803
Si Si3 0.647347 0.681942 0.535853
Si Si4 0.345401 0.370329 0.757731
Si Si5 0.841175 0.323702 0.543877
Si Si6 0.925740 0.337813 0.828615
Si Si7 0.411470 0.259531 0.540091
O O1 0.198103 0.621833 0.334982
O O2 0.928246 0.546386 0.481616
O O3 0.304664 0.482720 0.096579
O O4 0.000000 0.000000 0.500000
O O5 0.622929 0.386766 0.717169
O O6 0.479729 0.982363 0.777907
O O7 0.263074 0.457460 0.004543
O O8 0.553054 0.441250 0.581364
O O9 0.698137 0.741426 0.428868
O O10 0.874813 0.578996 0.344525
O O11 0.265798 0.350230 0.753060
O O12 0.405153 0.061965 0.677312
O O13 0.155175 0.613528 0.016031
O O14 0.013298 0.996608 0.311235
O O15 0.500000 0.500000 0.500000
#
# Coordination Sequence:
#
# PCOD8005819 Si02
#       7
#     2   2   2   2   2   2   2
#     4  11  22  42  63  88 119 157 201 240 295 357
#     4  11  22  41  62  87 124 156 192 252 294 343
#     4  10  22  40  61  88 121 154 200 246 291 352
#     4  10  20  39  63  86 121 158 194 248 295 343
#     4  10  24  42  61  89 120 154 200 244 294 353
#     4  11  22  40  62  91 117 157 202 237 299 357
#     4   9  19  39  62  87 121 156 198 244 292 349
#
# _framework density 20.897490999999999
#
# number of rings (size 3 to 8) (size 9 to 14) (size 15 to 20)
#    0.000    1.714    2.857    1.286    0.000    2.286 
#    5.143    6.429    0.000    0.000    0.000    0.000 
#    0.000    0.000    0.000    0.000    0.000    0.000 
#
# Total GULP energy -173564.224897 kJ/mol
# GULP energy per Si atom -12397.444636 kJ/mol
# Density = 2.084993 g / cm^3
# Si number density = 20.897491 Si / 1000 Ang^3
#
#
#
# Elastic Constant Matrix: (Units=GPa)
#
#
# Indices 1 2 3 4 5 6 
#
# 1 51.8015 14.4903 50.1958 9.8161 2.1170 6.8623
# 2 14.4903 120.0424 34.8619 4.3793 -10.2749 7.9588
# 3 50.1958 34.8619 114.1107 2.6140 8.7619 4.6902
# 4 9.8161 4.3793 2.6140 17.6369 4.4962 3.8010
# 5 2.1170 -10.2749 8.7619 4.4962 49.1372 1.6969
# 6 6.8623 7.9588 4.6902 3.8010 1.6969 25.6857
#
#
#
# Elastic Compliance Matrix: (Units=1/GPa)
#
#
# Indices 1 2 3 4 5 6 
#
# 1 0.040692 0.001756 -0.018049 -0.020235 0.003870 -0.005381
# 2 0.001756 0.009764 -0.003812 -0.003056 0.003013 -0.002545
# 3 -0.018049 -0.003812 0.017907 0.009022 -0.004096 0.001669
# 4 -0.020235 -0.003056 0.009022 0.070456 -0.007643 -0.005216
# 5 0.003870 0.003013 -0.004096 -0.007643 0.022298 -0.001562
# 6 -0.005381 -0.002545 0.001669 -0.005216 -0.001562 0.041729
#
#
# Mechanical properties :
#
#
# Convention : Reuss Voigt Hill
#
# Bulk Modulus (GPa) = 35.52098 53.89453 44.70776
# Shear Modulus (GPa) = 19.80683 30.91907 25.36295
#
# Velocity S-wave (km/s) = 3.08199 3.85068 3.48758
# Velocity P-wave (km/s) = 5.44973 6.75398 6.13660
#
# Compressibility (1/GPa) = 0.02815237
#
# Stress axis : x y z
#
# Youngs Moduli (GPa) = 24.57510 102.42059 55.84539
#
# Poissons Ratio (x) = -0.17984 1.00793
# Poissons Ratio (y) = -0.04315 0.21288
# Poissons Ratio (z) = 0.44355 0.39043
#
# Static dielectric constant tensor:
#      x y z
#    x 4.217320 0.105760 0.433010 
#    y 0.105760 3.728310 0.062320 
#    z 0.433010 0.062320 3.753520 
# 
# 
# High freq. dielectric constant tensor:
#      x y z
#    x 1.828370 0.010960 0.022770 
#    y 0.010960 1.816450 0.008920 
#    z 0.022770 0.008920 1.814280 
# 
# From -- ./inp_files/7036.got.cif
#   From: 2010.06.25/outbox.cif.g09.slc.cpg/sg2_4_cif.got.tgz:7036.got - 2010.06.27 13:26:56.
