data_PCOD8005164
_publ_section_title
;
Structure prediction by ZEFSAII (Michael W. Deem and Ramdas Pophale) SiO2 
 PCOD8005164
Probable space group: P -1
;
_chemical_formula_sum "Si O2"
_cell_formula_units_Z 10
_cell_length_a 8.530501
_cell_length_b 7.249251
_cell_length_c 10.164260
_cell_angle_alpha 93.548225
_cell_angle_beta 118.811751
_cell_angle_gamma 54.690055
_cell_volume 428.297496
_symmetry_space_group_name_H-M "P -1"
_symmetry_group_IT_number 2
_symmetry_cell_setting 'triclinic'
loop_
_space_group_symop_operation_xyz
x,y,z
-x,-y,-z
loop_
_atom_site_type_symbol
_atom_site_label
_atom_site_fract_x
_atom_site_fract_y
_atom_site_fract_z
Si Si1 0.464126 0.870737 0.313155
Si Si2 0.882027 0.427035 0.047295
Si Si3 0.761402 0.636148 0.662242
Si Si4 0.557574 0.168690 0.995976
Si Si5 0.077587 0.848877 0.172876
O O1 0.682673 0.671820 0.480931
O O2 0.232847 0.922394 0.277385
O O3 0.423700 0.119336 0.317742
O O4 0.504083 0.768348 0.179273
O O5 0.999775 0.401417 0.233381
O O6 0.608217 0.600174 0.968353
O O7 0.940408 0.187659 0.996209
O O8 0.000000 0.500000 0.000000
O O9 0.790002 0.414707 0.725035
O O10 0.821178 0.042776 0.134967
O O11 0.500000 0.000000 0.000000
#
# Coordination Sequence:
#
# PCOD8005164 Si02
#       5
#     2   2   2   2   2
#     4  11  24  39  67  96 126 167 210 255 316 376
#     4  10  20  38  65  89 120 165 209 251 307 369
#     4  10  21  42  65  90 133 165 202 261 318 364
#     4  12  21  39  68  95 122 169 213 254 315 372
#     4  11  22  44  66  93 126 167 209 262 306 371
#
# _framework density 23.348255999999999
#
# number of rings (size 3 to 8) (size 9 to 14) (size 15 to 20)
#    0.000    1.200    6.000    2.400    0.000    1.600 
#    0.000    0.000    0.000    8.400    0.000    0.000 
#    0.000    0.000    0.000    0.000    0.000    0.000 
#
# Total GULP energy -123900.763291 kJ/mol
# GULP energy per Si atom -12390.076329 kJ/mol
# Density = 2.329511 g / cm^3
# Si number density = 23.348256 Si / 1000 Ang^3
#
#
#
# Elastic Constant Matrix: (Units=GPa)
#
#
# Indices 1 2 3 4 5 6 
#
# 1 109.7704 46.1365 47.3953 -5.9471 15.0673 -16.9377
# 2 46.1365 121.1254 31.9419 -0.4821 4.8435 -21.8114
# 3 47.3953 31.9419 131.4406 -20.1779 17.4617 -1.5313
# 4 -5.9471 -0.4821 -20.1779 30.8698 -1.9782 5.6745
# 5 15.0673 4.8435 17.4617 -1.9782 25.8385 -1.5094
# 6 -16.9377 -21.8114 -1.5313 5.6745 -1.5094 43.5981
#
#
#
# Elastic Compliance Matrix: (Units=1/GPa)
#
#
# Indices 1 2 3 4 5 6 
#
# 1 0.013042 -0.003329 -0.003341 -0.000606 -0.004583 0.003204
# 2 -0.003329 0.010755 -0.001908 -0.002444 0.001283 0.004383
# 3 -0.003341 -0.001908 0.010894 0.006679 -0.004715 -0.002902
# 4 -0.000606 -0.002444 0.006679 0.037663 -0.001179 -0.006166
# 5 -0.004583 0.001283 -0.004715 -0.001179 0.044252 0.000382
# 6 0.003204 0.004383 -0.002902 -0.006166 0.000382 0.027088
#
#
# Mechanical properties :
#
#
# Convention : Reuss Voigt Hill
#
# Bulk Modulus (GPa) = 57.02407 68.14262 62.58334
# Shear Modulus (GPa) = 29.99496 35.85212 32.92354
#
# Velocity S-wave (km/s) = 3.58813 3.92284 3.75921
# Velocity P-wave (km/s) = 6.45310 7.05457 6.76053
#
# Compressibility (1/GPa) = 0.01753645
#
# Stress axis : x y z
#
# Youngs Moduli (GPa) = 76.67473 92.97810 91.79328
#
# Poissons Ratio (x) = 0.30952 0.30665
# Poissons Ratio (y) = 0.25524 0.17513
# Poissons Ratio (z) = 0.25614 0.17739
#
# Static dielectric constant tensor:
#      x y z
#    x 3.689620 1.308610 0.331490 
#    y 1.308610 2.616710 -0.323300 
#    z 0.331490 -0.323300 4.632950 
# 
# 
# High freq. dielectric constant tensor:
#      x y z
#    x 1.912350 0.025430 0.014290 
#    y 0.025430 1.937680 -0.019110 
#    z 0.014290 -0.019110 1.917540 
# 
# From -- ./inp_files/145247.got.cif
#   From: 2010.06.25/outbox.cif.g09.slc.cpg/sg2_73_cif.got.tgz:145247.got - 2010.06.27 13:26:56.
