data_PCOD8005145
_publ_section_title
;
Structure prediction by ZEFSAII (Michael W. Deem and Ramdas Pophale) SiO2 
 PCOD8005145
Probable space group: P -1
;
_chemical_formula_sum "Si O2"
_cell_formula_units_Z 16
_cell_length_a 9.134103
_cell_length_b 5.206915
_cell_length_c 21.450643
_cell_angle_alpha 107.589618
_cell_angle_beta 47.660562
_cell_angle_gamma 100.347578
_cell_volume 718.429356
_symmetry_space_group_name_H-M "P -1"
_symmetry_group_IT_number 2
_symmetry_cell_setting 'triclinic'
loop_
_space_group_symop_operation_xyz
x,y,z
-x,-y,-z
loop_
_atom_site_type_symbol
_atom_site_label
_atom_site_fract_x
_atom_site_fract_y
_atom_site_fract_z
Si Si1 0.702482 0.225444 0.173135
Si Si2 0.192086 0.472183 0.623901
Si Si3 0.959608 0.988559 0.866520
Si Si4 0.538128 0.870667 0.545863
Si Si5 0.787352 0.420842 0.030915
Si Si6 0.706966 0.732611 0.288855
Si Si7 0.206975 0.287664 0.217403
Si Si8 0.454773 0.803064 0.169603
O O1 0.675352 0.292345 0.112638
O O2 0.634334 0.469513 0.255065
O O3 0.934480 0.153858 0.114656
O O4 0.556542 0.974746 0.208993
O O5 0.380591 0.650980 0.591440
O O6 0.240475 0.270227 0.535849
O O7 0.173299 0.322548 0.685003
O O8 0.993508 0.652532 0.680787
O O9 0.138941 0.105056 0.784136
O O10 0.845777 0.763371 0.843865
O O11 0.805771 0.218261 0.952436
O O12 0.500000 0.000000 0.500000
O O13 0.501105 0.098835 0.626102
O O14 0.645786 0.673661 0.067012
O O15 0.000000 0.500000 0.000000
O O16 0.331432 0.553747 0.211086
O O17 0.313352 0.007736 0.186764
#
# Coordination Sequence:
#
# PCOD8005145 Si02
#       8
#     2   2   2   2   2   2   2   2
#     4  12  23  44  69  99 134 188 239 282 341 413
#     4  10  20  38  65 103 138 178 217 290 341 413
#     4  12  25  40  74  99 133 184 241 287 340 406
#     4   9  19  34  63 106 137 166 227 284 341 395
#     4  12  25  45  69  99 134 185 242 296 337 400
#     4  11  19  38  67 105 131 173 236 288 331 403
#     4  12  26  46  68 101 145 182 226 284 361 412
#     4  12  28  47  65 100 141 190 226 285 359 416
#
# _framework density 22.270807999999999
#
# number of rings (size 3 to 8) (size 9 to 14) (size 15 to 20)
#    0.000    0.750    6.250    1.125    1.750    1.000 
#    0.000    0.000    0.000    1.500    0.000    0.000 
#    0.000    0.000    0.000    0.000    0.000    0.000 
#
# Total GULP energy -198218.633329 kJ/mol
# GULP energy per Si atom -12388.664583 kJ/mol
# Density = 2.222012 g / cm^3
# Si number density = 22.270808 Si / 1000 Ang^3
#
#
#
# Elastic Constant Matrix: (Units=GPa)
#
#
# Indices 1 2 3 4 5 6 
#
# 1 66.5772 20.8029 43.9989 18.1033 -27.4669 -12.4361
# 2 20.8029 97.1773 56.9492 32.2800 -9.5630 0.2941
# 3 43.9989 56.9492 173.5578 53.5243 -15.7632 -0.0995
# 4 18.1033 32.2800 53.5243 48.9109 -8.3869 0.3726
# 5 -27.4669 -9.5630 -15.7632 -8.3869 29.1983 6.6961
# 6 -12.4361 0.2941 -0.0995 0.3726 6.6961 36.8206
#
#
#
# Elastic Compliance Matrix: (Units=1/GPa)
#
#
# Indices 1 2 3 4 5 6 
#
# 1 0.029307 -0.000872 -0.004653 -0.001263 0.023101 0.005704
# 2 -0.000872 0.014011 -0.002407 -0.006146 0.000819 -0.000499
# 3 -0.004653 -0.002407 0.010021 -0.007953 -0.001783 -0.001121
# 4 -0.001263 -0.006146 -0.007953 0.034125 0.002586 -0.001214
# 5 0.023101 0.000819 -0.001783 0.002586 0.056608 -0.002530
# 6 0.005704 -0.000499 -0.001121 -0.001214 -0.002530 0.029559
#
#
# Mechanical properties :
#
#
# Convention : Reuss Voigt Hill
#
# Bulk Modulus (GPa) = 26.68348 64.53492 45.60920
# Shear Modulus (GPa) = 24.75420 37.35670 31.05545
#
# Velocity S-wave (km/s) = 3.33755 4.10003 3.73828
# Velocity P-wave (km/s) = 5.18263 7.17314 6.25754
#
# Compressibility (1/GPa) = 0.03747637
#
# Stress axis : x y z
#
# Youngs Moduli (GPa) = 34.12204 71.37047 99.78857
#
# Poissons Ratio (x) = 0.06220 0.46430
# Poissons Ratio (y) = 0.02974 0.24019
# Poissons Ratio (z) = 0.15876 0.17179
#
# Static dielectric constant tensor:
#      x y z
#    x 3.843660 -0.048880 -0.232660 
#    y -0.048880 4.273690 0.509550 
#    z -0.232660 0.509550 4.660500 
# 
# 
# High freq. dielectric constant tensor:
#      x y z
#    x 1.836090 -0.008570 -0.013770 
#    y -0.008570 1.897480 0.022480 
#    z -0.013770 0.022480 1.881100 
# 
# From -- ./inp_files/585222.got.cif
#   From: 2010.06.25/outbox.cif.g09.slc.cpg/sg2_293_cif.got.tgz:585222.got - 2010.06.27 13:26:56.
