data_PCOD8005170
_publ_section_title
;
Structure prediction by ZEFSAII (Michael W. Deem and Ramdas Pophale) SiO2 
 PCOD8005170
Probable space group: P -1
;
_chemical_formula_sum "Si O2"
_cell_formula_units_Z 16
_cell_length_a 16.745285
_cell_length_b 8.340798
_cell_length_c 21.039207
_cell_angle_alpha 141.195668
_cell_angle_beta 150.738676
_cell_angle_gamma 30.770841
_cell_volume 729.632410
_symmetry_space_group_name_H-M "P -1"
_symmetry_group_IT_number 2
_symmetry_cell_setting 'triclinic'
loop_
_space_group_symop_operation_xyz
x,y,z
-x,-y,-z
loop_
_atom_site_type_symbol
_atom_site_label
_atom_site_fract_x
_atom_site_fract_y
_atom_site_fract_z
Si Si1 0.727826 0.309641 0.578238
Si Si2 0.072707 0.162206 0.211067
Si Si3 0.011225 0.102999 0.470572
Si Si4 0.224617 0.121957 0.810662
Si Si5 0.432846 0.903829 0.016844
Si Si6 0.792181 0.811106 0.552580
Si Si7 0.302124 0.841598 0.039202
Si Si8 0.647367 0.940290 0.726134
O O1 0.500000 0.500000 0.500000
O O2 0.783671 0.556193 0.698758
O O3 0.857637 0.007033 0.620888
O O4 0.770058 0.160544 0.490331
O O5 0.207834 0.107151 0.348956
O O6 0.233725 0.960736 0.203994
O O7 0.947582 0.526415 0.219965
O O8 0.928835 0.047451 0.084961
O O9 0.966372 0.445234 0.545680
O O10 0.842597 0.109589 0.314708
O O11 0.000000 0.000000 0.500000
O O12 0.410107 0.006648 0.855528
O O13 0.269392 0.107434 0.911926
O O14 0.331599 0.991342 0.043256
O O15 0.544856 0.533559 0.968743
O O16 0.575124 0.903188 0.408445
O O17 0.358877 0.962716 0.176024
#
# Coordination Sequence:
#
# PCOD8005170 Si02
#       8
#     2   2   2   2   2   2   2   2
#     4  10  24  43  62  95 138 173 218 279 332 389
#     4  11  22  40  64  97 133 173 218 274 333 394
#     4  12  22  40  68 100 126 174 221 269 327 404
#     4  10  20  38  65  89 130 166 212 272 333 387
#     4   9  21  41  62  94 129 167 213 282 326 389
#     4  11  24  41  67  99 131 177 221 276 327 391
#     4  10  22  40  67  94 128 172 224 268 332 395
#     4  11  22  44  64  96 135 179 217 271 336 397
#
# _framework density 21.928851999999999
#
# number of rings (size 3 to 8) (size 9 to 14) (size 15 to 20)
#    0.000    1.500    2.500    1.875    1.750    3.000 
#    6.750    6.250    0.000    0.000    0.000    0.000 
#    0.000    0.000    0.000    0.000    0.000    0.000 
#
# Total GULP energy -198299.425385 kJ/mol
# GULP energy per Si atom -12393.714087 kJ/mol
# Density = 2.187894 g / cm^3
# Si number density = 21.928852 Si / 1000 Ang^3
#
#
#
# Elastic Constant Matrix: (Units=GPa)
#
#
# Indices 1 2 3 4 5 6 
#
# 1 186.7983 37.3202 57.5577 -10.4254 -15.2942 -13.6329
# 2 37.3202 78.9862 16.2451 3.6599 -11.6874 0.8049
# 3 57.5577 16.2451 107.7442 -14.8516 -11.9942 -6.9662
# 4 -10.4254 3.6599 -14.8516 22.4385 -1.1549 -5.7628
# 5 -15.2942 -11.6874 -11.9942 -1.1549 39.6914 -0.3615
# 6 -13.6329 0.8049 -6.9662 -5.7628 -0.3615 30.3218
#
#
#
# Elastic Compliance Matrix: (Units=1/GPa)
#
#
# Indices 1 2 3 4 5 6 
#
# 1 0.007264 -0.002865 -0.002683 0.002980 0.001261 0.003307
# 2 -0.002865 0.014968 -0.001344 -0.005284 0.002716 -0.002966
# 3 -0.002683 -0.001344 0.012567 0.008279 0.002639 0.003321
# 4 0.002980 -0.005284 0.008279 0.056110 0.003855 0.014092
# 5 0.001261 0.002716 0.002639 0.003855 0.027410 0.002161
# 6 0.003307 -0.002966 0.003321 0.014092 0.002161 0.038012
#
#
# Mechanical properties :
#
#
# Convention : Reuss Voigt Hill
#
# Bulk Modulus (GPa) = 47.58832 66.19716 56.89274
# Shear Modulus (GPa) = 28.22954 35.98406 32.10680
#
# Velocity S-wave (km/s) = 3.59182 4.05525 3.83055
# Velocity P-wave (km/s) = 6.24099 7.22354 6.75017
#
# Compressibility (1/GPa) = 0.02101356
#
# Stress axis : x y z
#
# Youngs Moduli (GPa) = 137.67435 66.81074 79.57355
#
# Poissons Ratio (x) = 0.19143 0.21351
# Poissons Ratio (y) = 0.39447 0.10693
# Poissons Ratio (z) = 0.36941 0.08978
#
# Static dielectric constant tensor:
#      x y z
#    x 4.539090 0.419270 0.338940 
#    y 0.419270 4.671990 0.519410 
#    z 0.338940 0.519410 4.356960 
# 
# 
# High freq. dielectric constant tensor:
#      x y z
#    x 1.886710 0.005950 0.003860 
#    y 0.005950 1.849570 -0.002010 
#    z 0.003860 -0.002010 1.852360 
# 
# From -- ./inp_files/599630.got.cif
#   From: 2010.06.25/outbox.cif.g09.slc.cpg/sg2_300_cif.got.tgz:599630.got - 2010.06.27 13:26:56.
