data_PCOD8005698
_publ_section_title
;
Structure prediction by ZEFSAII (Michael W. Deem and Ramdas Pophale) SiO2 
 PCOD8005698
Probable space group: P -1
;
_chemical_formula_sum "Si O2"
_cell_formula_units_Z 16
_cell_length_a 9.078029
_cell_length_b 8.451855
_cell_length_c 15.114925
_cell_angle_alpha 79.246978
_cell_angle_beta 40.297093
_cell_angle_gamma 75.432194
_cell_volume 725.904956
_symmetry_space_group_name_H-M "P -1"
_symmetry_group_IT_number 2
_symmetry_cell_setting 'triclinic'
loop_
_space_group_symop_operation_xyz
x,y,z
-x,-y,-z
loop_
_atom_site_type_symbol
_atom_site_label
_atom_site_fract_x
_atom_site_fract_y
_atom_site_fract_z
Si Si1 0.897171 0.179193 0.988026
Si Si2 0.895691 0.821588 0.728377
Si Si3 0.383312 0.183655 0.724077
Si Si4 0.469477 0.693998 0.005756
Si Si5 0.559858 0.205093 0.278022
Si Si6 0.300490 0.825509 0.259181
Si Si7 0.389945 0.839474 0.552011
Si Si8 0.946100 0.679787 0.540587
O O1 0.111786 0.262290 0.848756
O O2 0.710596 0.195664 0.990877
O O3 0.760891 0.272787 0.124072
O O4 0.000000 0.000000 0.000000
O O5 0.730075 0.732705 0.874542
O O6 0.022843 0.706681 0.603286
O O7 0.109421 0.878960 0.675811
O O8 0.725038 0.980490 0.754728
O O9 0.509120 0.238129 0.747154
O O10 0.494862 0.253394 0.578382
O O11 0.406602 0.990302 0.722074
O O12 0.500000 0.500000 0.000000
O O13 0.374801 0.736978 0.142731
O O14 0.551305 0.271485 0.375687
O O15 0.325852 0.273966 0.329759
O O16 0.052772 0.790501 0.409678
O O17 0.500000 0.000000 0.500000
O O18 0.000000 0.500000 0.500000
#
# Coordination Sequence:
#
# PCOD8005698 Si02
#       8
#     2   2   2   2   2   2   2   2
#     4  10  22  41  68  96 138 179 232 284 346 421
#     4  12  23  45  70 101 135 185 247 292 342 432
#     4  10  20  39  62 102 130 171 232 293 338 405
#     4  12  28  47  69 105 147 187 236 298 370 423
#     4  10  21  39  63  94 136 175 226 284 350 410
#     4  12  24  40  73 100 137 181 247 296 343 427
#     4  10  22  37  65 100 136 166 228 296 345 399
#     4  12  24  43  68  98 143 187 229 297 366 418
#
# _framework density 22.041450999999999
#
# number of rings (size 3 to 8) (size 9 to 14) (size 15 to 20)
#    0.000    1.000    3.750    3.750    8.750    0.000 
#    0.000    2.500    0.000    0.000    0.000    0.000 
#    0.000    0.000    0.000    0.000    0.000    0.000 
#
# Total GULP energy -198245.671871 kJ/mol
# GULP energy per Si atom -12390.354492 kJ/mol
# Density = 2.199128 g / cm^3
# Si number density = 22.041451 Si / 1000 Ang^3
#
#
#
# Elastic Constant Matrix: (Units=GPa)
#
#
# Indices 1 2 3 4 5 6 
#
# 1 125.8255 10.8061 56.2667 -3.4182 -0.6066 3.8687
# 2 10.8061 54.4429 19.5568 5.3918 -7.5599 9.6956
# 3 56.2667 19.5568 185.3108 -6.1797 -7.4561 2.9463
# 4 -3.4182 5.3918 -6.1797 23.2651 10.1532 7.3402
# 5 -0.6066 -7.5599 -7.4561 10.1532 50.1824 -2.7171
# 6 3.8687 9.6956 2.9463 7.3402 -2.7171 16.1146
#
#
#
# Elastic Compliance Matrix: (Units=1/GPa)
#
#
# Indices 1 2 3 4 5 6 
#
# 1 0.009338 -0.000800 -0.002685 0.001988 -0.000935 -0.002333
# 2 -0.000800 0.021876 -0.001900 -0.003838 0.003221 -0.010331
# 3 -0.002685 -0.001900 0.006482 0.001670 0.000301 -0.000107
# 4 0.001988 -0.003838 0.001670 0.059448 -0.013844 -0.027886
# 5 -0.000935 0.003221 0.000301 -0.013844 0.023709 0.008535
# 6 -0.002333 -0.010331 -0.000107 -0.027886 0.008535 0.082992
#
#
# Mechanical properties :
#
#
# Convention : Reuss Voigt Hill
#
# Bulk Modulus (GPa) = 37.13938 59.87095 48.50517
# Shear Modulus (GPa) = 22.36224 36.50906 29.43565
#
# Velocity S-wave (km/s) = 3.18866 4.07428 3.65837
# Velocity P-wave (km/s) = 5.51753 7.02530 6.31657
#
# Compressibility (1/GPa) = 0.02692559
#
# Stress axis : x y z
#
# Youngs Moduli (GPa) = 107.08656 45.71133 154.28158
#
# Poissons Ratio (x) = 0.03658 0.41427
# Poissons Ratio (y) = 0.08570 0.29312
# Poissons Ratio (z) = 0.28755 0.08685
#
# Static dielectric constant tensor:
#      x y z
#    x 4.338350 -0.190540 0.316430 
#    y -0.190540 3.696050 -0.320260 
#    z 0.316430 -0.320260 4.820510 
# 
# 
# High freq. dielectric constant tensor:
#      x y z
#    x 1.873830 0.003810 0.001740 
#    y 0.003810 1.814160 -0.008780 
#    z 0.001740 -0.008780 1.902190 
# 
# From -- ./inp_files/283466.got.cif
#   From: 2010.06.25/outbox.cif.g09.slc.cpg/sg2_142_cif.got.tgz:283466.got - 2010.06.27 13:26:56.
