data_PCOD8005238
_publ_section_title
;
Structure prediction by ZEFSAII (Michael W. Deem and Ramdas Pophale) SiO2 
 PCOD8005238
Probable space group: P -1
;
_chemical_formula_sum "Si O2"
_cell_formula_units_Z 16
_cell_length_a 6.390526
_cell_length_b 18.897560
_cell_length_c 9.059989
_cell_angle_alpha 81.699370
_cell_angle_beta 92.541785
_cell_angle_gamma 137.087235
_cell_volume 734.107297
_symmetry_space_group_name_H-M "P -1"
_symmetry_group_IT_number 2
_symmetry_cell_setting 'triclinic'
loop_
_space_group_symop_operation_xyz
x,y,z
-x,-y,-z
loop_
_atom_site_type_symbol
_atom_site_label
_atom_site_fract_x
_atom_site_fract_y
_atom_site_fract_z
Si Si1 0.736461 0.398762 0.928441
Si Si2 0.729453 0.237504 0.936225
Si Si3 0.168833 0.339091 0.428495
Si Si4 0.851188 0.036934 0.179544
Si Si5 0.136952 0.254553 0.152695
Si Si6 0.959751 0.915627 0.141477
Si Si7 0.228776 0.514278 0.401283
Si Si8 0.179447 0.834280 0.306920
O O1 0.859053 0.349424 0.922816
O O2 0.696729 0.426688 0.763714
O O3 0.409539 0.321171 0.022918
O O4 0.000000 0.500000 0.000000
O O5 0.362243 0.150293 0.933060
O O6 0.880524 0.240464 0.795777
O O7 0.833457 0.217229 0.087620
O O8 0.255037 0.326788 0.277438
O O9 0.076055 0.399065 0.391284
O O10 0.453621 0.409999 0.525528
O O11 0.892563 0.221410 0.522656
O O12 0.047945 0.150512 0.223143
O O13 0.029173 0.004870 0.212188
O O14 0.526272 0.951627 0.279777
O O15 0.799675 0.037616 0.000099
O O16 0.951798 0.844967 0.269007
O O17 0.000000 0.500000 0.500000
#
# Coordination Sequence:
#
# PCOD8005238 Si02
#       8
#     2   2   2   2   2   2   2   2
#     4  12  25  42  68  99 126 163 215 271 320 375
#     4  11  21  38  67  92 126 163 213 268 312 372
#     4  11  26  43  65  92 132 171 212 258 321 385
#     4  10  22  37  66  94 132 165 211 266 315 378
#     4  12  25  42  62  99 133 166 210 267 322 376
#     4  10  20  38  65  98 123 166 217 261 315 374
#     4  11  24  47  68  91 126 172 215 261 318 383
#     4  11  22  40  66  95 125 171 216 259 314 385
#
# _framework density 21.795179999999998
#
# number of rings (size 3 to 8) (size 9 to 14) (size 15 to 20)
#    0.000    1.000    2.500    4.125    3.500    5.500 
#    0.000    0.625    0.000    0.000    0.000    0.000 
#    0.000    0.000    0.000    0.000    0.000    0.000 
#
# Total GULP energy -198382.820302 kJ/mol
# GULP energy per Si atom -12398.926269 kJ/mol
# Density = 2.174557 g / cm^3
# Si number density = 21.795180 Si / 1000 Ang^3
#
#
#
# Elastic Constant Matrix: (Units=GPa)
#
#
# Indices 1 2 3 4 5 6 
#
# 1 113.6516 61.4656 39.4131 -5.0145 -6.9143 -28.0492
# 2 61.4656 136.7836 47.0237 -8.1622 -9.1315 -31.2587
# 3 39.4131 47.0237 108.0464 -8.9001 -12.3827 -16.2668
# 4 -5.0145 -8.1622 -8.9001 39.6920 -0.4339 -5.1305
# 5 -6.9143 -9.1315 -12.3827 -0.4339 18.7423 -0.9892
# 6 -28.0492 -31.2587 -16.2668 -5.1305 -0.9892 51.3638
#
#
#
# Elastic Compliance Matrix: (Units=1/GPa)
#
#
# Indices 1 2 3 4 5 6 
#
# 1 0.012792 -0.003946 -0.002077 0.000880 0.001658 0.004046
# 2 -0.003946 0.011107 -0.002319 0.001825 0.002683 0.004104
# 3 -0.002077 -0.002319 0.012181 0.002275 0.006292 0.001661
# 4 0.000880 0.001825 0.002275 0.026885 0.003607 0.005067
# 5 0.001658 0.002683 0.006292 0.003607 0.059833 0.006043
# 6 0.004046 0.004104 0.001661 0.005067 0.006043 0.025324
#
#
# Mechanical properties :
#
#
# Convention : Reuss Voigt Hill
#
# Bulk Modulus (GPa) = 51.55915 72.69849 62.12882
# Shear Modulus (GPa) = 29.19338 35.99820 32.59579
#
# Velocity S-wave (km/s) = 3.66381 4.06847 3.87143
# Velocity P-wave (km/s) = 6.45024 7.44967 6.96790
#
# Compressibility (1/GPa) = 0.01939520
#
# Stress axis : x y z
#
# Youngs Moduli (GPa) = 78.17679 90.03143 82.09728
#
# Poissons Ratio (x) = 0.35529 0.17052
# Poissons Ratio (y) = 0.30851 0.19037
# Poissons Ratio (z) = 0.16237 0.20877
#
# Static dielectric constant tensor:
#      x y z
#    x 4.323840 -0.205370 -0.296970 
#    y -0.205370 4.515620 -0.503750 
#    z -0.296970 -0.503750 4.117340 
# 
# 
# High freq. dielectric constant tensor:
#      x y z
#    x 1.865250 -0.021240 -0.007290 
#    y -0.021240 1.867800 -0.012910 
#    z -0.007290 -0.012910 1.835030 
# 
# From -- ./inp_files/138966.got.cif
#   From: 2010.06.25/outbox.cif.g09.slc.cpg/sg2_70_cif.got.tgz:138966.got - 2010.06.27 13:26:56.
