data_PCOD8005033
_publ_section_title
;
Structure prediction by ZEFSAII (Michael W. Deem and Ramdas Pophale) SiO2 
 PCOD8005033
Probable space group: P -1
;
_chemical_formula_sum "Si O2"
_cell_formula_units_Z 14
_cell_length_a 11.537448
_cell_length_b 6.625289
_cell_length_c 11.681770
_cell_angle_alpha 109.996686
_cell_angle_beta 50.751713
_cell_angle_gamma 90.864664
_cell_volume 624.469013
_symmetry_space_group_name_H-M "P -1"
_symmetry_group_IT_number 2
_symmetry_cell_setting 'triclinic'
loop_
_space_group_symop_operation_xyz
x,y,z
-x,-y,-z
loop_
_atom_site_type_symbol
_atom_site_label
_atom_site_fract_x
_atom_site_fract_y
_atom_site_fract_z
Si Si1 0.429511 0.016446 0.735020
Si Si2 0.968196 0.491696 0.271456
Si Si3 0.895488 0.120509 0.739405
Si Si4 0.875091 0.991860 0.981390
Si Si5 0.184359 0.759545 0.513815
Si Si6 0.595241 0.285383 0.830988
Si Si7 0.288956 0.167497 0.621463
O O1 0.477097 0.151002 0.836039
O O2 0.354523 0.183921 0.710220
O O3 0.578874 0.830260 0.556022
O O4 0.299967 0.903108 0.841925
O O5 0.855589 0.435614 0.427122
O O6 0.855695 0.614929 0.262877
O O7 0.063088 0.658885 0.290849
O O8 0.098225 0.271439 0.108906
O O9 0.725886 0.122264 0.798553
O O10 0.895871 0.120731 0.878284
O O11 0.028171 0.900647 0.571208
O O12 0.000000 0.000000 0.000000
O O13 0.318408 0.642528 0.318111
O O14 0.239349 0.936541 0.594148
O O15 0.500000 0.500000 0.000000
#
# Coordination Sequence:
#
# PCOD8005033 Si02
#       7
#     2   2   2   2   2   2   2
#     4  10  21  40  60  85 126 157 190 250 299 345
#     4  10  20  38  64  88 114 154 200 247 294 344
#     4  10  22  39  59  86 120 158 199 241 290 351
#     4  11  23  39  62  91 118 152 200 250 300 349
#     4   9  20  40  64  88 116 153 202 249 290 347
#     4  11  23  38  58  89 124 160 198 236 293 361
#     4   9  20  40  64  89 116 154 200 247 298 345
#
# _framework density 22.419046000000002
#
# number of rings (size 3 to 8) (size 9 to 14) (size 15 to 20)
#    0.000    2.000    0.000    3.857    0.000    5.714 
#    0.000   15.714    0.000    0.000    0.000    0.000 
#    0.000    0.000    0.000    0.000    0.000    0.000 
#
# Total GULP energy -173569.333469 kJ/mol
# GULP energy per Si atom -12397.809534 kJ/mol
# Density = 2.236802 g / cm^3
# Si number density = 22.419046 Si / 1000 Ang^3
#
#
#
# Elastic Constant Matrix: (Units=GPa)
#
#
# Indices 1 2 3 4 5 6 
#
# 1 146.9076 27.9852 22.5804 -1.6605 -2.7791 9.4724
# 2 27.9852 94.1141 26.8757 -15.2658 1.0337 3.4732
# 3 22.5804 26.8757 98.0437 -13.0030 -11.4807 16.0288
# 4 -1.6605 -15.2658 -13.0030 30.7506 1.9073 -9.4847
# 5 -2.7791 1.0337 -11.4807 1.9073 37.2913 -1.8358
# 6 9.4724 3.4732 16.0288 -9.4847 -1.8358 24.3603
#
#
#
# Elastic Compliance Matrix: (Units=1/GPa)
#
#
# Indices 1 2 3 4 5 6 
#
# 1 0.007525 -0.002195 -0.000902 -0.001932 0.000307 -0.002748
# 2 -0.002195 0.013026 -0.002959 0.006193 -0.001593 0.003235
# 3 -0.000902 -0.002959 0.012977 0.001631 0.003589 -0.006860
# 4 -0.001932 0.006193 0.001631 0.040747 -0.001180 0.014571
# 5 0.000307 -0.001593 0.003589 -0.001180 0.028019 -0.000602
# 6 -0.002748 0.003235 -0.006860 0.014571 -0.000602 0.051800
#
#
# Mechanical properties :
#
#
# Convention : Reuss Voigt Hill
#
# Bulk Modulus (GPa) = 46.69753 54.88309 50.79031
# Shear Modulus (GPa) = 28.84434 35.92205 32.38320
#
# Velocity S-wave (km/s) = 3.59081 4.00722 3.80472
# Velocity P-wave (km/s) = 6.16981 6.77821 6.48115
#
# Compressibility (1/GPa) = 0.02141441
#
# Stress axis : x y z
#
# Youngs Moduli (GPa) = 132.88939 76.77009 77.06214
#
# Poissons Ratio (x) = 0.16853 0.06953
# Poissons Ratio (y) = 0.29173 0.22803
# Poissons Ratio (z) = 0.11989 0.22717
#
# Static dielectric constant tensor:
#      x y z
#    x 4.237400 0.001940 -0.214790 
#    y 0.001940 3.674080 -0.113140 
#    z -0.214790 -0.113140 4.242350 
# 
# 
# High freq. dielectric constant tensor:
#      x y z
#    x 1.898670 0.001650 -0.010010 
#    y 0.001650 1.848050 -0.013600 
#    z -0.010010 -0.013600 1.891660 
# 
# From -- ./inp_files/410969.got.cif
#   From: 2010.06.25/outbox.cif.g09.slc.cpg/sg2_206_cif.got.tgz:410969.got - 2010.06.27 13:26:56.
