data_PCOD8005717
_publ_section_title
;
Structure prediction by ZEFSAII (Michael W. Deem and Ramdas Pophale) SiO2 
 PCOD8005717
Probable space group: P -1
;
_chemical_formula_sum "Si O2"
_cell_formula_units_Z 16
_cell_length_a 18.332269
_cell_length_b 9.533600
_cell_length_c 12.842029
_cell_angle_alpha 74.153692
_cell_angle_beta 41.453186
_cell_angle_gamma 42.441975
_cell_volume 781.254980
_symmetry_space_group_name_H-M "P -1"
_symmetry_group_IT_number 2
_symmetry_cell_setting 'triclinic'
loop_
_space_group_symop_operation_xyz
x,y,z
-x,-y,-z
loop_
_atom_site_type_symbol
_atom_site_label
_atom_site_fract_x
_atom_site_fract_y
_atom_site_fract_z
Si Si1 0.944994 0.422885 0.508617
Si Si2 0.196774 0.466229 0.973765
Si Si3 0.853646 0.170632 0.939679
Si Si4 0.913604 0.527561 0.295964
Si Si5 0.936622 0.007366 0.457422
Si Si6 0.548580 0.865829 0.738456
Si Si7 0.811992 0.409750 0.265424
Si Si8 0.533350 0.595064 0.693240
O O1 0.700239 0.673077 0.713602
O O2 0.000000 0.500000 0.500000
O O3 0.027470 0.343805 0.316887
O O4 0.055097 0.175081 0.505279
O O5 0.259287 0.437770 0.795727
O O6 0.366948 0.173404 0.901273
O O7 0.990781 0.600976 0.164392
O O8 0.168794 0.638343 0.039313
O O9 0.908146 0.107237 0.772239
O O10 0.036585 0.891085 0.863023
O O11 0.649548 0.310083 0.152456
O O12 0.675570 0.802414 0.521936
O O13 0.940205 0.381319 0.204616
O O14 0.710799 0.306227 0.614546
O O15 0.000000 0.000000 0.500000
O O16 0.465101 0.802242 0.800476
O O17 0.612403 0.572707 0.503853
#
# Coordination Sequence:
#
# PCOD8005717 Si02
#       8
#     2   2   2   2   2   2   2   2
#     4  10  20  39  62  86 123 155 195 260 307 344
#     4  12  23  38  63  93 125 160 199 256 312 352
#     4  11  25  38  60  96 122 154 210 252 298 373
#     4   9  21  41  61  88 120 159 208 252 289 373
#     4  11  21  43  65  85 120 167 204 247 312 350
#     4   9  22  39  59  89 122 156 208 246 296 367
#     4  10  22  42  64  85 125 168 200 250 305 357
#     4  10  22  42  62  90 123 159 213 250 284 381
#
# _framework density 20.479866999999999
#
# number of rings (size 3 to 8) (size 9 to 14) (size 15 to 20)
#    0.750    1.000    1.250    3.000    1.750    5.000 
#    2.250    1.250    0.000    0.000    0.000    0.000 
#    0.000    0.000    0.000    0.000    0.000    0.000 
#
# Total GULP energy -198342.327508 kJ/mol
# GULP energy per Si atom -12396.395469 kJ/mol
# Density = 2.043325 g / cm^3
# Si number density = 20.479867 Si / 1000 Ang^3
#
#
#
# Elastic Constant Matrix: (Units=GPa)
#
#
# Indices 1 2 3 4 5 6 
#
# 1 68.7188 31.1843 28.5123 1.7265 2.4253 22.0129
# 2 31.1843 99.1981 28.4063 2.7413 -6.6002 20.0123
# 3 28.5123 28.4063 73.2944 -5.8882 -8.8406 11.1111
# 4 1.7265 2.7413 -5.8882 35.4895 2.4685 5.8267
# 5 2.4253 -6.6002 -8.8406 2.4685 24.5220 -12.1159
# 6 22.0129 20.0123 11.1111 5.8267 -12.1159 41.7588
#
#
#
# Elastic Compliance Matrix: (Units=1/GPa)
#
#
# Indices 1 2 3 4 5 6 
#
# 1 0.023620 -0.003669 -0.007289 0.000805 -0.012155 -0.012392
# 2 -0.003669 0.012790 -0.003002 -0.000936 0.001405 -0.002858
# 3 -0.007289 -0.003002 0.018429 0.002788 0.007320 0.002112
# 4 0.000805 -0.000936 0.002788 0.030137 -0.005594 -0.006546
# 5 -0.012155 0.001405 0.007320 -0.005594 0.055821 0.020763
# 6 -0.012392 -0.002858 0.002112 -0.006546 0.020763 0.038225
#
#
# Mechanical properties :
#
#
# Convention : Reuss Voigt Hill
#
# Bulk Modulus (GPa) = 37.14895 46.37968 41.76432
# Shear Modulus (GPa) = 23.15720 30.56127 26.85924
#
# Velocity S-wave (km/s) = 3.36628 3.86717 3.62539
# Velocity P-wave (km/s) = 5.76955 6.52960 6.16131
#
# Compressibility (1/GPa) = 0.02691866
#
# Stress axis : x y z
#
# Youngs Moduli (GPa) = 42.33721 78.18700 54.26101
#
# Poissons Ratio (x) = 0.28685 0.39553
# Poissons Ratio (y) = 0.15533 0.16290
# Poissons Ratio (z) = 0.30861 0.23472
#
# Static dielectric constant tensor:
#      x y z
#    x 3.516030 0.162090 0.031720 
#    y 0.162090 3.446410 -0.076980 
#    z 0.031720 -0.076980 3.610630 
# 
# 
# High freq. dielectric constant tensor:
#      x y z
#    x 1.794520 0.011900 0.002120 
#    y 0.011900 1.806230 -0.004190 
#    z 0.002120 -0.004190 1.791160 
# 
# From -- ./inp_files/462090.got.cif
#   From: 2010.06.25/outbox.cif.g09.slc.cpg/sg2_232_cif.got.tgz:462090.got - 2010.06.27 13:26:56.
