data_PCOD8005334
_publ_section_title
;
Structure prediction by ZEFSAII (Michael W. Deem and Ramdas Pophale) SiO2 
 PCOD8005334
Probable space group: P -1
;
_chemical_formula_sum "Si O2"
_cell_formula_units_Z 16
_cell_length_a 8.628099
_cell_length_b 18.193893
_cell_length_c 5.156151
_cell_angle_alpha 122.970872
_cell_angle_beta 81.702494
_cell_angle_gamma 91.400056
_cell_volume 670.512187
_symmetry_space_group_name_H-M "P -1"
_symmetry_group_IT_number 2
_symmetry_cell_setting 'triclinic'
loop_
_space_group_symop_operation_xyz
x,y,z
-x,-y,-z
loop_
_atom_site_type_symbol
_atom_site_label
_atom_site_fract_x
_atom_site_fract_y
_atom_site_fract_z
Si Si1 0.635487 0.027926 0.833861
Si Si2 0.994476 0.279041 0.174776
Si Si3 0.150308 0.136308 0.484061
Si Si4 0.595315 0.749823 0.509837
Si Si5 0.192181 0.398407 0.666765
Si Si6 0.155253 0.843938 0.649088
Si Si7 0.919708 0.437084 0.202631
Si Si8 0.577430 0.183977 0.831492
O O1 0.562361 0.078968 0.694432
O O2 0.749535 0.944888 0.563439
O O3 0.735249 0.097532 0.096787
O O4 0.500000 0.000000 0.000000
O O5 0.144394 0.333337 0.323231
O O6 0.889654 0.243634 0.361248
O O7 0.871952 0.347765 0.181254
O O8 0.072648 0.198875 0.840011
O O9 0.257527 0.189873 0.363011
O O10 0.006430 0.100930 0.284413
O O11 0.655216 0.646845 0.310428
O O12 0.537785 0.777906 0.290913
O O13 0.461226 0.766171 0.791871
O O14 0.224228 0.498480 0.757888
O O15 0.039706 0.404032 0.890910
O O16 0.244524 0.808376 0.295690
O O17 0.000000 0.500000 0.500000
#
# Coordination Sequence:
#
# PCOD8005334 Si02
#       8
#     2   2   2   2   2   2   2   2
#     4  12  27  50  69 106 142 195 245 307 363 429
#     4  11  21  41  68 107 146 184 234 302 364 425
#     4  12  25  42  74 104 139 188 247 307 358 421
#     4  12  24  45  74 102 144 190 243 294 359 433
#     4  10  20  38  67 111 139 186 233 302 352 432
#     4  12  26  45  71 102 146 193 246 302 364 426
#     4   9  19  35  65 108 148 175 230 298 362 418
#     4  12  27  49  67 101 142 197 236 293 362 434
#
# _framework density 23.862352999999999
#
# number of rings (size 3 to 8) (size 9 to 14) (size 15 to 20)
#    0.000    0.750    5.000    1.875    1.750    5.000 
#    0.000    0.000    0.000    1.500    0.000    0.000 
#    0.000    0.000    0.000    0.000    0.000    0.000 
#
# Total GULP energy -198248.565403 kJ/mol
# GULP energy per Si atom -12390.535338 kJ/mol
# Density = 2.380804 g / cm^3
# Si number density = 23.862353 Si / 1000 Ang^3
#
#
#
# Elastic Constant Matrix: (Units=GPa)
#
#
# Indices 1 2 3 4 5 6 
#
# 1 105.6302 69.7530 22.2790 9.1099 -22.9489 -26.8331
# 2 69.7530 206.5722 53.8018 2.5093 -37.8138 -49.6019
# 3 22.2790 53.8018 80.7333 5.2043 -19.6517 -14.9902
# 4 9.1099 2.5093 5.2043 37.4548 -6.3478 -15.2832
# 5 -22.9489 -37.8138 -19.6517 -6.3478 33.6569 7.8135
# 6 -26.8331 -49.6019 -14.9902 -15.2832 7.8135 56.7685
#
#
#
# Elastic Compliance Matrix: (Units=1/GPa)
#
#
# Indices 1 2 3 4 5 6 
#
# 1 0.013244 -0.002903 0.000072 -0.001064 0.004967 0.002773
# 2 -0.002903 0.009053 -0.002953 0.003952 0.005814 0.006022
# 3 0.000072 -0.002953 0.015897 -0.000795 0.005712 0.000652
# 4 -0.001064 0.003952 -0.000795 0.032246 0.006902 0.010472
# 5 0.004967 0.005814 0.005712 0.006902 0.043140 0.004857
# 6 0.002773 0.006022 0.000652 0.010472 0.004857 0.026510
#
#
# Mechanical properties :
#
#
# Convention : Reuss Voigt Hill
#
# Bulk Modulus (GPa) = 37.55742 76.06703 56.81222
# Shear Modulus (GPa) = 31.14623 42.04949 36.59786
#
# Velocity S-wave (km/s) = 3.61674 4.20237 3.92051
# Velocity P-wave (km/s) = 5.76320 7.44938 6.65987
#
# Compressibility (1/GPa) = 0.02662589
#
# Stress axis : x y z
#
# Youngs Moduli (GPa) = 75.50658 110.46641 62.90426
#
# Poissons Ratio (x) = 0.32068 -0.00454
# Poissons Ratio (y) = 0.21920 0.18576
# Poissons Ratio (z) = -0.00545 0.32621
#
# Static dielectric constant tensor:
#      x y z
#    x 4.394750 -0.436530 -0.307630 
#    y -0.436530 5.065170 0.153750 
#    z -0.307630 0.153750 4.038280 
# 
# 
# High freq. dielectric constant tensor:
#      x y z
#    x 1.924710 -0.029650 -0.016100 
#    y -0.029650 1.964160 -0.006440 
#    z -0.016100 -0.006440 1.940500 
# 
# From -- ./inp_files/49284.got.cif
#   From: 2010.06.25/outbox.cif.g09.slc.cpg/sg2_25_cif.got.tgz:49284.got - 2010.06.27 13:26:56.
