data_PCOD8005827
_publ_section_title
;
Structure prediction by ZEFSAII (Michael W. Deem and Ramdas Pophale) SiO2 
 PCOD8005827
Probable space group: P -1
;
_chemical_formula_sum "Si O2"
_cell_formula_units_Z 14
_cell_length_a 25.455034
_cell_length_b 5.396329
_cell_length_c 9.522442
_cell_angle_alpha 132.336301
_cell_angle_beta 36.378471
_cell_angle_gamma 130.041324
_cell_volume 558.030654
_symmetry_space_group_name_H-M "P -1"
_symmetry_group_IT_number 2
_symmetry_cell_setting 'triclinic'
loop_
_space_group_symop_operation_xyz
x,y,z
-x,-y,-z
loop_
_atom_site_type_symbol
_atom_site_label
_atom_site_fract_x
_atom_site_fract_y
_atom_site_fract_z
Si Si1 0.471120 0.680728 0.765097
Si Si2 0.790157 0.140629 0.046067
Si Si3 0.129293 0.871137 0.404077
Si Si4 0.187938 0.079786 0.667514
Si Si5 0.063984 0.065255 0.174778
Si Si6 0.586909 0.688445 0.968167
Si Si7 0.667806 0.110807 0.533838
O O1 0.500000 0.500000 0.500000
O O2 0.425024 0.396071 0.870540
O O3 0.401269 0.908097 0.943432
O O4 0.564835 0.915143 0.719321
O O5 0.774153 0.519053 0.235832
O O6 0.707204 0.937875 0.246542
O O7 0.788451 0.994089 0.834784
O O8 0.891020 0.144785 0.889408
O O9 0.097549 0.465817 0.292627
O O10 0.045345 0.052861 0.626970
O O11 0.167963 0.959948 0.507045
O O12 0.265804 0.896045 0.481799
O O13 0.095384 0.969075 0.916331
O O14 0.500000 0.500000 0.000000
O O15 0.668919 0.521328 0.670511
#
# Coordination Sequence:
#
# PCOD8005827 Si02
#       7
#     2   2   2   2   2   2   2
#     4  11  24  45  70 102 126 169 226 272 326 396
#     4  10  22  38  58  92 126 166 211 267 327 378
#     4  10  20  39  63  87 125 167 219 260 321 388
#     4  10  22  38  59  92 126 170 210 264 331 384
#     4   9  20  39  60  89 125 166 214 273 311 384
#     4  10  22  43  71  93 126 175 216 263 333 395
#     4  10  23  42  60  86 134 163 210 268 326 393
#
# _framework density 25.088227
#
# number of rings (size 3 to 8) (size 9 to 14) (size 15 to 20)
#    0.000    2.000    0.000    3.000    6.000    2.857 
#   10.286    0.000    0.000    0.000    0.000    0.000 
#    0.000    0.000    0.000    0.000    0.000    0.000 
#
# Total GULP energy -173480.134516 kJ/mol
# GULP energy per Si atom -12391.438180 kJ/mol
# Density = 2.503113 g / cm^3
# Si number density = 25.088227 Si / 1000 Ang^3
#
#
#
# Elastic Constant Matrix: (Units=GPa)
#
#
# Indices 1 2 3 4 5 6 
#
# 1 80.5666 17.6250 72.8338 4.6239 14.1607 -20.7231
# 2 17.6250 37.4509 23.0584 -0.3581 -6.4699 -22.9278
# 3 72.8338 23.0584 171.2841 -11.1729 8.8579 -13.3719
# 4 4.6239 -0.3581 -11.1729 38.6615 -14.1266 -2.9813
# 5 14.1607 -6.4699 8.8579 -14.1266 62.8398 1.8476
# 6 -20.7231 -22.9278 -13.3719 -2.9813 1.8476 32.9195
#
#
#
# Elastic Compliance Matrix: (Units=1/GPa)
#
#
# Indices 1 2 3 4 5 6 
#
# 1 0.026712 0.000350 -0.010597 -0.007702 -0.006586 0.012426
# 2 0.000350 0.051128 -0.004414 0.003856 0.005673 0.034068
# 3 -0.010597 -0.004414 0.010757 0.004524 0.001583 -0.005055
# 4 -0.007702 0.003856 0.004524 0.031390 0.008492 0.002041
# 5 -0.006586 0.005673 0.001583 0.008492 0.019664 0.000113
# 6 0.012426 0.034068 -0.005055 0.002041 0.000113 0.060052
#
#
# Mechanical properties :
#
#
# Convention : Reuss Voigt Hill
#
# Bulk Modulus (GPa) = 16.87069 57.37066 37.12067
# Shear Modulus (GPa) = 20.09775 38.60312 29.35043
#
# Velocity S-wave (km/s) = 2.83341 3.92688 3.42407
# Velocity P-wave (km/s) = 4.17653 6.59376 5.51911
#
# Compressibility (1/GPa) = 0.05927440
#
# Stress axis : x y z
#
# Youngs Moduli (GPa) = 37.43688 19.55873 92.96080
#
# Poissons Ratio (x) = -0.00684 0.98512
# Poissons Ratio (y) = -0.01309 0.41031
# Poissons Ratio (z) = 0.39672 0.08633
#
# Static dielectric constant tensor:
#      x y z
#    x 4.650670 -0.499820 -0.340670 
#    y -0.499820 4.470970 0.029660 
#    z -0.340670 0.029660 5.467890 
# 
# 
# High freq. dielectric constant tensor:
#      x y z
#    x 1.997040 -0.027040 -0.002030 
#    y -0.027040 1.964640 -0.000900 
#    z -0.002030 -0.000900 2.036390 
# 
# From -- ./inp_files/43981.got.cif
#   From: 2010.06.25/outbox.cif.g09.slc.cpg/sg2_22_cif.got.tgz:43981.got - 2010.06.27 13:26:56.
