data_PCOD8005493
_publ_section_title
;
Structure prediction by ZEFSAII (Michael W. Deem and Ramdas Pophale) SiO2 
 PCOD8005493
Probable space group: P -1
;
_chemical_formula_sum "Si O2"
_cell_formula_units_Z 16
_cell_length_a 12.605016
_cell_length_b 19.839152
_cell_length_c 4.995564
_cell_angle_alpha 91.466909
_cell_angle_beta 94.575050
_cell_angle_gamma 40.843031
_cell_volume 813.238266
_symmetry_space_group_name_H-M "P -1"
_symmetry_group_IT_number 2
_symmetry_cell_setting 'triclinic'
loop_
_space_group_symop_operation_xyz
x,y,z
-x,-y,-z
loop_
_atom_site_type_symbol
_atom_site_label
_atom_site_fract_x
_atom_site_fract_y
_atom_site_fract_z
Si Si1 0.449936 0.151954 0.456188
Si Si2 0.618639 0.503084 0.587683
Si Si3 0.340731 0.431906 0.932749
Si Si4 0.874573 0.767093 0.572415
Si Si5 0.185781 0.053159 0.505995
Si Si6 0.062409 0.637692 0.115120
Si Si7 0.492569 0.216805 0.978434
Si Si8 0.140322 0.986667 0.981230
O O1 0.308515 0.165573 0.380532
O O2 0.620534 0.033921 0.414896
O O3 0.429508 0.224724 0.257766
O O4 0.444446 0.181290 0.759551
O O5 0.500000 0.500000 0.500000
O O6 0.649504 0.532755 0.336707
O O7 0.789531 0.389604 0.722821
O O8 0.546246 0.585986 0.818572
O O9 0.151544 0.525918 0.015083
O O10 0.398571 0.328845 0.885449
O O11 0.934324 0.688348 0.337267
O O12 0.885098 0.837971 0.471756
O O13 0.982518 0.712947 0.855384
O O14 0.104097 0.043388 0.705836
O O15 0.142383 0.042865 0.211513
O O16 0.687249 0.135507 0.006542
O O17 0.000000 0.000000 0.000000
#
# Coordination Sequence:
#
# PCOD8005493 Si02
#       8
#     2   2   2   2   2   2   2   2
#     4  10  22  38  63  85 115 152 201 239 290 349
#     4  10  20  39  60  79 116 155 197 242 285 335
#     4  10  20  39  58  82 119 154 188 241 285 344
#     4  12  21  40  60  89 117 156 188 248 301 332
#     4  10  22  39  61  85 119 153 194 237 288 357
#     4  10  22  37  57  84 126 142 188 254 280 339
#     4  10  21  40  61  85 116 157 197 238 284 353
#     4  10  21  41  59  89 120 150 190 246 285 340
#
# _framework density 19.674430000000001
#
# number of rings (size 3 to 8) (size 9 to 14) (size 15 to 20)
#    0.750    1.000    1.250    3.375    0.000    0.000 
#    6.750    8.750    0.000    0.000    0.000    0.000 
#    0.000    0.000    0.000    0.000    0.000    0.000 
#
# Total GULP energy -198295.320217 kJ/mol
# GULP energy per Si atom -12393.457514 kJ/mol
# Density = 1.962965 g / cm^3
# Si number density = 19.674430 Si / 1000 Ang^3
#
#
#
# Elastic Constant Matrix: (Units=GPa)
#
#
# Indices 1 2 3 4 5 6 
#
# 1 88.6662 44.1997 17.9815 -7.6749 -6.5910 -8.0680
# 2 44.1997 79.0238 34.3548 -4.9674 -6.0224 -0.2242
# 3 17.9815 34.3548 117.8370 -7.0308 -7.5728 -2.6043
# 4 -7.6749 -4.9674 -7.0308 24.0124 -2.0968 1.8504
# 5 -6.5910 -6.0224 -7.5728 -2.0968 23.3577 0.8348
# 6 -8.0680 -0.2242 -2.6043 1.8504 0.8348 19.6082
#
#
#
# Elastic Compliance Matrix: (Units=1/GPa)
#
#
# Indices 1 2 3 4 5 6 
#
# 1 0.016849 -0.009272 0.000648 0.003388 0.002646 0.006480
# 2 -0.009272 0.019841 -0.004364 0.000301 0.001263 -0.004250
# 3 0.000648 -0.004364 0.009985 0.002349 0.002462 0.001216
# 4 0.003388 0.000301 0.002349 0.044199 0.005860 -0.002711
# 5 0.002646 0.001263 0.002462 0.005860 0.045247 -0.001049
# 6 0.006480 -0.004250 0.001216 -0.002711 -0.001049 0.054079
#
#
# Mechanical properties :
#
#
# Convention : Reuss Voigt Hill
#
# Bulk Modulus (GPa) = 48.31671 53.17767 50.74719
# Shear Modulus (GPa) = 22.41382 25.99507 24.20445
#
# Velocity S-wave (km/s) = 3.37892 3.63886 3.51130
# Velocity P-wave (km/s) = 6.31144 6.68899 6.50295
#
# Compressibility (1/GPa) = 0.02069678
#
# Stress axis : x y z
#
# Youngs Moduli (GPa) = 59.35130 50.40009 100.14851
#
# Poissons Ratio (x) = 0.46733 -0.06487
# Poissons Ratio (y) = 0.55033 0.43710
# Poissons Ratio (z) = -0.03844 0.21997
#
# Static dielectric constant tensor:
#      x y z
#    x 3.297390 -0.165270 -0.014370 
#    y -0.165270 3.595100 0.007100 
#    z -0.014370 0.007100 3.848350 
# 
# 
# High freq. dielectric constant tensor:
#      x y z
#    x 1.738480 -0.010900 -0.000900 
#    y -0.010900 1.758930 -0.001990 
#    z -0.000900 -0.001990 1.794900 
# 
# From -- ./inp_files/80577.got.cif
#   From: 2010.06.25/outbox.cif.g09.slc.cpg/sg2_41_cif.got.tgz:80577.got - 2010.06.27 13:26:56.
