data_PCOD8005461
_publ_section_title
;
Structure prediction by ZEFSAII (Michael W. Deem and Ramdas Pophale) SiO2 
 PCOD8005461
Probable space group: P -1
;
_chemical_formula_sum "Si O2"
_cell_formula_units_Z 16
_cell_length_a 9.415414
_cell_length_b 11.788847
_cell_length_c 12.668622
_cell_angle_alpha 47.402438
_cell_angle_beta 130.964589
_cell_angle_gamma 116.919595
_cell_volume 781.534696
_symmetry_space_group_name_H-M "P -1"
_symmetry_group_IT_number 2
_symmetry_cell_setting 'triclinic'
loop_
_space_group_symop_operation_xyz
x,y,z
-x,-y,-z
loop_
_atom_site_type_symbol
_atom_site_label
_atom_site_fract_x
_atom_site_fract_y
_atom_site_fract_z
Si Si1 0.504333 0.408156 0.668373
Si Si2 0.907317 0.353691 0.996397
Si Si3 0.417370 0.065475 0.813685
Si Si4 0.977209 0.241917 0.882060
Si Si5 0.297808 0.922380 0.423584
Si Si6 0.020254 0.958206 0.658148
Si Si7 0.271801 0.031234 0.109481
Si Si8 0.813437 0.408091 0.505602
O O1 0.500000 0.500000 0.500000
O O2 0.696752 0.398315 0.833748
O O3 0.461011 0.241591 0.707017
O O4 0.354454 0.471240 0.639978
O O5 0.023239 0.318070 0.968870
O O6 0.928659 0.218713 0.179097
O O7 0.000000 0.500000 0.000000
O O8 0.195721 0.057789 0.719795
O O9 0.511504 0.968357 0.823845
O O10 0.500000 0.000000 0.000000
O O11 0.858939 0.351924 0.680852
O O12 0.848684 0.090656 0.942469
O O13 0.173334 0.197869 0.946485
O O14 0.266357 0.734214 0.518275
O O15 0.500000 0.000000 0.500000
O O16 0.241402 0.986826 0.243338
O O17 0.164555 0.987105 0.407833
O O18 0.000000 0.000000 0.500000
O O19 0.000000 0.500000 0.500000
#
# Coordination Sequence:
#
# PCOD8005461 Si02
#       8
#     2   2   2   2   2   2   2   2
#     4  12  24  43  69  99 137 180 227 273 342 419
#     4  12  26  44  67 101 140 184 227 280 346 417
#     4  12  24  42  70 104 137 172 229 294 341 397
#     4  10  20  41  65  97 127 183 227 273 331 415
#     4  11  24  44  68  95 132 182 235 273 341 422
#     4  12  27  45  69 101 138 177 230 294 348 399
#     4  10  20  38  72  90 129 173 234 275 327 407
#     4  11  25  39  67 104 137 172 222 292 344 402
#
# _framework density 20.472539000000001
#
# number of rings (size 3 to 8) (size 9 to 14) (size 15 to 20)
#    0.000    0.750    5.000    2.250    8.750    1.000 
#    0.000    0.000    0.000    3.000    0.000    0.000 
#    0.000    0.000    0.000    0.000    0.000    0.000 
#
# Total GULP energy -198248.515808 kJ/mol
# GULP energy per Si atom -12390.532238 kJ/mol
# Density = 2.042594 g / cm^3
# Si number density = 20.472539 Si / 1000 Ang^3
#
#
#
# Elastic Constant Matrix: (Units=GPa)
#
#
# Indices 1 2 3 4 5 6 
#
# 1 154.7149 57.7274 58.3223 -2.3261 21.8413 -7.5645
# 2 57.7274 134.2020 53.8867 7.3754 8.2061 5.7866
# 3 58.3223 53.8867 129.1575 -7.0074 1.4877 -2.9326
# 4 -2.3261 7.3754 -7.0074 28.8947 -3.5407 5.3508
# 5 21.8413 8.2061 1.4877 -3.5407 45.7300 1.2748
# 6 -7.5645 5.7866 -2.9326 5.3508 1.2748 36.9618
#
#
#
# Elastic Compliance Matrix: (Units=1/GPa)
#
#
# Indices 1 2 3 4 5 6 
#
# 1 0.009224 -0.002612 -0.002991 -0.000208 -0.003918 0.002225
# 2 -0.002612 0.010205 -0.003295 -0.003349 -0.000683 -0.001885
# 3 -0.002991 -0.003295 0.010634 0.003380 0.001930 0.000191
# 4 -0.000208 -0.003349 0.003380 0.037604 0.003636 -0.004819
# 5 -0.003918 -0.000683 0.001930 0.003636 0.024133 -0.001900
# 6 0.002225 -0.001885 0.000191 -0.004819 -0.001900 0.028584
#
#
# Mechanical properties :
#
#
# Convention : Reuss Voigt Hill
#
# Bulk Modulus (GPa) = 81.52090 84.21636 82.86863
# Shear Modulus (GPa) = 35.14468 38.85983 37.00225
#
# Velocity S-wave (km/s) = 4.14777 4.36150 4.25598
# Velocity P-wave (km/s) = 7.92747 8.16021 8.04468
#
# Compressibility (1/GPa) = 0.01226679
#
# Stress axis : x y z
#
# Youngs Moduli (GPa) = 108.40878 97.99075 94.04233
#
# Poissons Ratio (x) = 0.25592 0.28132
# Poissons Ratio (y) = 0.28313 0.30987
# Poissons Ratio (z) = 0.32429 0.32288
#
# Static dielectric constant tensor:
#      x y z
#    x -9.182080 -4.482670 -2.089020 
#    y -4.482670 2.435970 -0.795080 
#    z -2.089020 -0.795080 3.511830 
# 
# 
# High freq. dielectric constant tensor:
#      x y z
#    x 1.811820 -0.009330 0.009650 
#    y -0.009330 1.791190 -0.005300 
#    z 0.009650 -0.005300 1.811370 
# 
# From -- ./inp_files/392224.got.cif
#   From: 2010.06.25/outbox.cif.g09.slc.cpg/sg2_197_cif.got.tgz:392224.got - 2010.06.27 13:26:56.
