data_PCOD8005771
_publ_section_title
;
Structure prediction by ZEFSAII (Michael W. Deem and Ramdas Pophale) SiO2 
 PCOD8005771
Probable space group: P -1
;
_chemical_formula_sum "Si O2"
_cell_formula_units_Z 16
_cell_length_a 15.405245
_cell_length_b 9.120889
_cell_length_c 8.896729
_cell_angle_alpha 130.474734
_cell_angle_beta 52.513997
_cell_angle_gamma 105.474211
_cell_volume 737.337349
_symmetry_space_group_name_H-M "P -1"
_symmetry_group_IT_number 2
_symmetry_cell_setting 'triclinic'
loop_
_space_group_symop_operation_xyz
x,y,z
-x,-y,-z
loop_
_atom_site_type_symbol
_atom_site_label
_atom_site_fract_x
_atom_site_fract_y
_atom_site_fract_z
Si Si1 0.995316 0.568593 0.801607
Si Si2 0.822317 0.133119 0.829508
Si Si3 0.343437 0.588108 0.009631
Si Si4 0.847638 0.462637 0.631881
Si Si5 0.489216 0.896478 0.098613
Si Si6 0.606351 0.870190 0.381196
Si Si7 0.941546 0.778211 0.284839
Si Si8 0.273753 0.125155 0.021021
O O1 0.912997 0.462938 0.721310
O O2 0.071921 0.407878 0.723481
O O3 0.073379 0.662019 0.663517
O O4 0.924448 0.737688 0.098088
O O5 0.732866 0.319596 0.988619
O O6 0.933132 0.191882 0.809082
O O7 0.765091 0.055934 0.982267
O O8 0.849538 0.968868 0.559228
O O9 0.265699 0.610995 0.258233
O O10 0.446331 0.694402 0.993189
O O11 0.396285 0.360947 0.767218
O O12 0.821479 0.678989 0.727353
O O13 0.395374 0.050611 0.394275
O O14 0.609392 0.841202 0.013240
O O15 0.500000 0.000000 0.000000
O O16 0.500000 0.000000 0.500000
O O17 0.712412 0.905152 0.194991
#
# Coordination Sequence:
#
# PCOD8005771 Si02
#       8
#     2   2   2   2   2   2   2   2
#     4  10  20  39  62  92 126 169 214 259 329 381
#     4  11  21  40  61  95 130 167 210 271 316 380
#     4  11  23  41  68  95 129 170 219 259 325 382
#     4  10  21  39  63  92 129 168 206 270 318 380
#     4  11  23  43  66  96 127 171 214 266 320 383
#     4   9  23  43  64  91 127 166 210 271 320 375
#     4  10  22  37  63  93 128 167 213 267 317 386
#     4  10  21  41  62  89 132 166 208 267 321 370
#
# _framework density 21.699701999999998
#
# number of rings (size 3 to 8) (size 9 to 14) (size 15 to 20)
#    0.000    1.750    3.750    0.000    0.000    8.000 
#    2.250    1.250    0.000    0.000    0.000    0.000 
#    0.000    0.000    0.000    0.000    0.000    0.000 
#
# Total GULP energy -198317.873906 kJ/mol
# GULP energy per Si atom -12394.867119 kJ/mol
# Density = 2.165031 g / cm^3
# Si number density = 21.699702 Si / 1000 Ang^3
#
#
#
# Elastic Constant Matrix: (Units=GPa)
#
#
# Indices 1 2 3 4 5 6 
#
# 1 52.6637 18.7459 23.3533 -5.9849 2.9241 -9.0857
# 2 18.7459 131.6545 49.4067 -10.3894 4.7281 -6.1550
# 3 23.3533 49.4067 130.5818 -12.6578 25.4458 -10.9567
# 4 -5.9849 -10.3894 -12.6578 40.5838 -8.3796 -4.2515
# 5 2.9241 4.7281 25.4458 -8.3796 30.6816 -2.2448
# 6 -9.0857 -6.1550 -10.9567 -4.2515 -2.2448 31.1325
#
#
#
# Elastic Compliance Matrix: (Units=1/GPa)
#
#
# Indices 1 2 3 4 5 6 
#
# 1 0.022059 -0.001616 -0.002930 0.002879 0.001773 0.005608
# 2 -0.001616 0.009165 -0.003378 0.001519 0.001995 0.000503
# 3 -0.002930 -0.003378 0.011299 0.000734 -0.008227 0.001961
# 4 0.002879 0.001519 0.000734 0.027694 0.006862 0.005676
# 5 0.001773 0.001995 -0.008227 0.006862 0.040953 0.001906
# 6 0.005608 0.000503 0.001961 0.005676 0.001906 0.035459
#
#
# Mechanical properties :
#
#
# Convention : Reuss Voigt Hill
#
# Bulk Modulus (GPa) = 37.48643 55.32355 46.40499
# Shear Modulus (GPa) = 29.17690 35.37253 32.27472
#
# Velocity S-wave (km/s) = 3.67082 4.04182 3.86078
# Velocity P-wave (km/s) = 5.93963 6.87984 6.42695
#
# Compressibility (1/GPa) = 0.02667632
#
# Stress axis : x y z
#
# Youngs Moduli (GPa) = 45.33304 109.10919 88.50437
#
# Poissons Ratio (x) = 0.17630 0.25927
# Poissons Ratio (y) = 0.07325 0.29897
# Poissons Ratio (z) = 0.13280 0.36857
#
# Static dielectric constant tensor:
#      x y z
#    x 3.815000 -0.233860 0.111020 
#    y -0.233860 4.031690 -0.346410 
#    z 0.111020 -0.346410 4.508910 
# 
# 
# High freq. dielectric constant tensor:
#      x y z
#    x 1.835610 -0.014230 -0.009250 
#    y -0.014230 1.857090 -0.020320 
#    z -0.009250 -0.020320 1.854300 
# 
# From -- ./inp_files/297456.got.cif
#   From: 2010.06.25/outbox.cif.g09.slc.cpg/sg2_149_cif.got.tgz:297456.got - 2010.06.27 13:26:56.
