data_PCOD8005151
_publ_section_title
;
Structure prediction by ZEFSAII (Michael W. Deem and Ramdas Pophale) SiO2 
 PCOD8005151
Probable space group: P -1
;
_chemical_formula_sum "Si O2"
_cell_formula_units_Z 12
_cell_length_a 21.802541
_cell_length_b 6.716724
_cell_length_c 11.838811
_cell_angle_alpha 119.317027
_cell_angle_beta 149.340528
_cell_angle_gamma 44.252551
_cell_volume 576.623662
_symmetry_space_group_name_H-M "P -1"
_symmetry_group_IT_number 2
_symmetry_cell_setting 'triclinic'
loop_
_space_group_symop_operation_xyz
x,y,z
-x,-y,-z
loop_
_atom_site_type_symbol
_atom_site_label
_atom_site_fract_x
_atom_site_fract_y
_atom_site_fract_z
Si Si1 0.355963 0.682273 0.237001
Si Si2 0.089455 0.691979 0.833598
Si Si3 0.571270 0.662395 0.153407
Si Si4 0.875571 0.640520 0.992971
Si Si5 0.679037 0.628889 0.077026
Si Si6 0.141772 0.635820 0.321047
O O1 0.500000 0.500000 0.500000
O O2 0.409829 0.473776 0.152893
O O3 0.292313 0.012547 0.192882
O O4 0.210905 0.733392 0.084750
O O5 0.102644 0.456459 0.869139
O O6 0.144189 0.558776 0.754051
O O7 0.914419 0.030255 0.656038
O O8 0.674789 0.599428 0.409932
O O9 0.419465 0.017838 0.001335
O O10 0.500000 0.500000 0.000000
O O11 0.691616 0.548705 0.206037
O O12 0.865018 0.428969 0.838877
O O13 0.030965 0.598678 0.203506
#
# Coordination Sequence:
#
# PCOD8005151 Si02
#       6
#     2   2   2   2   2   2
#     4   9  19  35  58  90 118 147 195 244 286 350
#     4   9  21  37  59  89 119 150 196 241 295 347
#     4  11  24  41  61  81 123 161 196 243 294 346
#     4  10  20  38  65  87 123 150 191 249 301 341
#     4   9  23  40  55  91 117 149 209 236 287 361
#     4  10  22  39  60  92 116 155 199 239 291 358
#
# _framework density 20.810801000000001
#
# number of rings (size 3 to 8) (size 9 to 14) (size 15 to 20)
#    1.000    1.333    0.000    1.500    2.333    5.333 
#    0.000    1.667    0.000    0.000    0.000    0.000 
#    0.000    0.000    0.000    0.000    0.000    0.000 
#
# Total GULP energy -148706.489246 kJ/mol
# GULP energy per Si atom -12392.207437 kJ/mol
# Density = 2.076343 g / cm^3
# Si number density = 20.810801 Si / 1000 Ang^3
#
#
#
# Elastic Constant Matrix: (Units=GPa)
#
#
# Indices 1 2 3 4 5 6 
#
# 1 92.5475 37.4826 -2.9972 3.8105 -4.2786 3.5549
# 2 37.4826 122.4589 4.8301 -1.4105 1.3428 0.7332
# 3 -2.9972 4.8301 60.3521 1.0814 -1.3113 6.0524
# 4 3.8105 -1.4105 1.0814 17.7893 -2.0047 -9.5280
# 5 -4.2786 1.3428 -1.3113 -2.0047 15.2081 2.8563
# 6 3.5549 0.7332 6.0524 -9.5280 2.8563 31.6128
#
#
#
# Elastic Compliance Matrix: (Units=1/GPa)
#
#
# Indices 1 2 3 4 5 6 
#
# 1 0.013039 -0.004128 0.001493 -0.004565 0.004201 -0.003412
# 2 -0.004128 0.009516 -0.001182 0.002182 -0.002063 0.001314
# 3 0.001493 -0.001182 0.017342 -0.003774 0.002427 -0.004818
# 4 -0.004565 0.002182 -0.003774 0.069689 0.003272 0.021894
# 5 0.004201 -0.002063 0.002427 0.003272 0.068910 -0.006129
# 6 -0.003412 0.001314 -0.004818 0.021894 -0.006129 0.040061
#
#
# Mechanical properties :
#
#
# Convention : Reuss Voigt Hill
#
# Bulk Modulus (GPa) = 30.99611 39.33215 35.16413
# Shear Modulus (GPa) = 21.10197 28.65824 24.88010
#
# Velocity S-wave (km/s) = 3.18778 3.71494 3.46141
# Velocity P-wave (km/s) = 5.33627 6.11080 5.73662
#
# Compressibility (1/GPa) = 0.03226211
#
# Stress axis : x y z
#
# Youngs Moduli (GPa) = 76.69466 105.08572 57.66445
#
# Poissons Ratio (x) = 0.43380 -0.08610
# Poissons Ratio (y) = 0.31660 0.06817
# Poissons Ratio (z) = -0.11451 0.12424
#
# Static dielectric constant tensor:
#      x y z
#    x 3.668730 -0.135430 -0.025210 
#    y -0.135430 3.883030 -0.003800 
#    z -0.025210 -0.003800 3.352070 
# 
# 
# High freq. dielectric constant tensor:
#      x y z
#    x 1.805090 -0.001990 -0.005470 
#    y -0.001990 1.827600 -0.001710 
#    z -0.005470 -0.001710 1.787830 
# 
# From -- ./inp_files/43706.got.cif
#   From: 2010.06.25/outbox.cif.g09.slc.cpg/sg2_22_cif.got.tgz:43706.got - 2010.06.27 13:26:56.
