data_PCOD8005325
_publ_section_title
;
Structure prediction by ZEFSAII (Michael W. Deem and Ramdas Pophale) SiO2 
 PCOD8005325
Probable space group: P -1
;
_chemical_formula_sum "Si O2"
_cell_formula_units_Z 14
_cell_length_a 11.561188
_cell_length_b 17.635287
_cell_length_c 11.193640
_cell_angle_alpha 150.191205
_cell_angle_beta 141.344518
_cell_angle_gamma 34.405740
_cell_volume 623.638989
_symmetry_space_group_name_H-M "P -1"
_symmetry_group_IT_number 2
_symmetry_cell_setting 'triclinic'
loop_
_space_group_symop_operation_xyz
x,y,z
-x,-y,-z
loop_
_atom_site_type_symbol
_atom_site_label
_atom_site_fract_x
_atom_site_fract_y
_atom_site_fract_z
Si Si1 0.388912 0.276574 0.025758
Si Si2 0.171158 0.844889 0.846788
Si Si3 0.226108 0.560429 0.107073
Si Si4 0.067579 0.042587 0.799893
Si Si5 0.647679 0.542398 0.514424
Si Si6 0.184155 0.077251 0.697723
Si Si7 0.018226 0.395997 0.255396
O O1 0.593709 0.185191 0.980302
O O2 0.426152 0.379928 0.306494
O O3 0.211560 0.420073 0.993061
O O4 0.352877 0.119928 0.829878
O O5 0.173841 0.661436 0.617497
O O6 0.141156 0.888751 0.742392
O O7 0.000000 0.000000 0.000000
O O8 0.182196 0.514050 0.873608
O O9 0.448223 0.562715 0.303666
O O10 0.038186 0.747910 0.241852
O O11 0.238647 0.004779 0.778704
O O12 0.028918 0.219525 0.072864
O O13 0.847718 0.065228 0.598187
O O14 0.764218 0.642992 0.688835
O O15 0.000000 0.500000 0.500000
#
# Coordination Sequence:
#
# PCOD8005325 Si02
#       7
#     2   2   2   2   2   2   2
#     4  11  21  40  71 105 126 176 231 273 338 396
#     4  11  24  41  63  94 138 175 216 274 332 399
#     4  10  21  38  67 102 130 166 227 286 319 393
#     4  10  21  40  61  94 135 169 214 278 337 383
#     4  11  22  42  72 100 126 177 233 271 333 395
#     4  10  20  38  66  99 131 167 218 290 335 379
#     4  11  24  43  65  94 136 184 221 265 339 401
#
# _framework density 22.448886000000002
#
# number of rings (size 3 to 8) (size 9 to 14) (size 15 to 20)
#    0.000    1.429    2.857    4.714    2.000    1.143 
#    7.714    2.143    3.143    0.000    0.000    0.000 
#    0.000    0.000    0.000    0.000    0.000    0.000 
#
# Total GULP energy -173448.680171 kJ/mol
# GULP energy per Si atom -12389.191441 kJ/mol
# Density = 2.239779 g / cm^3
# Si number density = 22.448886 Si / 1000 Ang^3
#
#
#
# Elastic Constant Matrix: (Units=GPa)
#
#
# Indices 1 2 3 4 5 6 
#
# 1 83.3419 34.6309 36.7815 3.8552 6.9541 -3.1804
# 2 34.6309 64.3609 18.0530 -17.4391 -13.2160 1.2253
# 3 36.7815 18.0530 136.7439 -6.8722 -0.0183 -3.4407
# 4 3.8552 -17.4391 -6.8722 33.1452 2.8546 -10.5181
# 5 6.9541 -13.2160 -0.0183 2.8546 37.6750 2.3026
# 6 -3.1804 1.2253 -3.4407 -10.5181 2.3026 34.4727
#
#
#
# Elastic Compliance Matrix: (Units=1/GPa)
#
#
# Indices 1 2 3 4 5 6 
#
# 1 0.021175 -0.014740 -0.004300 -0.010602 -0.008239 -0.000636
# 2 -0.014740 0.030380 0.000894 0.017560 0.011912 0.002211
# 3 -0.004300 0.000894 0.008540 0.003089 0.000797 0.001313
# 4 -0.010602 0.017560 0.003089 0.044780 0.003985 0.012103
# 5 -0.008239 0.011912 0.000797 0.003985 0.032065 -0.002030
# 6 -0.000636 0.002211 0.001313 0.012103 -0.002030 0.032831
#
#
# Mechanical properties :
#
#
# Convention : Reuss Voigt Hill
#
# Bulk Modulus (GPa) = 42.01178 51.48640 46.74909
# Shear Modulus (GPa) = 23.36493 34.05733 28.71113
#
# Velocity S-wave (km/s) = 3.22965 3.89923 3.58013
# Velocity P-wave (km/s) = 5.71512 6.57698 6.16114
#
# Compressibility (1/GPa) = 0.02380285
#
# Stress axis : x y z
#
# Youngs Moduli (GPa) = 47.22595 32.91660 117.09822
#
# Poissons Ratio (x) = 0.48519 0.50347
# Poissons Ratio (y) = 0.69611 -0.10465
# Poissons Ratio (z) = 0.20305 -0.02942
#
# Static dielectric constant tensor:
#      x y z
#    x 4.035050 0.375100 0.216040 
#    y 0.375100 4.243240 0.085060 
#    z 0.216040 0.085060 4.213170 
# 
# 
# High freq. dielectric constant tensor:
#      x y z
#    x 1.867060 0.026810 0.020500 
#    y 0.026810 1.878690 0.004350 
#    z 0.020500 0.004350 1.891460 
# 
# From -- ./inp_files/436260.got.cif
#   From: 2010.06.25/outbox.cif.g09.slc.cpg/sg2_219_cif.got.tgz:436260.got - 2010.06.27 13:26:56.
