data_PCOD8005729
_publ_section_title
;
Structure prediction by ZEFSAII (Michael W. Deem and Ramdas Pophale) SiO2 
 PCOD8005729
Probable space group: P -1
;
_chemical_formula_sum "Si O2"
_cell_formula_units_Z 16
_cell_length_a 12.020637
_cell_length_b 15.689711
_cell_length_c 9.323963
_cell_angle_alpha 70.261943
_cell_angle_beta 109.722565
_cell_angle_gamma 48.581798
_cell_volume 753.534758
_symmetry_space_group_name_H-M "P -1"
_symmetry_group_IT_number 2
_symmetry_cell_setting 'triclinic'
loop_
_space_group_symop_operation_xyz
x,y,z
-x,-y,-z
loop_
_atom_site_type_symbol
_atom_site_label
_atom_site_fract_x
_atom_site_fract_y
_atom_site_fract_z
Si Si1 0.928738 0.012358 0.805109
Si Si2 0.469360 0.624342 0.751865
Si Si3 0.820117 0.506119 0.798631
Si Si4 0.427944 0.912487 0.416111
Si Si5 0.364792 0.149329 0.192190
Si Si6 0.318069 0.205542 0.828037
Si Si7 0.232526 0.455657 0.565695
Si Si8 0.589449 0.335128 0.970660
O O1 0.746545 0.207267 0.547155
O O2 0.798982 0.001279 0.764466
O O3 0.157990 0.852112 0.892194
O O4 0.000000 0.000000 0.000000
O O5 0.713689 0.511797 0.871057
O O6 0.516808 0.487404 0.842290
O O7 0.395599 0.705401 0.833765
O O8 0.687809 0.691205 0.636745
O O9 0.776549 0.495239 0.625432
O O10 0.103817 0.329926 0.056409
O O11 0.422497 0.952503 0.556468
O O12 0.416394 0.008728 0.255263
O O13 0.353550 0.212854 0.004601
O O14 0.361890 0.268551 0.720840
O O15 0.038990 0.363858 0.588798
O O16 0.500000 0.000000 0.000000
O O17 0.379967 0.420547 0.753734
#
# Coordination Sequence:
#
# PCOD8005729 Si02
#       8
#     2   2   2   2   2   2   2   2
#     4  11  24  41  67  93 127 172 215 265 313 379
#     4  10  24  41  63  95 125 169 211 266 321 370
#     4  10  20  39  62  87 123 160 203 256 304 373
#     4  10  21  37  58  95 118 158 207 250 310 370
#     4  10  21  37  61  90 123 160 200 257 309 372
#     4  10  22  41  59  91 126 166 201 256 316 374
#     4  10  23  39  63  90 123 163 212 253 309 380
#     4  11  23  43  62  94 130 165 215 263 316 380
#
# _framework density 21.233260999999999
#
# number of rings (size 3 to 8) (size 9 to 14) (size 15 to 20)
#    0.000    1.750    0.000    3.750    3.500    5.000 
#   11.250    0.000    0.000    0.000    0.000    0.000 
#    0.000    0.000    0.000    0.000    0.000    0.000 
#
# Total GULP energy -198365.469444 kJ/mol
# GULP energy per Si atom -12397.841840 kJ/mol
# Density = 2.118493 g / cm^3
# Si number density = 21.233261 Si / 1000 Ang^3
#
#
#
# Elastic Constant Matrix: (Units=GPa)
#
#
# Indices 1 2 3 4 5 6 
#
# 1 87.1341 44.7241 34.3827 12.6306 0.0307 5.0538
# 2 44.7241 92.5469 28.7402 2.5938 7.9499 11.6256
# 3 34.3827 28.7402 90.5239 14.0555 5.5109 22.2648
# 4 12.6306 2.5938 14.0555 46.1107 2.4370 -6.1629
# 5 0.0307 7.9499 5.5109 2.4370 31.5967 9.6220
# 6 5.0538 11.6256 22.2648 -6.1629 9.6220 82.1749
#
#
#
# Elastic Compliance Matrix: (Units=1/GPa)
#
#
# Indices 1 2 3 4 5 6 
#
# 1 0.017226 -0.007273 -0.004031 -0.003148 0.002600 0.000521
# 2 -0.007273 0.015266 -0.002007 0.001843 -0.003435 -0.000628
# 3 -0.004031 -0.002007 0.014735 -0.003729 -0.000658 -0.003663
# 4 -0.003148 0.001843 -0.003729 0.024129 -0.002602 0.003058
# 5 0.002600 -0.003435 -0.000658 -0.002602 0.033942 -0.003665
# 6 0.000521 -0.000628 -0.003663 0.003058 -0.003665 0.013877
#
#
# Mechanical properties :
#
#
# Convention : Reuss Voigt Hill
#
# Bulk Modulus (GPa) = 48.53331 53.98877 51.26104
# Shear Modulus (GPa) = 32.75160 42.80031 37.77596
#
# Velocity S-wave (km/s) = 3.93169 4.49455 4.22251
# Velocity P-wave (km/s) = 6.59679 7.23991 6.92582
#
# Compressibility (1/GPa) = 0.02060441
#
# Stress axis : x y z
#
# Youngs Moduli (GPa) = 58.05304 65.50657 67.86517
#
# Poissons Ratio (x) = 0.47644 0.27358
# Poissons Ratio (y) = 0.42223 0.13618
# Poissons Ratio (z) = 0.23402 0.13145
#
# Static dielectric constant tensor:
#      x y z
#    x 4.106500 -0.111530 -0.114290 
#    y -0.111530 3.911760 0.032380 
#    z -0.114290 0.032380 4.007540 
# 
# 
# High freq. dielectric constant tensor:
#      x y z
#    x 1.825950 -0.000580 -0.008640 
#    y -0.000580 1.837470 0.000410 
#    z -0.008640 0.000410 1.847260 
# 
# From -- ./inp_files/272610.got.cif
#   From: 2010.06.25/outbox.cif.g09.slc.cpg/sg2_137_cif.got.tgz:272610.got - 2010.06.27 13:26:56.
