data_PCOD8005829
_publ_section_title
;
Structure prediction by ZEFSAII (Michael W. Deem and Ramdas Pophale) SiO2 
 PCOD8005829
Probable space group: P -1
;
_chemical_formula_sum "Si O2"
_cell_formula_units_Z 12
_cell_length_a 5.136172
_cell_length_b 14.410193
_cell_length_c 9.263879
_cell_angle_alpha 57.528344
_cell_angle_beta 73.127905
_cell_angle_gamma 78.807107
_cell_volume 552.930783
_symmetry_space_group_name_H-M "P -1"
_symmetry_group_IT_number 2
_symmetry_cell_setting 'triclinic'
loop_
_space_group_symop_operation_xyz
x,y,z
-x,-y,-z
loop_
_atom_site_type_symbol
_atom_site_label
_atom_site_fract_x
_atom_site_fract_y
_atom_site_fract_z
Si Si1 0.266813 0.425624 0.544816
Si Si2 0.842858 0.146354 0.793548
Si Si3 0.321846 0.932858 0.396291
Si Si4 0.764434 0.790893 0.093653
Si Si5 0.156434 0.164308 0.275903
Si Si6 0.251194 0.256748 0.468984
O O1 0.500000 0.500000 0.500000
O O2 0.197404 0.332286 0.748900
O O3 0.368794 0.366882 0.425979
O O4 0.000000 0.500000 0.500000
O O5 0.814228 0.050391 0.757187
O O6 0.552150 0.173093 0.889941
O O7 0.059615 0.125150 0.907404
O O8 0.945460 0.248265 0.592450
O O9 0.595069 0.855941 0.401528
O O10 0.132395 0.875102 0.590590
O O11 0.371996 0.057775 0.334189
O O12 0.878215 0.783712 0.919064
O O13 0.258046 0.257113 0.293510
#
# Coordination Sequence:
#
# PCOD8005829 Si02
#       6
#     2   2   2   2   2   2
#     4  11  23  42  70  88 116 166 217 262 319 368
#     4  10  20  39  63  87 132 163 210 250 303 362
#     4  10  20  42  63  95 130 181 201 236 317 390
#     4  11  23  42  62  99 126 159 214 270 304 361
#     4  10  24  37  65  96 136 168 200 254 314 381
#     4  10  21  42  66  91 129 166 213 251 317 379
#
# _framework density 21.702535000000001
#
# number of rings (size 3 to 8) (size 9 to 14) (size 15 to 20)
#    0.000    1.667    3.333    2.500    4.667    1.333 
#    0.000    1.667    0.000    0.000    0.000    0.000 
#    0.000    0.000    0.000    0.000    0.000    0.000 
#
# Total GULP energy -148682.063743 kJ/mol
# GULP energy per Si atom -12390.171979 kJ/mol
# Density = 2.165314 g / cm^3
# Si number density = 21.702535 Si / 1000 Ang^3
#
#
#
# Elastic Constant Matrix: (Units=GPa)
#
#
# Indices 1 2 3 4 5 6 
#
# 1 111.4973 41.8391 34.7082 21.2171 5.4427 5.2799
# 2 41.8391 131.3087 45.6067 27.7518 7.3977 21.7166
# 3 34.7082 45.6067 129.7044 43.4324 13.5954 11.3682
# 4 21.2171 27.7518 43.4324 32.9899 8.8479 15.4748
# 5 5.4427 7.3977 13.5954 8.8479 18.0817 5.2612
# 6 5.2799 21.7166 11.3682 15.4748 5.2612 40.0243
#
#
#
# Elastic Compliance Matrix: (Units=1/GPa)
#
#
# Indices 1 2 3 4 5 6 
#
# 1 0.010983 -0.002575 -0.000442 -0.005332 0.000070 0.002126
# 2 -0.002575 0.010242 -0.001488 -0.003469 0.000421 -0.003510
# 3 -0.000442 -0.001488 0.014622 -0.019217 -0.002136 0.004423
# 4 -0.005332 -0.003469 -0.019217 0.074469 -0.013443 -0.018981
# 5 0.000070 0.000421 -0.002136 -0.013443 0.064128 -0.002863
# 6 0.002126 -0.003510 0.004423 -0.018981 -0.002863 0.033068
#
#
# Mechanical properties :
#
#
# Convention : Reuss Voigt Hill
#
# Bulk Modulus (GPa) = 37.25846 68.53538 52.89692
# Shear Modulus (GPa) = 22.17614 34.90961 28.54287
#
# Velocity S-wave (km/s) = 3.20006 4.01502 3.63048
# Velocity P-wave (km/s) = 5.55508 7.28985 6.48077
#
# Compressibility (1/GPa) = 0.02683954
#
# Stress axis : x y z
#
# Youngs Moduli (GPa) = 91.04908 97.63272 68.38817
#
# Poissons Ratio (x) = 0.25138 0.03022
# Poissons Ratio (y) = 0.23443 0.10173
# Poissons Ratio (z) = 0.04024 0.14524
#
# Static dielectric constant tensor:
#      x y z
#    x 4.036990 0.296720 0.106570 
#    y 0.296720 4.121970 0.337650 
#    z 0.106570 0.337650 3.732470 
# 
# 
# High freq. dielectric constant tensor:
#      x y z
#    x 1.860410 0.010070 0.007940 
#    y 0.010070 1.842060 0.034620 
#    z 0.007940 0.034620 1.832420 
# 
# From -- ./inp_files/23613.got.cif
#   From: 2010.06.25/outbox.cif.g09.slc.cpg/sg2_12_cif.got.tgz:23613.got - 2010.06.27 13:26:56.
