data_PCOD8005708
_publ_section_title
;
Structure prediction by ZEFSAII (Michael W. Deem and Ramdas Pophale) SiO2 
 PCOD8005708
Probable space group: P -1
;
_chemical_formula_sum "Si O2"
_cell_formula_units_Z 16
_cell_length_a 12.124630
_cell_length_b 9.594266
_cell_length_c 8.693461
_cell_angle_alpha 95.438442
_cell_angle_beta 49.420305
_cell_angle_gamma 96.052442
_cell_volume 763.331138
_symmetry_space_group_name_H-M "P -1"
_symmetry_group_IT_number 2
_symmetry_cell_setting 'triclinic'
loop_
_space_group_symop_operation_xyz
x,y,z
-x,-y,-z
loop_
_atom_site_type_symbol
_atom_site_label
_atom_site_fract_x
_atom_site_fract_y
_atom_site_fract_z
Si Si1 0.244326 0.392532 0.501044
Si Si2 0.061349 0.589993 0.313188
Si Si3 0.396971 0.921952 0.306327
Si Si4 0.355583 0.167456 0.586195
Si Si5 0.707272 0.612272 0.904837
Si Si6 0.557236 0.352378 0.632439
Si Si7 0.864430 0.086352 0.679804
Si Si8 0.725927 0.906202 0.020311
O O1 0.263179 0.244860 0.550932
O O2 0.300415 0.396826 0.274111
O O3 0.338205 0.519519 0.510998
O O4 0.072847 0.412747 0.683970
O O5 0.202039 0.513433 0.117448
O O6 0.104041 0.748544 0.341696
O O7 0.000000 0.500000 0.500000
O O8 0.343667 0.767834 0.401839
O O9 0.277540 0.964163 0.296521
O O10 0.562509 0.910225 0.096568
O O11 0.421573 0.036273 0.430304
O O12 0.474470 0.283283 0.553668
O O13 0.263145 0.101113 0.805783
O O14 0.551237 0.597827 0.129538
O O15 0.789044 0.762452 0.884348
O O16 0.000000 0.000000 0.500000
O O17 0.824294 0.040147 0.886318
#
# Coordination Sequence:
#
# PCOD8005708 Si02
#       8
#     2   2   2   2   2   2   2   2
#     4  11  20  36  59  83 113 155 190 229 287 342
#     4  10  21  37  57  85 115 146 187 236 284 337
#     4  10  20  39  62  85 114 151 190 236 289 338
#     4  10  21  38  58  86 119 151 189 239 285 339
#     4   9  19  37  58  86 116 145 189 244 284 332
#     4  10  21  36  58  88 115 147 191 239 284 336
#     4  12  23  38  62  89 114 150 193 238 288 341
#     4  10  22  39  58  86 117 149 192 241 284 339
#
# _framework density 20.960760000000001
#
# number of rings (size 3 to 8) (size 9 to 14) (size 15 to 20)
#    0.000    2.000    0.000    7.125    0.000    3.000 
#    0.000    7.500    0.000    3.000    0.000    0.875 
#    0.000    0.000    0.000    0.000    0.000    0.000 
#
# Total GULP energy -198242.998489 kJ/mol
# GULP energy per Si atom -12390.187406 kJ/mol
# Density = 2.091305 g / cm^3
# Si number density = 20.960760 Si / 1000 Ang^3
#
#
#
# Elastic Constant Matrix: (Units=GPa)
#
#
# Indices 1 2 3 4 5 6 
#
# 1 98.3430 39.6683 51.6978 7.3548 -10.4710 -16.4221
# 2 39.6683 141.4982 61.1643 4.6248 -7.9701 -7.2536
# 3 51.6978 61.1643 68.2226 4.2375 -2.1444 -1.6515
# 4 7.3548 4.6248 4.2375 38.8943 -2.3523 -4.2023
# 5 -10.4710 -7.9701 -2.1444 -2.3523 16.5571 7.5590
# 6 -16.4221 -7.2536 -1.6515 -4.2023 7.5590 33.5990
#
#
#
# Elastic Compliance Matrix: (Units=1/GPa)
#
#
# Indices 1 2 3 4 5 6 
#
# 1 0.020504 0.002687 -0.017438 -0.000956 0.008327 0.007752
# 2 0.002687 0.012237 -0.012797 -0.000032 0.004916 0.002216
# 3 -0.017438 -0.012797 0.038934 -0.000765 -0.008840 -0.007479
# 4 -0.000956 -0.000032 -0.000765 0.026350 0.001954 0.002344
# 5 0.008327 0.004916 -0.008840 0.001954 0.072337 -0.011333
# 6 0.007752 0.002216 -0.007479 0.002344 -0.011333 0.036505
#
#
# Mechanical properties :
#
#
# Convention : Reuss Voigt Hill
#
# Bulk Modulus (GPa) = 60.31689 68.12494 64.22092
# Shear Modulus (GPa) = 18.69226 28.17897 23.43561
#
# Velocity S-wave (km/s) = 2.98950 3.67054 3.34738
# Velocity P-wave (km/s) = 6.38394 7.10884 6.75612
#
# Compressibility (1/GPa) = 0.01657910
#
# Stress axis : x y z
#
# Youngs Moduli (GPa) = 48.77050 81.71767 25.68435
#
# Poissons Ratio (x) = -0.21960 0.44789
# Poissons Ratio (y) = -0.13106 0.32869
# Poissons Ratio (z) = 0.85047 1.04577
#
# Static dielectric constant tensor:
#      x y z
#    x 3.962110 -0.349220 -0.202940 
#    y -0.349220 4.094240 0.135280 
#    z -0.202940 0.135280 3.626620 
# 
# 
# High freq. dielectric constant tensor:
#      x y z
#    x 1.813600 -0.015280 -0.003370 
#    y -0.015280 1.841530 0.004460 
#    z -0.003370 0.004460 1.795630 
# 
# From -- ./inp_files/239561.got.cif
#   From: 2010.06.25/outbox.cif.g09.slc.cpg/sg2_120_cif.got.tgz:239561.got - 2010.06.27 13:26:56.
