data_PCOD8005921
_publ_section_title
;
Structure prediction by ZEFSAII (Michael W. Deem and Ramdas Pophale) SiO2 
 PCOD8005921
Probable space group: P -1
;
_chemical_formula_sum "Si O2"
_cell_formula_units_Z 16
_cell_length_a 14.264577
_cell_length_b 8.470774
_cell_length_c 10.790714
_cell_angle_alpha 76.455184
_cell_angle_beta 147.233031
_cell_angle_gamma 101.785925
_cell_volume 685.988245
_symmetry_space_group_name_H-M "P -1"
_symmetry_group_IT_number 2
_symmetry_cell_setting 'triclinic'
loop_
_space_group_symop_operation_xyz
x,y,z
-x,-y,-z
loop_
_atom_site_type_symbol
_atom_site_label
_atom_site_fract_x
_atom_site_fract_y
_atom_site_fract_z
Si Si1 0.457343 0.770267 0.925772
Si Si2 0.608764 0.073440 0.931587
Si Si3 0.724212 0.654818 0.779846
Si Si4 0.006795 0.130074 0.092792
Si Si5 0.257514 0.464714 0.699648
Si Si6 0.070526 0.383873 0.742697
Si Si7 0.029059 0.045575 0.666971
Si Si8 0.356877 0.714835 0.296411
O O1 0.349484 0.822856 0.916776
O O2 0.646576 0.703834 0.195355
O O3 0.378716 0.623616 0.783765
O O4 0.462700 0.934313 0.818921
O O5 0.563511 0.204136 0.753938
O O6 0.767974 0.968681 0.081432
O O7 0.529511 0.724097 0.573052
O O8 0.705670 0.467134 0.762979
O O9 0.838447 0.740356 0.783748
O O10 0.833679 0.682274 0.019979
O O11 0.055739 0.065294 0.297486
O O12 0.811663 0.198937 0.854231
O O13 0.000000 0.000000 0.000000
O O14 0.208570 0.468087 0.789994
O O15 0.082109 0.487073 0.418933
O O16 0.975592 0.231823 0.595291
O O17 0.000000 0.000000 0.500000
#
# Coordination Sequence:
#
# PCOD8005921 Si02
#       8
#     2   2   2   2   2   2   2   2
#     4  10  20  39  63  97 128 175 228 278 347 427
#     4  10  21  41  63  92 137 173 229 285 349 414
#     4  11  24  48  72 100 141 186 245 292 351 431
#     4  11  24  47  72 109 141 187 245 291 353 429
#     4  10  22  38  63  96 133 176 224 285 353 419
#     4  11  22  43  65  98 140 183 228 293 358 417
#     4  11  23  42  68 100 141 187 226 288 358 418
#     4  10  25  47  70 102 136 194 233 300 354 420
#
# _framework density 23.324016
#
# number of rings (size 3 to 8) (size 9 to 14) (size 15 to 20)
#    0.000    1.500    2.500    1.875    0.000    6.500 
#   11.250    0.000    0.000    0.000    0.000    0.000 
#    0.000    0.000    0.000    0.000    0.000    0.000 
#
# Total GULP energy -198235.543531 kJ/mol
# GULP energy per Si atom -12389.721471 kJ/mol
# Density = 2.327093 g / cm^3
# Si number density = 23.324016 Si / 1000 Ang^3
#
#
#
# Elastic Constant Matrix: (Units=GPa)
#
#
# Indices 1 2 3 4 5 6 
#
# 1 99.5432 54.2964 47.1641 -9.0428 -0.7150 9.4409
# 2 54.2964 131.2037 35.2624 -2.7894 -2.1908 23.0462
# 3 47.1641 35.2624 93.2807 -8.5533 4.9668 8.3374
# 4 -9.0428 -2.7894 -8.5533 23.5267 -9.0639 0.1340
# 5 -0.7150 -2.1908 4.9668 -9.0639 43.9814 -10.7061
# 6 9.4409 23.0462 8.3374 0.1340 -10.7061 31.6623
#
#
#
# Elastic Compliance Matrix: (Units=1/GPa)
#
#
# Indices 1 2 3 4 5 6 
#
# 1 0.015898 -0.005056 -0.005950 0.004025 0.001773 0.001089
# 2 -0.005056 0.011149 -0.001120 -0.001514 -0.001359 -0.006766
# 3 -0.005950 -0.001120 0.014619 0.002210 -0.001806 -0.001880
# 4 0.004025 -0.001514 0.002210 0.048673 0.010412 0.002635
# 5 0.001773 -0.001359 -0.001806 0.010412 0.027531 0.010201
# 6 0.001089 -0.006766 -0.001880 0.002635 0.010201 0.040116
#
#
# Mechanical properties :
#
#
# Convention : Reuss Voigt Hill
#
# Bulk Modulus (GPa) = 57.42412 66.38593 61.90502
# Shear Modulus (GPa) = 26.59003 32.32106 29.45554
#
# Velocity S-wave (km/s) = 3.38009 3.72659 3.55756
# Velocity P-wave (km/s) = 6.31720 6.85864 6.59348
#
# Compressibility (1/GPa) = 0.01741429
#
# Stress axis : x y z
#
# Youngs Moduli (GPa) = 62.90177 89.69759 68.40585
#
# Poissons Ratio (x) = 0.45353 0.40698
# Poissons Ratio (y) = 0.31804 0.07659
# Poissons Ratio (z) = 0.37423 0.10043
#
# Static dielectric constant tensor:
#      x y z
#    x 4.248240 0.221080 0.279830 
#    y 0.221080 4.359570 -0.369590 
#    z 0.279830 -0.369590 4.288270 
# 
# 
# High freq. dielectric constant tensor:
#      x y z
#    x 1.915200 0.014780 0.021720 
#    y 0.014780 1.936700 -0.019230 
#    z 0.021720 -0.019230 1.915000 
# 
# From -- ./inp_files/447284.got.cif
#   From: 2010.06.25/outbox.cif.g09.slc.cpg/sg2_224_cif.got.tgz:447284.got - 2010.06.27 13:26:56.
