data_PCOD8005340
_publ_section_title
;
Structure prediction by ZEFSAII (Michael W. Deem and Ramdas Pophale) SiO2 
 PCOD8005340
Probable space group: P -1
;
_chemical_formula_sum "Si O2"
_cell_formula_units_Z 16
_cell_length_a 12.642590
_cell_length_b 17.491983
_cell_length_c 8.684463
_cell_angle_alpha 136.933783
_cell_angle_beta 83.217998
_cell_angle_gamma 129.197900
_cell_volume 772.883910
_symmetry_space_group_name_H-M "P -1"
_symmetry_group_IT_number 2
_symmetry_cell_setting 'triclinic'
loop_
_space_group_symop_operation_xyz
x,y,z
-x,-y,-z
loop_
_atom_site_type_symbol
_atom_site_label
_atom_site_fract_x
_atom_site_fract_y
_atom_site_fract_z
Si Si1 0.355652 0.957230 0.889594
Si Si2 0.168420 0.720877 0.264431
Si Si3 0.993350 0.368718 0.365449
Si Si4 0.520972 0.716208 0.789434
Si Si5 0.814745 0.656751 0.866136
Si Si6 0.722096 0.393674 0.075333
Si Si7 0.908535 0.691802 0.233925
Si Si8 0.088757 0.049324 0.894913
O O1 0.278059 0.840543 0.574737
O O2 0.205030 0.841954 0.875910
O O3 0.500000 0.000000 0.000000
O O4 0.446871 0.153604 0.138387
O O5 0.084526 0.763743 0.269390
O O6 0.298876 0.757679 0.183583
O O7 0.000000 0.500000 0.000000
O O8 0.076735 0.365209 0.212322
O O9 0.101989 0.442524 0.611504
O O10 0.000000 0.500000 0.500000
O O11 0.380022 0.514423 0.433332
O O12 0.450893 0.705824 0.950433
O O13 0.701758 0.801436 0.908687
O O14 0.806726 0.656447 0.051475
O O15 0.925500 0.855164 0.072370
O O16 0.756630 0.495315 0.065184
O O17 0.977158 0.853267 0.558349
O O18 0.000000 0.000000 0.000000
#
# Coordination Sequence:
#
# PCOD8005340 Si02
#       8
#     2   2   2   2   2   2   2   2
#     4  12  23  37  61  98 136 165 219 263 318 385
#     4  10  20  38  67  89 133 175 210 255 330 381
#     4  11  21  41  64  96 127 175 216 260 321 388
#     4  11  24  44  63  98 130 167 218 267 326 387
#     4  11  25  40  71  94 127 173 217 269 323 382
#     4  10  21  39  67  91 130 177 208 259 332 384
#     4  11  22  43  66  95 130 169 222 264 323 385
#     4  12  24  47  70  91 127 171 223 270 324 384
#
# _framework density 20.701687
#
# number of rings (size 3 to 8) (size 9 to 14) (size 15 to 20)
#    0.000    1.000    3.750    5.250    5.250    0.500 
#    2.250    3.750    0.000    0.000    0.000    0.000 
#    0.000    0.000    0.000    0.000    0.000    0.000 
#
# Total GULP energy -198388.583305 kJ/mol
# GULP energy per Si atom -12399.286457 kJ/mol
# Density = 2.065457 g / cm^3
# Si number density = 20.701687 Si / 1000 Ang^3
#
#
#
# Elastic Constant Matrix: (Units=GPa)
#
#
# Indices 1 2 3 4 5 6 
#
# 1 102.0418 45.6369 16.9087 -2.4040 -9.1020 4.7524
# 2 45.6369 123.7023 19.0375 1.5988 -2.1142 -1.2384
# 3 16.9087 19.0375 72.0570 -9.7272 -12.4058 9.4123
# 4 -2.4040 1.5988 -9.7272 34.2070 -5.2378 -1.8879
# 5 -9.1020 -2.1142 -12.4058 -5.2378 40.4966 5.9256
# 6 4.7524 -1.2384 9.4123 -1.8879 5.9256 45.4469
#
#
#
# Elastic Compliance Matrix: (Units=1/GPa)
#
#
# Indices 1 2 3 4 5 6 
#
# 1 0.012229 -0.004354 -0.000925 0.001116 0.002601 -0.001499
# 2 -0.004354 0.010050 -0.002292 -0.001592 -0.001558 0.001341
# 3 -0.000925 -0.002292 0.017064 0.005622 0.006224 -0.004078
# 4 0.001116 -0.001592 0.005622 0.031880 0.006130 -0.000799
# 5 0.002601 -0.001558 0.006224 0.006130 0.028640 -0.005083
# 6 -0.001499 0.001341 -0.004078 -0.000799 -0.005083 0.023671
#
#
# Mechanical properties :
#
#
# Convention : Reuss Voigt Hill
#
# Bulk Modulus (GPa) = 41.32122 51.21858 46.26990
# Shear Modulus (GPa) = 34.07338 38.44464 36.25901
#
# Velocity S-wave (km/s) = 4.06140 4.31406 4.18963
# Velocity P-wave (km/s) = 6.48050 7.04342 6.76782
#
# Compressibility (1/GPa) = 0.02420064
#
# Stress axis : x y z
#
# Youngs Moduli (GPa) = 81.77551 99.49910 58.60437
#
# Poissons Ratio (x) = 0.43322 0.05421
# Poissons Ratio (y) = 0.35606 0.13432
# Poissons Ratio (z) = 0.07564 0.22805
#
# Static dielectric constant tensor:
#      x y z
#    x 4.046320 0.137010 -0.245870 
#    y 0.137010 3.897900 -0.054190 
#    z -0.245870 -0.054190 3.967170 
# 
# 
# High freq. dielectric constant tensor:
#      x y z
#    x 1.815160 -0.002360 -0.010260 
#    y -0.002360 1.809940 -0.000150 
#    z -0.010260 -0.000150 1.810010 
# 
# From -- ./inp_files/272198.got.cif
#   From: 2010.06.25/outbox.cif.g09.slc.cpg/sg2_137_cif.got.tgz:272198.got - 2010.06.27 13:26:56.
