data_PCOD8005738
_publ_section_title
;
Structure prediction by ZEFSAII (Michael W. Deem and Ramdas Pophale) SiO2 
 PCOD8005738
Probable space group: P -1
;
_chemical_formula_sum "Si O2"
_cell_formula_units_Z 16
_cell_length_a 15.163531
_cell_length_b 12.444467
_cell_length_c 16.368043
_cell_angle_alpha 26.061737
_cell_angle_beta 141.207324
_cell_angle_gamma 124.892580
_cell_volume 752.426520
_symmetry_space_group_name_H-M "P -1"
_symmetry_group_IT_number 2
_symmetry_cell_setting 'triclinic'
loop_
_space_group_symop_operation_xyz
x,y,z
-x,-y,-z
loop_
_atom_site_type_symbol
_atom_site_label
_atom_site_fract_x
_atom_site_fract_y
_atom_site_fract_z
Si Si1 0.660416 0.557411 0.452204
Si Si2 0.175421 0.217727 0.179075
Si Si3 0.674764 0.401148 0.999739
Si Si4 0.313952 0.693718 0.744236
Si Si5 0.869850 0.226955 0.970671
Si Si6 0.106580 0.640170 0.502500
Si Si7 0.683996 0.241519 0.531282
Si Si8 0.302597 0.936906 0.906459
O O1 0.691049 0.291746 0.599076
O O2 0.744104 0.736863 0.353807
O O3 0.719930 0.438422 0.666287
O O4 0.475207 0.764086 0.189211
O O5 0.215115 0.468594 0.040179
O O6 0.990662 0.357635 0.980006
O O7 0.279317 0.981929 0.480503
O O8 0.216746 0.073722 0.215573
O O9 0.495758 0.646634 0.704930
O O10 0.730256 0.262308 0.222782
O O11 0.695578 0.158392 0.119765
O O12 0.198728 0.577619 0.699491
O O13 0.500000 0.500000 0.000000
O O14 0.820228 0.124447 0.087173
O O15 0.982520 0.958894 0.183052
O O16 0.246962 0.563206 0.590942
O O17 0.000000 0.500000 0.500000
#
# Coordination Sequence:
#
# PCOD8005738 Si02
#       8
#     2   2   2   2   2   2   2   2
#     4  10  21  40  64  85 117 168 205 257 311 360
#     4  10  23  37  59  92 123 152 201 260 303 375
#     4  11  21  39  62  88 119 163 204 256 301 359
#     4  10  20  39  62  88 122 162 200 242 313 371
#     4  10  22  40  58  86 127 161 200 255 314 363
#     4  10  21  37  60  96 128 156 201 261 307 370
#     4   9  19  36  59  88 120 149 207 253 302 365
#     4  10  23  40  61  87 121 159 219 256 288 374
#
# _framework density 21.264534000000001
#
# number of rings (size 3 to 8) (size 9 to 14) (size 15 to 20)
#    0.000    2.250    2.500    1.500    0.000    7.500 
#    2.250    4.375    0.000    0.000    0.000    0.000 
#    0.000    0.000    0.000    0.000    0.000    0.000 
#
# Total GULP energy -198213.508762 kJ/mol
# GULP energy per Si atom -12388.344298 kJ/mol
# Density = 2.121614 g / cm^3
# Si number density = 21.264534 Si / 1000 Ang^3
#
#
#
# Elastic Constant Matrix: (Units=GPa)
#
#
# Indices 1 2 3 4 5 6 
#
# 1 90.8861 20.6566 19.1854 9.4988 -2.4636 13.0438
# 2 20.6566 92.9391 32.3500 13.0887 -1.3497 14.1712
# 3 19.1854 32.3500 73.6886 19.7696 -10.7764 -6.2106
# 4 9.4988 13.0887 19.7696 21.5369 -0.1474 0.3165
# 5 -2.4636 -1.3497 -10.7764 -0.1474 27.7745 6.8356
# 6 13.0438 14.1712 -6.2106 0.3165 6.8356 37.3288
#
#
#
# Elastic Compliance Matrix: (Units=1/GPa)
#
#
# Indices 1 2 3 4 5 6 
#
# 1 0.012709 -0.000859 -0.002383 -0.002818 0.001310 -0.004727
# 2 -0.000859 0.014299 -0.005812 -0.002888 -0.000165 -0.006041
# 3 -0.002383 -0.005812 0.022544 -0.016148 0.006768 0.005688
# 4 -0.002818 -0.002888 -0.016148 0.064210 -0.006317 0.000007
# 5 0.001310 -0.000165 0.006768 -0.006317 0.040329 -0.006600
# 6 -0.004727 -0.006041 0.005688 0.000007 -0.006600 0.032889
#
#
# Mechanical properties :
#
#
# Convention : Reuss Voigt Hill
#
# Bulk Modulus (GPa) = 31.80175 44.65532 38.22853
# Shear Modulus (GPa) = 23.19437 29.68283 26.43860
#
# Velocity S-wave (km/s) = 3.30624 3.74021 3.52990
# Velocity P-wave (km/s) = 5.43716 6.30061 5.88474
#
# Compressibility (1/GPa) = 0.03144481
#
# Stress axis : x y z
#
# Youngs Moduli (GPa) = 78.68170 69.93435 44.35768
#
# Poissons Ratio (x) = 0.06005 0.10571
# Poissons Ratio (y) = 0.06756 0.25782
# Poissons Ratio (z) = 0.18750 0.40647
#
# Static dielectric constant tensor:
#      x y z
#    x 4.121140 0.511740 0.019680 
#    y 0.511740 4.378110 0.075210 
#    z 0.019680 0.075210 3.639230 
# 
# 
# High freq. dielectric constant tensor:
#      x y z
#    x 1.838810 0.009990 0.009020 
#    y 0.009990 1.831140 0.014850 
#    z 0.009020 0.014850 1.814590 
# 
# From -- ./inp_files/532290.got.cif
#   From: 2010.06.25/outbox.cif.g09.slc.cpg/sg2_267_cif.got.tgz:532290.got - 2010.06.27 13:26:56.
