data_PCOD8005257
_publ_section_title
;
Structure prediction by ZEFSAII (Michael W. Deem and Ramdas Pophale) SiO2 
 PCOD8005257
Probable space group: P -1
;
_chemical_formula_sum "Si O2"
_cell_formula_units_Z 16
_cell_length_a 9.266791
_cell_length_b 9.440021
_cell_length_c 14.814390
_cell_angle_alpha 82.245911
_cell_angle_beta 132.507516
_cell_angle_gamma 72.282251
_cell_volume 795.860993
_symmetry_space_group_name_H-M "P -1"
_symmetry_group_IT_number 2
_symmetry_cell_setting 'triclinic'
loop_
_space_group_symop_operation_xyz
x,y,z
-x,-y,-z
loop_
_atom_site_type_symbol
_atom_site_label
_atom_site_fract_x
_atom_site_fract_y
_atom_site_fract_z
Si Si1 0.549467 0.588306 0.933465
Si Si2 0.441141 0.945188 0.855857
Si Si3 0.470983 0.413835 0.277379
Si Si4 0.958324 0.537558 0.814899
Si Si5 0.110270 0.191330 0.839323
Si Si6 0.754501 0.034750 0.419042
Si Si7 0.584277 0.348484 0.619936
Si Si8 0.328725 0.169571 0.464282
O O1 0.444175 0.780187 0.905301
O O2 0.453064 0.584873 0.794011
O O3 0.500000 0.500000 0.000000
O O4 0.823943 0.484903 0.038334
O O5 0.402150 0.960994 0.730849
O O6 0.223301 0.108025 0.797862
O O7 0.691597 0.919040 0.989949
O O8 0.206705 0.467421 0.179071
O O9 0.621989 0.219630 0.396297
O O10 0.505787 0.549726 0.332197
O O11 0.852803 0.705157 0.696581
O O12 0.046233 0.383596 0.794244
O O13 0.864068 0.206799 0.749266
O O14 0.801506 0.878922 0.514409
O O15 0.000000 0.000000 0.500000
O O16 0.500000 0.500000 0.500000
O O17 0.459487 0.247845 0.561619
O O18 0.500000 0.000000 0.500000
#
# Coordination Sequence:
#
# PCOD8005257 Si02
#       8
#     2   2   2   2   2   2   2   2
#     4  10  22  38  63  93 123 166 216 259 316 383
#     4   9  21  40  61  89 129 168 208 254 326 375
#     4  10  21  43  62  90 127 166 213 259 323 378
#     4  10  20  38  66  88 123 166 212 259 317 376
#     4   9  19  40  66  87 123 168 208 260 317 381
#     4  11  25  40  63  92 132 172 210 264 319 381
#     4  11  21  40  67  95 125 166 216 266 322 375
#     4  12  24  41  63  97 127 164 221 261 322 390
#
# _framework density 20.104012000000001
#
# number of rings (size 3 to 8) (size 9 to 14) (size 15 to 20)
#    0.000    1.750    3.750    0.375    7.000    1.000 
#    6.750    1.875    0.000    0.000    0.000    0.000 
#    0.000    0.000    0.000    0.000    0.000    0.000 
#
# Total GULP energy -198276.648730 kJ/mol
# GULP energy per Si atom -12392.290546 kJ/mol
# Density = 2.005825 g / cm^3
# Si number density = 20.104012 Si / 1000 Ang^3
#
#
#
# Elastic Constant Matrix: (Units=GPa)
#
#
# Indices 1 2 3 4 5 6 
#
# 1 92.7893 38.6209 18.9010 -4.4517 -8.0229 6.7571
# 2 38.6209 103.8718 19.8624 -7.3827 4.9480 -8.5252
# 3 18.9010 19.8624 60.8053 -5.7765 0.6803 -1.9063
# 4 -4.4517 -7.3827 -5.7765 32.2137 1.9700 4.4164
# 5 -8.0229 4.9480 0.6803 1.9700 38.0232 -6.7647
# 6 6.7571 -8.5252 -1.9063 4.4164 -6.7647 33.9299
#
#
#
# Elastic Compliance Matrix: (Units=1/GPa)
#
#
# Indices 1 2 3 4 5 6 
#
# 1 0.014017 -0.005082 -0.002790 0.000599 0.002978 -0.003709
# 2 -0.005082 0.012420 -0.002213 0.001410 -0.002117 0.003403
# 3 -0.002790 -0.002213 0.018285 0.002344 -0.000644 0.000593
# 4 0.000599 0.001410 0.002344 0.032628 -0.002571 -0.004393
# 5 0.002978 -0.002117 -0.000644 -0.002571 0.028202 0.004796
# 6 -0.003709 0.003403 0.000593 -0.004393 0.004796 0.032628
#
#
# Mechanical properties :
#
#
# Convention : Reuss Voigt Hill
#
# Bulk Modulus (GPa) = 40.72980 45.80388 43.26684
# Shear Modulus (GPa) = 30.02407 32.83883 31.43145
#
# Velocity S-wave (km/s) = 3.86869 4.04598 3.95833
# Velocity P-wave (km/s) = 6.34502 6.68278 6.51608
#
# Compressibility (1/GPa) = 0.02455205
#
# Stress axis : x y z
#
# Youngs Moduli (GPa) = 71.34245 80.51311 54.69103
#
# Poissons Ratio (x) = 0.40916 0.15258
# Poissons Ratio (y) = 0.36256 0.12104
# Poissons Ratio (z) = 0.19903 0.17819
#
# Static dielectric constant tensor:
#      x y z
#    x 3.377110 -0.283940 0.492850 
#    y -0.283940 3.958270 0.267420 
#    z 0.492850 0.267420 3.386330 
# 
# 
# High freq. dielectric constant tensor:
#      x y z
#    x 1.760850 -0.015130 0.011520 
#    y -0.015130 1.793250 -0.001990 
#    z 0.011520 -0.001990 1.793170 
# 
# From -- ./inp_files/262044.got.cif
#   From: 2010.06.25/outbox.cif.g09.slc.cpg/sg2_132_cif.got.tgz:262044.got - 2010.06.27 13:26:56.
