data_PCOD8005909
_publ_section_title
;
Structure prediction by ZEFSAII (Michael W. Deem and Ramdas Pophale) SiO2 
 PCOD8005909
Probable space group: P -1
;
_chemical_formula_sum "Si O2"
_cell_formula_units_Z 12
_cell_length_a 8.052781
_cell_length_b 15.822917
_cell_length_c 7.223522
_cell_angle_alpha 128.835517
_cell_angle_beta 106.508119
_cell_angle_gamma 106.561277
_cell_volume 539.199181
_symmetry_space_group_name_H-M "P -1"
_symmetry_group_IT_number 2
_symmetry_cell_setting 'triclinic'
loop_
_space_group_symop_operation_xyz
x,y,z
-x,-y,-z
loop_
_atom_site_type_symbol
_atom_site_label
_atom_site_fract_x
_atom_site_fract_y
_atom_site_fract_z
Si Si1 0.885002 0.552104 0.639697
Si Si2 0.258391 0.428447 0.751050
Si Si3 0.296856 0.623879 0.302298
Si Si4 0.223257 0.800327 0.328883
Si Si5 0.964129 0.116552 0.351013
Si Si6 0.324910 0.106710 0.346400
O O1 0.730574 0.551700 0.439956
O O2 0.730737 0.444778 0.604638
O O3 0.000000 0.500000 0.500000
O O4 0.066595 0.709620 0.983144
O O5 0.092586 0.269260 0.526607
O O6 0.500000 0.500000 0.000000
O O7 0.184808 0.510845 0.945405
O O8 0.181794 0.697758 0.344213
O O9 0.560233 0.745073 0.517217
O O10 0.485434 0.889395 0.478174
O O11 0.158903 0.895569 0.513816
O O12 0.135450 0.082322 0.388717
O O13 0.779659 0.012909 0.002358
#
# Coordination Sequence:
#
# PCOD8005909 Si02
#       6
#     2   2   2   2   2   2
#     4  12  22  37  67  95 127 171 209 263 325 373
#     4  12  23  40  64  97 127 164 214 268 317 377
#     4  10  21  41  63  94 128 160 213 263 312 378
#     4  10  20  39  63  95 125 167 210 260 317 374
#     4  11  20  40  66  89 130 174 205 259 325 371
#     4   9  22  38  66  91 126 175 208 259 317 377
#
# _framework density 22.255229
#
# number of rings (size 3 to 8) (size 9 to 14) (size 15 to 20)
#    1.000    0.333    5.000    2.000    0.000    0.667 
#    0.000    0.833    3.667    3.000    0.000    0.000 
#    0.000    0.000    0.000    0.000    0.000    0.000 
#
# Total GULP energy -148659.042739 kJ/mol
# GULP energy per Si atom -12388.253562 kJ/mol
# Density = 2.220457 g / cm^3
# Si number density = 22.255229 Si / 1000 Ang^3
#
#
#
# Elastic Constant Matrix: (Units=GPa)
#
#
# Indices 1 2 3 4 5 6 
#
# 1 130.3068 -1.3117 59.5710 -7.7964 -3.6208 1.1727
# 2 -1.3117 21.5976 23.4917 -2.7772 13.6000 -1.8409
# 3 59.5710 23.4917 159.8470 10.6774 3.1646 -6.7757
# 4 -7.7964 -2.7772 10.6774 42.5915 -1.3562 5.8262
# 5 -3.6208 13.6000 3.1646 -1.3562 48.3208 3.4240
# 6 1.1727 -1.8409 -6.7757 5.8262 3.4240 17.5530
#
#
#
# Elastic Compliance Matrix: (Units=1/GPa)
#
#
# Indices 1 2 3 4 5 6 
#
# 1 0.010442 0.006981 -0.005324 0.004137 -0.000484 -0.003300
# 2 0.006981 0.075535 -0.013749 0.008586 -0.019819 0.003164
# 3 -0.005324 -0.013749 0.010736 -0.005075 0.002321 0.004290
# 4 0.004137 0.008586 -0.005075 0.027483 -0.000265 -0.010406
# 5 -0.000484 -0.019819 0.002321 -0.000265 0.026519 -0.006235
# 6 -0.003300 0.003164 0.004290 -0.010406 -0.006235 0.063849
#
#
# Mechanical properties :
#
#
# Convention : Reuss Voigt Hill
#
# Bulk Modulus (GPa) = 13.78804 52.80593 33.29699
# Shear Modulus (GPa) = 19.01683 37.02642 28.02162
#
# Velocity S-wave (km/s) = 2.92633 4.08329 3.55223
# Velocity P-wave (km/s) = 4.19843 6.78307 5.64078
#
# Compressibility (1/GPa) = 0.07252661
#
# Stress axis : x y z
#
# Youngs Moduli (GPa) = 95.76504 13.23898 93.14723
#
# Poissons Ratio (x) = -0.09241 0.49592
# Poissons Ratio (y) = -0.66849 1.28071
# Poissons Ratio (z) = 0.50986 0.18203
#
# Static dielectric constant tensor:
#      x y z
#    x 4.421910 0.043800 -0.152790 
#    y 0.043800 3.791080 0.160940 
#    z -0.152790 0.160940 4.366710 
# 
# 
# High freq. dielectric constant tensor:
#      x y z
#    x 1.892280 0.002650 -0.001030 
#    y 0.002650 1.835080 0.026450 
#    z -0.001030 0.026450 1.884210 
# 
# From -- ./inp_files/46049.got.cif
#   From: 2010.06.25/outbox.cif.g09.slc.cpg/sg2_24_cif.got.tgz:46049.got - 2010.06.27 13:26:56.
