data_PCOD8005189
_publ_section_title
;
Structure prediction by ZEFSAII (Michael W. Deem and Ramdas Pophale) SiO2 
 PCOD8005189
Probable space group: P -1
;
_chemical_formula_sum "Si O2"
_cell_formula_units_Z 12
_cell_length_a 8.453202
_cell_length_b 11.970329
_cell_length_c 9.950529
_cell_angle_alpha 39.660004
_cell_angle_beta 108.253607
_cell_angle_gamma 87.945773
_cell_volume 542.830365
_symmetry_space_group_name_H-M "P -1"
_symmetry_group_IT_number 2
_symmetry_cell_setting 'triclinic'
loop_
_space_group_symop_operation_xyz
x,y,z
-x,-y,-z
loop_
_atom_site_type_symbol
_atom_site_label
_atom_site_fract_x
_atom_site_fract_y
_atom_site_fract_z
Si Si1 0.680515 0.466053 0.497359
Si Si2 0.736118 0.922385 0.784282
Si Si3 0.875253 0.105387 0.054767
Si Si4 0.582068 0.721969 0.757030
Si Si5 0.294382 0.152961 0.850707
Si Si6 0.585880 0.371386 0.952197
O O1 0.500000 0.500000 0.500000
O O2 0.751485 0.626024 0.412430
O O3 0.837078 0.245902 0.781749
O O4 0.615863 0.494620 0.297911
O O5 0.746905 0.768629 0.812792
O O6 0.914509 0.962671 0.778108
O O7 0.545470 0.122344 0.531761
O O8 0.722036 0.838096 0.002226
O O9 0.732637 0.216927 0.032753
O O10 0.854809 0.910875 0.192375
O O11 0.447272 0.742722 0.827903
O O12 0.671439 0.509782 0.906700
O O13 0.500000 0.000000 0.000000
#
# Coordination Sequence:
#
# PCOD8005189 Si02
#       6
#     2   2   2   2   2   2
#     4  10  20  38  65  92 119 161 201 254 308 367
#     4  11  24  41  60  95 123 161 209 251 307 362
#     4  11  24  40  63  99 125 154 205 265 305 357
#     4  10  22  41  65  81 125 173 203 246 296 377
#     4  12  21  40  66  92 124 163 202 251 316 367
#     4  10  20  41  63  89 119 167 209 241 308 366
#
# _framework density 22.106354
#
# number of rings (size 3 to 8) (size 9 to 14) (size 15 to 20)
#    0.000    1.333    5.000    1.500    2.333    2.000 
#    6.000    0.000    0.000    0.000    0.000    0.000 
#    0.000    0.000    0.000    0.000    0.000    0.000 
#
# Total GULP energy -148771.467070 kJ/mol
# GULP energy per Si atom -12397.622256 kJ/mol
# Density = 2.205604 g / cm^3
# Si number density = 22.106354 Si / 1000 Ang^3
#
#
#
# Elastic Constant Matrix: (Units=GPa)
#
#
# Indices 1 2 3 4 5 6 
#
# 1 81.0472 46.4865 27.1477 1.4586 -0.8533 41.2615
# 2 46.4865 122.9252 24.5191 -0.8306 -6.1158 42.9771
# 3 27.1477 24.5191 48.0654 3.4213 -17.1787 19.4297
# 4 1.4586 -0.8306 3.4213 26.7135 11.7774 -12.6296
# 5 -0.8533 -6.1158 -17.1787 11.7774 32.3097 1.7662
# 6 41.2615 42.9771 19.4297 -12.6296 1.7662 51.8847
#
#
#
# Elastic Compliance Matrix: (Units=1/GPa)
#
#
# Indices 1 2 3 4 5 6 
#
# 1 0.025114 -0.001286 -0.001368 -0.014400 0.006150 -0.022109
# 2 -0.001286 0.013272 0.003888 -0.010934 0.009319 -0.014406
# 3 -0.001368 0.003888 0.053151 -0.043318 0.046617 -0.034167
# 4 -0.014400 -0.010934 -0.043318 0.103069 -0.066555 0.064084
# 5 0.006150 0.009319 0.046617 -0.066555 0.084609 -0.049147
# 6 -0.022109 -0.014406 -0.034167 0.064084 -0.049147 0.078855
#
#
# Mechanical properties :
#
#
# Convention : Reuss Voigt Hill
#
# Bulk Modulus (GPa) = 10.63786 49.81604 30.22695
# Shear Modulus (GPa) = 12.92198 32.44053 22.68126
#
# Velocity S-wave (km/s) = 2.42034 3.83492 3.20661
# Velocity P-wave (km/s) = 3.55434 6.49557 5.23573
#
# Compressibility (1/GPa) = 0.09400384
#
# Stress axis : x y z
#
# Youngs Moduli (GPa) = 39.81812 75.34638 18.81449
#
# Poissons Ratio (x) = 0.09690 0.02575
# Poissons Ratio (y) = 0.05121 -0.07315
# Poissons Ratio (z) = 0.05449 -0.29295
#
# Static dielectric constant tensor:
#      x y z
#    x 3.962190 0.402780 -0.062170 
#    y 0.402780 4.243650 0.178920 
#    z -0.062170 0.178920 4.472910 
# 
# 
# High freq. dielectric constant tensor:
#      x y z
#    x 1.854720 0.022200 -0.022040 
#    y 0.022200 1.884110 0.004220 
#    z -0.022040 0.004220 1.858720 
# 
# From -- ./inp_files/155134.got.cif
#   From: 2010.06.25/outbox.cif.g09.slc.cpg/sg2_78_cif.got.tgz:155134.got - 2010.06.27 13:26:56.
