data_PCOD8005997
_publ_section_title
;
Structure prediction by ZEFSAII (Michael W. Deem and Ramdas Pophale) SiO2 
 PCOD8005997
Probable space group: P -1
;
_chemical_formula_sum "Si O2"
_cell_formula_units_Z 14
_cell_length_a 15.310210
_cell_length_b 11.033351
_cell_length_c 9.234197
_cell_angle_alpha 125.080777
_cell_angle_beta 136.507722
_cell_angle_gamma 33.198939
_cell_volume 585.675390
_symmetry_space_group_name_H-M "P -1"
_symmetry_group_IT_number 2
_symmetry_cell_setting 'triclinic'
loop_
_space_group_symop_operation_xyz
x,y,z
-x,-y,-z
loop_
_atom_site_type_symbol
_atom_site_label
_atom_site_fract_x
_atom_site_fract_y
_atom_site_fract_z
Si Si1 0.725071 0.817159 0.125666
Si Si2 0.160881 0.053730 0.431163
Si Si3 0.847674 0.202151 0.564223
Si Si4 0.579607 0.328999 0.103261
Si Si5 0.701321 0.858910 0.573628
Si Si6 0.131319 0.175616 0.969630
Si Si7 0.215745 0.464485 0.772629
O O1 0.793218 0.915724 0.336626
O O2 0.792208 0.761170 0.001578
O O3 0.836247 0.592155 0.191298
O O4 0.500000 0.000000 0.000000
O O5 0.308866 0.991817 0.448047
O O6 0.947574 0.274197 0.272411
O O7 0.175521 0.866672 0.357145
O O8 0.651298 0.370157 0.351392
O O9 0.914962 0.309972 0.764186
O O10 0.000000 0.000000 0.500000
O O11 0.740502 0.083689 0.061131
O O12 0.500000 0.500000 0.000000
O O13 0.410346 0.374127 0.988256
O O14 0.767145 0.655044 0.429231
O O15 0.500000 0.000000 0.500000
O O16 0.857651 0.762933 0.816525
#
# Coordination Sequence:
#
# PCOD8005997 Si02
#       7
#     2   2   2   2   2   2   2
#     4  11  18  35  59  86 122 162 212 252 296 376
#     4  11  22  40  65  93 127 164 213 258 302 380
#     4  10  20  39  64  92 121 166 214 259 308 371
#     4  11  21  37  67  90 118 160 217 262 299 375
#     4  11  22  39  61  96 134 165 202 258 318 374
#     4  11  21  38  62  94 124 167 207 256 321 361
#     4  11  22  39  64  96 122 163 216 252 312 371
#
# _framework density 23.904026000000002
#
# number of rings (size 3 to 8) (size 9 to 14) (size 15 to 20)
#    0.000    1.143    5.714    4.286    0.000    0.571 
#    0.000    2.857    0.000    1.714    0.000    0.000 
#    0.000    0.000    0.000    0.000    0.000    0.000 
#
# Total GULP energy -173553.926908 kJ/mol
# GULP energy per Si atom -12396.709065 kJ/mol
# Density = 2.384962 g / cm^3
# Si number density = 23.904026 Si / 1000 Ang^3
#
#
#
# Elastic Constant Matrix: (Units=GPa)
#
#
# Indices 1 2 3 4 5 6 
#
# 1 165.6835 25.5588 54.3684 0.3941 -4.1574 10.2329
# 2 25.5588 43.0268 27.8561 -14.3609 -5.5907 10.8219
# 3 54.3684 27.8561 181.4526 -11.5293 14.1197 7.9967
# 4 0.3941 -14.3609 -11.5293 21.1683 2.6854 -1.6243
# 5 -4.1574 -5.5907 14.1197 2.6854 49.9418 -7.2417
# 6 10.2329 10.8219 7.9967 -1.6243 -7.2417 26.6277
#
#
#
# Elastic Compliance Matrix: (Units=1/GPa)
#
#
# Indices 1 2 3 4 5 6 
#
# 1 0.007379 -0.004362 -0.001849 -0.004247 0.000797 -0.000550
# 2 -0.004362 0.038578 -0.002760 0.023655 0.001835 -0.011231
# 3 -0.001849 -0.002760 0.006868 0.002175 -0.002640 -0.000816
# 4 -0.004247 0.023655 0.002175 0.064464 -0.002570 -0.005402
# 5 0.000797 0.001835 -0.002640 -0.002570 0.021986 0.005563
# 6 -0.000550 -0.011231 -0.000816 -0.005402 0.005563 0.043759
#
#
# Mechanical properties :
#
#
# Convention : Reuss Voigt Hill
#
# Bulk Modulus (GPa) = 28.66697 67.30326 47.98511
# Shear Modulus (GPa) = 23.51771 38.37288 30.94530
#
# Velocity S-wave (km/s) = 3.14002 4.01095 3.60191
# Velocity P-wave (km/s) = 5.01646 7.04749 6.11686
#
# Compressibility (1/GPa) = 0.03488335
#
# Stress axis : x y z
#
# Youngs Moduli (GPa) = 135.51355 25.92142 145.59341
#
# Poissons Ratio (x) = 0.11307 0.26922
# Poissons Ratio (y) = 0.59110 0.40188
# Poissons Ratio (z) = 0.25058 0.07155
#
# Static dielectric constant tensor:
#      x y z
#    x 4.745480 0.194440 0.198930 
#    y 0.194440 3.706020 -0.097890 
#    z 0.198930 -0.097890 4.997210 
# 
# 
# High freq. dielectric constant tensor:
#      x y z
#    x 1.967560 0.012070 0.008140 
#    y 0.012070 1.894350 -0.017280 
#    z 0.008140 -0.017280 1.967300 
# 
# From -- ./inp_files/308177.got.cif
#   From: 2010.06.25/outbox.cif.g09.slc.cpg/sg2_155_cif.got.tgz:308177.got - 2010.06.27 13:26:56.
