data_PCOD8005064
_publ_section_title
;
Structure prediction by ZEFSAII (Michael W. Deem and Ramdas Pophale) SiO2 
 PCOD8005064
Probable space group: P -1
;
_chemical_formula_sum "Si O2"
_cell_formula_units_Z 16
_cell_length_a 11.221580
_cell_length_b 9.509633
_cell_length_c 11.845018
_cell_angle_alpha 143.018485
_cell_angle_beta 90.658222
_cell_angle_gamma 85.725124
_cell_volume 755.827088
_symmetry_space_group_name_H-M "P -1"
_symmetry_group_IT_number 2
_symmetry_cell_setting 'triclinic'
loop_
_space_group_symop_operation_xyz
x,y,z
-x,-y,-z
loop_
_atom_site_type_symbol
_atom_site_label
_atom_site_fract_x
_atom_site_fract_y
_atom_site_fract_z
Si Si1 0.394851 0.182799 0.653399
Si Si2 0.980666 0.971333 0.634740
Si Si3 0.652769 0.787821 0.067756
Si Si4 0.203697 0.970055 0.958682
Si Si5 0.988419 0.748338 0.722056
Si Si6 0.393835 0.718757 0.970044
Si Si7 0.857759 0.752610 0.314449
Si Si8 0.221094 0.640059 0.098821
O O1 0.367277 0.139038 0.756126
O O2 0.426916 0.438930 0.783479
O O3 0.269945 0.144916 0.566480
O O4 0.500000 0.000000 0.500000
O O5 0.977488 0.943515 0.749684
O O6 0.952867 0.739651 0.412466
O O7 0.878325 0.177863 0.729314
O O8 0.105804 0.059601 0.657188
O O9 0.738839 0.945656 0.102030
O O10 0.522036 0.818841 0.028174
O O11 0.719168 0.521496 0.902692
O O12 0.131543 0.195899 0.167156
O O13 0.311147 0.836212 0.945412
O O14 0.109213 0.780512 0.813109
O O15 0.000000 0.500000 0.500000
O O16 0.325058 0.770876 0.122158
O O17 0.843169 0.506007 0.093937
#
# Coordination Sequence:
#
# PCOD8005064 Si02
#       8
#     2   2   2   2   2   2   2   2
#     4  10  22  39  64  94 129 161 209 268 308 371
#     4  11  21  38  62  90 123 159 204 258 311 371
#     4  10  22  41  65  93 125 164 212 258 316 375
#     4  11  24  46  64  91 130 167 210 262 309 380
#     4  11  26  41  66  90 128 170 211 253 320 378
#     4  10  21  41  65  90 122 173 209 248 324 375
#     4   9  22  34  59  94 121 151 204 256 308 367
#     4  10  20  38  64  91 122 160 201 254 315 369
#
# _framework density 21.168862000000001
#
# number of rings (size 3 to 8) (size 9 to 14) (size 15 to 20)
#    0.000    2.000    1.250    3.750    7.000    2.000 
#    2.250    0.625    0.000    0.000    0.000    0.000 
#    0.000    0.000    0.000    0.000    0.000    0.000 
#
# Total GULP energy -198238.611981 kJ/mol
# GULP energy per Si atom -12389.913249 kJ/mol
# Density = 2.112068 g / cm^3
# Si number density = 21.168862 Si / 1000 Ang^3
#
#
#
# Elastic Constant Matrix: (Units=GPa)
#
#
# Indices 1 2 3 4 5 6 
#
# 1 78.8864 3.1137 29.2388 6.0654 2.4051 7.8184
# 2 3.1137 76.6989 3.9712 -6.8771 -5.9119 0.8799
# 3 29.2388 3.9712 75.6965 3.6061 -7.9588 -0.6797
# 4 6.0654 -6.8771 3.6061 18.6479 -7.2062 1.7605
# 5 2.4051 -5.9119 -7.9588 -7.2062 31.1122 -2.7682
# 6 7.8184 0.8799 -0.6797 1.7605 -2.7682 39.6626
#
#
#
# Elastic Compliance Matrix: (Units=1/GPa)
#
#
# Indices 1 2 3 4 5 6 
#
# 1 0.016014 -0.001182 -0.006371 -0.005941 -0.004763 -0.003308
# 2 -0.001182 0.014093 -0.000169 0.007330 0.004415 -0.000100
# 3 -0.006371 -0.000169 0.016184 0.000601 0.004905 0.001853
# 4 -0.005941 0.007330 0.000601 0.064756 0.016945 -0.000673
# 5 -0.004763 0.004415 0.004905 0.016945 0.038785 0.002880
# 6 -0.003308 -0.000100 0.001853 -0.000673 0.002880 0.026130
#
#
# Mechanical properties :
#
#
# Convention : Reuss Voigt Hill
#
# Bulk Modulus (GPa) = 32.41693 33.76991 33.09342
# Shear Modulus (GPa) = 24.79062 30.88175 27.83618
#
# Velocity S-wave (km/s) = 3.42583 3.82361 3.63017
# Velocity P-wave (km/s) = 5.56733 5.95656 5.76523
#
# Compressibility (1/GPa) = 0.03084808
#
# Stress axis : x y z
#
# Youngs Moduli (GPa) = 62.44358 70.95507 61.78881
#
# Poissons Ratio (x) = 0.08387 0.39367
# Poissons Ratio (y) = 0.07381 0.01042
# Poissons Ratio (z) = 0.39784 0.01197
#
# Static dielectric constant tensor:
#      x y z
#    x 4.306930 -0.071720 0.002400 
#    y -0.071720 3.752260 -0.088760 
#    z 0.002400 -0.088760 3.641480 
# 
# 
# High freq. dielectric constant tensor:
#      x y z
#    x 1.850290 -0.000460 0.003060 
#    y -0.000460 1.820270 -0.008120 
#    z 0.003060 -0.008120 1.811210 
# 
# From -- ./inp_files/418647.got.cif
#   From: 2010.06.25/outbox.cif.g09.slc.cpg/sg2_210_cif.got.tgz:418647.got - 2010.06.27 13:26:56.
