data_PCOD8005044
_publ_section_title
;
Structure prediction by ZEFSAII (Michael W. Deem and Ramdas Pophale) SiO2 
 PCOD8005044
Probable space group: P -1
;
_chemical_formula_sum "Si O2"
_cell_formula_units_Z 16
_cell_length_a 19.058778
_cell_length_b 12.342096
_cell_length_c 9.008408
_cell_angle_alpha 130.067354
_cell_angle_beta 30.963718
_cell_angle_gamma 132.729813
_cell_volume 790.037746
_symmetry_space_group_name_H-M "P -1"
_symmetry_group_IT_number 2
_symmetry_cell_setting 'triclinic'
loop_
_space_group_symop_operation_xyz
x,y,z
-x,-y,-z
loop_
_atom_site_type_symbol
_atom_site_label
_atom_site_fract_x
_atom_site_fract_y
_atom_site_fract_z
Si Si1 0.072622 0.081949 0.588792
Si Si2 0.113839 0.774520 0.779179
Si Si3 0.613256 0.153372 0.478048
Si Si4 0.601378 0.837655 0.910690
Si Si5 0.945389 0.190436 0.423585
Si Si6 0.440385 0.629670 0.770748
Si Si7 0.869768 0.501702 0.632372
Si Si8 0.332898 0.817095 0.917064
O O1 0.241145 0.156705 0.315138
O O2 0.043988 0.964833 0.673084
O O3 0.000000 0.000000 0.500000
O O4 0.009065 0.210607 0.872345
O O5 0.267408 0.876126 0.655619
O O6 0.089954 0.826438 0.702574
O O7 0.119549 0.603844 0.618998
O O8 0.687048 0.234868 0.265294
O O9 0.500000 0.000000 0.500000
O O10 0.518770 0.239384 0.813591
O O11 0.561517 0.737050 0.749822
O O12 0.596042 0.004224 0.033412
O O13 0.095090 0.321766 0.310515
O O14 0.821766 0.236612 0.772267
O O15 0.500000 0.500000 0.500000
O O16 0.431891 0.730692 0.734743
O O17 0.286117 0.562289 0.068490
O O18 0.000000 0.500000 0.500000
#
# Coordination Sequence:
#
# PCOD8005044 Si02
#       8
#     2   2   2   2   2   2   2   2
#     4  11  24  41  61  99 127 157 206 264 305 355
#     4  11  20  39  67  91 119 165 208 249 305 365
#     4  10  20  38  64  89 122 162 201 255 308 368
#     4  10  22  41  63  88 126 162 207 253 309 371
#     4  10  21  40  66  92 125 159 211 250 305 372
#     4  12  24  41  63  93 127 160 210 262 303 362
#     4  10  21  41  65  85 125 165 207 247 306 373
#     4  10  20  40  65  91 122 162 207 253 313 363
#
# _framework density 20.252198
#
# number of rings (size 3 to 8) (size 9 to 14) (size 15 to 20)
#    0.000    1.500    3.750    3.000    3.500    3.000 
#    6.750    4.375    0.000    0.000    0.000    0.000 
#    0.000    0.000    0.000    0.000    0.000    0.000 
#
# Total GULP energy -198292.401889 kJ/mol
# GULP energy per Si atom -12393.275118 kJ/mol
# Density = 2.020610 g / cm^3
# Si number density = 20.252198 Si / 1000 Ang^3
#
#
#
# Elastic Constant Matrix: (Units=GPa)
#
#
# Indices 1 2 3 4 5 6 
#
# 1 130.9016 36.0211 60.3145 1.4548 7.6660 20.5882
# 2 36.0211 64.5392 40.1567 9.0436 -0.3837 18.7047
# 3 60.3145 40.1567 159.2226 11.5855 3.4143 3.8035
# 4 1.4548 9.0436 11.5855 31.7602 4.4903 0.4243
# 5 7.6660 -0.3837 3.4143 4.4903 36.0932 -6.4711
# 6 20.5882 18.7047 3.8035 0.4243 -6.4711 14.5864
#
#
#
# Elastic Compliance Matrix: (Units=1/GPa)
#
#
# Indices 1 2 3 4 5 6 
#
# 1 0.013459 0.002149 -0.005071 0.001898 -0.006806 -0.023505
# 2 0.002149 0.033178 -0.007540 -0.005168 -0.007105 -0.046615
# 3 -0.005071 -0.007540 0.009795 -0.001844 0.003116 0.015708
# 4 0.001898 -0.005168 -0.001844 0.034124 -0.004251 0.001551
# 5 -0.006806 -0.007105 0.003116 -0.004251 0.035355 0.033714
# 6 -0.023505 -0.046615 0.015708 0.001551 0.033714 0.172325
#
#
# Mechanical properties :
#
#
# Convention : Reuss Voigt Hill
#
# Bulk Modulus (GPa) = 28.16196 69.73866 48.95031
# Shear Modulus (GPa) = 15.10600 31.03271 23.06936
#
# Velocity S-wave (km/s) = 2.73407 3.91872 3.37872
# Velocity P-wave (km/s) = 4.88904 7.41519 6.28043
#
# Compressibility (1/GPa) = 0.03550890
#
# Stress axis : x y z
#
# Youngs Moduli (GPa) = 74.30070 30.14054 102.09102
#
# Poissons Ratio (x) = -0.06478 0.51770
# Poissons Ratio (y) = -0.15970 0.76976
# Poissons Ratio (z) = 0.37678 0.22726
#
# Static dielectric constant tensor:
#      x y z
#    x 3.981690 0.100140 0.292590 
#    y 0.100140 4.135260 -0.140220 
#    z 0.292590 -0.140220 4.077280 
# 
# 
# High freq. dielectric constant tensor:
#      x y z
#    x 1.788310 0.020820 0.006060 
#    y 0.020820 1.771900 -0.004450 
#    z 0.006060 -0.004450 1.804170 
# 
# From -- ./inp_files/285823.got.cif
#   From: 2010.06.25/outbox.cif.g09.slc.cpg/sg2_143_cif.got.tgz:285823.got - 2010.06.27 13:26:56.
