data_PCOD8005264
_publ_section_title
;
Structure prediction by ZEFSAII (Michael W. Deem and Ramdas Pophale) SiO2 
 PCOD8005264
Probable space group: P -1
;
_chemical_formula_sum "Si O2"
_cell_formula_units_Z 16
_cell_length_a 12.047214
_cell_length_b 22.791852
_cell_length_c 9.589512
_cell_angle_alpha 35.310703
_cell_angle_beta 59.281180
_cell_angle_gamma 34.704428
_cell_volume 757.149734
_symmetry_space_group_name_H-M "P -1"
_symmetry_group_IT_number 2
_symmetry_cell_setting 'triclinic'
loop_
_space_group_symop_operation_xyz
x,y,z
-x,-y,-z
loop_
_atom_site_type_symbol
_atom_site_label
_atom_site_fract_x
_atom_site_fract_y
_atom_site_fract_z
Si Si1 0.518284 0.357528 0.329485
Si Si2 0.704520 0.562195 0.123964
Si Si3 0.368088 0.644077 0.021917
Si Si4 0.897720 0.461562 0.907311
Si Si5 0.955391 0.275548 0.749082
Si Si6 0.611381 0.093308 0.931237
Si Si7 0.166112 0.324167 0.643882
Si Si8 0.388169 0.174122 0.182053
O O1 0.524460 0.449190 0.252564
O O2 0.264134 0.504521 0.150397
O O3 0.607992 0.208867 0.652229
O O4 0.684086 0.265963 0.267067
O O5 0.483463 0.648618 0.043793
O O6 0.784558 0.449382 0.427271
O O7 0.884050 0.442368 0.116181
O O8 0.662635 0.708520 0.895667
O O9 0.155670 0.741686 0.054798
O O10 0.822986 0.626919 0.609398
O O11 0.158328 0.285175 0.038109
O O12 0.064147 0.278663 0.787708
O O13 0.144571 0.108299 0.854050
O O14 0.418205 0.150432 0.872540
O O15 0.557672 0.124876 0.067725
O O16 0.000000 0.500000 0.500000
O O17 0.500000 0.000000 0.500000
#
# Coordination Sequence:
#
# PCOD8005264 Si02
#       8
#     2   2   2   2   2   2   2   2
#     4   9  21  43  67  91 121 162 220 255 304 377
#     4  11  23  42  62  92 127 169 212 251 313 380
#     4  10  22  42  67  88 120 175 215 249 307 375
#     4  10  20  38  66  89 122 162 206 260 314 365
#     4  12  23  38  64  91 132 165 206 259 312 375
#     4  11  24  39  60  99 125 159 210 264 316 366
#     4  11  20  39  63  90 123 165 206 259 312 368
#     4  12  24  39  63  93 130 160 207 261 321 375
#
# _framework density 21.131885
#
# number of rings (size 3 to 8) (size 9 to 14) (size 15 to 20)
#    0.000    1.250    2.500    4.125    1.750    0.500 
#    2.250    6.250    0.000    0.000    0.000    0.000 
#    0.000    0.000    0.000    0.000    0.000    0.000 
#
# Total GULP energy -198305.293941 kJ/mol
# GULP energy per Si atom -12394.080871 kJ/mol
# Density = 2.108379 g / cm^3
# Si number density = 21.131885 Si / 1000 Ang^3
#
#
#
# Elastic Constant Matrix: (Units=GPa)
#
#
# Indices 1 2 3 4 5 6 
#
# 1 79.2589 8.8011 24.5942 -2.1572 -16.6423 -4.6967
# 2 8.8011 101.8420 26.9875 11.5948 -9.7193 -17.6018
# 3 24.5942 26.9875 103.8363 7.1318 -14.7749 -0.2879
# 4 -2.1572 11.5948 7.1318 34.5474 -5.8098 -6.8476
# 5 -16.6423 -9.7193 -14.7749 -5.8098 25.1087 3.8771
# 6 -4.6967 -17.6018 -0.2879 -6.8476 3.8771 32.2443
#
#
#
# Elastic Compliance Matrix: (Units=1/GPa)
#
#
# Indices 1 2 3 4 5 6 
#
# 1 0.015584 0.000194 -0.002642 0.003411 0.009338 0.001954
# 2 0.000194 0.011941 -0.002746 -0.001963 0.001771 0.005892
# 3 -0.002642 -0.002746 0.011647 -0.001471 0.004098 -0.002585
# 4 0.003411 -0.001963 -0.001471 0.032423 0.007301 0.005420
# 5 0.009338 0.001771 0.004098 0.007301 0.051147 -0.002236
# 6 0.001954 0.005892 -0.002585 0.005420 -0.002236 0.035911
#
#
# Mechanical properties :
#
#
# Convention : Reuss Voigt Hill
#
# Bulk Modulus (GPa) = 34.74191 45.07808 39.91000
# Shear Modulus (GPa) = 27.98959 33.35037 30.66998
#
# Velocity S-wave (km/s) = 3.64334 3.97697 3.81381
# Velocity P-wave (km/s) = 5.84592 6.51663 6.19037
#
# Compressibility (1/GPa) = 0.02878368
#
# Stress axis : x y z
#
# Youngs Moduli (GPa) = 64.16672 83.74501 85.85864
#
# Poissons Ratio (x) = -0.01623 0.22682
# Poissons Ratio (y) = -0.01243 0.23580
# Poissons Ratio (z) = 0.16952 0.22999
#
# Static dielectric constant tensor:
#      x y z
#    x 3.912140 -0.189840 -0.165160 
#    y -0.189840 3.958020 0.395540 
#    z -0.165160 0.395540 3.864170 
# 
# 
# High freq. dielectric constant tensor:
#      x y z
#    x 1.826720 -0.009560 -0.010770 
#    y -0.009560 1.833520 0.028470 
#    z -0.010770 0.028470 1.815880 
# 
# From -- ./inp_files/282733.got.cif
#   From: 2010.06.25/outbox.cif.g09.slc.cpg/sg2_142_cif.got.tgz:282733.got - 2010.06.27 13:26:56.
