data_PCOD8005810
_publ_section_title
;
Structure prediction by ZEFSAII (Michael W. Deem and Ramdas Pophale) SiO2 
 PCOD8005810
Probable space group: P -1
;
_chemical_formula_sum "Si O2"
_cell_formula_units_Z 16
_cell_length_a 15.160460
_cell_length_b 9.491006
_cell_length_c 18.420394
_cell_angle_alpha 55.184370
_cell_angle_beta 149.063695
_cell_angle_gamma 103.986188
_cell_volume 905.117330
_symmetry_space_group_name_H-M "P -1"
_symmetry_group_IT_number 2
_symmetry_cell_setting 'triclinic'
loop_
_space_group_symop_operation_xyz
x,y,z
-x,-y,-z
loop_
_atom_site_type_symbol
_atom_site_label
_atom_site_fract_x
_atom_site_fract_y
_atom_site_fract_z
Si Si1 0.188367 0.625785 0.930549
Si Si2 0.735725 0.171900 0.946152
Si Si3 0.704789 0.705606 0.427222
Si Si4 0.253332 0.253080 0.389722
Si Si5 0.079778 0.079662 0.471921
Si Si6 0.549289 0.549662 0.597663
Si Si7 0.828467 0.264538 0.618066
Si Si8 0.626667 0.188543 0.368717
O O1 0.245807 0.751019 0.985311
O O2 0.385793 0.385185 0.128487
O O3 0.998996 0.626543 0.832513
O O4 0.117167 0.743483 0.768208
O O5 0.535211 0.161952 0.810856
O O6 0.705543 0.333576 0.815702
O O7 0.941385 0.941632 0.139101
O O8 0.695548 0.698564 0.509813
O O9 0.814723 0.816140 0.445700
O O10 0.838912 0.464824 0.563661
O O11 0.335159 0.334575 0.362182
O O12 0.371292 0.001258 0.537813
O O13 0.255470 0.882785 0.604508
O O14 0.000000 0.000000 0.500000
O O15 0.500000 0.500000 0.500000
O O16 0.333010 0.705884 0.443080
O O17 0.750566 0.247755 0.489738
#
# Coordination Sequence:
#
# PCOD8005810 Si02
#       8
#     2   2   2   2   2   2   2   2
#     4  10  20  39  63  84 117 157 190 237 299 349
#     4  11  20  37  61  83 115 164 195 238 290 335
#     4   9  20  38  61  82 120 148 190 236 295 348
#     4  10  21  38  54  87 122 156 201 247 283 328
#     4  10  23  43  64  92 118 139 188 248 293 358
#     4  11  22  38  52  86 126 151 209 255 266 327
#     4  11  20  37  61  83 115 164 195 238 290 335
#     4  10  20  39  63  84 117 157 190 237 299 349
#
# _framework density 17.677265999999999
#
# number of rings (size 3 to 8) (size 9 to 14) (size 15 to 20)
#    0.000    2.000    7.500    0.000    0.000    7.000 
#    0.000    1.250    0.000    0.000    0.000    0.000 
#    0.000    0.000    0.000    0.000    0.000    0.000 
#
# Total GULP energy -198392.781356 kJ/mol
# GULP energy per Si atom -12399.548835 kJ/mol
# Density = 1.763703 g / cm^3
# Si number density = 17.677266 Si / 1000 Ang^3
#
#
#
# Elastic Constant Matrix: (Units=GPa)
#
#
# Indices 1 2 3 4 5 6 
#
# 1 109.2927 63.8315 50.2784 -3.4564 6.2287 27.6839
# 2 63.8315 141.4622 65.4504 1.8892 8.6095 6.3427
# 3 50.2784 65.4504 168.9395 -15.7801 17.5070 4.1032
# 4 -3.4564 1.8892 -15.7801 41.1926 -8.4046 3.9005
# 5 6.2287 8.6095 17.5070 -8.4046 18.9367 -0.4859
# 6 27.6839 6.3427 4.1032 3.9005 -0.4859 31.8017
#
#
#
# Elastic Compliance Matrix: (Units=1/GPa)
#
#
# Indices 1 2 3 4 5 6 
#
# 1 0.017398 -0.006223 -0.002201 0.002165 -0.000254 -0.013889
# 2 -0.006223 0.011047 -0.002602 -0.002735 -0.001684 0.003859
# 3 -0.002201 -0.002602 0.008242 0.002015 -0.004791 0.001051
# 4 0.002165 -0.002735 0.002015 0.028060 0.010997 -0.004873
# 5 -0.000254 -0.001684 -0.004791 0.010997 0.062987 0.000789
# 6 -0.013889 0.003859 0.001051 -0.004873 0.000789 0.043240
#
#
# Mechanical properties :
#
#
# Convention : Reuss Voigt Hill
#
# Bulk Modulus (GPa) = 68.33402 86.53500 77.43451
# Shear Modulus (GPa) = 25.26466 34.39513 29.82990
#
# Velocity S-wave (km/s) = 3.78460 4.41582 4.11234
# Velocity P-wave (km/s) = 7.60513 8.66362 8.15157
#
# Compressibility (1/GPa) = 0.01463400
#
# Stress axis : x y z
#
# Youngs Moduli (GPa) = 57.47862 90.52263 121.33317
#
# Poissons Ratio (x) = 0.56329 0.26707
# Poissons Ratio (y) = 0.35767 0.31577
# Poissons Ratio (z) = 0.12652 0.23558
#
# Static dielectric constant tensor:
#      x y z
#    x 3.029420 -0.070460 0.175140 
#    y -0.070460 3.611490 -0.138700 
#    z 0.175140 -0.138700 3.919880 
# 
# 
# High freq. dielectric constant tensor:
#      x y z
#    x 1.653020 -0.006220 0.005350 
#    y -0.006220 1.700520 0.005020 
#    z 0.005350 0.005020 1.691640 
# 
# From -- ./inp_files/212146.got.cif
#   From: 2010.06.25/outbox.cif.g09.slc.cpg/sg2_107_cif.got.tgz:212146.got - 2010.06.27 13:26:56.
