data_PCOD8005538
_publ_section_title
;
Structure prediction by ZEFSAII (Michael W. Deem and Ramdas Pophale) SiO2 
 PCOD8005538
Probable space group: P -1
;
_chemical_formula_sum "Si O2"
_cell_formula_units_Z 14
_cell_length_a 13.136566
_cell_length_b 11.476240
_cell_length_c 7.413055
_cell_angle_alpha 83.215008
_cell_angle_beta 38.780608
_cell_angle_gamma 68.543465
_cell_volume 624.162713
_symmetry_space_group_name_H-M "P -1"
_symmetry_group_IT_number 2
_symmetry_cell_setting 'triclinic'
loop_
_space_group_symop_operation_xyz
x,y,z
-x,-y,-z
loop_
_atom_site_type_symbol
_atom_site_label
_atom_site_fract_x
_atom_site_fract_y
_atom_site_fract_z
Si Si1 0.239578 0.410783 0.737810
Si Si2 0.862550 0.319965 0.301762
Si Si3 0.749959 0.841878 0.301603
Si Si4 0.368985 0.693451 0.681162
Si Si5 0.488146 0.889293 0.345785
Si Si6 0.774448 0.652405 0.835725
Si Si7 0.149654 0.627073 0.289450
O O1 0.108313 0.549494 0.806266
O O2 0.270785 0.288669 0.582873
O O3 0.429438 0.415633 0.525987
O O4 0.160699 0.382307 0.038019
O O5 0.687452 0.329513 0.436929
O O6 0.830031 0.312923 0.559906
O O7 0.039084 0.194045 0.011090
O O8 0.648759 0.895974 0.240615
O O9 0.652599 0.964409 0.553126
O O10 0.376947 0.832742 0.635979
O O11 0.225980 0.690513 0.022807
O O12 0.587036 0.787367 0.062486
O O13 0.744745 0.531720 0.816343
O O14 0.941057 0.668734 0.510423
#
# Coordination Sequence:
#
# PCOD8005538 Si02
#       7
#     2   2   2   2   2   2   2
#     4  10  20  39  59  88 119 153 195 242 296 342
#     4  12  21  35  65  92 116 149 201 241 294 352
#     4   9  19  35  66  85 107 167 205 227 284 361
#     4  10  23  38  59  87 126 152 186 249 299 340
#     4   9  19  41  60  81 122 161 195 236 293 347
#     4   9  19  36  59  85 123 153 189 244 296 336
#     4  11  21  35  59  96 117 150 193 248 295 338
#
# _framework density 22.430049
#
# number of rings (size 3 to 8) (size 9 to 14) (size 15 to 20)
#    0.000    2.286    4.286    0.857    2.000    1.143 
#    0.000    0.714    0.000    3.429    0.000    1.000 
#    0.000    0.000    0.000    0.000    0.000    0.000 
#
# Total GULP energy -173475.320075 kJ/mol
# GULP energy per Si atom -12391.094291 kJ/mol
# Density = 2.237900 g / cm^3
# Si number density = 22.430049 Si / 1000 Ang^3
#
#
#
# Elastic Constant Matrix: (Units=GPa)
#
#
# Indices 1 2 3 4 5 6 
#
# 1 61.6269 12.8281 22.8992 4.7456 -1.9199 8.5616
# 2 12.8281 102.5252 50.6231 40.0311 -8.2000 4.5765
# 3 22.8992 50.6231 129.6057 11.6953 -5.2929 6.6773
# 4 4.7456 40.0311 11.6953 53.0497 0.8166 1.4452
# 5 -1.9199 -8.2000 -5.2929 0.8166 18.3908 0.9942
# 6 8.5616 4.5765 6.6773 1.4452 0.9942 19.6678
#
#
#
# Elastic Compliance Matrix: (Units=1/GPa)
#
#
# Indices 1 2 3 4 5 6 
#
# 1 0.018345 -0.000305 -0.002641 -0.000658 0.001429 -0.007042
# 2 -0.000305 0.017968 -0.005475 -0.012389 0.007043 -0.001635
# 3 -0.002641 -0.005475 0.010197 0.002149 0.000188 -0.001205
# 4 -0.000658 -0.012389 0.002149 0.027861 -0.006249 0.000708
# 5 0.001429 0.007043 0.000188 -0.006249 0.058256 -0.004810
# 6 -0.007042 -0.001635 -0.001205 0.000708 -0.004810 0.054891
#
#
# Mechanical properties :
#
#
# Convention : Reuss Voigt Hill
#
# Bulk Modulus (GPa) = 33.70721 51.82873 42.76797
# Shear Modulus (GPa) = 23.33728 32.04883 27.69305
#
# Velocity S-wave (km/s) = 3.22910 3.78409 3.51756
# Velocity P-wave (km/s) = 5.38173 6.49996 5.96710
#
# Compressibility (1/GPa) = 0.02966724
#
# Stress axis : x y z
#
# Youngs Moduli (GPa) = 54.50990 55.65306 98.07222
#
# Poissons Ratio (x) = 0.01700 0.25905
# Poissons Ratio (y) = 0.01665 0.53691
# Poissons Ratio (z) = 0.14398 0.30468
#
# Static dielectric constant tensor:
#      x y z
#    x 3.740680 0.261790 -0.080470 
#    y 0.261790 4.160630 0.333590 
#    z -0.080470 0.333590 4.064020 
# 
# 
# High freq. dielectric constant tensor:
#      x y z
#    x 1.858710 0.015130 -0.021700 
#    y 0.015130 1.868200 0.014420 
#    z -0.021700 0.014420 1.878820 
# 
# From -- ./inp_files/307230.got.cif
#   From: 2010.06.25/outbox.cif.g09.slc.cpg/sg2_154_cif.got.tgz:307230.got - 2010.06.27 13:26:56.
