data_PCOD8005947
_publ_section_title
;
Structure prediction by ZEFSAII (Michael W. Deem and Ramdas Pophale) SiO2 
 PCOD8005947
Probable space group: P -1
;
_chemical_formula_sum "Si O2"
_cell_formula_units_Z 16
_cell_length_a 5.331768
_cell_length_b 21.724107
_cell_length_c 5.396255
_cell_angle_alpha 92.728988
_cell_angle_beta 98.321889
_cell_angle_gamma 64.792358
_cell_volume 559.491501
_symmetry_space_group_name_H-M "P -1"
_symmetry_group_IT_number 2
_symmetry_cell_setting 'triclinic'
loop_
_space_group_symop_operation_xyz
x,y,z
-x,-y,-z
loop_
_atom_site_type_symbol
_atom_site_label
_atom_site_fract_x
_atom_site_fract_y
_atom_site_fract_z
Si Si1 0.779486 0.584653 0.093580
Si Si2 0.659144 0.546738 0.568678
Si Si3 0.717350 0.833191 0.261075
Si Si4 0.027525 0.898853 0.564865
Si Si5 0.546444 0.790295 0.747076
Si Si6 0.243840 0.971901 0.228569
Si Si7 0.881753 0.325192 0.924486
Si Si8 0.750278 0.300695 0.400694
O O1 0.863003 0.543779 0.362008
O O2 0.450160 0.634371 0.063502
O O3 0.968343 0.625583 0.092794
O O4 0.821495 0.533604 0.854832
O O5 0.500000 0.500000 0.500000
O O6 0.404231 0.620439 0.543974
O O7 0.997765 0.840563 0.380752
O O8 0.629017 0.807941 0.495189
O O9 0.529755 0.912246 0.159851
O O10 0.743282 0.783642 0.018050
O O11 0.251262 0.853064 0.795691
O O12 0.165119 0.938873 0.442244
O O13 0.743386 0.956765 0.661465
O O14 0.490307 0.723048 0.704558
O O15 0.000000 0.000000 0.000000
O O16 0.923522 0.273621 0.682426
O O17 0.977246 0.286761 0.203587
#
# Coordination Sequence:
#
# PCOD8005947 Si02
#       8
#     2   2   2   2   2   2   2   2
#     4  10  21  40  65  98 131 169 219 276 341 405
#     4  10  21  41  67  97 132 173 223 280 339 406
#     4  11  24  40  66  93 127 170 218 261 331 387
#     4  10  23  40  60  97 122 173 209 270 325 387
#     4  11  24  44  61  92 132 165 220 274 317 406
#     4  10  20  39  64  87 135 159 215 267 321 387
#     4  10  21  42  67  94 132 172 224 274 336 409
#     4  10  22  43  64  91 131 171 218 275 341 397
#
# _framework density 28.597394999999999
#
# number of rings (size 3 to 8) (size 9 to 14) (size 15 to 20)
#    0.000    1.750    1.250    2.250    1.750    0.500 
#   13.500   15.000    0.000    0.000    0.000    0.000 
#    0.000    0.000    0.000    0.000    0.000    0.000 
#
# Total GULP energy -198282.757597 kJ/mol
# GULP energy per Si atom -12392.672350 kJ/mol
# Density = 2.853231 g / cm^3
# Si number density = 28.597395 Si / 1000 Ang^3
#
#
#
# Elastic Constant Matrix: (Units=GPa)
#
#
# Indices 1 2 3 4 5 6 
#
# 1 104.9384 44.4201 68.0405 6.7293 -6.1539 18.4300
# 2 44.4201 141.8149 90.1993 27.0589 2.9120 23.6555
# 3 68.0405 90.1993 256.2395 14.3238 3.7032 -0.3066
# 4 6.7293 27.0589 14.3238 67.6506 -2.3452 18.2726
# 5 -6.1539 2.9120 3.7032 -2.3452 51.1853 3.7928
# 6 18.4300 23.6555 -0.3066 18.2726 3.7928 48.9607
#
#
#
# Elastic Compliance Matrix: (Units=1/GPa)
#
#
# Indices 1 2 3 4 5 6 
#
# 1 0.013083 -0.001705 -0.002991 0.001396 0.002307 -0.004819
# 2 -0.001705 0.010678 -0.003165 -0.002480 -0.000432 -0.003578
# 3 -0.002991 -0.003165 0.005855 -0.000501 -0.000844 0.002944
# 4 0.001396 -0.002480 -0.000501 0.017402 0.001583 -0.005948
# 5 0.002307 -0.000432 -0.000844 0.001583 0.020181 -0.002819
# 6 -0.004819 -0.003578 0.002944 -0.005948 -0.002819 0.026424
#
#
# Mechanical properties :
#
#
# Convention : Reuss Voigt Hill
#
# Bulk Modulus (GPa) = 71.98329 100.92362 86.45345
# Shear Modulus (GPa) = 43.86908 53.58151 48.72530
#
# Velocity S-wave (km/s) = 3.92091 4.33326 4.13223
# Velocity P-wave (km/s) = 6.76195 7.77200 7.28450
#
# Compressibility (1/GPa) = 0.01389211
#
# Stress axis : x y z
#
# Youngs Moduli (GPa) = 76.43764 93.65367 170.80547
#
# Poissons Ratio (x) = 0.15972 0.51082
# Poissons Ratio (y) = 0.13036 0.54064
# Poissons Ratio (z) = 0.22860 0.29643
#
# Static dielectric constant tensor:
#      x y z
#    x 5.670640 -1.006530 0.120060 
#    y -1.006530 6.176050 -0.474750 
#    z 0.120060 -0.474750 6.804550 
# 
# 
# High freq. dielectric constant tensor:
#      x y z
#    x 2.176390 -0.051020 0.012030 
#    y -0.051020 2.202240 -0.004730 
#    z 0.012030 -0.004730 2.196020 
# 
# From -- ./inp_files/10979.got.cif
#   From: 2010.06.25/outbox.cif.g09.slc.cpg/sg2_6_cif.got.tgz:10979.got - 2010.06.27 13:26:56.
