data_PCOD8005963
_publ_section_title
;
Structure prediction by ZEFSAII (Michael W. Deem and Ramdas Pophale) SiO2 
 PCOD8005963
Probable space group: P -1
;
_chemical_formula_sum "Si O2"
_cell_formula_units_Z 16
_cell_length_a 14.038898
_cell_length_b 9.463565
_cell_length_c 6.720834
_cell_angle_alpha 58.537912
_cell_angle_beta 97.126491
_cell_angle_gamma 85.274063
_cell_volume 744.253419
_symmetry_space_group_name_H-M "P -1"
_symmetry_group_IT_number 2
_symmetry_cell_setting 'triclinic'
loop_
_space_group_symop_operation_xyz
x,y,z
-x,-y,-z
loop_
_atom_site_type_symbol
_atom_site_label
_atom_site_fract_x
_atom_site_fract_y
_atom_site_fract_z
Si Si1 0.623311 0.407322 0.826626
Si Si2 0.739162 0.903890 0.439520
Si Si3 0.862485 0.645742 0.396718
Si Si4 0.360476 0.285635 0.144705
Si Si5 0.295839 0.530149 0.596831
Si Si6 0.213049 0.756995 0.736058
Si Si7 0.046806 0.548543 0.778530
Si Si8 0.468671 0.899832 0.882406
O O1 0.592542 0.579191 0.814720
O O2 0.623451 0.451564 0.559625
O O3 0.729600 0.311704 0.997857
O O4 0.543178 0.288945 0.919556
O O5 0.789319 0.815585 0.317523
O O6 0.728938 0.770898 0.711678
O O7 0.805486 0.040121 0.423048
O O8 0.630284 0.996812 0.303074
O O9 0.803151 0.491773 0.532380
O O10 0.893721 0.620204 0.189388
O O11 0.960243 0.637794 0.551758
O O12 0.445438 0.125679 0.241946
O O13 0.321332 0.364633 0.864909
O O14 0.280634 0.695716 0.607585
O O15 0.113185 0.686352 0.746635
O O16 0.000000 0.500000 0.000000
O O17 0.500000 0.000000 0.000000
#
# Coordination Sequence:
#
# PCOD8005963 Si02
#       8
#     2   2   2   2   2   2   2   2
#     4  10  21  41  64  85 125 165 213 257 297 369
#     4  11  23  43  62  89 133 162 201 258 311 370
#     4  10  21  38  64  91 122 158 205 249 300 375
#     4  11  23  40  64  88 123 170 212 256 298 365
#     4  10  20  39  64  90 116 170 215 243 304 365
#     4   9  22  39  62  94 125 162 202 250 316 362
#     4  10  21  39  67  94 121 157 206 255 303 370
#     4  11  25  41  60  93 126 163 211 258 317 353
#
# _framework density 21.498054
#
# number of rings (size 3 to 8) (size 9 to 14) (size 15 to 20)
#    0.000    1.750    1.250    2.250    5.250    1.000 
#    2.250    0.625    0.000    0.000    0.000    0.000 
#    0.000    0.000    0.000    0.000    0.000    0.000 
#
# Total GULP energy -198296.313362 kJ/mol
# GULP energy per Si atom -12393.519585 kJ/mol
# Density = 2.144912 g / cm^3
# Si number density = 21.498054 Si / 1000 Ang^3
#
#
#
# Elastic Constant Matrix: (Units=GPa)
#
#
# Indices 1 2 3 4 5 6 
#
# 1 97.7310 57.9895 31.3503 12.0269 -16.0261 -0.2261
# 2 57.9895 168.3431 41.8836 13.0586 -20.3750 2.5555
# 3 31.3503 41.8836 80.1643 11.4471 -20.7376 5.1479
# 4 12.0269 13.0586 11.4471 24.2658 -4.7304 -1.5025
# 5 -16.0261 -20.3750 -20.7376 -4.7304 29.3560 6.6188
# 6 -0.2261 2.5555 5.1479 -1.5025 6.6188 46.5453
#
#
#
# Elastic Compliance Matrix: (Units=1/GPa)
#
#
# Indices 1 2 3 4 5 6 
#
# 1 0.014035 -0.003636 -0.002356 -0.003315 0.002940 0.000003
# 2 -0.003636 0.008055 -0.002034 -0.001198 0.002105 -0.000573
# 3 -0.002356 -0.002034 0.017904 -0.004446 0.010011 -0.003447
# 4 -0.003315 -0.001198 -0.004446 0.045945 0.001203 0.001853
# 5 0.002940 0.002105 0.010011 0.001203 0.046139 -0.007731
# 6 0.000003 -0.000573 -0.003447 0.001853 -0.007731 0.023056
#
#
# Mechanical properties :
#
#
# Convention : Reuss Voigt Hill
#
# Bulk Modulus (GPa) = 41.76511 67.63169 54.69840
# Shear Modulus (GPa) = 27.90686 34.36776 31.13731
#
# Velocity S-wave (km/s) = 3.60684 4.00264 3.80988
# Velocity P-wave (km/s) = 6.06756 7.27250 6.69718
#
# Compressibility (1/GPa) = 0.02394343
#
# Stress axis : x y z
#
# Youngs Moduli (GPa) = 71.24987 124.14297 55.85239
#
# Poissons Ratio (x) = 0.45135 0.13156
# Poissons Ratio (y) = 0.25905 0.11362
# Poissons Ratio (z) = 0.16783 0.25255
#
# Static dielectric constant tensor:
#      x y z
#    x 4.001150 0.017690 -0.119350 
#    y 0.017690 4.073450 0.145270 
#    z -0.119350 0.145270 3.650660 
# 
# 
# High freq. dielectric constant tensor:
#      x y z
#    x 1.848200 0.001910 -0.002460 
#    y 0.001910 1.850950 0.022960 
#    z -0.002460 0.022960 1.824210 
# 
# From -- ./inp_files/55517.got.cif
#   From: 2010.06.25/outbox.cif.g09.slc.cpg/sg2_28_cif.got.tgz:55517.got - 2010.06.27 13:26:56.
