data_PCOD8005471
_publ_section_title
;
Structure prediction by ZEFSAII (Michael W. Deem and Ramdas Pophale) SiO2 
 PCOD8005471
Probable space group: P -1
;
_chemical_formula_sum "Si O2"
_cell_formula_units_Z 16
_cell_length_a 14.167144
_cell_length_b 8.335683
_cell_length_c 21.482976
_cell_angle_alpha 132.570581
_cell_angle_beta 27.295576
_cell_angle_gamma 133.167953
_cell_volume 830.531594
_symmetry_space_group_name_H-M "P -1"
_symmetry_group_IT_number 2
_symmetry_cell_setting 'triclinic'
loop_
_space_group_symop_operation_xyz
x,y,z
-x,-y,-z
loop_
_atom_site_type_symbol
_atom_site_label
_atom_site_fract_x
_atom_site_fract_y
_atom_site_fract_z
Si Si1 0.554438 0.342724 0.245250
Si Si2 0.752334 0.969459 0.992710
Si Si3 0.798885 0.798269 0.257326
Si Si4 0.381907 0.193715 0.101692
Si Si5 0.507813 0.712429 0.178992
Si Si6 0.085899 0.955261 0.621230
Si Si7 0.551814 0.266226 0.643293
Si Si8 0.197687 0.002248 0.429072
O O1 0.643413 0.175889 0.106354
O O2 0.752516 0.525975 0.208518
O O3 0.422341 0.466391 0.309155
O O4 0.395597 0.212689 0.356288
O O5 0.698582 0.837191 0.054645
O O6 0.002118 0.069558 0.865013
O O7 0.658603 0.805177 0.948049
O O8 0.598854 0.867408 0.358972
O O9 0.827994 0.852227 0.327423
O O10 0.504972 0.448946 0.111305
O O11 0.162673 0.146985 0.254975
O O12 0.500000 0.000000 0.000000
O O13 0.556275 0.808642 0.245906
O O14 0.283179 0.774494 0.308752
O O15 0.211693 0.764325 0.509371
O O16 0.130607 0.048293 0.550116
O O17 0.000000 0.000000 0.500000
#
# Coordination Sequence:
#
# PCOD8005471 Si02
#       8
#     2   2   2   2   2   2   2   2
#     4   9  20  36  61  82 117 155 194 237 289 337
#     4  10  20  39  56  87 118 152 197 239 285 342
#     4   9  20  36  63  81 118 156 193 239 288 344
#     4  11  24  38  61  82 121 155 193 241 290 352
#     4  10  22  37  59  85 119 152 193 240 290 343
#     4  10  22  38  57  87 113 151 196 242 292 341
#     4   9  20  36  60  83 113 151 196 237 291 340
#     4  10  23  37  60  88 120 150 194 242 287 345
#
# _framework density 19.264769999999999
#
# number of rings (size 3 to 8) (size 9 to 14) (size 15 to 20)
#    0.750    1.500    0.000    1.875    7.000    2.000 
#    0.000    0.000    0.000    0.000    0.000    0.000 
#    0.000    0.000    0.000    0.000    0.000    0.000 
#
# Total GULP energy -198232.467113 kJ/mol
# GULP energy per Si atom -12389.529195 kJ/mol
# Density = 1.922092 g / cm^3
# Si number density = 19.264770 Si / 1000 Ang^3
#
#
#
# Elastic Constant Matrix: (Units=GPa)
#
#
# Indices 1 2 3 4 5 6 
#
# 1 83.5796 33.9961 51.0568 -17.6920 0.0533 -2.8134
# 2 33.9961 94.0958 45.8397 -1.6209 0.8128 -1.8049
# 3 51.0568 45.8397 114.2658 -8.9385 5.2356 -8.6657
# 4 -17.6920 -1.6209 -8.9385 17.6674 -5.8427 0.6895
# 5 0.0533 0.8128 5.2356 -5.8427 38.1939 1.9485
# 6 -2.8134 -1.8049 -8.6657 0.6895 1.9485 27.6830
#
#
#
# Elastic Compliance Matrix: (Units=1/GPa)
#
#
# Indices 1 2 3 4 5 6 
#
# 1 0.022000 -0.004345 -0.006814 0.019556 0.004036 -0.000952
# 2 -0.004345 0.014128 -0.004168 -0.005304 -0.000501 -0.000658
# 3 -0.006814 -0.004168 0.013747 -0.001094 -0.002133 0.003516
# 4 0.019556 -0.005304 -0.001094 0.079322 0.012449 -0.001552
# 5 0.004036 -0.000501 -0.002133 0.012449 0.028517 -0.002607
# 6 -0.000952 -0.000658 0.003516 -0.001552 -0.002607 0.037307
#
#
# Mechanical properties :
#
#
# Convention : Reuss Voigt Hill
#
# Bulk Modulus (GPa) = 52.02804 61.52515 56.77660
# Shear Modulus (GPa) = 21.54410 27.44544 24.49477
#
# Velocity S-wave (km/s) = 3.34775 3.77854 3.56965
# Velocity P-wave (km/s) = 6.48141 7.14440 6.82097
#
# Compressibility (1/GPa) = 0.01922040
#
# Stress axis : x y z
#
# Youngs Moduli (GPa) = 45.45547 70.78070 72.74164
#
# Poissons Ratio (x) = 0.30754 0.49568
# Poissons Ratio (y) = 0.19750 0.30320
# Poissons Ratio (z) = 0.30974 0.29502
#
# Static dielectric constant tensor:
#      x y z
#    x 3.498020 -0.089550 0.026740 
#    y -0.089550 3.370010 0.044790 
#    z 0.026740 0.044790 3.651460 
# 
# 
# High freq. dielectric constant tensor:
#      x y z
#    x 1.747800 -0.005740 0.008020 
#    y -0.005740 1.734360 -0.000910 
#    z 0.008020 -0.000910 1.759920 
# 
# From -- ./inp_files/597452.got.cif
#   From: 2010.06.25/outbox.cif.g09.slc.cpg/sg2_299_cif.got.tgz:597452.got - 2010.06.27 13:26:56.
