data_PCOD8005407
_publ_section_title
;
Structure prediction by ZEFSAII (Michael W. Deem and Ramdas Pophale) SiO2 
 PCOD8005407
Probable space group: P -1
;
_chemical_formula_sum "Si O2"
_cell_formula_units_Z 12
_cell_length_a 8.429822
_cell_length_b 8.666254
_cell_length_c 11.954069
_cell_angle_alpha 128.064548
_cell_angle_beta 103.727888
_cell_angle_gamma 54.887947
_cell_volume 553.040101
_symmetry_space_group_name_H-M "P -1"
_symmetry_group_IT_number 2
_symmetry_cell_setting 'triclinic'
loop_
_space_group_symop_operation_xyz
x,y,z
-x,-y,-z
loop_
_atom_site_type_symbol
_atom_site_label
_atom_site_fract_x
_atom_site_fract_y
_atom_site_fract_z
Si Si1 0.027279 0.342041 0.602433
Si Si2 0.238681 0.544672 0.592265
Si Si3 0.601323 0.137044 0.560066
Si Si4 0.341525 0.614420 0.121278
Si Si5 0.851275 0.608845 0.922063
Si Si6 0.931087 0.979553 0.099981
O O1 0.134376 0.445777 0.602849
O O2 0.843804 0.391736 0.518997
O O3 0.953694 0.462523 0.762424
O O4 0.172207 0.058250 0.522857
O O5 0.474697 0.340527 0.535938
O O6 0.205678 0.770721 0.750870
O O7 0.587920 0.266036 0.729904
O O8 0.500000 0.000000 0.500000
O O9 0.335160 0.405032 0.087181
O O10 0.125212 0.813462 0.131318
O O11 0.500000 0.500000 0.000000
O O12 0.796346 0.874570 0.016802
O O13 0.000000 0.500000 0.000000
O O14 0.000000 0.000000 0.000000
#
# Coordination Sequence:
#
# PCOD8005407 Si02
#       6
#     2   2   2   2   2   2
#     4  10  20  41  66  94 135 172 218 270 331 396
#     4  10  20  38  68  98 128 172 221 268 330 394
#     4  10  22  38  65  98 126 173 219 270 332 392
#     4  11  24  43  63  96 135 178 223 272 333 394
#     4  10  24  41  68  97 131 182 221 268 337 397
#     4  11  20  40  69  96 132 177 219 273 331 395
#
# _framework density 21.698245
#
# number of rings (size 3 to 8) (size 9 to 14) (size 15 to 20)
#    0.000    1.667    3.333    1.000    7.000    0.667 
#    0.000    4.167    7.333    0.000    0.000    0.000 
#    0.000    0.000    0.000    0.000    0.000    0.000 
#
# Total GULP energy -148749.698351 kJ/mol
# GULP energy per Si atom -12395.808196 kJ/mol
# Density = 2.164886 g / cm^3
# Si number density = 21.698245 Si / 1000 Ang^3
#
#
#
# Elastic Constant Matrix: (Units=GPa)
#
#
# Indices 1 2 3 4 5 6 
#
# 1 77.0368 39.6223 42.0604 5.8488 20.2069 5.5995
# 2 39.6223 143.6923 71.5131 11.3269 3.8861 -21.8812
# 3 42.0604 71.5131 179.7169 2.1697 20.7508 -6.1835
# 4 5.8488 11.3269 2.1697 43.0629 4.6328 -0.0043
# 5 20.2069 3.8861 20.7508 4.6328 33.0204 6.6896
# 6 5.5995 -21.8812 -6.1835 -0.0043 6.6896 34.0112
#
#
#
# Elastic Compliance Matrix: (Units=1/GPa)
#
#
# Indices 1 2 3 4 5 6 
#
# 1 0.019177 -0.004949 -0.001630 -0.000241 -0.009113 -0.004845
# 2 -0.004949 0.011133 -0.003327 -0.002385 0.002760 0.006829
# 3 -0.001630 -0.003327 0.007685 0.001101 -0.003644 0.000242
# 4 -0.000241 -0.002385 0.001101 0.024207 -0.003540 -0.000595
# 5 -0.009113 0.002760 -0.003644 -0.003540 0.039362 -0.005129
# 6 -0.004845 0.006829 0.000242 -0.000595 -0.005129 0.035646
#
#
# Mechanical properties :
#
#
# Convention : Reuss Voigt Hill
#
# Bulk Modulus (GPa) = 54.99523 78.53751 66.76637
# Shear Modulus (GPa) = 30.65906 38.50226 34.58066
#
# Velocity S-wave (km/s) = 3.76303 4.21698 3.99646
# Velocity P-wave (km/s) = 6.65440 7.74497 7.22030
#
# Compressibility (1/GPa) = 0.01818340
#
# Stress axis : x y z
#
# Youngs Moduli (GPa) = 52.14519 89.82432 130.11598
#
# Poissons Ratio (x) = 0.44453 0.21215
# Poissons Ratio (y) = 0.25806 0.43285
# Poissons Ratio (z) = 0.08502 0.29882
#
# Static dielectric constant tensor:
#      x y z
#    x 4.052900 0.080460 0.344960 
#    y 0.080460 4.509830 0.137250 
#    z 0.344960 0.137250 4.096370 
# 
# 
# High freq. dielectric constant tensor:
#      x y z
#    x 1.837790 0.003080 0.020840 
#    y 0.003080 1.859230 0.001450 
#    z 0.020840 0.001450 1.867440 
# 
# From -- ./inp_files/148199.got.cif
#   From: 2010.06.25/outbox.cif.g09.slc.cpg/sg2_75_cif.got.tgz:148199.got - 2010.06.27 13:26:56.
