data_PCOD8005966
_publ_section_title
;
Structure prediction by ZEFSAII (Michael W. Deem and Ramdas Pophale) SiO2 
 PCOD8005966
Probable space group: P -1
;
_chemical_formula_sum "Si O2"
_cell_formula_units_Z 16
_cell_length_a 26.634507
_cell_length_b 15.078105
_cell_length_c 19.998384
_cell_angle_alpha 28.133652
_cell_angle_beta 17.715155
_cell_angle_gamma 18.792051
_cell_volume 770.752240
_symmetry_space_group_name_H-M "P -1"
_symmetry_group_IT_number 2
_symmetry_cell_setting 'triclinic'
loop_
_space_group_symop_operation_xyz
x,y,z
-x,-y,-z
loop_
_atom_site_type_symbol
_atom_site_label
_atom_site_fract_x
_atom_site_fract_y
_atom_site_fract_z
Si Si1 0.239513 0.081824 0.943347
Si Si2 0.870978 0.396039 0.448656
Si Si3 0.562601 0.519545 0.652852
Si Si4 0.540326 0.627765 0.310861
Si Si5 0.856007 0.310265 0.990945
Si Si6 0.846675 0.649227 0.988787
Si Si7 0.907241 0.046414 0.428823
Si Si8 0.313314 0.137998 0.543245
O O1 0.250884 0.179061 0.934058
O O2 0.524909 0.851021 0.711735
O O3 0.069406 0.320192 0.943790
O O4 0.143519 0.948531 0.160740
O O5 0.675806 0.410170 0.656446
O O6 0.740863 0.706845 0.421982
O O7 0.002994 0.202829 0.474565
O O8 0.063825 0.263768 0.232308
O O9 0.373180 0.505665 0.892744
O O10 0.769159 0.325272 0.461935
O O11 0.449194 0.824281 0.587737
O O12 0.500000 0.500000 0.500000
O O13 0.752532 0.399778 0.138701
O O14 0.621781 0.737978 0.177205
O O15 0.278325 0.885295 0.435595
O O16 0.040076 0.328839 0.731240
O O17 0.000000 0.000000 0.000000
#
# Coordination Sequence:
#
# PCOD8005966 Si02
#       8
#     2   2   2   2   2   2   2   2
#     4  11  22  38  63  90 127 159 209 255 302 368
#     4  12  23  39  65  94 125 158 212 257 310 359
#     4  10  20  39  64  90 119 164 207 249 298 369
#     4  11  22  39  64  91 123 161 208 257 304 366
#     4   9  21  36  59  93 122 155 204 255 300 356
#     4  11  22  39  63  93 119 166 213 251 298 371
#     4  11  24  41  62  96 125 160 204 263 311 359
#     4  11  22  39  63  91 126 163 209 254 298 374
#
# _framework density 20.758941
#
# number of rings (size 3 to 8) (size 9 to 14) (size 15 to 20)
#    0.000    1.250    5.000    1.500    3.500    1.000 
#    0.000    0.000    0.000    1.500    0.000    0.000 
#    0.000    0.000    0.000    0.000    0.000    0.000 
#
# Total GULP energy -198261.499801 kJ/mol
# GULP energy per Si atom -12391.343738 kJ/mol
# Density = 2.071169 g / cm^3
# Si number density = 20.758941 Si / 1000 Ang^3
#
#
#
# Elastic Constant Matrix: (Units=GPa)
#
#
# Indices 1 2 3 4 5 6 
#
# 1 126.6143 29.4439 62.9856 10.1301 -29.3809 -16.2843
# 2 29.4439 50.3735 27.3439 -1.0630 2.3370 -12.6686
# 3 62.9856 27.3439 155.1091 16.3020 -18.7539 -15.5698
# 4 10.1301 -1.0630 16.3020 22.5086 -3.9544 4.6878
# 5 -29.3809 2.3370 -18.7539 -3.9544 35.5411 -1.3048
# 6 -16.2843 -12.6686 -15.5698 4.6878 -1.3048 31.3218
#
#
#
# Elastic Compliance Matrix: (Units=1/GPa)
#
#
# Indices 1 2 3 4 5 6 
#
# 1 0.013815 -0.006195 -0.002415 -0.003888 0.010286 0.004487
# 2 -0.006195 0.026893 -0.003051 0.003790 -0.007885 0.005245
# 3 -0.002415 -0.003051 0.009200 -0.005919 0.002513 0.003074
# 4 -0.003888 0.003790 -0.005919 0.052816 -0.001128 -0.011383
# 5 0.010286 -0.007885 0.002513 -0.001128 0.038548 0.005182
# 6 0.004487 0.005245 0.003074 -0.011383 0.005182 0.039828
#
#
# Mechanical properties :
#
#
# Convention : Reuss Voigt Hill
#
# Bulk Modulus (GPa) = 37.61224 63.51599 50.56411
# Shear Modulus (GPa) = 23.44284 32.02919 27.73602
#
# Velocity S-wave (km/s) = 3.36414 3.93225 3.65924
# Velocity P-wave (km/s) = 5.76609 7.16102 6.50107
#
# Compressibility (1/GPa) = 0.02658709
#
# Stress axis : x y z
#
# Youngs Moduli (GPa) = 72.38535 37.18384 108.69376
#
# Poissons Ratio (x) = 0.23035 0.26251
# Poissons Ratio (y) = 0.44842 0.33159
# Poissons Ratio (z) = 0.17482 0.11344
#
# Static dielectric constant tensor:
#      x y z
#    x 5.881710 -0.019320 -2.086310 
#    y -0.019320 3.398470 0.292990 
#    z -2.086310 0.292990 5.876050 
# 
# 
# High freq. dielectric constant tensor:
#      x y z
#    x 1.825620 0.005350 -0.020800 
#    y 0.005350 1.771300 0.015000 
#    z -0.020800 0.015000 1.823800 
# 
# From -- ./inp_files/335644.got.cif
#   From: 2010.06.25/outbox.cif.g09.slc.cpg/sg2_168_cif.got.tgz:335644.got - 2010.06.27 13:26:56.
