data_PCOD8005481
_publ_section_title
;
Structure prediction by ZEFSAII (Michael W. Deem and Ramdas Pophale) SiO2 
 PCOD8005481
Probable space group: P -1
;
_chemical_formula_sum "Si O2"
_cell_formula_units_Z 16
_cell_length_a 8.898416
_cell_length_b 12.058498
_cell_length_c 20.824593
_cell_angle_alpha 42.928483
_cell_angle_beta 140.221530
_cell_angle_gamma 107.466183
_cell_volume 777.123497
_symmetry_space_group_name_H-M "P -1"
_symmetry_group_IT_number 2
_symmetry_cell_setting 'triclinic'
loop_
_space_group_symop_operation_xyz
x,y,z
-x,-y,-z
loop_
_atom_site_type_symbol
_atom_site_label
_atom_site_fract_x
_atom_site_fract_y
_atom_site_fract_z
Si Si1 0.471078 0.242338 0.562271
Si Si2 0.909973 0.323751 0.358863
Si Si3 0.358901 0.717507 0.831373
Si Si4 0.192113 0.086988 0.678824
Si Si5 0.352442 0.476055 0.178259
Si Si6 0.697770 0.793572 0.815199
Si Si7 0.660690 0.155114 0.802371
Si Si8 0.622300 0.408555 0.426329
O O1 0.638140 0.213556 0.695388
O O2 0.580972 0.326819 0.512206
O O3 0.110949 0.402433 0.381417
O O4 0.530776 0.032296 0.648718
O O5 0.882862 0.233728 0.321858
O O6 0.587236 0.495368 0.210062
O O7 0.087332 0.147209 0.545056
O O8 0.604711 0.730950 0.874145
O O9 0.229081 0.874753 0.783001
O O10 0.500000 0.500000 0.000000
O O11 0.502512 0.048388 0.807826
O O12 0.965394 0.253533 0.585531
O O13 0.357399 0.293003 0.228599
O O14 0.428919 0.414210 0.303637
O O15 0.041170 0.694063 0.976939
O O16 0.480774 0.362971 0.695902
O O17 0.000000 0.000000 0.000000
#
# Coordination Sequence:
#
# PCOD8005481 Si02
#       8
#     2   2   2   2   2   2   2   2
#     4  11  23  39  65  88 127 156 211 253 304 369
#     4   9  20  38  60  85 122 168 194 242 311 370
#     4  11  22  35  63  93 127 163 208 246 308 375
#     4  10  22  42  63  88 126 162 208 253 307 364
#     4   9  21  36  60  87 124 162 204 247 310 368
#     4  10  20  39  57  86 129 166 197 248 319 362
#     4  11  23  44  68  84 121 170 209 252 316 365
#     4  11  24  38  63  97 120 160 216 255 300 358
#
# _framework density 20.588747999999999
#
# number of rings (size 3 to 8) (size 9 to 14) (size 15 to 20)
#    0.000    1.750    2.500    1.875    5.250    3.500 
#    0.000    0.625    0.000    0.000    0.000    0.000 
#    0.000    0.000    0.000    0.000    0.000    0.000 
#
# Total GULP energy -198311.929013 kJ/mol
# GULP energy per Si atom -12394.495563 kJ/mol
# Density = 2.054189 g / cm^3
# Si number density = 20.588748 Si / 1000 Ang^3
#
#
#
# Elastic Constant Matrix: (Units=GPa)
#
#
# Indices 1 2 3 4 5 6 
#
# 1 87.2322 43.7059 52.6127 13.3803 11.6029 0.5167
# 2 43.7059 96.0943 58.1819 5.5116 8.5138 -6.5396
# 3 52.6127 58.1819 97.8852 11.3271 21.3037 7.1585
# 4 13.3803 5.5116 11.3271 44.5268 5.1252 3.3784
# 5 11.6029 8.5138 21.3037 5.1252 28.5575 0.8892
# 6 0.5167 -6.5396 7.1585 3.3784 0.8892 29.9582
#
#
#
# Elastic Compliance Matrix: (Units=1/GPa)
#
#
# Indices 1 2 3 4 5 6 
#
# 1 0.018173 -0.003583 -0.007264 -0.003206 -0.000352 0.001012
# 2 -0.003583 0.018329 -0.010218 0.000544 0.003319 0.006345
# 3 -0.007264 -0.010218 0.023183 -0.000639 -0.010956 -0.007247
# 4 -0.003206 0.000544 -0.000639 0.023993 -0.002618 -0.002301
# 5 -0.000352 0.003319 -0.010956 -0.002618 0.042740 0.002375
# 6 0.001012 0.006345 -0.007247 -0.002301 0.002375 0.036668
#
#
# Mechanical properties :
#
#
# Convention : Reuss Voigt Hill
#
# Bulk Modulus (GPa) = 56.96873 65.57918 61.27395
# Shear Modulus (GPa) = 23.68903 29.05590 26.37246
#
# Velocity S-wave (km/s) = 3.39570 3.76074 3.58287
# Velocity P-wave (km/s) = 6.56539 7.12591 6.85138
#
# Compressibility (1/GPa) = 0.01755349
#
# Stress axis : x y z
#
# Youngs Moduli (GPa) = 55.02685 54.55714 43.13588
#
# Poissons Ratio (x) = 0.19548 0.31336
# Poissons Ratio (y) = 0.19717 0.44077
# Poissons Ratio (z) = 0.39974 0.55747
#
# Static dielectric constant tensor:
#      x y z
#    x 3.838980 -0.090940 0.352620 
#    y -0.090940 3.908570 0.154400 
#    z 0.352620 0.154400 3.702320 
# 
# 
# High freq. dielectric constant tensor:
#      x y z
#    x 1.798340 -0.010290 0.020630 
#    y -0.010290 1.808540 0.011710 
#    z 0.020630 0.011710 1.795270 
# 
# From -- ./inp_files/351852.got.cif
#   From: 2010.06.25/outbox.cif.g09.slc.cpg/sg2_176_cif.got.tgz:351852.got - 2010.06.27 13:26:56.
