data_PCOD8005199
_publ_section_title
;
Structure prediction by ZEFSAII (Michael W. Deem and Ramdas Pophale) SiO2 
 PCOD8005199
Probable space group: P -1
;
_chemical_formula_sum "Si O2"
_cell_formula_units_Z 16
_cell_length_a 13.590475
_cell_length_b 24.668935
_cell_length_c 16.211788
_cell_angle_alpha 157.364532
_cell_angle_beta 145.843343
_cell_angle_gamma 21.088469
_cell_volume 730.097700
_symmetry_space_group_name_H-M "P -1"
_symmetry_group_IT_number 2
_symmetry_cell_setting 'triclinic'
loop_
_space_group_symop_operation_xyz
x,y,z
-x,-y,-z
loop_
_atom_site_type_symbol
_atom_site_label
_atom_site_fract_x
_atom_site_fract_y
_atom_site_fract_z
Si Si1 0.755016 0.323546 0.547904
Si Si2 0.230593 0.105216 0.690110
Si Si3 0.958056 0.364781 0.294341
Si Si4 0.871501 0.743105 0.982841
Si Si5 0.780043 0.941983 0.817237
Si Si6 0.581658 0.602924 0.226318
Si Si7 0.183351 0.771431 0.724838
Si Si8 0.338483 0.934003 0.846141
O O1 0.430520 0.574814 0.685221
O O2 0.821082 0.309919 0.478161
O O3 0.788128 0.140868 0.339879
O O4 0.969420 0.280765 0.691696
O O5 0.107709 0.228383 0.866537
O O6 0.476468 0.057482 0.765169
O O7 0.343730 0.872772 0.439610
O O8 0.666191 0.518202 0.261340
O O9 0.000000 0.500000 0.500000
O O10 0.980636 0.309950 0.329170
O O11 0.215089 0.119267 0.087338
O O12 0.740264 0.962448 0.154451
O O13 0.673313 0.731549 0.812055
O O14 0.168210 0.509236 0.820056
O O15 0.884225 0.921355 0.769601
O O16 0.772874 0.091500 0.074714
O O17 0.500000 0.500000 0.000000
#
# Coordination Sequence:
#
# PCOD8005199 Si02
#       8
#     2   2   2   2   2   2   2   2
#     4  11  24  44  67  93 128 178 223 283 334 378
#     4  12  24  43  67 101 138 172 219 285 331 396
#     4  11  19  38  66  95 131 173 209 268 330 410
#     4  10  22  39  63  99 136 180 211 262 343 403
#     4  11  23  44  69  98 131 171 232 273 325 400
#     4  11  25  38  61 103 141 173 212 265 338 401
#     4  10  25  45  68  93 125 183 231 274 326 396
#     4  10  20  38  65  92 135 173 221 264 320 413
#
# _framework density 21.914874000000001
#
# number of rings (size 3 to 8) (size 9 to 14) (size 15 to 20)
#    0.000    1.250    3.750    1.500    1.750    6.000 
#    2.250    0.000    0.000    0.000    0.000    0.000 
#    0.000    0.000    0.000    0.000    0.000    0.000 
#
# Total GULP energy -198276.569069 kJ/mol
# GULP energy per Si atom -12392.285567 kJ/mol
# Density = 2.186500 g / cm^3
# Si number density = 21.914874 Si / 1000 Ang^3
#
#
#
# Elastic Constant Matrix: (Units=GPa)
#
#
# Indices 1 2 3 4 5 6 
#
# 1 79.8298 38.2792 20.3832 -11.4256 3.8793 2.7570
# 2 38.2792 111.2083 9.4500 -18.5783 -4.3569 20.4191
# 3 20.3832 9.4500 63.9087 -5.6119 10.3421 5.7573
# 4 -11.4256 -18.5783 -5.6119 35.6903 -2.8053 -3.2993
# 5 3.8793 -4.3569 10.3421 -2.8053 34.7701 -1.3345
# 6 2.7570 20.4191 5.7573 -3.2993 -1.3345 31.8496
#
#
#
# Elastic Compliance Matrix: (Units=1/GPa)
#
#
# Indices 1 2 3 4 5 6 
#
# 1 0.016557 -0.005619 -0.004408 0.001895 -0.000968 0.003122
# 2 -0.005619 0.013097 0.000577 0.004593 0.002181 -0.007448
# 3 -0.004408 0.000577 0.018153 0.001049 -0.004880 -0.003365
# 4 0.001895 0.004593 0.001049 0.031390 0.002587 0.000062
# 5 -0.000968 0.002181 -0.004880 0.002587 0.030845 0.001128
# 6 0.003122 -0.007448 -0.003365 0.000062 0.001128 0.036564
#
#
# Mechanical properties :
#
#
# Convention : Reuss Voigt Hill
#
# Bulk Modulus (GPa) = 34.59445 43.46353 39.02899
# Shear Modulus (GPa) = 28.54808 32.91763 30.73285
#
# Velocity S-wave (km/s) = 3.61318 3.87986 3.74889
# Velocity P-wave (km/s) = 5.76428 6.32036 6.04871
#
# Compressibility (1/GPa) = 0.02890637
#
# Stress axis : x y z
#
# Youngs Moduli (GPa) = 60.39742 76.35076 55.08748
#
# Poissons Ratio (x) = 0.42902 0.24283
# Poissons Ratio (y) = 0.33938 -0.03177
# Poissons Ratio (z) = 0.26624 -0.04403
#
# Static dielectric constant tensor:
#      x y z
#    x 4.009860 0.002040 -0.042250 
#    y 0.002040 3.942720 0.017850 
#    z -0.042250 0.017850 4.033740 
# 
# 
# High freq. dielectric constant tensor:
#      x y z
#    x 1.861700 0.000840 -0.001120 
#    y 0.000840 1.852910 -0.003620 
#    z -0.001120 -0.003620 1.864290 
# 
# From -- ./inp_files/539412.got.cif
#   From: 2010.06.25/outbox.cif.g09.slc.cpg/sg2_270_cif.got.tgz:539412.got - 2010.06.27 13:26:56.
