data_PCOD8005339
_publ_section_title
;
Structure prediction by ZEFSAII (Michael W. Deem and Ramdas Pophale) SiO2 
 PCOD8005339
Probable space group: P -1
;
_chemical_formula_sum "Si O2"
_cell_formula_units_Z 16
_cell_length_a 9.832535
_cell_length_b 9.030064
_cell_length_c 14.716478
_cell_angle_alpha 46.617819
_cell_angle_beta 66.977456
_cell_angle_gamma 68.047404
_cell_volume 863.140953
_symmetry_space_group_name_H-M "P -1"
_symmetry_group_IT_number 2
_symmetry_cell_setting 'triclinic'
loop_
_space_group_symop_operation_xyz
x,y,z
-x,-y,-z
loop_
_atom_site_type_symbol
_atom_site_label
_atom_site_fract_x
_atom_site_fract_y
_atom_site_fract_z
Si Si1 0.596494 0.598010 0.006983
Si Si2 0.241810 0.047695 0.266322
Si Si3 0.922507 0.567791 0.398885
Si Si4 0.928558 0.047110 0.817241
Si Si5 0.627036 0.411593 0.572582
Si Si6 0.087853 0.613531 0.001295
Si Si7 0.354317 0.634790 0.203381
Si Si8 0.868612 0.611258 0.726411
O O1 0.650484 0.806577 0.869205
O O2 0.500000 0.500000 0.000000
O O3 0.739801 0.421524 0.064059
O O4 0.500409 0.661472 0.095978
O O5 0.173730 0.150685 0.333986
O O6 0.103311 0.019985 0.248560
O O7 0.330683 0.827533 0.363010
O O8 0.750257 0.554307 0.458252
O O9 0.000000 0.500000 0.500000
O O10 0.951008 0.798236 0.274036
O O11 0.991718 0.411329 0.368074
O O12 0.767868 0.154105 0.855275
O O13 0.009100 0.849372 0.934048
O O14 0.500000 0.500000 0.500000
O O15 0.589214 0.427720 0.683050
O O16 0.082841 0.522529 0.140914
O O17 0.000000 0.500000 0.000000
O O18 0.275961 0.454614 0.256781
#
# Coordination Sequence:
#
# PCOD8005339 Si02
#       8
#     2   2   2   2   2   2   2   2
#     4  11  21  38  65  93 126 165 193 250 322 371
#     4  10  20  40  64  88 125 159 201 250 315 358
#     4  11  21  42  64  83 119 169 208 247 301 361
#     4  10  21  39  65  92 126 161 204 256 304 362
#     4  11  25  44  59  90 125 155 213 264 290 361
#     4  11  21  38  61  98 130 145 207 262 294 367
#     4  10  21  41  64  88 128 166 201 248 321 364
#     4  10  20  38  67  89 121 161 202 248 311 363
#
# _framework density 18.536949
#
# number of rings (size 3 to 8) (size 9 to 14) (size 15 to 20)
#    0.000    1.500    8.750    0.000    0.000    6.500 
#    2.250    0.625    0.000    0.000    0.000    0.000 
#    0.000    0.000    0.000    0.000    0.000    0.000 
#
# Total GULP energy -198316.613493 kJ/mol
# GULP energy per Si atom -12394.788343 kJ/mol
# Density = 1.849476 g / cm^3
# Si number density = 18.536949 Si / 1000 Ang^3
#
#
#
# Elastic Constant Matrix: (Units=GPa)
#
#
# Indices 1 2 3 4 5 6 
#
# 1 132.5521 53.6019 49.5352 4.5571 7.7381 -3.3757
# 2 53.6019 134.5371 56.7778 7.7018 8.1167 5.4978
# 3 49.5352 56.7778 92.5463 9.1893 6.0074 -8.0177
# 4 4.5571 7.7018 9.1893 34.4148 -3.7945 1.3005
# 5 7.7381 8.1167 6.0074 -3.7945 39.1052 -0.7909
# 6 -3.3757 5.4978 -8.0177 1.3005 -0.7909 34.1693
#
#
#
# Elastic Compliance Matrix: (Units=1/GPa)
#
#
# Indices 1 2 3 4 5 6 
#
# 1 0.009975 -0.002331 -0.003824 0.000108 -0.000883 0.000439
# 2 -0.002331 0.010981 -0.005644 -0.000635 -0.001080 -0.003322
# 3 -0.003824 -0.005644 0.017079 -0.003065 -0.000899 0.004634
# 4 0.000108 -0.000635 -0.003065 0.030453 0.003502 -0.001684
# 5 -0.000883 -0.001080 -0.000899 0.003502 0.026456 0.000355
# 6 0.000439 -0.003322 0.004634 -0.001684 0.000355 0.031003
#
#
# Mechanical properties :
#
#
# Convention : Reuss Voigt Hill
#
# Bulk Modulus (GPa) = 69.26917 75.49617 72.38267
# Shear Modulus (GPa) = 32.39224 34.85258 33.62241
#
# Velocity S-wave (km/s) = 4.18478 4.34079 4.26350
# Velocity P-wave (km/s) = 7.79738 8.12029 7.96047
#
# Compressibility (1/GPa) = 0.01443644
#
# Stress axis : x y z
#
# Youngs Moduli (GPa) = 100.25005 91.06920 58.55151
#
# Poissons Ratio (x) = 0.21229 0.22392
# Poissons Ratio (y) = 0.23369 0.33044
# Poissons Ratio (z) = 0.38340 0.51396
#
# Static dielectric constant tensor:
#      x y z
#    x 3.183800 -0.122330 0.155040 
#    y -0.122330 3.371730 0.137680 
#    z 0.155040 0.137680 3.336320 
# 
# 
# High freq. dielectric constant tensor:
#      x y z
#    x 1.720010 0.012720 -0.001980 
#    y 0.012720 1.733440 0.004190 
#    z -0.001980 0.004190 1.705540 
# 
# From -- ./inp_files/206280.got.cif
#   From: 2010.06.25/outbox.cif.g09.slc.cpg/sg2_104_cif.got.tgz:206280.got - 2010.06.27 13:26:56.
