data_PCOD8005899
_publ_section_title
;
Structure prediction by ZEFSAII (Michael W. Deem and Ramdas Pophale) SiO2 
 PCOD8005899
Probable space group: P -1
;
_chemical_formula_sum "Si O2"
_cell_formula_units_Z 16
_cell_length_a 9.775708
_cell_length_b 15.895471
_cell_length_c 8.841414
_cell_angle_alpha 100.743125
_cell_angle_beta 111.490334
_cell_angle_gamma 35.741946
_cell_volume 731.010003
_symmetry_space_group_name_H-M "P -1"
_symmetry_group_IT_number 2
_symmetry_cell_setting 'triclinic'
loop_
_space_group_symop_operation_xyz
x,y,z
-x,-y,-z
loop_
_atom_site_type_symbol
_atom_site_label
_atom_site_fract_x
_atom_site_fract_y
_atom_site_fract_z
Si Si1 0.191438 0.206154 0.868275
Si Si2 0.604255 0.172053 0.365645
Si Si3 0.049013 0.975822 0.275038
Si Si4 0.187945 0.740067 0.125793
Si Si5 0.531770 0.461225 0.324207
Si Si6 0.003746 0.809911 0.750791
Si Si7 0.581315 0.915415 0.764099
Si Si8 0.159350 0.484929 0.173601
O O1 0.008762 0.211561 0.821717
O O2 0.054778 0.352807 0.783261
O O3 0.415202 0.075038 0.802280
O O4 0.287754 0.187586 0.068185
O O5 0.775628 0.135056 0.549337
O O6 0.582884 0.082647 0.373476
O O7 0.324847 0.347309 0.306186
O O8 0.751784 0.110813 0.244713
O O9 0.129367 0.869143 0.145384
O O10 0.106047 0.042814 0.259540
O O11 0.463389 0.579576 0.241347
O O12 0.166559 0.721332 0.938626
O O13 0.500000 0.500000 0.500000
O O14 0.824803 0.298530 0.359036
O O15 0.361544 0.461947 0.190019
O O16 0.767306 0.858227 0.687971
O O17 0.000000 0.500000 0.000000
#
# Coordination Sequence:
#
# PCOD8005899 Si02
#       8
#     2   2   2   2   2   2   2   2
#     4   9  19  35  63  95 123 174 213 268 322 399
#     4  11  22  39  65  93 135 177 228 268 332 405
#     4  11  23  40  64  97 133 178 224 279 331 396
#     4  10  21  40  65  95 133 169 225 275 328 398
#     4  11  24  43  69 100 135 178 226 277 345 409
#     4  11  24  41  67  98 132 176 223 281 335 393
#     4  10  20  39  63  93 132 167 222 268 331 394
#     4  11  21  38  67 100 127 170 228 275 323 398
#
# _framework density 21.887526000000001
#
# number of rings (size 3 to 8) (size 9 to 14) (size 15 to 20)
#    0.000    1.500    3.750    1.500    1.750    0.500 
#    2.250    0.000    0.000    2.250    0.000    0.000 
#    0.000    0.000    0.000    0.000    0.000    0.000 
#
# Total GULP energy -198252.145447 kJ/mol
# GULP energy per Si atom -12390.759090 kJ/mol
# Density = 2.183771 g / cm^3
# Si number density = 21.887526 Si / 1000 Ang^3
#
#
#
# Elastic Constant Matrix: (Units=GPa)
#
#
# Indices 1 2 3 4 5 6 
#
# 1 95.9541 35.1381 23.1619 10.8313 7.9259 -2.7131
# 2 35.1381 127.4859 31.1956 -2.5836 -0.8294 5.7441
# 3 23.1619 31.1956 53.4212 0.5576 3.8574 -2.2422
# 4 10.8313 -2.5836 0.5576 33.4389 -1.1513 -3.4504
# 5 7.9259 -0.8294 3.8574 -1.1513 26.2560 -1.5096
# 6 -2.7131 5.7441 -2.2422 -3.4504 -1.5096 33.9508
#
#
#
# Elastic Compliance Matrix: (Units=1/GPa)
#
#
# Indices 1 2 3 4 5 6 
#
# 1 0.013200 -0.002878 -0.003701 -0.004494 -0.003690 0.000677
# 2 -0.002878 0.009945 -0.004793 0.001640 0.001845 -0.001980
# 3 -0.003701 -0.004793 0.023369 0.000566 -0.002327 0.002013
# 4 -0.004494 0.001640 0.000566 0.031863 0.002881 0.002767
# 5 -0.003690 0.001845 -0.002327 0.002881 0.039802 0.001302
# 6 0.000677 -0.001980 0.002013 0.002767 0.001302 0.030316
#
#
# Mechanical properties :
#
#
# Convention : Reuss Voigt Hill
#
# Bulk Modulus (GPa) = 42.06918 50.65026 46.35972
# Shear Modulus (GPa) = 27.90793 31.22017 29.56405
#
# Velocity S-wave (km/s) = 3.57467 3.78086 3.67921
# Velocity P-wave (km/s) = 6.02495 6.50009 6.26703
#
# Compressibility (1/GPa) = 0.02377037
#
# Stress axis : x y z
#
# Youngs Moduli (GPa) = 75.75687 100.55749 42.79175
#
# Poissons Ratio (x) = 0.28943 0.15836
# Poissons Ratio (y) = 0.21805 0.20509
# Poissons Ratio (z) = 0.28035 0.48194
#
# Static dielectric constant tensor:
#      x y z
#    x 3.779850 0.073530 0.239010 
#    y 0.073530 4.167240 -0.184750 
#    z 0.239010 -0.184750 3.728660 
# 
# 
# High freq. dielectric constant tensor:
#      x y z
#    x 1.840170 0.013630 0.019580 
#    y 0.013630 1.875700 -0.012890 
#    z 0.019580 -0.012890 1.839920 
# 
# From -- ./inp_files/207875.got.cif
#   From: 2010.06.25/outbox.cif.g09.slc.cpg/sg2_104_cif.got.tgz:207875.got - 2010.06.27 13:26:56.
