data_PCOD8005904
_publ_section_title
;
Structure prediction by ZEFSAII (Michael W. Deem and Ramdas Pophale) SiO2 
 PCOD8005904
Probable space group: P -1
;
_chemical_formula_sum "Si O2"
_cell_formula_units_Z 14
_cell_length_a 12.020387
_cell_length_b 12.674427
_cell_length_c 12.027541
_cell_angle_alpha 88.914734
_cell_angle_beta 51.463912
_cell_angle_gamma 132.058126
_cell_volume 702.436204
_symmetry_space_group_name_H-M "P -1"
_symmetry_group_IT_number 2
_symmetry_cell_setting 'triclinic'
loop_
_space_group_symop_operation_xyz
x,y,z
-x,-y,-z
loop_
_atom_site_type_symbol
_atom_site_label
_atom_site_fract_x
_atom_site_fract_y
_atom_site_fract_z
Si Si1 0.875815 0.443856 0.958017
Si Si2 0.788179 0.620371 0.536181
Si Si3 0.183573 0.012833 0.874745
Si Si4 0.297523 0.467252 0.834840
Si Si5 0.558531 0.923219 0.915124
Si Si6 0.364130 0.632196 0.565361
Si Si7 0.300375 0.637334 0.282002
O O1 0.122730 0.569030 0.713479
O O2 0.787799 0.510563 0.009994
O O3 0.595186 0.190631 0.107011
O O4 0.000000 0.500000 0.000000
O O5 0.566439 0.570358 0.701280
O O6 0.704439 0.501557 0.480456
O O7 0.770990 0.533105 0.656387
O O8 0.101574 0.875022 0.318108
O O9 0.331425 0.114824 0.658853
O O10 0.438878 0.162912 0.801935
O O11 0.000000 0.000000 0.000000
O O12 0.980883 0.781220 0.018777
O O13 0.393163 0.597319 0.666965
O O14 0.414790 0.740088 0.086191
O O15 0.500000 0.000000 0.000000
O O16 0.000000 0.500000 0.500000
#
# Coordination Sequence:
#
# PCOD8005904 Si02
#       7
#     2   2   2   2   2   2   2
#     4  10  24  43  62  95 130 164 213 262 321 385
#     4  11  22  37  64  94 123 164 217 263 309 374
#     4  11  22  37  66  98 127 165 218 260 319 374
#     4  11  23  39  62  92 134 165 206 272 314 371
#     4  12  22  40  68  89 121 175 210 255 322 376
#     4  10  20  39  63  94 125 166 215 257 308 383
#     4  11  22  37  61 100 124 157 221 269 298 378
#
# _framework density 19.930636
#
# number of rings (size 3 to 8) (size 9 to 14) (size 15 to 20)
#    0.000    1.143    5.714    2.143    4.000    1.143 
#    0.000    3.571    0.000    0.000    0.000    0.000 
#    0.000    0.000    0.000    0.000    0.000    0.000 
#
# Total GULP energy -173527.357475 kJ/mol
# GULP energy per Si atom -12394.811248 kJ/mol
# Density = 1.988527 g / cm^3
# Si number density = 19.930636 Si / 1000 Ang^3
#
#
#
# Elastic Constant Matrix: (Units=GPa)
#
#
# Indices 1 2 3 4 5 6 
#
# 1 112.2436 39.4232 57.7977 -0.4098 -17.3331 -13.0515
# 2 39.4232 92.8686 34.6636 8.2457 -21.0330 -2.0273
# 3 57.7977 34.6636 136.2076 -14.6224 -18.8759 -14.0946
# 4 -0.4098 8.2457 -14.6224 31.6414 -7.8717 -16.4936
# 5 -17.3331 -21.0330 -18.8759 -7.8717 53.1780 2.9049
# 6 -13.0515 -2.0273 -14.0946 -16.4936 2.9049 31.5931
#
#
#
# Elastic Compliance Matrix: (Units=1/GPa)
#
#
# Indices 1 2 3 4 5 6 
#
# 1 0.012874 -0.003909 -0.003549 0.002279 0.001480 0.004538
# 2 -0.003909 0.014856 -0.003371 -0.008380 0.002535 -0.006774
# 3 -0.003549 -0.003371 0.012629 0.012913 0.003337 0.010386
# 4 0.002279 -0.008380 0.012913 0.061580 0.009080 0.037479
# 5 0.001480 0.002535 0.003337 0.009080 0.022549 0.004930
# 6 0.004538 -0.006774 0.010386 0.037479 0.004930 0.056839
#
#
# Mechanical properties :
#
#
# Convention : Reuss Voigt Hill
#
# Bulk Modulus (GPa) = 53.47264 67.23209 60.35237
# Shear Modulus (GPa) = 23.89846 37.24486 30.57166
#
# Velocity S-wave (km/s) = 3.46653 4.32756 3.92076
# Velocity P-wave (km/s) = 6.55058 7.66660 7.13045
#
# Compressibility (1/GPa) = 0.01870115
#
# Stress axis : x y z
#
# Youngs Moduli (GPa) = 77.67637 67.31401 79.18216
#
# Poissons Ratio (x) = 0.26310 0.28100
# Poissons Ratio (y) = 0.30360 0.26696
# Poissons Ratio (z) = 0.27566 0.22695
#
# Static dielectric constant tensor:
#      x y z
#    x 3.840420 -0.213980 -0.113510 
#    y -0.213980 4.055130 -0.127610 
#    z -0.113510 -0.127610 4.307330 
# 
# 
# High freq. dielectric constant tensor:
#      x y z
#    x 1.782090 -0.005710 -0.015060 
#    y -0.005710 1.755820 -0.008490 
#    z -0.015060 -0.008490 1.792120 
# 
# From -- ./inp_files/425329.got.cif
#   From: 2010.06.25/outbox.cif.g09.slc.cpg/sg2_213_cif.got.tgz:425329.got - 2010.06.27 13:26:56.
