data_PCOD8005174
_publ_section_title
;
Structure prediction by ZEFSAII (Michael W. Deem and Ramdas Pophale) SiO2 
 PCOD8005174
Probable space group: P -1
;
_chemical_formula_sum "Si O2"
_cell_formula_units_Z 16
_cell_length_a 18.060767
_cell_length_b 14.908900
_cell_length_c 8.733023
_cell_angle_alpha 117.609573
_cell_angle_beta 101.789497
_cell_angle_gamma 25.467428
_cell_volume 741.188380
_symmetry_space_group_name_H-M "P -1"
_symmetry_group_IT_number 2
_symmetry_cell_setting 'triclinic'
loop_
_space_group_symop_operation_xyz
x,y,z
-x,-y,-z
loop_
_atom_site_type_symbol
_atom_site_label
_atom_site_fract_x
_atom_site_fract_y
_atom_site_fract_z
Si Si1 0.937246 0.583602 0.365143
Si Si2 0.197625 0.812340 0.379648
Si Si3 0.863774 0.205452 0.962354
Si Si4 0.261646 0.328373 0.831293
Si Si5 0.913036 0.900200 0.207841
Si Si6 0.573149 0.206268 0.122307
Si Si7 0.349953 0.098788 0.963930
Si Si8 0.467081 0.824976 0.254084
O O1 0.867450 0.555599 0.273623
O O2 0.000000 0.500000 0.500000
O O3 0.740567 0.906565 0.517508
O O4 0.128919 0.379769 0.180249
O O5 0.201725 0.805855 0.189149
O O6 0.385963 0.517314 0.302667
O O7 0.195129 0.929478 0.542643
O O8 0.000000 0.000000 0.500000
O O9 0.012762 0.093178 0.843851
O O10 0.649588 0.530460 0.178387
O O11 0.000000 0.000000 0.000000
O O12 0.321447 0.153450 0.814484
O O13 0.455013 0.156059 0.723480
O O14 0.114992 0.580901 0.077695
O O15 0.769610 0.017443 0.125497
O O16 0.535723 0.151011 0.161282
O O17 0.605890 0.133658 0.903204
O O18 0.500000 0.000000 0.000000
#
# Coordination Sequence:
#
# PCOD8005174 Si02
#       8
#     2   2   2   2   2   2   2   2
#     4  12  22  40  62  93 129 170 215 255 321 393
#     4   9  20  38  63  90 117 161 211 256 316 380
#     4   9  20  41  65  89 128 165 209 268 318 376
#     4  11  22  41  63  94 129 167 210 268 317 373
#     4  10  20  38  65  90 124 166 208 262 323 374
#     4  11  20  40  65  89 127 165 213 258 327 375
#     4  12  24  40  64  94 132 168 214 269 317 376
#     4  10  21  40  66  92 128 171 211 259 329 388
#
# _framework density 21.586957000000002
#
# number of rings (size 3 to 8) (size 9 to 14) (size 15 to 20)
#    0.000    1.500    3.750    1.875    0.000    0.000 
#    4.500    7.500    0.000    0.000    0.000    0.000 
#    0.000    0.000    0.000    0.000    0.000    0.000 
#
# Total GULP energy -198257.929194 kJ/mol
# GULP energy per Si atom -12391.120575 kJ/mol
# Density = 2.153782 g / cm^3
# Si number density = 21.586957 Si / 1000 Ang^3
#
#
#
# Elastic Constant Matrix: (Units=GPa)
#
#
# Indices 1 2 3 4 5 6 
#
# 1 59.1050 26.4096 22.0091 -5.7829 17.6552 -20.4459
# 2 26.4096 110.2719 24.7361 -6.2788 8.6939 4.8509
# 3 22.0091 24.7361 66.9870 6.2228 15.5954 -5.3027
# 4 -5.7829 -6.2788 6.2228 37.5917 -8.2897 2.2803
# 5 17.6552 8.6939 15.5954 -8.2897 32.7514 1.5700
# 6 -20.4459 4.8509 -5.3027 2.2803 1.5700 45.7371
#
#
#
# Elastic Compliance Matrix: (Units=1/GPa)
#
#
# Indices 1 2 3 4 5 6 
#
# 1 0.029664 -0.005883 -0.003383 0.000340 -0.013400 0.013935
# 2 -0.005883 0.011379 -0.003456 0.002415 0.002621 -0.004448
# 3 -0.003383 -0.003456 0.020031 -0.006397 -0.008502 0.001787
# 4 0.000340 0.002415 -0.006397 0.030502 0.010072 -0.002712
# 5 -0.013400 0.002621 -0.008502 0.010072 0.044103 -0.009270
# 6 0.013935 -0.004448 0.001787 -0.002712 -0.009270 0.029226
#
#
# Mechanical properties :
#
#
# Convention : Reuss Voigt Hill
#
# Bulk Modulus (GPa) = 28.06494 42.51928 35.29211
# Shear Modulus (GPa) = 24.72498 34.09666 29.41082
#
# Velocity S-wave (km/s) = 3.38800 3.97861 3.69512
# Velocity P-wave (km/s) = 5.32295 6.39103 5.88129
#
# Compressibility (1/GPa) = 0.03563165
#
# Stress axis : x y z
#
# Youngs Moduli (GPa) = 33.71093 87.88020 49.92287
#
# Poissons Ratio (x) = 0.51697 0.16888
# Poissons Ratio (y) = 0.19831 0.17252
# Poissons Ratio (z) = 0.11404 0.30369
#
# Static dielectric constant tensor:
#      x y z
#    x 4.050530 -0.310300 0.304770 
#    y -0.310300 4.816040 -0.346260 
#    z 0.304770 -0.346260 4.293620 
# 
# 
# High freq. dielectric constant tensor:
#      x y z
#    x 1.826420 -0.022670 0.023240 
#    y -0.022670 1.861580 0.009010 
#    z 0.023240 0.009010 1.850120 
# 
# From -- ./inp_files/335499.got.cif
#   From: 2010.06.25/outbox.cif.g09.slc.cpg/sg2_168_cif.got.tgz:335499.got - 2010.06.27 13:26:56.
