data_PCOD8005130
_publ_section_title
;
Structure prediction by ZEFSAII (Michael W. Deem and Ramdas Pophale) SiO2 
 PCOD8005130
Probable space group: P -1
;
_chemical_formula_sum "Si O2"
_cell_formula_units_Z 14
_cell_length_a 5.657309
_cell_length_b 4.973207
_cell_length_c 21.150308
_cell_angle_alpha 99.491739
_cell_angle_beta 119.328486
_cell_angle_gamma 94.117642
_cell_volume 503.569393
_symmetry_space_group_name_H-M "P -1"
_symmetry_group_IT_number 2
_symmetry_cell_setting 'triclinic'
loop_
_space_group_symop_operation_xyz
x,y,z
-x,-y,-z
loop_
_atom_site_type_symbol
_atom_site_label
_atom_site_fract_x
_atom_site_fract_y
_atom_site_fract_z
Si Si1 0.225638 0.261830 0.055412
Si Si2 0.030092 0.580820 0.653287
Si Si3 0.307227 0.049000 0.316474
Si Si4 0.756912 0.607627 0.208323
Si Si5 0.840958 0.634616 0.079815
Si Si6 0.639358 0.973947 0.814495
Si Si7 0.856546 0.958779 0.412712
O O1 0.072050 0.489424 0.073007
O O2 0.443184 0.209508 0.138186
O O3 0.368820 0.341805 0.006861
O O4 0.000000 0.000000 0.000000
O O5 0.227929 0.635036 0.745133
O O6 0.131504 0.748990 0.610262
O O7 0.748873 0.689455 0.639276
O O8 0.002917 0.255704 0.618913
O O9 0.413546 0.177205 0.266551
O O10 0.525094 0.882814 0.373478
O O11 0.044789 0.810308 0.262832
O O12 0.707596 0.506628 0.123926
O O13 0.508024 0.761273 0.198558
O O14 0.026234 0.934233 0.132824
O O15 0.000000 0.000000 0.500000
#
# Coordination Sequence:
#
# PCOD8005130 Si02
#       7
#     2   2   2   2   2   2   2
#     4   9  18  37  58  88 132 183 231 290 352 408
#     4  12  25  48  72 109 142 186 240 282 361 426
#     4  11  24  45  74 101 148 183 237 297 347 423
#     4  11  23  42  67 105 135 187 242 290 353 422
#     4   9  20  36  61  91 133 182 233 294 351 413
#     4  10  20  38  64  96 136 182 235 294 351 413
#     4  12  29  50  76 109 146 186 234 292 357 431
#
# _framework density 27.801531000000001
#
# number of rings (size 3 to 8) (size 9 to 14) (size 15 to 20)
#    0.000    1.429    2.857    1.286    2.000    4.000 
#    0.000    6.429    0.000    0.000    0.000    0.000 
#    0.000    0.000    0.000    0.000    0.000    0.000 
#
# Total GULP energy -173450.036431 kJ/mol
# GULP energy per Si atom -12389.288316 kJ/mol
# Density = 2.773825 g / cm^3
# Si number density = 27.801531 Si / 1000 Ang^3
#
#
#
# Elastic Constant Matrix: (Units=GPa)
#
#
# Indices 1 2 3 4 5 6 
#
# 1 79.7428 28.6211 70.3189 -4.8849 -18.7467 -8.4244
# 2 28.6211 98.4431 59.6595 -21.0811 -8.5651 -11.3598
# 3 70.3189 59.6595 283.8225 -23.4552 -13.1902 -3.2288
# 4 -4.8849 -21.0811 -23.4552 45.0389 2.9431 -14.8452
# 5 -18.7467 -8.5651 -13.1902 2.9431 44.5506 -5.8508
# 6 -8.4244 -11.3598 -3.2288 -14.8452 -5.8508 54.0851
#
#
#
# Elastic Compliance Matrix: (Units=1/GPa)
#
#
# Indices 1 2 3 4 5 6 
#
# 1 0.018549 -0.002314 -0.003819 -0.000594 0.006627 0.002729
# 2 -0.002314 0.013936 -0.001682 0.006783 0.001347 0.004474
# 3 -0.003819 -0.001682 0.004895 0.001264 -0.000614 -0.000375
# 4 -0.000594 0.006783 0.001264 0.029040 0.000752 0.009460
# 5 0.006627 0.001347 -0.000614 0.000752 0.025824 0.004279
# 6 0.002729 0.004474 -0.000375 0.009460 0.004279 0.022891
#
#
# Mechanical properties :
#
#
# Convention : Reuss Voigt Hill
#
# Bulk Modulus (GPa) = 45.97856 86.57862 66.27859
# Shear Modulus (GPa) = 36.22780 48.96217 42.59499
#
# Velocity S-wave (km/s) = 3.61375 4.20114 3.91846
# Velocity P-wave (km/s) = 5.82977 7.39879 6.66064
#
# Compressibility (1/GPa) = 0.02174927
#
# Stress axis : x y z
#
# Youngs Moduli (GPa) = 53.91247 71.75573 204.29937
#
# Poissons Ratio (x) = 0.16603 0.78026
# Poissons Ratio (y) = 0.12474 0.34365
# Poissons Ratio (z) = 0.20590 0.12070
#
# Static dielectric constant tensor:
#      x y z
#    x 5.367410 0.392270 -0.271100 
#    y 0.392270 4.732090 -0.818520 
#    z -0.271100 -0.818520 5.396940 
# 
# 
# High freq. dielectric constant tensor:
#      x y z
#    x 2.143600 0.028380 -0.003120 
#    y 0.028380 2.113450 -0.011120 
#    z -0.003120 -0.011120 2.153360 
# 
# From -- ./inp_files/9869.got.cif
#   From: 2010.06.25/outbox.cif.g09.slc.cpg/sg2_5_cif.got.tgz:9869.got - 2010.06.27 13:26:56.
