data_PCOD8005054
_publ_section_title
;
Structure prediction by ZEFSAII (Michael W. Deem and Ramdas Pophale) SiO2 
 PCOD8005054
Probable space group: P -1
;
_chemical_formula_sum "Si O2"
_cell_formula_units_Z 14
_cell_length_a 21.334854
_cell_length_b 22.114681
_cell_length_c 8.616722
_cell_angle_alpha 126.904484
_cell_angle_beta 127.287795
_cell_angle_gamma 12.980415
_cell_volume 725.357762
_symmetry_space_group_name_H-M "P -1"
_symmetry_group_IT_number 2
_symmetry_cell_setting 'triclinic'
loop_
_space_group_symop_operation_xyz
x,y,z
-x,-y,-z
loop_
_atom_site_type_symbol
_atom_site_label
_atom_site_fract_x
_atom_site_fract_y
_atom_site_fract_z
Si Si1 0.917306 0.027603 0.771304
Si Si2 0.193745 0.250000 0.415619
Si Si3 0.035068 0.672645 0.642945
Si Si4 0.472526 0.472383 0.563421
Si Si5 0.119653 0.172635 0.019809
Si Si6 0.615121 0.152709 0.565108
Si Si7 0.420531 0.347299 0.238382
O O1 0.183120 0.749988 0.649666
O O2 0.733926 0.249986 0.725863
O O3 0.716775 0.145295 0.710965
O O4 0.000000 0.000000 0.000000
O O5 0.000000 0.500000 0.500000
O O6 0.095861 0.291382 0.483344
O O7 0.178623 0.208620 0.178385
O O8 0.500000 0.000000 0.500000
O O9 0.997755 0.750009 0.871646
O O10 0.368424 0.364602 0.643812
O O11 0.880598 0.856444 0.552024
O O12 0.500000 0.500000 0.500000
O O13 0.507369 0.354700 0.375238
O O14 0.906524 0.356432 0.840897
O O15 0.402389 0.864590 0.944739
O O16 0.486746 0.250009 0.355134
#
# Coordination Sequence:
#
# PCOD8005054 Si02
#       7
#     2   2   2   2   2   2   2
#     4  11  24  41  60  86 120 165 202 251 307 351
#     4  10  20  38  64  90 122 150 196 250 300 352
#     4  10  22  36  62  92 111 156 205 235 298 347
#     4  11  24  41  60  86 120 165 202 251 307 351
#     4  10  22  36  62  92 111 156 205 235 298 347
#     4  11  21  39  59  86 124 157 195 250 303 355
#     4  11  21  39  59  86 124 157 195 250 303 355
#
# _framework density 19.300820000000002
#
# number of rings (size 3 to 8) (size 9 to 14) (size 15 to 20)
#    0.857    0.571    0.000    7.714    0.000    3.429 
#    0.000    0.000    0.000   17.143    0.000    0.000 
#    0.000    0.000    0.000    0.000    0.000    0.000 
#
# Total GULP energy -173558.371187 kJ/mol
# GULP energy per Si atom -12397.026513 kJ/mol
# Density = 1.925689 g / cm^3
# Si number density = 19.300820 Si / 1000 Ang^3
#
#
#
# Elastic Constant Matrix: (Units=GPa)
#
#
# Indices 1 2 3 4 5 6 
#
# 1 100.4149 35.9995 48.7201 -1.5626 4.5838 5.6167
# 2 35.9995 120.6202 32.7246 -3.0915 5.7061 2.2609
# 3 48.7201 32.7246 94.8104 -6.9845 5.7479 0.9989
# 4 -1.5626 -3.0915 -6.9845 46.3239 0.9894 -8.4699
# 5 4.5838 5.7061 5.7479 0.9894 22.5882 -2.0944
# 6 5.6167 2.2609 0.9989 -8.4699 -2.0944 41.5667
#
#
#
# Elastic Compliance Matrix: (Units=1/GPa)
#
#
# Indices 1 2 3 4 5 6 
#
# 1 0.014048 -0.002413 -0.006393 -0.000973 -0.000743 -0.001849
# 2 -0.002413 0.009625 -0.001972 0.000264 -0.001467 -0.000170
# 3 -0.006393 -0.001972 0.014777 0.002095 -0.001969 0.000944
# 4 -0.000973 0.000264 0.002095 0.022760 -0.000968 0.004656
# 5 -0.000743 -0.001467 -0.001969 -0.000968 0.045551 0.002326
# 6 -0.001849 -0.000170 0.000944 0.004656 0.002326 0.025360
#
#
# Mechanical properties :
#
#
# Convention : Reuss Voigt Hill
#
# Bulk Modulus (GPa) = 59.19413 61.19265 60.19339
# Shear Modulus (GPa) = 31.38563 35.32250 33.35407
#
# Velocity S-wave (km/s) = 4.03690 4.28261 4.16157
# Velocity P-wave (km/s) = 7.24325 7.49852 7.37199
#
# Compressibility (1/GPa) = 0.01689357
#
# Stress axis : x y z
#
# Youngs Moduli (GPa) = 71.18518 103.89517 67.67325
#
# Poissons Ratio (x) = 0.25073 0.43263
# Poissons Ratio (y) = 0.17179 0.13344
# Poissons Ratio (z) = 0.45508 0.20487
#
# Static dielectric constant tensor:
#      x y z
#    x 3.489630 0.025470 -0.022540 
#    y 0.025470 3.751490 -0.036670 
#    z -0.022540 -0.036670 3.503000 
# 
# 
# High freq. dielectric constant tensor:
#      x y z
#    x 1.740820 0.001840 -0.004250 
#    y 0.001840 1.775870 -0.002840 
#    z -0.004250 -0.002840 1.743270 
# 
# From -- ./inp_files/355496.got.cif
#   From: 2010.06.25/outbox.cif.g09.slc.cpg/sg2_178_cif.got.tgz:355496.got - 2010.06.27 13:26:56.
