data_PCOD8005675
_publ_section_title
;
Structure prediction by ZEFSAII (Michael W. Deem and Ramdas Pophale) SiO2 
 PCOD8005675
Probable space group: P -1
;
_chemical_formula_sum "Si O2"
_cell_formula_units_Z 8
_cell_length_a 4.921682
_cell_length_b 12.911481
_cell_length_c 5.688211
_cell_angle_alpha 78.309960
_cell_angle_beta 91.152696
_cell_angle_gamma 118.677020
_cell_volume 309.295274
_symmetry_space_group_name_H-M "P -1"
_symmetry_group_IT_number 2
_symmetry_cell_setting 'triclinic'
loop_
_space_group_symop_operation_xyz
x,y,z
-x,-y,-z
loop_
_atom_site_type_symbol
_atom_site_label
_atom_site_fract_x
_atom_site_fract_y
_atom_site_fract_z
Si Si1 0.797822 0.760584 0.611794
Si Si2 0.151716 0.642272 0.443671
Si Si3 0.743053 0.194363 0.016563
Si Si4 0.823227 0.021687 0.778043
O O1 0.891729 0.679992 0.484411
O O2 0.921615 0.759878 0.876909
O O3 0.955814 0.902840 0.470954
O O4 0.423253 0.696761 0.621629
O O5 0.000000 0.500000 0.500000
O O6 0.278908 0.694063 0.158034
O O7 0.459201 0.114158 0.234249
O O8 0.683968 0.104756 0.837005
O O9 0.000000 0.000000 0.000000
#
# Coordination Sequence:
#
# PCOD8005675 Si02
#       4
#     2   2   2   2
#     4  11  24  40  66  90 118 163 201 244 307 357
#     4  11  25  43  61  89 123 158 206 253 292 352
#     4  10  23  39  61  92 123 158 199 247 301 360
#     4  10  20  39  61  90 127 153 195 252 299 358
#
# _framework density 25.865251000000001
#
# number of rings (size 3 to 8) (size 9 to 14) (size 15 to 20)
#    0.000    1.500    2.500    1.500    3.500    3.000 
#    0.000    0.000    0.000    0.000    0.000    0.000 
#    0.000    0.000    0.000    0.000    0.000    0.000 
#
# Total GULP energy -99175.249636 kJ/mol
# GULP energy per Si atom -12396.906205 kJ/mol
# Density = 2.580638 g / cm^3
# Si number density = 25.865251 Si / 1000 Ang^3
#
#
#
# Elastic Constant Matrix: (Units=GPa)
#
#
# Indices 1 2 3 4 5 6 
#
# 1 92.8781 19.5509 19.6959 -16.4679 25.1265 28.8980
# 2 19.5509 162.9678 45.5359 -45.8487 10.6599 27.6792
# 3 19.6959 45.5359 105.2694 -30.8771 29.4043 25.4628
# 4 -16.4679 -45.8487 -30.8771 44.0049 5.6809 5.0965
# 5 25.1265 10.6599 29.4043 5.6809 47.8793 7.3214
# 6 28.8980 27.6792 25.4628 5.0965 7.3214 41.2659
#
#
#
# Elastic Compliance Matrix: (Units=1/GPa)
#
#
# Indices 1 2 3 4 5 6 
#
# 1 0.058817 0.028580 0.046958 0.103566 -0.064489 -0.090683
# 2 0.028580 0.026511 0.027617 0.069092 -0.037383 -0.056738
# 3 0.046958 0.027617 0.061502 0.108741 -0.067580 -0.090797
# 4 0.103566 0.069092 0.108741 0.249718 -0.136699 -0.192555
# 5 -0.064489 -0.037383 -0.067580 -0.136699 0.103895 0.110385
# 6 -0.090683 -0.056738 -0.090797 -0.192555 0.110385 0.186016
#
#
# Mechanical properties :
#
#
# Convention : Reuss Voigt Hill
#
# Bulk Modulus (GPa) = 2.83174 58.96453 30.89814
# Shear Modulus (GPa) = 8.36312 45.05220 26.70766
#
# Velocity S-wave (km/s) = 1.80010 4.17802 3.21685
# Velocity P-wave (km/s) = 2.32759 6.79123 5.07634
#
# Compressibility (1/GPa) = 0.35313917
#
# Stress axis : x y z
#
# Youngs Moduli (GPa) = 17.00192 37.72036 16.25960
#
# Poissons Ratio (x) = -1.07805 -0.76352
# Poissons Ratio (y) = -0.48592 -0.44903
# Poissons Ratio (z) = -0.79838 -1.04171
#
# Static dielectric constant tensor:
#      x y z
#    x 4.733430 -0.021480 -0.081540 
#    y -0.021480 4.859740 -0.235460 
#    z -0.081540 -0.235460 4.779700 
# 
# 
# High freq. dielectric constant tensor:
#      x y z
#    x 2.037380 -0.009860 0.006590 
#    y -0.009860 2.032600 -0.002370 
#    z 0.006590 -0.002370 2.032400 
# 
# From -- ./inp_files/1334.got.cif
#   From: 2010.06.25/outbox.cif.g09.slc.cpg/sg2_1_cif.got.tgz:1334.got - 2010.06.27 13:26:56.
