data_PCOD8005337
_publ_section_title
;
Structure prediction by ZEFSAII (Michael W. Deem and Ramdas Pophale) SiO2 
 PCOD8005337
Probable space group: P -1
;
_chemical_formula_sum "Si O2"
_cell_formula_units_Z 12
_cell_length_a 13.783575
_cell_length_b 11.894040
_cell_length_c 8.959601
_cell_angle_alpha 36.668994
_cell_angle_beta 127.278805
_cell_angle_gamma 140.001710
_cell_volume 563.679348
_symmetry_space_group_name_H-M "P -1"
_symmetry_group_IT_number 2
_symmetry_cell_setting 'triclinic'
loop_
_space_group_symop_operation_xyz
x,y,z
-x,-y,-z
loop_
_atom_site_type_symbol
_atom_site_label
_atom_site_fract_x
_atom_site_fract_y
_atom_site_fract_z
Si Si1 0.974667 0.263508 0.839886
Si Si2 0.117129 0.127418 0.606837
Si Si3 0.116087 0.560111 0.172059
Si Si4 0.628725 0.917564 0.185830
Si Si5 0.519773 0.993421 0.281093
Si Si6 0.745260 0.271612 0.453872
O O1 0.950263 0.419592 0.759358
O O2 0.848843 0.180820 0.681576
O O3 0.147719 0.444016 0.753734
O O4 0.949421 0.040648 0.131994
O O5 0.145088 0.365705 0.424465
O O6 0.276780 0.185553 0.641799
O O7 0.000000 0.000000 0.500000
O O8 0.271315 0.801987 0.019056
O O9 0.000000 0.500000 0.000000
O O10 0.550023 0.846320 0.351423
O O11 0.513558 0.845533 0.016864
O O12 0.377512 0.805246 0.449779
O O13 0.666309 0.166307 0.333691
#
# Coordination Sequence:
#
# PCOD8005337 Si02
#       6
#     2   2   2   2   2   2
#     4  10  21  39  64  93 121 163 209 251 306 363
#     4  11  21  36  65  96 123 151 217 263 301 351
#     4  11  19  36  63  94 119 155 201 267 307 341
#     4  10  21  39  64  93 121 163 209 251 306 363
#     4  10  20  38  67  88 127 171 197 245 316 371
#     4  10  20  38  67  88 127 171 197 245 316 371
#
# _framework density 21.288699000000001
#
# number of rings (size 3 to 8) (size 9 to 14) (size 15 to 20)
#    0.000    1.667    6.667    1.000    0.000    0.000 
#    0.000    6.667    0.000    3.000    0.000    0.000 
#    0.000    0.000    0.000    0.000    0.000    0.000 
#
# Total GULP energy -148748.632701 kJ/mol
# GULP energy per Si atom -12395.719392 kJ/mol
# Density = 2.124024 g / cm^3
# Si number density = 21.288699 Si / 1000 Ang^3
#
#
#
# Elastic Constant Matrix: (Units=GPa)
#
#
# Indices 1 2 3 4 5 6 
#
# 1 97.2724 33.1957 43.7919 0.3500 1.4447 2.3642
# 2 33.1957 102.1034 53.9338 23.4639 3.7162 9.2170
# 3 43.7919 53.9338 129.8820 7.4993 14.2619 -2.9472
# 4 0.3500 23.4639 7.4993 53.7808 -6.4712 6.0861
# 5 1.4447 3.7162 14.2619 -6.4712 40.3388 -3.9506
# 6 2.3642 9.2170 -2.9472 6.0861 -3.9506 32.6471
#
#
#
# Elastic Compliance Matrix: (Units=1/GPa)
#
#
# Indices 1 2 3 4 5 6 
#
# 1 0.012744 -0.002744 -0.003412 0.001811 0.001230 -0.000645
# 2 -0.002744 0.014904 -0.004944 -0.005487 -0.000752 -0.003524
# 3 -0.003412 -0.004944 0.011309 -0.000041 -0.003204 0.002284
# 4 0.001811 -0.005487 -0.000041 0.021676 0.003719 -0.002177
# 5 0.001230 -0.000752 -0.003204 0.003719 0.026778 0.002381
# 6 -0.000645 -0.003524 0.002284 -0.002177 0.002381 0.032572
#
#
# Mechanical properties :
#
#
# Convention : Reuss Voigt Hill
#
# Bulk Modulus (GPa) = 59.67698 65.67785 62.67742
# Shear Modulus (GPa) = 33.83698 38.57577 36.20637
#
# Velocity S-wave (km/s) = 3.99110 4.26141 4.12847
# Velocity P-wave (km/s) = 7.02364 7.42502 7.22712
#
# Compressibility (1/GPa) = 0.01675688
#
# Stress axis : x y z
#
# Youngs Moduli (GPa) = 78.47111 67.09517 88.42696
#
# Poissons Ratio (x) = 0.18409 0.30168
# Poissons Ratio (y) = 0.21530 0.43723
# Poissons Ratio (z) = 0.26771 0.33175
#
# Static dielectric constant tensor:
#      x y z
#    x 3.957730 -0.037880 -0.212960 
#    y -0.037880 5.526570 0.800060 
#    z -0.212960 0.800060 4.069530 
# 
# 
# High freq. dielectric constant tensor:
#      x y z
#    x 1.837270 0.019530 -0.017670 
#    y 0.019530 1.831110 0.029760 
#    z -0.017670 0.029760 1.831070 
# 
# From -- ./inp_files/302202.got.cif
#   From: 2010.06.25/outbox.cif.g09.slc.cpg/sg2_152_cif.got.tgz:302202.got - 2010.06.27 13:26:56.
