data_PCOD8005688
_publ_section_title
;
Structure prediction by ZEFSAII (Michael W. Deem and Ramdas Pophale) SiO2 
 PCOD8005688
Probable space group: P -1
;
_chemical_formula_sum "Si O2"
_cell_formula_units_Z 16
_cell_length_a 10.492932
_cell_length_b 8.854956
_cell_length_c 9.853292
_cell_angle_alpha 118.142229
_cell_angle_beta 82.999807
_cell_angle_gamma 113.065583
_cell_volume 740.507391
_symmetry_space_group_name_H-M "P -1"
_symmetry_group_IT_number 2
_symmetry_cell_setting 'triclinic'
loop_
_space_group_symop_operation_xyz
x,y,z
-x,-y,-z
loop_
_atom_site_type_symbol
_atom_site_label
_atom_site_fract_x
_atom_site_fract_y
_atom_site_fract_z
Si Si1 0.078642 0.993397 0.626452
Si Si2 0.373650 0.374935 0.297908
Si Si3 0.871000 0.454435 0.834662
Si Si4 0.084518 0.169853 0.159711
Si Si5 0.342600 0.606372 0.645501
Si Si6 0.659523 0.077718 0.375337
Si Si7 0.574070 0.268475 0.696163
Si Si8 0.132647 0.395793 0.810704
O O1 0.138025 0.199980 0.767664
O O2 0.208182 0.930260 0.564287
O O3 0.000000 0.000000 0.500000
O O4 0.978995 0.858708 0.693742
O O5 0.247484 0.201743 0.172856
O O6 0.310912 0.460107 0.463791
O O7 0.492305 0.308234 0.306747
O O8 0.441500 0.536137 0.244246
O O9 0.917695 0.641744 0.821113
O O10 0.722410 0.300775 0.753789
O O11 0.984238 0.365745 0.748354
O O12 0.856910 0.484396 0.007386
O O13 0.000000 0.000000 0.000000
O O14 0.294960 0.779520 0.697072
O O15 0.259030 0.499944 0.740198
O O16 0.568283 0.166043 0.510768
O O17 0.555640 0.869165 0.256266
#
# Coordination Sequence:
#
# PCOD8005688 Si02
#       8
#     2   2   2   2   2   2   2   2
#     4  12  24  38  63  95 120 160 209 257 303 360
#     4   9  20  37  64  87 123 160 203 254 313 367
#     4  10  22  41  60  85 122 169 199 244 307 369
#     4  11  22  42  60  89 125 164 202 252 308 367
#     4  10  20  39  61  95 121 159 204 258 310 361
#     4  10  21  38  62  90 124 153 203 258 302 361
#     4   9  19  38  60  85 118 160 199 247 306 360
#     4  11  22  38  60  87 125 159 205 249 300 368
#
# _framework density 21.606805999999999
#
# number of rings (size 3 to 8) (size 9 to 14) (size 15 to 20)
#    0.000    1.750    1.250    3.000    0.000    5.000 
#    2.250    7.500    0.000    0.000    0.000    0.000 
#    0.000    0.000    0.000    0.000    0.000    0.000 
#
# Total GULP energy -198316.594912 kJ/mol
# GULP energy per Si atom -12394.787182 kJ/mol
# Density = 2.155763 g / cm^3
# Si number density = 21.606806 Si / 1000 Ang^3
#
#
#
# Elastic Constant Matrix: (Units=GPa)
#
#
# Indices 1 2 3 4 5 6 
#
# 1 135.4446 57.0866 27.7723 4.5183 20.5753 -3.3551
# 2 57.0866 116.2497 25.2596 -9.2987 7.0897 10.2286
# 3 27.7723 25.2596 47.1569 -5.7949 10.0227 9.2472
# 4 4.5183 -9.2987 -5.7949 30.8971 5.4547 3.6770
# 5 20.5753 7.0897 10.0227 5.4547 32.2767 6.6061
# 6 -3.3551 10.2286 9.2472 3.6770 6.6061 37.5375
#
#
#
# Elastic Compliance Matrix: (Units=1/GPa)
#
#
# Indices 1 2 3 4 5 6 
#
# 1 0.011427 -0.005071 -0.004285 -0.003648 -0.005191 0.004730
# 2 -0.005071 0.012240 -0.002622 0.004132 0.001438 -0.003800
# 3 -0.004285 -0.002622 0.028368 0.006863 -0.005354 -0.006387
# 4 -0.003648 0.004132 0.006863 0.037141 -0.005812 -0.005758
# 5 -0.005191 0.001438 -0.005354 -0.005812 0.037769 -0.005615
# 6 0.004730 -0.003800 -0.006387 -0.005758 -0.005615 0.031224
#
#
# Mechanical properties :
#
#
# Convention : Reuss Voigt Hill
#
# Bulk Modulus (GPa) = 35.61730 57.67646 46.64688
# Shear Modulus (GPa) = 26.11171 32.72444 29.41807
#
# Velocity S-wave (km/s) = 3.48011 3.89594 3.69388
# Velocity P-wave (km/s) = 5.71562 6.85488 6.31101
#
# Compressibility (1/GPa) = 0.02807625
#
# Stress axis : x y z
#
# Youngs Moduli (GPa) = 87.51414 81.70251 35.25104
#
# Poissons Ratio (x) = 0.41435 0.15107
# Poissons Ratio (y) = 0.44383 0.09243
# Poissons Ratio (z) = 0.37504 0.21423
#
# Static dielectric constant tensor:
#      x y z
#    x 3.960930 -0.008190 0.174700 
#    y -0.008190 4.165710 -0.017760 
#    z 0.174700 -0.017760 3.601400 
# 
# 
# High freq. dielectric constant tensor:
#      x y z
#    x 1.855610 0.001670 0.012560 
#    y 0.001670 1.860840 -0.004340 
#    z 0.012560 -0.004340 1.817040 
# 
# From -- ./inp_files/379935.got.cif
#   From: 2010.06.25/outbox.cif.g09.slc.cpg/sg2_190_cif.got.tgz:379935.got - 2010.06.27 13:26:56.
