data_PCOD8005136
_publ_section_title
;
Structure prediction by ZEFSAII (Michael W. Deem and Ramdas Pophale) SiO2 
 PCOD8005136
Probable space group: P -1
;
_chemical_formula_sum "Si O2"
_cell_formula_units_Z 16
_cell_length_a 14.786271
_cell_length_b 9.999009
_cell_length_c 7.214641
_cell_angle_alpha 84.128599
_cell_angle_beta 77.687935
_cell_angle_gamma 135.973486
_cell_volume 670.994705
_symmetry_space_group_name_H-M "P -1"
_symmetry_group_IT_number 2
_symmetry_cell_setting 'triclinic'
loop_
_space_group_symop_operation_xyz
x,y,z
-x,-y,-z
loop_
_atom_site_type_symbol
_atom_site_label
_atom_site_fract_x
_atom_site_fract_y
_atom_site_fract_z
Si Si1 0.496493 0.176222 0.815205
Si Si2 0.869240 0.845332 0.937873
Si Si3 0.893520 0.265951 0.631251
Si Si4 0.368432 0.413241 0.363840
Si Si5 0.416898 0.008037 0.280683
Si Si6 0.918039 0.058477 0.394539
Si Si7 0.414107 0.561519 0.734435
Si Si8 0.196754 0.951186 0.933465
O O1 0.612912 0.422832 0.772449
O O2 0.557274 0.121764 0.668249
O O3 0.452578 0.069773 0.044007
O O4 0.356356 0.082714 0.787700
O O5 0.940329 0.876709 0.709065
O O6 0.792063 0.904510 0.959675
O O7 0.742880 0.601846 0.081352
O O8 0.000000 0.000000 0.000000
O O9 0.956307 0.197973 0.528032
O O10 0.878251 0.240047 0.867196
O O11 0.000000 0.500000 0.500000
O O12 0.747955 0.135718 0.601162
O O13 0.400527 0.486970 0.548580
O O14 0.475102 0.421317 0.222474
O O15 0.210397 0.179834 0.453717
O O16 0.518100 0.214231 0.333426
O O17 0.887269 0.111134 0.211432
#
# Coordination Sequence:
#
# PCOD8005136 Si02
#       8
#     2   2   2   2   2   2   2   2
#     4  10  22  40  64  94 135 170 222 270 332 389
#     4  10  20  38  64  98 134 168 214 275 334 386
#     4  11  26  45  65  92 136 178 225 271 329 403
#     4  11  20  37  68  97 122 169 222 270 320 391
#     4  10  24  42  62  95 134 174 220 274 328 395
#     4  11  23  43  69 100 132 170 226 275 333 397
#     4  11  20  38  67  94 130 167 220 273 322 391
#     4  10  21  43  67  93 133 174 215 281 328 387
#
# _framework density 23.845196999999999
#
# number of rings (size 3 to 8) (size 9 to 14) (size 15 to 20)
#    0.000    1.500    5.000    0.750    0.000    7.000 
#    0.000    0.000    0.000    0.000    0.000    0.000 
#    0.000    0.000    0.000    0.000    0.000    0.000 
#
# Total GULP energy -198291.252415 kJ/mol
# GULP energy per Si atom -12393.203276 kJ/mol
# Density = 2.379092 g / cm^3
# Si number density = 23.845197 Si / 1000 Ang^3
#
#
#
# Elastic Constant Matrix: (Units=GPa)
#
#
# Indices 1 2 3 4 5 6 
#
# 1 97.4699 32.6655 14.8350 3.9510 -17.9224 -10.9753
# 2 32.6655 132.7676 28.5324 -20.9394 -10.6480 -13.0927
# 3 14.8350 28.5324 59.8527 -26.8418 -26.7398 8.9717
# 4 3.9510 -20.9394 -26.8418 66.0609 5.0386 5.5914
# 5 -17.9224 -10.6480 -26.7398 5.0386 43.4440 8.8281
# 6 -10.9753 -13.0927 8.9717 5.5914 8.8281 44.3641
#
#
#
# Elastic Compliance Matrix: (Units=1/GPa)
#
#
# Indices 1 2 3 4 5 6 
#
# 1 0.012394 -0.002540 -0.002227 -0.002891 0.002938 0.002547
# 2 -0.002540 0.009597 -0.005387 0.000907 -0.002879 0.003752
# 3 -0.002227 -0.005387 0.039029 0.013883 0.023519 -0.016463
# 4 -0.002891 0.000907 0.013883 0.021352 0.006573 -0.007254
# 5 0.002938 -0.002879 0.023519 0.006573 0.040016 -0.013670
# 6 0.002547 0.003752 -0.016463 -0.007254 -0.013670 0.031242
#
#
# Mechanical properties :
#
#
# Convention : Reuss Voigt Hill
#
# Bulk Modulus (GPa) = 24.56321 49.12846 36.84583
# Shear Modulus (GPa) = 26.66561 45.04429 35.85495
#
# Velocity S-wave (km/s) = 3.34770 4.35101 3.88191
# Velocity P-wave (km/s) = 5.02655 6.77418 5.96472
#
# Compressibility (1/GPa) = 0.04071129
#
# Stress axis : x y z
#
# Youngs Moduli (GPa) = 80.68544 104.20207 25.62198
#
# Poissons Ratio (x) = 0.26467 0.05706
# Poissons Ratio (y) = 0.20494 0.13803
# Poissons Ratio (z) = 0.17968 0.56137
#
# Static dielectric constant tensor:
#      x y z
#    x 3.206920 2.635750 -2.041800 
#    y 2.635750 -1.642790 3.408930 
#    z -2.041800 3.408930 2.608690 
# 
# 
# High freq. dielectric constant tensor:
#      x y z
#    x 1.943480 -0.009910 -0.007970 
#    y -0.009910 1.931200 0.001770 
#    z -0.007970 0.001770 1.955600 
# 
# From -- ./inp_files/298225.got.cif
#   From: 2010.06.25/outbox.cif.g09.slc.cpg/sg2_150_cif.got.tgz:298225.got - 2010.06.27 13:26:56.
