data_PCOD8005938
_publ_section_title
;
Structure prediction by ZEFSAII (Michael W. Deem and Ramdas Pophale) SiO2 
 PCOD8005938
Probable space group: P -1
;
_chemical_formula_sum "Si O2"
_cell_formula_units_Z 14
_cell_length_a 8.961088
_cell_length_b 20.288691
_cell_length_c 9.408167
_cell_angle_alpha 25.698719
_cell_angle_beta 120.767859
_cell_angle_gamma 110.560170
_cell_volume 609.047558
_symmetry_space_group_name_H-M "P -1"
_symmetry_group_IT_number 2
_symmetry_cell_setting 'triclinic'
loop_
_space_group_symop_operation_xyz
x,y,z
-x,-y,-z
loop_
_atom_site_type_symbol
_atom_site_label
_atom_site_fract_x
_atom_site_fract_y
_atom_site_fract_z
Si Si1 0.259350 0.639055 0.322536
Si Si2 0.406524 0.695422 0.996105
Si Si3 0.145315 0.023123 0.312834
Si Si4 0.841140 0.566870 0.104202
Si Si5 0.633385 0.555439 0.749358
Si Si6 0.207621 0.335558 0.645453
Si Si7 0.110411 0.119407 0.406319
O O1 0.207458 0.490812 0.654921
O O2 0.425051 0.671431 0.432191
O O3 0.347982 0.595465 0.291429
O O4 0.083421 0.788794 0.942649
O O5 0.282129 0.877392 0.580216
O O6 0.376642 0.611977 0.997455
O O7 0.612480 0.700590 0.100961
O O8 0.944734 0.993401 0.284140
O O9 0.224550 0.030154 0.499571
O O10 0.126061 0.185999 0.902968
O O11 0.055968 0.492067 0.325643
O O12 0.720450 0.519949 0.015470
O O13 0.797568 0.758321 0.714498
O O14 0.754870 0.637110 0.554377
#
# Coordination Sequence:
#
# PCOD8005938 Si02
#       7
#     2   2   2   2   2   2   2
#     4  10  20  39  64  87 113 155 199 242 284 343
#     4  10  22  40  62  89 119 151 197 243 289 352
#     4  10  21  37  61  89 115 153 202 241 282 344
#     4  12  23  38  63  91 118 153 196 246 294 341
#     4  11  24  39  59  92 124 148 191 249 299 343
#     4  11  21  38  64  88 114 157 200 241 289 343
#     4  10  21  37  64  89 114 148 207 246 277 342
#
# _framework density 22.986712000000001
#
# number of rings (size 3 to 8) (size 9 to 14) (size 15 to 20)
#    0.000    1.429    1.429    6.000    4.000    0.000 
#    0.000    2.857    0.000    8.571    0.000    0.000 
#    0.000    0.000    0.000    0.000    0.000    0.000 
#
# Total GULP energy -173530.977627 kJ/mol
# GULP energy per Si atom -12395.069830 kJ/mol
# Density = 2.293439 g / cm^3
# Si number density = 22.986712 Si / 1000 Ang^3
#
#
#
# Elastic Constant Matrix: (Units=GPa)
#
#
# Indices 1 2 3 4 5 6 
#
# 1 71.1922 3.7794 4.6197 2.9141 -16.2915 11.3131
# 2 3.7794 101.5719 17.7719 -5.8989 4.4261 6.4754
# 3 4.6197 17.7719 41.5444 -15.3241 -17.5273 3.6557
# 4 2.9141 -5.8989 -15.3241 31.7246 12.4879 -3.1020
# 5 -16.2915 4.4261 -17.5273 12.4879 41.1288 -6.8164
# 6 11.3131 6.4754 3.6557 -3.1020 -6.8164 20.9259
#
#
#
# Elastic Compliance Matrix: (Units=1/GPa)
#
#
# Indices 1 2 3 4 5 6 
#
# 1 0.017152 -0.000837 0.000285 -0.005217 0.007356 -0.007440
# 2 -0.000837 0.011486 -0.006370 0.000802 -0.005112 -0.003535
# 3 0.000285 -0.006370 0.036336 0.011332 0.013076 0.001408
# 4 -0.005217 0.000802 0.011332 0.041671 -0.009360 0.003721
# 5 0.007356 -0.005112 0.013076 -0.009360 0.037195 0.006049
# 6 -0.007440 -0.003535 0.001408 0.003721 0.006049 0.055180
#
#
# Mechanical properties :
#
#
# Convention : Reuss Voigt Hill
#
# Bulk Modulus (GPa) = 19.55817 29.62783 24.59300
# Shear Modulus (GPa) = 21.74792 31.29837 26.52314
#
# Velocity S-wave (km/s) = 3.07922 3.69397 3.40052
# Velocity P-wave (km/s) = 4.60099 5.57772 5.11273
#
# Compressibility (1/GPa) = 0.05112953
#
# Stress axis : x y z
#
# Youngs Moduli (GPa) = 58.30314 87.06566 27.52060
#
# Poissons Ratio (x) = 0.07289 -0.00784
# Poissons Ratio (y) = 0.04881 0.17530
# Poissons Ratio (z) = -0.01661 0.55459
#
# Static dielectric constant tensor:
#      x y z
#    x 4.516500 0.018890 -0.016930 
#    y 0.018890 3.743220 -0.262070 
#    z -0.016930 -0.262070 3.982320 
# 
# 
# High freq. dielectric constant tensor:
#      x y z
#    x 1.932590 -0.000140 -0.007930 
#    y -0.000140 1.880760 -0.030970 
#    z -0.007930 -0.030970 1.884640 
# 
# From -- ./inp_files/216380.got.cif
#   From: 2010.06.25/outbox.cif.g09.slc.cpg/sg2_109_cif.got.tgz:216380.got - 2010.06.27 13:26:56.
