data_PCOD8005179
_publ_section_title
;
Structure prediction by ZEFSAII (Michael W. Deem and Ramdas Pophale) SiO2 
 PCOD8005179
Probable space group: P -1
;
_chemical_formula_sum "Si O2"
_cell_formula_units_Z 16
_cell_length_a 12.946043
_cell_length_b 21.998073
_cell_length_c 9.425755
_cell_angle_alpha 58.117619
_cell_angle_beta 111.630140
_cell_angle_gamma 158.297946
_cell_volume 776.497811
_symmetry_space_group_name_H-M "P -1"
_symmetry_group_IT_number 2
_symmetry_cell_setting 'triclinic'
loop_
_space_group_symop_operation_xyz
x,y,z
-x,-y,-z
loop_
_atom_site_type_symbol
_atom_site_label
_atom_site_fract_x
_atom_site_fract_y
_atom_site_fract_z
Si Si1 0.786883 0.159066 0.351883
Si Si2 0.082277 0.883440 0.343387
Si Si3 0.247874 0.707667 0.900599
Si Si4 0.782509 0.480612 0.423753
Si Si5 0.806910 0.066311 0.223155
Si Si6 0.747953 0.742285 0.588643
Si Si7 0.133816 0.312264 0.803591
Si Si8 0.751582 0.323211 0.746728
O O1 0.007464 0.242059 0.456785
O O2 0.915955 0.314481 0.184503
O O3 0.716762 0.075896 0.272361
O O4 0.500000 0.000000 0.500000
O O5 0.902510 0.838199 0.391250
O O6 0.976456 0.810681 0.218092
O O7 0.443075 0.116062 0.250665
O O8 0.358822 0.767832 0.044217
O O9 0.000000 0.500000 0.000000
O O10 0.431581 0.290067 0.440423
O O11 0.960973 0.662591 0.319972
O O12 0.798472 0.437722 0.622062
O O13 0.933237 0.528316 0.310440
O O14 0.004921 0.123305 0.329968
O O15 0.495395 0.844281 0.290011
O O16 0.990489 0.207979 0.009903
O O17 0.499507 0.528540 0.733826
#
# Coordination Sequence:
#
# PCOD8005179 Si02
#       8
#     2   2   2   2   2   2   2   2
#     4   9  22  36  60  93 123 166 203 257 314 367
#     4  10  20  40  65  91 122 172 210 258 316 378
#     4  11  24  39  61  92 132 163 211 261 318 373
#     4   9  24  37  63  87 130 163 210 254 318 367
#     4  11  21  39  67  92 129 159 220 261 314 371
#     4   9  22  40  63  93 127 167 209 259 315 376
#     4  10  20  38  65  91 124 162 214 262 306 376
#     4  11  23  41  61  96 122 172 207 266 309 374
#
# _framework density 20.605339000000001
#
# number of rings (size 3 to 8) (size 9 to 14) (size 15 to 20)
#    0.750    1.250    1.250    1.500    5.250    6.500 
#    0.000    0.625    0.000    0.000    0.000    0.000 
#    0.000    0.000    0.000    0.000    0.000    0.000 
#
# Total GULP energy -198242.476157 kJ/mol
# GULP energy per Si atom -12390.154760 kJ/mol
# Density = 2.055844 g / cm^3
# Si number density = 20.605339 Si / 1000 Ang^3
#
#
#
# Elastic Constant Matrix: (Units=GPa)
#
#
# Indices 1 2 3 4 5 6 
#
# 1 117.0483 47.0357 51.7775 1.8093 -6.4062 19.4336
# 2 47.0357 87.0152 26.8719 6.1071 -10.9006 2.5788
# 3 51.7775 26.8719 115.6193 7.4103 -13.7570 2.1703
# 4 1.8093 6.1071 7.4103 27.2073 -1.9552 -4.4513
# 5 -6.4062 -10.9006 -13.7570 -1.9552 36.4110 -1.0972
# 6 19.4336 2.5788 2.1703 -4.4513 -1.0972 28.7751
#
#
#
# Elastic Compliance Matrix: (Units=1/GPa)
#
#
# Indices 1 2 3 4 5 6 
#
# 1 0.014799 -0.006339 -0.005180 0.000260 -0.001510 -0.009053
# 2 -0.006339 0.015507 -0.000265 -0.002305 0.003384 0.002684
# 3 -0.005180 -0.000265 0.011514 -0.002091 0.003321 0.002457
# 4 0.000260 -0.002305 -0.002091 0.038906 0.000843 0.006239
# 5 -0.001510 0.003384 0.003321 0.000843 0.029564 0.001724
# 6 -0.009053 0.002684 0.002457 0.006239 0.001724 0.041471
#
#
# Mechanical properties :
#
#
# Convention : Reuss Voigt Hill
#
# Bulk Modulus (GPa) = 54.79434 63.45033 59.12233
# Shear Modulus (GPa) = 27.56149 31.41184 29.48667
#
# Velocity S-wave (km/s) = 3.66128 3.90866 3.78699
# Velocity P-wave (km/s) = 6.67258 7.15752 6.91930
#
# Compressibility (1/GPa) = 0.01825006
#
# Stress axis : x y z
#
# Youngs Moduli (GPa) = 67.57351 64.48833 86.85251
#
# Poissons Ratio (x) = 0.40877 0.44994
# Poissons Ratio (y) = 0.42833 0.02305
# Poissons Ratio (z) = 0.35006 0.01712
#
# Static dielectric constant tensor:
#      x y z
#    x 3.933620 0.182620 0.053170 
#    y 0.182620 3.441470 0.055130 
#    z 0.053170 0.055130 3.902900 
# 
# 
# High freq. dielectric constant tensor:
#      x y z
#    x 1.799560 0.010150 -0.009550 
#    y 0.010150 1.784160 -0.000230 
#    z -0.009550 -0.000230 1.814720 
# 
# From -- ./inp_files/320304.got.cif
#   From: 2010.06.25/outbox.cif.g09.slc.cpg/sg2_161_cif.got.tgz:320304.got - 2010.06.27 13:26:56.
