data_PCOD8005496
_publ_section_title
;
Structure prediction by ZEFSAII (Michael W. Deem and Ramdas Pophale) SiO2 
 PCOD8005496
Probable space group: P -1
;
_chemical_formula_sum "Si O2"
_cell_formula_units_Z 16
_cell_length_a 15.687079
_cell_length_b 8.677119
_cell_length_c 15.538555
_cell_angle_alpha 64.647700
_cell_angle_beta 143.450427
_cell_angle_gamma 88.043959
_cell_volume 809.982658
_symmetry_space_group_name_H-M "P -1"
_symmetry_group_IT_number 2
_symmetry_cell_setting 'triclinic'
loop_
_space_group_symop_operation_xyz
x,y,z
-x,-y,-z
loop_
_atom_site_type_symbol
_atom_site_label
_atom_site_fract_x
_atom_site_fract_y
_atom_site_fract_z
Si Si1 0.986110 0.776053 0.952784
Si Si2 0.435285 0.808451 0.413918
Si Si3 0.650216 0.334711 0.780022
Si Si4 0.240853 0.203029 0.571511
Si Si5 0.589991 0.149657 0.929917
Si Si6 0.872249 0.600787 0.286870
Si Si7 0.222488 0.277149 0.338849
Si Si8 0.517193 0.292243 0.032392
O O1 0.910284 0.750932 0.810272
O O2 0.798718 0.982571 0.809029
O O3 0.115199 0.832364 0.014917
O O4 0.120253 0.546708 0.178753
O O5 0.537220 0.611546 0.619195
O O6 0.459873 0.700150 0.366567
O O7 0.552849 0.891725 0.480628
O O8 0.626359 0.283572 0.868506
O O9 0.381422 0.229579 0.721263
O O10 0.242433 0.207674 0.469547
O O11 0.013449 0.429553 0.362894
O O12 0.316409 0.951570 0.719954
O O13 0.584920 0.222756 0.005058
O O14 0.774684 0.867533 0.129335
O O15 0.701404 0.603011 0.156486
O O16 0.000000 0.500000 0.500000
O O17 0.500000 0.500000 0.000000
#
# Coordination Sequence:
#
# PCOD8005496 Si02
#       8
#     2   2   2   2   2   2   2   2
#     4  10  22  38  57  88 123 152 198 249 292 347
#     4  10  20  39  58  83 121 161 191 242 299 348
#     4  10  22  36  58  89 117 152 202 243 290 351
#     4  11  22  41  65  89 122 161 209 240 298 372
#     4  11  22  41  64  91 123 158 205 248 296 365
#     4  11  21  42  67  88 116 166 202 246 299 358
#     4  10  22  38  60  87 117 159 199 241 296 355
#     4  11  25  42  62  93 127 153 196 257 305 356
#
# _framework density 19.753509000000001
#
# number of rings (size 3 to 8) (size 9 to 14) (size 15 to 20)
#    0.000    1.500    3.750    1.500    1.750    3.500 
#    2.250    0.000    0.000    0.000    0.000    0.000 
#    0.000    0.000    0.000    0.000    0.000    0.000 
#
# Total GULP energy -198412.056403 kJ/mol
# GULP energy per Si atom -12400.753525 kJ/mol
# Density = 1.970855 g / cm^3
# Si number density = 19.753509 Si / 1000 Ang^3
#
#
#
# Elastic Constant Matrix: (Units=GPa)
#
#
# Indices 1 2 3 4 5 6 
#
# 1 145.6922 49.7727 67.2477 -12.5876 -14.3897 0.4759
# 2 49.7727 84.4401 43.6515 -7.6714 -11.4854 0.0989
# 3 67.2477 43.6515 98.2179 0.4731 -0.6708 -1.3825
# 4 -12.5876 -7.6714 0.4731 23.7674 -5.8478 4.6989
# 5 -14.3897 -11.4854 -0.6708 -5.8478 47.2976 1.8448
# 6 0.4759 0.0989 -1.3825 4.6989 1.8448 26.3465
#
#
#
# Elastic Compliance Matrix: (Units=1/GPa)
#
#
# Indices 1 2 3 4 5 6 
#
# 1 0.011979 -0.002071 -0.007319 0.007238 0.004017 -0.002165
# 2 -0.002071 0.017516 -0.006392 0.006104 0.004356 -0.001757
# 3 -0.007319 -0.006392 0.018081 -0.008001 -0.004623 0.002856
# 4 0.007238 0.006104 -0.008001 0.052741 0.010509 -0.010716
# 5 0.004017 0.004356 -0.004623 0.010509 0.024810 -0.003943
# 6 -0.002165 -0.001757 0.002856 -0.010716 -0.003943 0.040338
#
#
# Mechanical properties :
#
#
# Convention : Reuss Voigt Hill
#
# Bulk Modulus (GPa) = 62.44978 72.18823 67.31901
# Shear Modulus (GPa) = 24.70766 30.66086 27.68426
#
# Velocity S-wave (km/s) = 3.54050 3.94404 3.74770
# Velocity P-wave (km/s) = 6.95677 7.57393 7.27190
#
# Compressibility (1/GPa) = 0.01601287
#
# Stress axis : x y z
#
# Youngs Moduli (GPa) = 83.48162 57.08908 55.30797
#
# Poissons Ratio (x) = 0.11821 0.40481
# Poissons Ratio (y) = 0.17286 0.35351
# Poissons Ratio (z) = 0.61102 0.36489
#
# Static dielectric constant tensor:
#      x y z
#    x 3.672940 0.067450 0.141300 
#    y 0.067450 3.456760 -0.015780 
#    z 0.141300 -0.015780 3.814900 
# 
# 
# High freq. dielectric constant tensor:
#      x y z
#    x 1.777690 0.001920 0.005990 
#    y 0.001920 1.757160 0.004710 
#    z 0.005990 0.004710 1.781970 
# 
# From -- ./inp_files/126950.got.cif
#   From: 2010.06.25/outbox.cif.g09.slc.cpg/sg2_64_cif.got.tgz:126950.got - 2010.06.27 13:26:56.
