data_PCOD8005227
_publ_section_title
;
Structure prediction by ZEFSAII (Michael W. Deem and Ramdas Pophale) SiO2 
 PCOD8005227
Probable space group: P -1
;
_chemical_formula_sum "Si O2"
_cell_formula_units_Z 16
_cell_length_a 10.601271
_cell_length_b 15.933649
_cell_length_c 8.521889
_cell_angle_alpha 67.409471
_cell_angle_beta 112.671240
_cell_angle_gamma 59.653781
_cell_volume 787.133097
_symmetry_space_group_name_H-M "P -1"
_symmetry_group_IT_number 2
_symmetry_cell_setting 'triclinic'
loop_
_space_group_symop_operation_xyz
x,y,z
-x,-y,-z
loop_
_atom_site_type_symbol
_atom_site_label
_atom_site_fract_x
_atom_site_fract_y
_atom_site_fract_z
Si Si1 0.772806 0.153466 0.734828
Si Si2 0.774903 0.370655 0.083625
Si Si3 0.429640 0.684181 0.789451
Si Si4 0.743810 0.351629 0.733910
Si Si5 0.546906 0.090021 0.628633
Si Si6 0.226594 0.130410 0.618025
Si Si7 0.481006 0.160917 0.190254
Si Si8 0.149850 0.201826 0.886063
O O1 0.752271 0.203408 0.510486
O O2 0.737509 0.248069 0.777559
O O3 0.594631 0.166902 0.657759
O O4 0.000000 0.000000 0.000000
O O5 0.651342 0.343863 0.098502
O O6 0.986335 0.272324 0.354567
O O7 0.635517 0.533517 0.915255
O O8 0.839369 0.325903 0.966813
O O9 0.494432 0.743078 0.869870
O O10 0.500000 0.500000 0.500000
O O11 0.893023 0.329752 0.694200
O O12 0.361518 0.146074 0.608329
O O13 0.475711 0.126546 0.388653
O O14 0.757069 0.920287 0.860684
O O15 0.229013 0.128195 0.807963
O O16 0.322042 0.986582 0.702452
O O17 0.255017 0.246669 0.941647
#
# Coordination Sequence:
#
# PCOD8005227 Si02
#       8
#     2   2   2   2   2   2   2   2
#     4  11  22  41  68  95 130 163 211 264 311 376
#     4  11  24  42  65  87 134 168 210 258 319 382
#     4  10  24  44  62  95 129 167 208 265 314 377
#     4  12  24  42  65  93 125 174 212 254 323 376
#     4  10  20  38  65  95 129 161 210 263 314 371
#     4  11  23  38  66  95 127 168 208 260 323 371
#     4  10  21  41  66  95 124 163 217 259 316 375
#     4  11  22  40  64  92 132 163 210 267 314 378
#
# _framework density 20.326930999999998
#
# number of rings (size 3 to 8) (size 9 to 14) (size 15 to 20)
#    0.000    1.250    2.500    5.250    3.500    2.500 
#    2.250    2.500    0.000    0.000    0.000    0.000 
#    0.000    0.000    0.000    0.000    0.000    0.000 
#
# Total GULP energy -198371.456148 kJ/mol
# GULP energy per Si atom -12398.216009 kJ/mol
# Density = 2.028067 g / cm^3
# Si number density = 20.326931 Si / 1000 Ang^3
#
#
#
# Elastic Constant Matrix: (Units=GPa)
#
#
# Indices 1 2 3 4 5 6 
#
# 1 103.5726 69.5588 37.9113 -5.9620 7.7146 -1.0346
# 2 69.5588 149.2621 51.8659 0.3329 6.0335 10.5033
# 3 37.9113 51.8659 82.8243 -8.8580 14.3339 12.5225
# 4 -5.9620 0.3329 -8.8580 31.0212 -0.7053 1.4179
# 5 7.7146 6.0335 14.3339 -0.7053 31.4678 -2.2445
# 6 -1.0346 10.5033 12.5225 1.4179 -2.2445 36.3514
#
#
#
# Elastic Compliance Matrix: (Units=1/GPa)
#
#
# Indices 1 2 3 4 5 6 
#
# 1 0.015163 -0.006137 -0.003242 0.001890 -0.000794 0.003199
# 2 -0.006137 0.011163 -0.004388 -0.002447 0.001186 -0.001720
# 3 -0.003242 -0.004388 0.019018 0.004963 -0.007345 -0.006023
# 4 0.001890 -0.002447 0.004963 0.034114 -0.001660 -0.002382
# 5 -0.000794 0.001186 -0.007345 -0.001660 0.035369 0.004414
# 6 0.003199 -0.001720 -0.006023 -0.002382 0.004414 0.030537
#
#
# Mechanical properties :
#
#
# Convention : Reuss Voigt Hill
#
# Bulk Modulus (GPa) = 56.14687 72.70347 64.42517
# Shear Modulus (GPa) = 27.95870 31.52294 29.74082
#
# Velocity S-wave (km/s) = 3.71273 3.94229 3.82923
# Velocity P-wave (km/s) = 6.78683 7.52110 7.16338
#
# Compressibility (1/GPa) = 0.01781043
#
# Stress axis : x y z
#
# Youngs Moduli (GPa) = 65.94941 89.58188 52.58163
#
# Poissons Ratio (x) = 0.54977 0.17045
# Poissons Ratio (y) = 0.40474 0.23073
# Poissons Ratio (z) = 0.21378 0.39310
#
# Static dielectric constant tensor:
#      x y z
#    x 3.803940 0.072590 0.044020 
#    y 0.072590 3.725460 0.160870 
#    z 0.044020 0.160870 3.807580 
# 
# 
# High freq. dielectric constant tensor:
#      x y z
#    x 1.794200 0.005100 0.007880 
#    y 0.005100 1.800240 0.013960 
#    z 0.007880 0.013960 1.795740 
# 
# From -- ./inp_files/272682.got.cif
#   From: 2010.06.25/outbox.cif.g09.slc.cpg/sg2_137_cif.got.tgz:272682.got - 2010.06.27 13:26:56.
