data_PCOD8005050
_publ_section_title
;
Structure prediction by ZEFSAII (Michael W. Deem and Ramdas Pophale) SiO2 
 PCOD8005050
Probable space group: P -1
;
_chemical_formula_sum "Si O2"
_cell_formula_units_Z 16
_cell_length_a 7.818439
_cell_length_b 22.384974
_cell_length_c 13.598142
_cell_angle_alpha 20.906703
_cell_angle_beta 73.806349
_cell_angle_gamma 65.527716
_cell_volume 728.895130
_symmetry_space_group_name_H-M "P -1"
_symmetry_group_IT_number 2
_symmetry_cell_setting 'triclinic'
loop_
_space_group_symop_operation_xyz
x,y,z
-x,-y,-z
loop_
_atom_site_type_symbol
_atom_site_label
_atom_site_fract_x
_atom_site_fract_y
_atom_site_fract_z
Si Si1 0.415147 0.075736 0.252715
Si Si2 0.313754 0.487875 0.357417
Si Si3 0.130712 0.661521 0.604963
Si Si4 0.141908 0.010376 0.748500
Si Si5 0.939953 0.782298 0.063519
Si Si6 0.315276 0.856197 0.151885
Si Si7 0.463644 0.285567 0.098412
Si Si8 0.820835 0.753918 0.348261
O O1 0.636727 0.029492 0.253798
O O2 0.415443 0.885584 0.584922
O O3 0.251812 0.154529 0.072723
O O4 0.360092 0.224910 0.120185
O O5 0.479752 0.312871 0.662129
O O6 0.280948 0.387123 0.419956
O O7 0.383330 0.643576 0.078485
O O8 0.113314 0.581132 0.311038
O O9 0.249897 0.779137 0.376022
O O10 0.991407 0.764898 0.561897
O O11 0.012525 0.654134 0.538835
O O12 0.285682 0.450812 0.932914
O O13 0.035135 0.929741 0.813823
O O14 0.152327 0.913562 0.002562
O O15 0.877365 0.771262 0.200700
O O16 0.333196 0.043112 0.895104
#
# Coordination Sequence:
#
# PCOD8005050 Si02
#       8
#     2   2   2   2   2   2   2   2
#     4  11  25  45  65  86 123 169 210 262 305 354
#     4  11  23  36  63  93 123 165 204 257 306 362
#     4  10  20  40  67  88 128 162 203 250 306 376
#     4  11  21  42  65  93 127 166 197 255 315 362
#     4  12  23  40  63  99 125 158 208 253 311 373
#     4  10  20  38  64  89 132 165 194 247 312 380
#     4  10  24  46  62  87 122 165 219 254 301 366
#     4  11  20  38  61  97 128 159 199 249 314 377
#
# _framework density 21.951032000000001
#
# number of rings (size 3 to 8) (size 9 to 14) (size 15 to 20)
#    0.000    1.250    3.750    3.000    0.000    3.500 
#    2.250    0.625    0.000    0.000    0.000    0.000 
#    0.000    0.000    0.000    0.000    0.000    0.000 
#
# Total GULP energy -198318.873034 kJ/mol
# GULP energy per Si atom -12394.929565 kJ/mol
# Density = 2.190107 g / cm^3
# Si number density = 21.951032 Si / 1000 Ang^3
#
#
#
# Elastic Constant Matrix: (Units=GPa)
#
#
# Indices 1 2 3 4 5 6 
#
# 1 111.7848 16.5817 30.7419 -10.8105 -2.0348 4.0572
# 2 16.5817 50.7054 27.8407 -23.8184 9.9418 -4.8967
# 3 30.7419 27.8407 101.9707 -27.8125 -7.4634 -6.7671
# 4 -10.8105 -23.8184 -27.8125 33.3005 -5.9098 4.1038
# 5 -2.0348 9.9418 -7.4634 -5.9098 30.2243 -8.8156
# 6 4.0572 -4.8967 -6.7671 4.1038 -8.8156 33.2450
#
#
#
# Elastic Compliance Matrix: (Units=1/GPa)
#
#
# Indices 1 2 3 4 5 6 
#
# 1 0.010042 -0.002157 -0.002620 -0.000203 0.000109 -0.002023
# 2 -0.002157 0.032646 -0.004040 0.017798 -0.008456 -0.000190
# 3 -0.002620 -0.004040 0.015237 0.009938 0.007939 0.003705
# 4 -0.000203 0.017798 0.009938 0.052198 0.006801 0.000029
# 5 0.000109 -0.008456 0.007939 0.006801 0.042296 0.010733
# 6 -0.002023 -0.000190 0.003705 0.000029 0.010733 0.033895
#
#
# Mechanical properties :
#
#
# Convention : Reuss Voigt Hill
#
# Bulk Modulus (GPa) = 24.81956 46.08773 35.45364
# Shear Modulus (GPa) = 23.00138 31.97373 27.48756
#
# Velocity S-wave (km/s) = 3.24056 3.82067 3.54251
# Velocity P-wave (km/s) = 5.03319 6.36433 5.73749
#
# Compressibility (1/GPa) = 0.04029081
#
# Stress axis : x y z
#
# Youngs Moduli (GPa) = 99.58089 30.63188 65.62904
#
# Poissons Ratio (x) = 0.06608 0.17194
# Poissons Ratio (y) = 0.21483 0.26513
# Poissons Ratio (z) = 0.26090 0.12375
#
# Static dielectric constant tensor:
#      x y z
#    x 4.188330 0.012870 -0.123460 
#    y 0.012870 3.901360 -0.409130 
#    z -0.123460 -0.409130 4.040060 
# 
# 
# High freq. dielectric constant tensor:
#      x y z
#    x 1.872020 -0.006080 -0.006620 
#    y -0.006080 1.844440 -0.034790 
#    z -0.006620 -0.034790 1.862100 
# 
# From -- ./inp_files/508701.got.cif
#   From: 2010.06.25/outbox.cif.g09.slc.cpg/sg2_255_cif.got.tgz:508701.got - 2010.06.27 13:26:56.
