data_PCOD8005724
_publ_section_title
;
Structure prediction by ZEFSAII (Michael W. Deem and Ramdas Pophale) SiO2 
 PCOD8005724
Probable space group: P -1
;
_chemical_formula_sum "Si O2"
_cell_formula_units_Z 14
_cell_length_a 15.009680
_cell_length_b 10.077100
_cell_length_c 17.341541
_cell_angle_alpha 45.308347
_cell_angle_beta 157.124977
_cell_angle_gamma 140.170817
_cell_volume 652.965254
_symmetry_space_group_name_H-M "P -1"
_symmetry_group_IT_number 2
_symmetry_cell_setting 'triclinic'
loop_
_space_group_symop_operation_xyz
x,y,z
-x,-y,-z
loop_
_atom_site_type_symbol
_atom_site_label
_atom_site_fract_x
_atom_site_fract_y
_atom_site_fract_z
Si Si1 0.553478 0.748437 0.646192
Si Si2 0.085971 0.820499 0.272647
Si Si3 0.894500 0.022928 0.287279
Si Si4 0.134305 0.345066 0.676610
Si Si5 0.441035 0.809263 0.112842
Si Si6 0.661996 0.508153 0.961162
Si Si7 0.582103 0.582246 0.445760
O O1 0.355519 0.815658 0.502303
O O2 0.583205 0.588566 0.790237
O O3 0.435224 0.625905 0.523238
O O4 0.833069 0.939026 0.780367
O O5 0.918666 0.759319 0.239995
O O6 0.931457 0.668185 0.143141
O O7 0.137031 0.237584 0.404505
O O8 0.972113 0.840069 0.396138
O O9 0.741043 0.950281 0.276017
O O10 0.719238 0.054529 0.065853
O O11 0.440243 0.462988 0.865656
O O12 0.000000 0.500000 0.500000
O O13 0.325188 0.690885 0.986204
O O14 0.410691 0.674201 0.222473
O O15 0.500000 0.500000 0.500000
#
# Coordination Sequence:
#
# PCOD8005724 Si02
#       7
#     2   2   2   2   2   2   2
#     4  10  22  38  60  86 122 155 201 244 286 369
#     4  11  21  38  60  87 121 161 193 240 304 353
#     4  10  21  41  62  88 123 158 200 248 303 356
#     4  11  22  40  60  91 124 153 201 254 294 358
#     4   9  21  40  63  90 119 156 205 250 295 362
#     4  10  20  39  62  87 119 157 198 244 299 353
#     4  11  22  39  62  91 121 160 198 248 308 352
#
# _framework density 21.440652
#
# number of rings (size 3 to 8) (size 9 to 14) (size 15 to 20)
#    0.000    1.714    1.429    3.000    0.000    0.571 
#   10.286    1.429    0.000    0.000    0.000    0.000 
#    0.000    0.000    0.000    0.000    0.000    0.000 
#
# Total GULP energy -173445.106274 kJ/mol
# GULP energy per Si atom -12388.936162 kJ/mol
# Density = 2.139185 g / cm^3
# Si number density = 21.440652 Si / 1000 Ang^3
#
#
#
# Elastic Constant Matrix: (Units=GPa)
#
#
# Indices 1 2 3 4 5 6 
#
# 1 114.6465 41.6739 24.9266 7.3059 -4.5184 12.0871
# 2 41.6739 113.0716 26.8556 34.9858 11.8488 3.9858
# 3 24.9266 26.8556 59.9235 14.6415 5.4796 3.5010
# 4 7.3059 34.9858 14.6415 55.0428 -1.3417 -5.7060
# 5 -4.5184 11.8488 5.4796 -1.3417 20.2524 -7.2545
# 6 12.0871 3.9858 3.5010 -5.7060 -7.2545 37.4409
#
#
#
# Elastic Compliance Matrix: (Units=1/GPa)
#
#
# Indices 1 2 3 4 5 6 
#
# 1 0.011453 -0.004674 -0.003741 0.002456 0.005994 -0.001314
# 2 -0.004674 0.015060 -0.001289 -0.009260 -0.011406 -0.003595
# 3 -0.003741 -0.001289 0.020748 -0.004647 -0.006951 -0.002650
# 4 0.002456 -0.009260 -0.004647 0.025944 0.011372 0.006785
# 5 0.005994 -0.011406 -0.006951 0.011372 0.065138 0.014283
# 6 -0.001314 -0.003595 -0.002650 0.006785 0.014283 0.031565
#
#
# Mechanical properties :
#
#
# Convention : Reuss Voigt Hill
#
# Bulk Modulus (GPa) = 35.90419 52.72822 44.31621
# Shear Modulus (GPa) = 25.17610 35.49290 30.33450
#
# Velocity S-wave (km/s) = 3.43041 4.07308 3.76548
# Velocity P-wave (km/s) = 5.69846 6.83856 6.29438
#
# Compressibility (1/GPa) = 0.02785190
#
# Stress axis : x y z
#
# Youngs Moduli (GPa) = 87.31149 66.40093 48.19790
#
# Poissons Ratio (x) = 0.31039 0.18029
# Poissons Ratio (y) = 0.40813 0.06215
# Poissons Ratio (z) = 0.32661 0.08562
#
# Static dielectric constant tensor:
#      x y z
#    x 3.756810 0.139650 -0.035130 
#    y 0.139650 3.625480 0.327080 
#    z -0.035130 0.327080 3.484320 
# 
# 
# High freq. dielectric constant tensor:
#      x y z
#    x 1.830220 0.008710 0.000600 
#    y 0.008710 1.864660 0.000290 
#    z 0.000600 0.000290 1.823500 
# 
# From -- ./inp_files/74404.got.cif
#   From: 2010.06.25/outbox.cif.g09.slc.cpg/sg2_38_cif.got.tgz:74404.got - 2010.06.27 13:26:56.
