data_PCOD8005348
_publ_section_title
;
Structure prediction by ZEFSAII (Michael W. Deem and Ramdas Pophale) SiO2 
 PCOD8005348
Probable space group: P -1
;
_chemical_formula_sum "Si O2"
_cell_formula_units_Z 16
_cell_length_a 8.206331
_cell_length_b 8.792580
_cell_length_c 12.421825
_cell_angle_alpha 58.650774
_cell_angle_beta 81.710783
_cell_angle_gamma 87.352662
_cell_volume 757.009320
_symmetry_space_group_name_H-M "P -1"
_symmetry_group_IT_number 2
_symmetry_cell_setting 'triclinic'
loop_
_space_group_symop_operation_xyz
x,y,z
-x,-y,-z
loop_
_atom_site_type_symbol
_atom_site_label
_atom_site_fract_x
_atom_site_fract_y
_atom_site_fract_z
Si Si1 0.505778 0.645606 0.208271
Si Si2 0.801287 0.858805 0.039376
Si Si3 0.376947 0.983014 0.186042
Si Si4 0.112856 0.879031 0.874338
Si Si5 0.592948 0.323335 0.023259
Si Si6 0.484154 0.345109 0.473958
Si Si7 0.198649 0.882038 0.442086
Si Si8 0.842154 0.895542 0.424827
O O1 0.696368 0.678032 0.143106
O O2 0.475587 0.443005 0.323477
O O3 0.466087 0.792548 0.250437
O O4 0.387117 0.672852 0.108315
O O5 0.853173 0.954131 0.109721
O O6 0.689507 0.997703 0.935750
O O7 0.937879 0.800337 0.962162
O O8 0.499279 0.146769 0.142206
O O9 0.237239 0.985830 0.289133
O O10 0.226322 0.705954 0.934609
O O11 0.119318 0.955081 0.724784
O O12 0.500000 0.500000 0.000000
O O13 0.500000 0.500000 0.500000
O O14 0.655135 0.247404 0.498482
O O15 0.314700 0.228682 0.550302
O O16 0.013959 0.793030 0.471145
O O17 0.203083 0.015792 0.491545
#
# Coordination Sequence:
#
# PCOD8005348 Si02
#       8
#     2   2   2   2   2   2   2   2
#     4  11  22  42  60  97 133 171 219 271 336 406
#     4  10  20  38  67  92 122 169 221 274 328 391
#     4  11  19  44  66  89 131 174 224 267 333 404
#     4  11  20  39  66  96 124 169 223 273 333 392
#     4  11  24  37  64  99 129 168 216 281 339 398
#     4  12  25  43  69 101 136 179 227 283 334 391
#     4  11  25  46  68  99 137 185 226 275 336 410
#     4  11  26  45  70  99 137 183 228 273 339 410
#
# _framework density 21.135801000000001
#
# number of rings (size 3 to 8) (size 9 to 14) (size 15 to 20)
#    0.000    1.000    5.000    2.625    3.500    0.500 
#    2.250    2.500    0.000    0.000    0.000    0.000 
#    0.000    0.000    0.000    0.000    0.000    0.000 
#
# Total GULP energy -198219.021801 kJ/mol
# GULP energy per Si atom -12388.688863 kJ/mol
# Density = 2.108770 g / cm^3
# Si number density = 21.135801 Si / 1000 Ang^3
#
#
#
# Elastic Constant Matrix: (Units=GPa)
#
#
# Indices 1 2 3 4 5 6 
#
# 1 148.4826 41.8675 33.0872 -9.7473 -4.7311 -21.1203
# 2 41.8675 76.4313 19.1254 -0.4917 -5.5312 -14.4319
# 3 33.0872 19.1254 94.7246 2.0070 -17.6608 -5.0780
# 4 -9.7473 -0.4917 2.0070 32.5617 -5.0019 6.5797
# 5 -4.7311 -5.5312 -17.6608 -5.0019 27.3071 5.1616
# 6 -21.1203 -14.4319 -5.0780 6.5797 5.1616 29.3457
#
#
#
# Elastic Compliance Matrix: (Units=1/GPa)
#
#
# Indices 1 2 3 4 5 6 
#
# 1 0.008950 -0.003600 -0.002443 0.001770 -0.001203 0.004063
# 2 -0.003600 0.016547 -0.001700 -0.001823 0.000232 0.005621
# 3 -0.002443 -0.001700 0.013167 0.000025 0.008082 -0.001744
# 4 0.001770 -0.001823 0.000025 0.034167 0.007849 -0.008660
# 5 -0.001203 0.000232 0.008082 0.007849 0.044824 -0.008997
# 6 0.004063 0.005621 -0.001744 -0.008660 -0.008997 0.042987
#
#
# Mechanical properties :
#
#
# Convention : Reuss Voigt Hill
#
# Bulk Modulus (GPa) = 43.14627 56.42209 49.78418
# Shear Modulus (GPa) = 27.19523 32.88012 30.03767
#
# Velocity S-wave (km/s) = 3.59094 3.94846 3.77394
# Velocity P-wave (km/s) = 6.13606 6.89494 6.52654
#
# Compressibility (1/GPa) = 0.02317697
#
# Stress axis : x y z
#
# Youngs Moduli (GPa) = 111.73127 60.43250 75.95025
#
# Poissons Ratio (x) = 0.21754 0.18557
# Poissons Ratio (y) = 0.40220 0.12915
# Poissons Ratio (z) = 0.27300 0.10276
#
# Static dielectric constant tensor:
#      x y z
#    x 4.759080 -0.818200 0.314750 
#    y -0.818200 4.448720 -0.435850 
#    z 0.314750 -0.435850 4.461170 
# 
# 
# High freq. dielectric constant tensor:
#      x y z
#    x 1.838160 -0.011880 0.000710 
#    y -0.011880 1.801440 0.017670 
#    z 0.000710 0.017670 1.844790 
# 
# From -- ./inp_files/377928.got.cif
#   From: 2010.06.25/outbox.cif.g09.slc.cpg/sg2_189_cif.got.tgz:377928.got - 2010.06.27 13:26:56.
