data_PCOD8005020
_publ_section_title
;
Structure prediction by ZEFSAII (Michael W. Deem and Ramdas Pophale) SiO2 
 PCOD8005020
Probable space group: P -1
;
_chemical_formula_sum "Si O2"
_cell_formula_units_Z 16
_cell_length_a 8.120456
_cell_length_b 8.833028
_cell_length_c 16.242950
_cell_angle_alpha 121.850536
_cell_angle_beta 113.006247
_cell_angle_gamma 100.798666
_cell_volume 787.088949
_symmetry_space_group_name_H-M "P -1"
_symmetry_group_IT_number 2
_symmetry_cell_setting 'triclinic'
loop_
_space_group_symop_operation_xyz
x,y,z
-x,-y,-z
loop_
_atom_site_type_symbol
_atom_site_label
_atom_site_fract_x
_atom_site_fract_y
_atom_site_fract_z
Si Si1 0.048072 0.242910 0.209939
Si Si2 0.982460 0.047844 0.416687
Si Si3 0.631047 0.937844 0.102086
Si Si4 0.793076 0.035754 0.828410
Si Si5 0.728151 0.583872 0.530707
Si Si6 0.826440 0.322577 0.061300
Si Si7 0.665110 0.170702 0.334368
Si Si8 0.146695 0.254017 0.832693
O O1 0.022352 0.389172 0.180063
O O2 0.111989 0.349458 0.342405
O O3 0.814047 0.044399 0.102352
O O4 0.205054 0.164299 0.188337
O O5 0.903837 0.829300 0.294046
O O6 0.193995 0.225058 0.463802
O O7 0.808219 0.112830 0.398633
O O8 0.000000 0.000000 0.500000
O O9 0.652788 0.757340 0.101142
O O10 0.668239 0.121438 0.224626
O O11 0.400923 0.832533 0.987652
O O12 0.951781 0.096091 0.802835
O O13 0.573580 0.968249 0.724125
O O14 0.861784 0.219242 0.958687
O O15 0.500000 0.500000 0.500000
O O16 0.741936 0.409640 0.431878
O O17 0.821511 0.521786 0.087994
#
# Coordination Sequence:
#
# PCOD8005020 Si02
#       8
#     2   2   2   2   2   2   2   2
#     4  11  21  38  58  88 125 151 205 257 299 353
#     4  11  24  41  63  92 125 156 206 261 297 361
#     4   9  20  38  59  83 120 159 195 252 307 357
#     4  10  20  41  58  86 124 163 197 246 313 356
#     4  12  22  42  67  87 123 168 199 248 316 362
#     4  11  22  33  63  90 115 160 208 245 298 367
#     4  10  20  38  64  86 116 164 206 241 309 370
#     4  10  20  40  58  85 126 161 196 249 310 362
#
# _framework density 20.328071000000001
#
# number of rings (size 3 to 8) (size 9 to 14) (size 15 to 20)
#    0.000    1.500    5.000    1.875    1.750    0.000 
#    2.250    1.250    0.000    0.000    0.000    0.000 
#    0.000    0.000    0.000    0.000    0.000    0.000 
#
# Total GULP energy -198263.769378 kJ/mol
# GULP energy per Si atom -12391.485586 kJ/mol
# Density = 2.028180 g / cm^3
# Si number density = 20.328071 Si / 1000 Ang^3
#
#
#
# Elastic Constant Matrix: (Units=GPa)
#
#
# Indices 1 2 3 4 5 6 
#
# 1 99.6293 26.2409 16.4069 -8.0752 13.1669 -13.3351
# 2 26.2409 70.1866 37.7692 2.3228 0.8991 -12.8292
# 3 16.4069 37.7692 75.4403 -2.3904 -2.5633 -9.5148
# 4 -8.0752 2.3228 -2.3904 33.2961 -12.3227 -9.3703
# 5 13.1669 0.8991 -2.5633 -12.3227 34.2257 4.0535
# 6 -13.3351 -12.8292 -9.5148 -9.3703 4.0535 26.4781
#
#
#
# Elastic Compliance Matrix: (Units=1/GPa)
#
#
# Indices 1 2 3 4 5 6 
#
# 1 0.012734 -0.003506 -0.000221 0.003565 -0.004316 0.006558
# 2 -0.003506 0.021680 -0.009613 -0.002208 -0.001292 0.004701
# 3 -0.000221 -0.009613 0.018691 0.003787 0.002762 0.002866
# 4 0.003565 -0.002208 0.003787 0.039632 0.011541 0.014345
# 5 -0.004316 -0.001292 0.002762 0.011541 0.035651 -0.003181
# 6 0.006558 0.004701 0.002866 0.014345 -0.003181 0.049941
#
#
# Mechanical properties :
#
#
# Convention : Reuss Voigt Hill
#
# Bulk Modulus (GPa) = 37.84078 45.12116 41.48097
# Shear Modulus (GPa) = 23.38436 29.78925 26.58680
#
# Velocity S-wave (km/s) = 3.39536 3.83224 3.62039
# Velocity P-wave (km/s) = 5.83324 6.46731 6.15844
#
# Compressibility (1/GPa) = 0.02642652
#
# Stress axis : x y z
#
# Youngs Moduli (GPa) = 78.52887 46.12461 53.50055
#
# Poissons Ratio (x) = 0.16173 0.01181
# Poissons Ratio (y) = 0.27534 0.51429
# Poissons Ratio (z) = 0.01733 0.44339
#
# Static dielectric constant tensor:
#      x y z
#    x 3.936910 -0.281990 0.127190 
#    y -0.281990 3.583340 0.075360 
#    z 0.127190 0.075360 3.661710 
# 
# 
# High freq. dielectric constant tensor:
#      x y z
#    x 1.801950 -0.024680 0.000650 
#    y -0.024680 1.776350 0.007350 
#    z 0.000650 0.007350 1.795790 
# 
# From -- ./inp_files/556602.got.cif
#   From: 2010.06.25/outbox.cif.g09.slc.cpg/sg2_279_cif.got.tgz:556602.got - 2010.06.27 13:26:56.
