data_PCOD8005177
_publ_section_title
;
Structure prediction by ZEFSAII (Michael W. Deem and Ramdas Pophale) SiO2 
 PCOD8005177
Probable space group: P -1
;
_chemical_formula_sum "Si O2"
_cell_formula_units_Z 16
_cell_length_a 14.110224
_cell_length_b 14.301152
_cell_length_c 9.740598
_cell_angle_alpha 83.170356
_cell_angle_beta 70.064051
_cell_angle_gamma 143.897591
_cell_volume 764.479401
_symmetry_space_group_name_H-M "P -1"
_symmetry_group_IT_number 2
_symmetry_cell_setting 'triclinic'
loop_
_space_group_symop_operation_xyz
x,y,z
-x,-y,-z
loop_
_atom_site_type_symbol
_atom_site_label
_atom_site_fract_x
_atom_site_fract_y
_atom_site_fract_z
Si Si1 0.371519 0.501892 0.224069
Si Si2 0.183060 0.486213 0.121159
Si Si3 0.627940 0.034151 0.526911
Si Si4 0.563704 0.968028 0.878469
Si Si5 0.925228 0.679496 0.357511
Si Si6 0.868948 0.951814 0.781142
Si Si7 0.282104 0.213273 0.401897
Si Si8 0.347366 0.609704 0.718578
O O1 0.249688 0.439391 0.156100
O O2 0.300799 0.334296 0.311082
O O3 0.284571 0.495101 0.392766
O O4 0.660978 0.746724 0.025319
O O5 0.915911 0.289674 0.331694
O O6 0.380377 0.726613 0.043244
O O7 0.186966 0.489546 0.953760
O O8 0.500000 0.000000 0.500000
O O9 0.536248 0.978916 0.734345
O O10 0.547220 0.860457 0.554702
O O11 0.840073 0.173511 0.728361
O O12 0.500000 0.000000 0.000000
O O13 0.829489 0.542567 0.296818
O O14 0.993494 0.843799 0.254477
O O15 0.764749 0.893031 0.690236
O O16 0.055733 0.023523 0.652814
O O17 0.513157 0.371756 0.341594
#
# Coordination Sequence:
#
# PCOD8005177 Si02
#       8
#     2   2   2   2   2   2   2   2
#     4  11  21  39  69  94 125 172 222 258 310 387
#     4  11  24  44  70  93 130 172 214 264 320 382
#     4  11  27  46  67  97 129 168 218 265 320 390
#     4  11  25  43  71  95 129 168 216 269 325 378
#     4  11  24  42  62  96 134 168 211 269 324 379
#     4  10  20  38  65  90 131 166 221 258 312 378
#     4  10  22  37  67  95 127 173 221 261 312 384
#     4  11  26  43  64  96 138 169 209 271 325 373
#
# _framework density 20.929275000000001
#
# number of rings (size 3 to 8) (size 9 to 14) (size 15 to 20)
#    0.000    1.250    3.750    1.125    7.000    5.500 
#    0.000    1.250    0.000    0.000    0.000    0.000 
#    0.000    0.000    0.000    0.000    0.000    0.000 
#
# Total GULP energy -198407.250074 kJ/mol
# GULP energy per Si atom -12400.453130 kJ/mol
# Density = 2.088164 g / cm^3
# Si number density = 20.929275 Si / 1000 Ang^3
#
#
#
# Elastic Constant Matrix: (Units=GPa)
#
#
# Indices 1 2 3 4 5 6 
#
# 1 110.7500 36.2484 41.1410 -3.1382 1.2260 2.6600
# 2 36.2484 120.1619 50.6783 8.5928 0.4093 -0.3363
# 3 41.1410 50.6783 138.5755 -11.4852 -11.1528 -8.7945
# 4 -3.1382 8.5928 -11.4852 29.9004 3.3945 -6.7195
# 5 1.2260 0.4093 -11.1528 3.3945 28.1604 6.1611
# 6 2.6600 -0.3363 -8.7945 -6.7195 6.1611 24.0044
#
#
#
# Elastic Compliance Matrix: (Units=1/GPa)
#
#
# Indices 1 2 3 4 5 6 
#
# 1 0.010768 -0.002215 -0.002543 0.000533 -0.001132 -0.001716
# 2 -0.002215 0.011083 -0.004045 -0.005480 -0.000460 -0.002497
# 3 -0.002543 -0.004045 0.010448 0.005751 0.002517 0.005017
# 4 0.000533 -0.005480 0.005751 0.041346 -0.005947 0.015072
# 5 -0.001132 -0.000460 0.002517 -0.005947 0.039643 -0.010799
# 6 -0.001716 -0.002497 0.005017 0.015072 -0.010799 0.050643
#
#
# Mechanical properties :
#
#
# Convention : Reuss Voigt Hill
#
# Bulk Modulus (GPa) = 68.05944 69.51366 68.78655
# Shear Modulus (GPa) = 26.81912 32.50767 29.66340
#
# Velocity S-wave (km/s) = 3.58357 3.94536 3.76881
# Velocity P-wave (km/s) = 7.05068 7.35120 7.20251
#
# Compressibility (1/GPa) = 0.01469304
#
# Stress axis : x y z
#
# Youngs Moduli (GPa) = 92.87068 90.22982 95.71152
#
# Poissons Ratio (x) = 0.19985 0.24336
# Poissons Ratio (y) = 0.20570 0.38717
# Poissons Ratio (z) = 0.23613 0.36500
#
# Static dielectric constant tensor:
#      x y z
#    x 3.720360 -0.059560 -0.111950 
#    y -0.059560 3.704500 -0.089830 
#    z -0.111950 -0.089830 4.092930 
# 
# 
# High freq. dielectric constant tensor:
#      x y z
#    x 1.811970 -0.003520 -0.009960 
#    y -0.003520 1.805980 -0.008170 
#    z -0.009960 -0.008170 1.837030 
# 
# From -- ./inp_files/38879.got.cif
#   From: 2010.06.25/outbox.cif.g09.slc.cpg/sg2_20_cif.got.tgz:38879.got - 2010.06.27 13:26:56.
