data_PCOD8005923
_publ_section_title
;
Structure prediction by ZEFSAII (Michael W. Deem and Ramdas Pophale) SiO2 
 PCOD8005923
Probable space group: P -1
;
_chemical_formula_sum "Si O2"
_cell_formula_units_Z 16
_cell_length_a 15.515243
_cell_length_b 9.058983
_cell_length_c 23.090368
_cell_angle_alpha 129.826292
_cell_angle_beta 162.366852
_cell_angle_gamma 49.160131
_cell_volume 741.648795
_symmetry_space_group_name_H-M "P -1"
_symmetry_group_IT_number 2
_symmetry_cell_setting 'triclinic'
loop_
_space_group_symop_operation_xyz
x,y,z
-x,-y,-z
loop_
_atom_site_type_symbol
_atom_site_label
_atom_site_fract_x
_atom_site_fract_y
_atom_site_fract_z
Si Si1 0.795526 0.184882 0.982387
Si Si2 0.847118 0.182306 0.486717
Si Si3 0.305582 0.469504 0.155895
Si Si4 0.184744 0.913412 0.425846
Si Si5 0.844045 0.585971 0.084274
Si Si6 0.659787 0.116027 0.751116
Si Si7 0.560537 0.707401 0.107307
Si Si8 0.644982 0.164628 0.107738
O O1 0.631419 0.163574 0.812725
O O2 0.549214 0.215191 0.880923
O O3 0.970654 0.364769 0.130956
O O4 0.021073 0.986877 0.090989
O O5 0.554739 0.305288 0.302431
O O6 0.758044 0.115648 0.476334
O O7 0.093496 0.313330 0.683433
O O8 0.000000 0.000000 0.500000
O O9 0.420049 0.677108 0.281787
O O10 0.237205 0.398063 0.030758
O O11 0.000000 0.500000 0.000000
O O12 0.070414 0.726770 0.279180
O O13 0.457672 0.953101 0.572912
O O14 0.969820 0.121342 0.328660
O O15 0.540913 0.631718 0.937526
O O16 0.500000 0.500000 0.000000
O O17 0.378564 0.855577 0.981694
O O18 0.500000 0.000000 0.000000
#
# Coordination Sequence:
#
# PCOD8005923 Si02
#       8
#     2   2   2   2   2   2   2   2
#     4  10  22  42  68  95 138 183 228 278 347 406
#     4  12  26  43  72 106 132 182 235 282 342 413
#     4  11  28  47  69  99 143 182 230 284 350 411
#     4  11  23  43  69  99 136 175 235 276 344 419
#     4  10  21  44  67  97 135 184 217 288 348 399
#     4  10  25  44  66  97 136 187 226 277 348 419
#     4  12  23  42  70 101 137 174 231 290 337 403
#     4  10  20  39  63  97 136 170 214 280 353 385
#
# _framework density 21.573554000000001
#
# number of rings (size 3 to 8) (size 9 to 14) (size 15 to 20)
#    0.000    1.250    3.750    1.500   10.500    0.500 
#    2.250    4.375    0.000    0.000    0.000    0.000 
#    0.000    0.000    0.000    0.000    0.000    0.000 
#
# Total GULP energy -198258.212273 kJ/mol
# GULP energy per Si atom -12391.138267 kJ/mol
# Density = 2.152445 g / cm^3
# Si number density = 21.573554 Si / 1000 Ang^3
#
#
#
# Elastic Constant Matrix: (Units=GPa)
#
#
# Indices 1 2 3 4 5 6 
#
# 1 97.4332 26.5965 42.9077 -14.6759 1.3106 4.6668
# 2 26.5965 109.0642 47.5959 -13.2064 -3.8187 10.6979
# 3 42.9077 47.5959 83.0631 -12.1233 2.4115 15.2445
# 4 -14.6759 -13.2064 -12.1233 44.9686 6.4546 0.9826
# 5 1.3106 -3.8187 2.4115 6.4546 36.0331 1.5250
# 6 4.6668 10.6979 15.2445 0.9826 1.5250 30.0887
#
#
#
# Elastic Compliance Matrix: (Units=1/GPa)
#
#
# Indices 1 2 3 4 5 6 
#
# 1 0.013642 -0.000204 -0.006775 0.002621 -0.000590 0.001334
# 2 -0.000204 0.012480 -0.006640 0.001614 0.001535 -0.001172
# 3 -0.006775 -0.006640 0.021001 0.001931 -0.001904 -0.007195
# 4 0.002621 0.001614 0.001931 0.024773 -0.004383 -0.002546
# 5 -0.000590 0.001535 -0.001904 -0.004383 0.028883 -0.000810
# 6 0.001334 -0.001172 -0.007195 -0.002546 -0.000810 0.037215
#
#
# Mechanical properties :
#
#
# Convention : Reuss Voigt Hill
#
# Bulk Modulus (GPa) = 50.28809 58.19563 54.24186
# Shear Modulus (GPa) = 29.09345 33.71545 31.40445
#
# Velocity S-wave (km/s) = 3.67627 3.95753 3.81949
# Velocity P-wave (km/s) = 6.43278 6.92219 6.68197
#
# Compressibility (1/GPa) = 0.01988542
#
# Stress axis : x y z
#
# Youngs Moduli (GPa) = 73.30525 80.12507 47.61648
#
# Poissons Ratio (x) = 0.01636 0.32259
# Poissons Ratio (y) = 0.01497 0.31617
# Poissons Ratio (z) = 0.49663 0.53202
#
# Static dielectric constant tensor:
#      x y z
#    x 3.880120 0.682870 -0.358040 
#    y 0.682870 2.155460 1.259160 
#    z -0.358040 1.259160 3.051160 
# 
# 
# High freq. dielectric constant tensor:
#      x y z
#    x 1.854070 0.008660 0.001480 
#    y 0.008660 1.858680 0.003510 
#    z 0.001480 0.003510 1.837250 
# 
# From -- ./inp_files/597449.got.cif
#   From: 2010.06.25/outbox.cif.g09.slc.cpg/sg2_299_cif.got.tgz:597449.got - 2010.06.27 13:26:56.
