data_PCOD8005457
_publ_section_title
;
Structure prediction by ZEFSAII (Michael W. Deem and Ramdas Pophale) SiO2 
 PCOD8005457
Probable space group: P -1
;
_chemical_formula_sum "Si O2"
_cell_formula_units_Z 10
_cell_length_a 7.403292
_cell_length_b 7.660373
_cell_length_c 9.628063
_cell_angle_alpha 53.914432
_cell_angle_beta 106.676260
_cell_angle_gamma 77.176557
_cell_volume 364.838771
_symmetry_space_group_name_H-M "P -1"
_symmetry_group_IT_number 2
_symmetry_cell_setting 'triclinic'
loop_
_space_group_symop_operation_xyz
x,y,z
-x,-y,-z
loop_
_atom_site_type_symbol
_atom_site_label
_atom_site_fract_x
_atom_site_fract_y
_atom_site_fract_z
Si Si1 0.749556 0.083704 0.391107
Si Si2 0.771379 0.907652 0.758653
Si Si3 0.329046 0.826898 0.111447
Si Si4 0.267013 0.549955 0.997870
Si Si5 0.776785 0.754049 0.317408
O O1 0.647761 0.100780 0.513795
O O2 0.717983 0.878310 0.397459
O O3 0.631240 0.353587 0.153017
O O4 0.000000 0.000000 0.500000
O O5 0.652368 0.749231 0.853627
O O6 0.784254 0.071530 0.811324
O O7 0.007481 0.707770 0.843365
O O8 0.304914 0.607163 0.138617
O O9 0.588122 0.708424 0.240235
O O10 0.201473 0.061591 0.870527
O O11 0.000000 0.500000 0.500000
#
# Coordination Sequence:
#
# PCOD8005457 Si02
#       5
#     2   2   2   2   2
#     4   9  20  40  62  97 129 174 220 271 331 395
#     4  10  20  38  71  95 135 174 222 274 332 397
#     4  10  22  43  65  98 133 177 223 276 331 403
#     4   9  20  39  65  99 134 177 215 272 341 388
#     4  10  23  42  66  94 137 173 221 282 335 392
#
# _framework density 27.409367
#
# number of rings (size 3 to 8) (size 9 to 14) (size 15 to 20)
#    0.000    2.400    0.000    0.600    8.400    0.800 
#    3.600    4.000    0.000    0.000    0.000    0.000 
#    0.000    0.000    0.000    0.000    0.000    0.000 
#
# Total GULP energy -123992.625311 kJ/mol
# GULP energy per Si atom -12399.262531 kJ/mol
# Density = 2.734698 g / cm^3
# Si number density = 27.409367 Si / 1000 Ang^3
#
#
#
# Elastic Constant Matrix: (Units=GPa)
#
#
# Indices 1 2 3 4 5 6 
#
# 1 78.0687 27.2683 49.1068 -10.6458 -15.2854 9.8670
# 2 27.2683 139.2928 67.4495 31.4158 -7.1464 3.4741
# 3 49.1068 67.4495 193.7689 4.7123 -3.6556 -14.6066
# 4 -10.6458 31.4158 4.7123 52.8503 -22.1702 7.0879
# 5 -15.2854 -7.1464 -3.6556 -22.1702 51.4362 6.0101
# 6 9.8670 3.4741 -14.6066 7.0879 6.0101 52.7043
#
#
#
# Elastic Compliance Matrix: (Units=1/GPa)
#
#
# Indices 1 2 3 4 5 6 
#
# 1 0.023321 -0.004461 -0.005138 0.014581 0.013278 -0.008971
# 2 -0.004461 0.011079 -0.002498 -0.009090 -0.004010 0.001092
# 3 -0.005138 -0.002498 0.007612 -0.001804 -0.002551 0.003770
# 4 0.014581 -0.009090 -0.001804 0.037202 0.020137 -0.009930
# 5 0.013278 -0.004010 -0.002551 0.020137 0.032419 -0.009334
# 6 -0.008971 0.001092 0.003770 -0.009930 -0.009334 0.024026
#
#
# Mechanical properties :
#
#
# Convention : Reuss Voigt Hill
#
# Bulk Modulus (GPa) = 56.12089 77.64216 66.88153
# Shear Modulus (GPa) = 30.15792 49.21854 39.68823
#
# Velocity S-wave (km/s) = 3.32064 4.24215 3.80936
# Velocity P-wave (km/s) = 5.93479 7.23760 6.61833
#
# Compressibility (1/GPa) = 0.01781868
#
# Stress axis : x y z
#
# Youngs Moduli (GPa) = 42.87955 90.25699 131.36425
#
# Poissons Ratio (x) = 0.40265 0.67491
# Poissons Ratio (y) = 0.19129 0.32819
# Poissons Ratio (z) = 0.22030 0.22549
#
# Static dielectric constant tensor:
#      x y z
#    x 5.448960 0.268710 0.038300 
#    y 0.268710 4.980420 -0.255850 
#    z 0.038300 -0.255850 8.250000 
# 
# 
# High freq. dielectric constant tensor:
#      x y z
#    x 2.128070 -0.000630 0.029330 
#    y -0.000630 2.094150 0.005570 
#    z 0.029330 0.005570 2.130990 
# 
# From -- ./inp_files/143960.got.cif
#   From: 2010.06.25/outbox.cif.g09.slc.cpg/sg2_72_cif.got.tgz:143960.got - 2010.06.27 13:26:56.
