data_PCOD8005489
_publ_section_title
;
Structure prediction by ZEFSAII (Michael W. Deem and Ramdas Pophale) SiO2 
 PCOD8005489
Probable space group: P -1
;
_chemical_formula_sum "Si O2"
_cell_formula_units_Z 16
_cell_length_a 7.473032
_cell_length_b 13.963050
_cell_length_c 14.532024
_cell_angle_alpha 149.449660
_cell_angle_beta 82.155667
_cell_angle_gamma 109.479744
_cell_volume 689.774202
_symmetry_space_group_name_H-M "P -1"
_symmetry_group_IT_number 2
_symmetry_cell_setting 'triclinic'
loop_
_space_group_symop_operation_xyz
x,y,z
-x,-y,-z
loop_
_atom_site_type_symbol
_atom_site_label
_atom_site_fract_x
_atom_site_fract_y
_atom_site_fract_z
Si Si1 0.568235 0.874135 0.003499
Si Si2 0.013897 0.648504 0.204879
Si Si3 0.005441 0.132921 0.197487
Si Si4 0.638980 0.043441 0.659534
Si Si5 0.337866 0.462365 0.359415
Si Si6 0.575558 0.402902 0.039613
Si Si7 0.667181 0.899805 0.742402
Si Si8 0.314159 0.604527 0.274569
O O1 0.603181 0.736901 0.806207
O O2 0.468623 0.708958 0.952895
O O3 0.415287 0.977684 0.078080
O O4 0.774152 0.067332 0.186114
O O5 0.160517 0.884466 0.357791
O O6 0.101557 0.578588 0.230240
O O7 0.786830 0.609733 0.209591
O O8 0.000000 0.500000 0.000000
O O9 0.133898 0.378813 0.366066
O O10 0.111911 0.069042 0.220734
O O11 0.000000 0.000000 0.000000
O O12 0.684602 0.992608 0.716471
O O13 0.461514 0.848967 0.464953
O O14 0.578331 0.239734 0.827235
O O15 0.515807 0.656170 0.553631
O O16 0.284873 0.510578 0.301152
O O17 0.405340 0.484262 0.100409
#
# Coordination Sequence:
#
# PCOD8005489 Si02
#       8
#     2   2   2   2   2   2   2   2
#     4   9  20  37  56  81 109 144 184 219 270 325
#     4  10  21  36  57  84 109 142 186 222 266 328
#     4  10  21  36  57  84 109 142 186 222 266 328
#     4   9  20  37  57  83 109 142 184 221 269 326
#     4   9  20  37  57  83 109 142 184 221 269 326
#     4   9  20  37  56  81 109 144 184 219 270 325
#     4  10  20  39  58  77 115 145 172 231 274 309
#     4  10  20  39  58  77 115 145 172 231 274 309
#
# _framework density 23.196000000000002
#
# number of rings (size 3 to 8) (size 9 to 14) (size 15 to 20)
#    0.000    2.500    0.000    0.750    0.000   14.000 
#    0.000   18.750    0.000    0.000    0.000    0.000 
#    0.000    0.000    0.000    0.000    0.000    0.000 
#
# Total GULP energy -198274.741788 kJ/mol
# GULP energy per Si atom -12392.171362 kJ/mol
# Density = 2.314320 g / cm^3
# Si number density = 23.196000 Si / 1000 Ang^3
#
#
#
# Elastic Constant Matrix: (Units=GPa)
#
#
# Indices 1 2 3 4 5 6 
#
# 1 79.8905 18.0388 15.5756 10.7905 6.8183 0.2114
# 2 18.0388 40.5351 17.7951 18.4496 2.2341 4.2045
# 3 15.5756 17.7951 81.3340 13.4953 1.2103 -2.6477
# 4 10.7905 18.4496 13.4953 28.0730 -3.8920 5.6142
# 5 6.8183 2.2341 1.2103 -3.8920 26.8795 1.4455
# 6 0.2114 4.2045 -2.6477 5.6142 1.4455 36.0812
#
#
#
# Elastic Compliance Matrix: (Units=1/GPa)
#
#
# Indices 1 2 3 4 5 6 
#
# 1 0.014461 -0.004580 -0.001245 -0.002641 -0.003663 0.000915
# 2 -0.004580 0.039069 -0.003892 -0.022534 -0.005114 -0.001100
# 3 -0.001245 -0.003892 0.014186 -0.004328 -0.000745 0.002205
# 4 -0.002641 -0.022534 -0.004328 0.056474 0.011287 -0.006916
# 5 -0.003663 -0.005114 -0.000745 0.011287 0.040376 -0.002811
# 6 0.000915 -0.001100 0.002205 -0.006916 -0.002811 0.029189
#
#
# Mechanical properties :
#
#
# Convention : Reuss Voigt Hill
#
# Bulk Modulus (GPa) = 20.71124 33.84207 27.27665
# Shear Modulus (GPa) = 21.80728 28.23007 25.01867
#
# Velocity S-wave (km/s) = 3.06948 3.49237 3.28773
# Velocity P-wave (km/s) = 4.63794 5.55729 5.11830
#
# Compressibility (1/GPa) = 0.04828296
#
# Stress axis : x y z
#
# Youngs Moduli (GPa) = 69.15226 25.59579 70.49349
#
# Poissons Ratio (x) = 0.11723 0.08775
# Poissons Ratio (y) = 0.31671 0.27433
# Poissons Ratio (z) = 0.08608 0.09961
#
# Static dielectric constant tensor:
#      x y z
#    x 4.704320 0.506480 0.120750 
#    y 0.506480 4.368540 0.381760 
#    z 0.120750 0.381760 4.448060 
# 
# 
# High freq. dielectric constant tensor:
#      x y z
#    x 1.902290 0.004200 0.012160 
#    y 0.004200 1.929200 0.020320 
#    z 0.012160 0.020320 1.908680 
# 
# From -- ./inp_files/48738.got.cif
#   From: 2010.06.25/outbox.cif.g09.slc.cpg/sg2_25_cif.got.tgz:48738.got - 2010.06.27 13:26:56.
