data_PCOD8005126
_publ_section_title
;
Structure prediction by ZEFSAII (Michael W. Deem and Ramdas Pophale) SiO2 
 PCOD8005126
Probable space group: P -1
;
_chemical_formula_sum "Si O2"
_cell_formula_units_Z 16
_cell_length_a 9.415521
_cell_length_b 18.976429
_cell_length_c 13.035576
_cell_angle_alpha 151.960563
_cell_angle_beta 138.012914
_cell_angle_gamma 52.762056
_cell_volume 722.756045
_symmetry_space_group_name_H-M "P -1"
_symmetry_group_IT_number 2
_symmetry_cell_setting 'triclinic'
loop_
_space_group_symop_operation_xyz
x,y,z
-x,-y,-z
loop_
_atom_site_type_symbol
_atom_site_label
_atom_site_fract_x
_atom_site_fract_y
_atom_site_fract_z
Si Si1 0.882196 0.898756 0.717727
Si Si2 0.521159 0.284374 0.651715
Si Si3 0.489834 0.697480 0.962502
Si Si4 0.278343 0.006621 0.443915
Si Si5 0.261563 0.535295 0.812352
Si Si6 0.861313 0.364906 0.465800
Si Si7 0.841060 0.544935 0.885412
Si Si8 0.093104 0.846124 0.326344
O O1 0.629161 0.853623 0.548757
O O2 0.900598 0.983586 0.727190
O O3 0.983224 0.749575 0.564674
O O4 0.000000 0.000000 0.000000
O O5 0.368757 0.387498 0.644318
O O6 0.687386 0.201664 0.564490
O O7 0.660761 0.403384 0.955839
O O8 0.325761 0.666236 0.930314
O O9 0.349619 0.718122 0.812889
O O10 0.672950 0.843980 0.265945
O O11 0.615975 0.554995 0.833303
O O12 0.500000 0.000000 0.500000
O O13 0.173519 0.862297 0.270977
O O14 0.001897 0.488898 0.624961
O O15 0.791349 0.424600 0.613422
O O16 0.911006 0.705665 0.071708
O O17 0.000000 0.500000 0.000000
O O18 0.000000 0.000000 0.500000
#
# Coordination Sequence:
#
# PCOD8005126 Si02
#       8
#     2   2   2   2   2   2   2   2
#     4  11  23  41  67 100 133 172 227 286 343 403
#     4  10  20  38  64  96 130 172 225 279 334 400
#     4  12  23  42  66  98 136 177 222 283 344 401
#     4  12  23  41  69  96 132 179 223 278 343 403
#     4  10  20  40  70  95 130 171 236 285 337 397
#     4  11  25  41  67 100 133 175 231 289 338 403
#     4  12  26  46  71  95 138 187 232 273 339 418
#     4  12  24  41  68 101 135 177 232 274 339 414
#
# _framework density 22.137485000000002
#
# number of rings (size 3 to 8) (size 9 to 14) (size 15 to 20)
#    0.000    0.750    5.000    3.000    1.750    0.000 
#    4.500    0.000    0.000    2.250    0.000    0.000 
#    0.000    0.000    0.000    0.000    0.000    0.000 
#
# Total GULP energy -198239.166325 kJ/mol
# GULP energy per Si atom -12389.947895 kJ/mol
# Density = 2.208710 g / cm^3
# Si number density = 22.137485 Si / 1000 Ang^3
#
#
#
# Elastic Constant Matrix: (Units=GPa)
#
#
# Indices 1 2 3 4 5 6 
#
# 1 86.3503 17.9136 13.7250 -0.7123 -10.4521 -6.2259
# 2 17.9136 71.7474 20.9418 -10.0363 0.1543 5.0528
# 3 13.7250 20.9418 89.3117 -12.3828 -4.9632 8.3250
# 4 -0.7123 -10.0363 -12.3828 38.4437 0.3408 -1.0359
# 5 -10.4521 0.1543 -4.9632 0.3408 30.6776 8.6624
# 6 -6.2259 5.0528 8.3250 -1.0359 8.6624 50.1373
#
#
#
# Elastic Compliance Matrix: (Units=1/GPa)
#
#
# Indices 1 2 3 4 5 6 
#
# 1 0.012997 -0.003107 -0.001331 -0.000993 0.003826 0.001467
# 2 -0.003107 0.016071 -0.002799 0.003214 -0.001274 -0.001254
# 3 -0.001331 -0.002799 0.012860 0.003304 0.002266 -0.002342
# 4 -0.000993 0.003214 0.003304 0.027886 -0.000012 -0.000418
# 5 0.003826 -0.001274 0.002266 -0.000012 0.035964 -0.005987
# 6 0.001467 -0.001254 -0.002342 -0.000418 -0.005987 0.021668
#
#
# Mechanical properties :
#
#
# Convention : Reuss Voigt Hill
#
# Bulk Modulus (GPa) = 36.42399 39.17448 37.79924
# Shear Modulus (GPa) = 33.09679 36.84032 34.96856
#
# Velocity S-wave (km/s) = 3.87079 4.08384 3.97874
# Velocity P-wave (km/s) = 6.03876 6.32229 6.18215
#
# Compressibility (1/GPa) = 0.02745443
#
# Stress axis : x y z
#
# Youngs Moduli (GPa) = 76.93822 62.22287 77.76177
#
# Poissons Ratio (x) = 0.19334 0.10347
# Poissons Ratio (y) = 0.23906 0.21767
# Poissons Ratio (z) = 0.10238 0.17417
#
# Static dielectric constant tensor:
#      x y z
#    x 4.489160 -0.105650 -0.175760 
#    y -0.105650 4.398250 0.293660 
#    z -0.175760 0.293660 4.060480 
# 
# 
# High freq. dielectric constant tensor:
#      x y z
#    x 1.877430 -0.013410 0.000400 
#    y -0.013410 1.874320 0.020180 
#    z 0.000400 0.020180 1.849070 
# 
# From -- ./inp_files/336830.got.cif
#   From: 2010.06.25/outbox.cif.g09.slc.cpg/sg2_169_cif.got.tgz:336830.got - 2010.06.27 13:26:56.
