data_PCOD8005480
_publ_section_title
;
Structure prediction by ZEFSAII (Michael W. Deem and Ramdas Pophale) SiO2 
 PCOD8005480
Probable space group: P -1
;
_chemical_formula_sum "Si O2"
_cell_formula_units_Z 16
_cell_length_a 8.704700
_cell_length_b 6.367225
_cell_length_c 17.823600
_cell_angle_alpha 90.940778
_cell_angle_beta 48.634126
_cell_angle_gamma 86.758559
_cell_volume 738.304924
_symmetry_space_group_name_H-M "P -1"
_symmetry_group_IT_number 2
_symmetry_cell_setting 'triclinic'
loop_
_space_group_symop_operation_xyz
x,y,z
-x,-y,-z
loop_
_atom_site_type_symbol
_atom_site_label
_atom_site_fract_x
_atom_site_fract_y
_atom_site_fract_z
Si Si1 0.534933 0.080296 0.261870
Si Si2 0.066469 0.809269 0.218474
Si Si3 0.823309 0.504938 0.382560
Si Si4 0.780535 0.382092 0.105909
Si Si5 0.070840 0.207159 0.899593
Si Si6 0.557363 0.503789 0.895886
Si Si7 0.185378 0.190182 0.267561
Si Si8 0.499857 0.187449 0.441714
O O1 0.626202 0.300930 0.216056
O O2 0.313671 0.075097 0.293588
O O3 0.506967 0.065924 0.359642
O O4 0.696210 0.898351 0.174810
O O5 0.287491 0.700745 0.170491
O O6 0.886288 0.662605 0.297451
O O7 0.048437 0.861548 0.136101
O O8 0.044831 0.029108 0.271202
O O9 0.688037 0.330215 0.390796
O O10 0.705278 0.650500 0.484807
O O11 0.027723 0.380771 0.351695
O O12 0.919550 0.539056 0.104646
O O13 0.649099 0.511503 0.084795
O O14 0.927068 0.183849 0.020596
O O15 0.659796 0.718194 0.842003
O O16 0.500000 0.500000 0.000000
O O17 0.500000 0.000000 0.500000
#
# Coordination Sequence:
#
# PCOD8005480 Si02
#       8
#     2   2   2   2   2   2   2   2
#     4  11  23  40  59  88 122 158 198 254 297 354
#     4  11  21  39  63  91 124 162 203 249 298 359
#     4  10  22  41  64  92 119 153 202 249 301 368
#     4  10  22  39  56  87 122 160 207 244 299 352
#     4  11  21  36  60  85 122 161 200 252 294 351
#     4  10  20  39  57  86 121 165 206 244 293 350
#     4  10  23  39  61  89 125 160 203 244 300 360
#     4  11  23  42  68  92 119 152 203 250 309 366
#
# _framework density 21.671263
#
# number of rings (size 3 to 8) (size 9 to 14) (size 15 to 20)
#    0.000    1.500    1.250    4.125    0.000    3.000 
#    2.250    2.500    0.000    0.000    0.000    0.000 
#    0.000    0.000    0.000    0.000    0.000    0.000 
#
# Total GULP energy -198356.162785 kJ/mol
# GULP energy per Si atom -12397.260174 kJ/mol
# Density = 2.162194 g / cm^3
# Si number density = 21.671263 Si / 1000 Ang^3
#
#
#
# Elastic Constant Matrix: (Units=GPa)
#
#
# Indices 1 2 3 4 5 6 
#
# 1 94.5719 32.9054 43.7836 10.8848 -0.7294 -8.1188
# 2 32.9054 73.1396 31.7510 12.0169 -2.4767 0.9631
# 3 43.7836 31.7510 119.5887 12.9366 -0.0121 -7.4170
# 4 10.8848 12.0169 12.9366 41.5110 -7.3812 -10.6818
# 5 -0.7294 -2.4767 -0.0121 -7.3812 36.2452 3.3535
# 6 -8.1188 0.9631 -7.4170 -10.6818 3.3535 38.6430
#
#
#
# Elastic Compliance Matrix: (Units=1/GPa)
#
#
# Indices 1 2 3 4 5 6 
#
# 1 0.014208 -0.004696 -0.003742 -0.000696 -0.000384 0.002225
# 2 -0.004696 0.017648 -0.002756 -0.003685 0.000640 -0.003029
# 3 -0.003742 -0.002756 0.010678 -0.001405 -0.000639 0.000999
# 4 -0.000696 -0.003685 -0.001405 0.028477 0.004874 0.007125
# 5 -0.000384 0.000640 -0.000639 0.004874 0.028745 -0.001366
# 6 0.002225 -0.003029 0.000999 0.007125 -0.001366 0.028701
#
#
# Mechanical properties :
#
#
# Convention : Reuss Voigt Hill
#
# Bulk Modulus (GPa) = 49.63451 56.02003 52.82727
# Shear Modulus (GPa) = 31.73412 35.20387 33.46899
#
# Velocity S-wave (km/s) = 3.83082 4.03482 3.93414
# Velocity P-wave (km/s) = 6.52074 6.90017 6.71314
#
# Compressibility (1/GPa) = 0.02014727
#
# Stress axis : x y z
#
# Youngs Moduli (GPa) = 70.38101 56.66250 93.65471
#
# Poissons Ratio (x) = 0.26608 0.35045
# Poissons Ratio (y) = 0.33050 0.25808
# Poissons Ratio (z) = 0.26336 0.15614
#
# Static dielectric constant tensor:
#      x y z
#    x 3.892240 -0.163820 -0.328740 
#    y -0.163820 3.955050 0.134530 
#    z -0.328740 0.134530 4.026290 
# 
# 
# High freq. dielectric constant tensor:
#      x y z
#    x 1.839820 -0.007580 -0.019830 
#    y -0.007580 1.856080 0.008360 
#    z -0.019830 0.008360 1.852960 
# 
# From -- ./inp_files/37910.got.cif
#   From: 2010.06.25/outbox.cif.g09.slc.cpg/sg2_19_cif.got.tgz:37910.got - 2010.06.27 13:26:56.
