data_PCOD8005823
_publ_section_title
;
Structure prediction by ZEFSAII (Michael W. Deem and Ramdas Pophale) SiO2 
 PCOD8005823
Probable space group: P -1
;
_chemical_formula_sum "Si O2"
_cell_formula_units_Z 16
_cell_length_a 13.025217
_cell_length_b 25.859484
_cell_length_c 14.008953
_cell_angle_alpha 32.532559
_cell_angle_beta 34.234765
_cell_angle_gamma 17.572207
_cell_volume 758.382540
_symmetry_space_group_name_H-M "P -1"
_symmetry_group_IT_number 2
_symmetry_cell_setting 'triclinic'
loop_
_space_group_symop_operation_xyz
x,y,z
-x,-y,-z
loop_
_atom_site_type_symbol
_atom_site_label
_atom_site_fract_x
_atom_site_fract_y
_atom_site_fract_z
Si Si1 0.219109 0.707739 0.382681
Si Si2 0.298414 0.828932 0.468202
Si Si3 0.186485 0.425292 0.873153
Si Si4 0.994338 0.316743 0.095785
Si Si5 0.772522 0.794528 0.120872
Si Si6 0.307339 0.535121 0.272755
Si Si7 0.897724 0.705768 0.511411
Si Si8 0.135198 0.080197 0.481639
O O1 0.500000 0.500000 0.500000
O O2 0.415666 0.720034 0.189546
O O3 0.966626 0.785136 0.371158
O O4 0.001759 0.812514 0.483052
O O5 0.589641 0.777680 0.314485
O O6 0.482885 0.649660 0.645069
O O7 0.132543 0.880188 0.412318
O O8 0.000000 0.000000 0.500000
O O9 0.996035 0.587471 0.701830
O O10 0.000000 0.500000 0.000000
O O11 0.177537 0.326891 0.983098
O O12 0.583931 0.493129 0.157260
O O13 0.183678 0.140020 0.270444
O O14 0.025292 0.306264 0.975245
O O15 0.047078 0.696095 0.145586
O O16 0.500000 0.000000 0.000000
O O17 0.108890 0.588543 0.436272
O O18 0.498515 0.867526 0.547364
#
# Coordination Sequence:
#
# PCOD8005823 Si02
#       8
#     2   2   2   2   2   2   2   2
#     4  10  20  39  63  87 118 160 198 239 299 368
#     4  11  23  41  62  86 120 165 207 249 300 367
#     4  11  22  39  62  90 119 155 200 251 302 356
#     4  11  22  39  61  89 122 158 199 253 301 349
#     4  12  24  39  61  93 124 157 203 258 303 351
#     4  11  23  42  63  88 123 167 204 243 306 373
#     4  11  22  40  64  89 119 162 202 244 302 371
#     4  11  23  41  62  90 122 160 204 245 298 371
#
# _framework density 21.097532999999999
#
# number of rings (size 3 to 8) (size 9 to 14) (size 15 to 20)
#    0.000    1.000    0.000   10.875    0.000    2.000 
#    0.000    5.000    0.000    0.000    0.000    0.000 
#    0.000    0.000    0.000    0.000    0.000    0.000 
#
# Total GULP energy -198425.098552 kJ/mol
# GULP energy per Si atom -12401.568660 kJ/mol
# Density = 2.104951 g / cm^3
# Si number density = 21.097533 Si / 1000 Ang^3
#
#
#
# Elastic Constant Matrix: (Units=GPa)
#
#
# Indices 1 2 3 4 5 6 
#
# 1 79.5010 10.6489 13.1304 -7.9205 -0.2549 6.3075
# 2 10.6489 93.3513 13.8293 1.4338 11.3838 5.0573
# 3 13.1304 13.8293 83.0971 10.4269 10.5390 5.2615
# 4 -7.9205 1.4338 10.4269 33.0853 2.0235 8.4916
# 5 -0.2549 11.3838 10.5390 2.0235 48.2661 9.1183
# 6 6.3075 5.0573 5.2615 8.4916 9.1183 37.8417
#
#
#
# Elastic Compliance Matrix: (Units=1/GPa)
#
#
# Indices 1 2 3 4 5 6 
#
# 1 0.013927 -0.001272 -0.002575 0.004947 0.001338 -0.003226
# 2 -0.001272 0.011368 -0.001355 -0.000090 -0.002285 -0.000548
# 3 -0.002575 -0.001355 0.013562 -0.004782 -0.002532 0.000408
# 4 0.004947 -0.000090 -0.004782 0.034973 0.001190 -0.008282
# 5 0.001338 -0.002285 -0.002532 0.001190 0.022772 -0.005320
# 6 -0.003226 -0.000548 0.000408 -0.008282 -0.005320 0.030120
#
#
# Mechanical properties :
#
#
# Convention : Reuss Voigt Hill
#
# Bulk Modulus (GPa) = 35.14604 36.79629 35.97116
# Shear Modulus (GPa) = 34.10391 38.39468 36.24930
#
# Velocity S-wave (km/s) = 4.02492 4.27062 4.14959
# Velocity P-wave (km/s) = 6.18829 6.46502 6.32817
#
# Compressibility (1/GPa) = 0.02845271
#
# Stress axis : x y z
#
# Youngs Moduli (GPa) = 71.80204 87.96843 73.73630
#
# Poissons Ratio (x) = 0.11186 0.18989
# Poissons Ratio (y) = 0.09130 0.09993
# Poissons Ratio (z) = 0.18490 0.11922
#
# Static dielectric constant tensor:
#      x y z
#    x 4.518880 -0.043690 -0.168220 
#    y -0.043690 3.949770 0.283080 
#    z -0.168220 0.283080 3.908540 
# 
# 
# High freq. dielectric constant tensor:
#      x y z
#    x 1.844910 -0.004750 -0.001800 
#    y -0.004750 1.826530 0.018550 
#    z -0.001800 0.018550 1.820010 
# 
# From -- ./inp_files/305356.got.cif
#   From: 2010.06.25/outbox.cif.g09.slc.cpg/sg2_153_cif.got.tgz:305356.got - 2010.06.27 13:26:56.
