data_PCOD8005266
_publ_section_title
;
Structure prediction by ZEFSAII (Michael W. Deem and Ramdas Pophale) SiO2 
 PCOD8005266
Probable space group: P -1
;
_chemical_formula_sum "Si O2"
_cell_formula_units_Z 16
_cell_length_a 17.761462
_cell_length_b 5.522373
_cell_length_c 12.188137
_cell_angle_alpha 82.613656
_cell_angle_beta 44.548547
_cell_angle_gamma 59.468460
_cell_volume 666.261818
_symmetry_space_group_name_H-M "P -1"
_symmetry_group_IT_number 2
_symmetry_cell_setting 'triclinic'
loop_
_space_group_symop_operation_xyz
x,y,z
-x,-y,-z
loop_
_atom_site_type_symbol
_atom_site_label
_atom_site_fract_x
_atom_site_fract_y
_atom_site_fract_z
Si Si1 0.205731 0.375284 0.794934
Si Si2 0.216977 0.703095 0.944696
Si Si3 0.383001 0.268580 0.975285
Si Si4 0.974111 0.709378 0.614755
Si Si5 0.532977 0.586755 0.783281
Si Si6 0.012789 0.344206 0.158093
Si Si7 0.775857 0.326684 0.692070
Si Si8 0.437979 0.747342 0.644657
O O1 0.206449 0.643283 0.830677
O O2 0.141079 0.455337 0.736450
O O3 0.363286 0.080168 0.645485
O O4 0.108420 0.358863 0.976864
O O5 0.277192 0.407532 0.975902
O O6 0.320682 0.783237 0.834648
O O7 0.071870 0.986901 0.122610
O O8 0.468111 0.406329 0.877879
O O9 0.464236 0.904211 0.903892
O O10 0.301348 0.373311 0.168103
O O11 0.979400 0.554558 0.733622
O O12 0.000000 0.500000 0.500000
O O13 0.093693 0.741311 0.497322
O O14 0.828338 0.033726 0.732376
O O15 0.681808 0.357238 0.690414
O O16 0.544079 0.654708 0.638372
O O17 0.500000 0.500000 0.500000
#
# Coordination Sequence:
#
# PCOD8005266 Si02
#       8
#     2   2   2   2   2   2   2   2
#     4  10  21  39  67  93 123 174 222 281 338 400
#     4  10  20  38  66  89 125 170 220 280 338 395
#     4  11  23  43  74 100 135 178 230 285 333 414
#     4  11  27  42  64  96 138 184 222 285 343 407
#     4  11  25  44  71 103 134 182 229 283 340 411
#     4  10  22  41  63  94 126 169 231 278 333 405
#     4  11  26  43  65  99 133 182 228 280 348 401
#     4  10  23  40  59  97 133 170 219 278 343 408
#
# _framework density 24.014582999999998
#
# number of rings (size 3 to 8) (size 9 to 14) (size 15 to 20)
#    0.000    1.500    2.500    1.125    5.250    2.500 
#    2.250    0.000    0.000    0.000    0.000    0.000 
#    0.000    0.000    0.000    0.000    0.000    0.000 
#
# Total GULP energy -198268.019310 kJ/mol
# GULP energy per Si atom -12391.751207 kJ/mol
# Density = 2.395993 g / cm^3
# Si number density = 24.014583 Si / 1000 Ang^3
#
#
#
# Elastic Constant Matrix: (Units=GPa)
#
#
# Indices 1 2 3 4 5 6 
#
# 1 154.9954 53.0688 47.5516 14.8174 16.4910 -32.9566
# 2 53.0688 79.3023 18.8497 15.2185 2.5071 -13.8778
# 3 47.5516 18.8497 72.1933 23.7421 17.7238 -17.2750
# 4 14.8174 15.2185 23.7421 26.6948 2.3263 7.8772
# 5 16.4910 2.5071 17.7238 2.3263 41.8669 0.5332
# 6 -32.9566 -13.8778 -17.2750 7.8772 0.5332 48.4043
#
#
#
# Elastic Compliance Matrix: (Units=1/GPa)
#
#
# Indices 1 2 3 4 5 6 
#
# 1 0.010694 -0.005243 -0.003760 -0.000754 -0.002323 0.004585
# 2 -0.005243 0.018552 0.004198 -0.012967 -0.000171 0.005360
# 3 -0.003760 0.004198 0.032475 -0.032874 -0.010892 0.015703
# 4 -0.000754 -0.012967 -0.032874 0.082264 0.010794 -0.029469
# 5 -0.002323 -0.000171 -0.010892 0.010794 0.028918 -0.007593
# 6 0.004585 0.005360 0.015703 -0.029469 -0.007593 0.035801
#
#
# Mechanical properties :
#
#
# Convention : Reuss Voigt Hill
#
# Bulk Modulus (GPa) = 19.18924 60.60346 39.89635
# Shear Modulus (GPa) = 21.21481 35.86127 28.53804
#
# Velocity S-wave (km/s) = 2.97545 3.86853 3.45100
# Velocity P-wave (km/s) = 4.45112 6.72644 5.70339
#
# Compressibility (1/GPa) = 0.05211254
#
# Stress axis : x y z
#
# Youngs Moduli (GPa) = 93.50688 53.90198 30.79317
#
# Poissons Ratio (x) = 0.28258 0.11578
# Poissons Ratio (y) = 0.49021 -0.12927
# Poissons Ratio (z) = 0.35158 -0.22628
#
# Static dielectric constant tensor:
#      x y z
#    x 4.822210 -0.347290 -0.085240 
#    y -0.347290 4.488980 0.066380 
#    z -0.085240 0.066380 4.090450 
# 
# 
# High freq. dielectric constant tensor:
#      x y z
#    x 1.969670 -0.015560 0.004310 
#    y -0.015560 1.944850 0.009900 
#    z 0.004310 0.009900 1.934860 
# 
# From -- ./inp_files/127502.got.cif
#   From: 2010.06.25/outbox.cif.g09.slc.cpg/sg2_64_cif.got.tgz:127502.got - 2010.06.27 13:26:56.
