data_PCOD8005255
_publ_section_title
;
Structure prediction by ZEFSAII (Michael W. Deem and Ramdas Pophale) SiO2 
 PCOD8005255
Probable space group: P -1
;
_chemical_formula_sum "Si O2"
_cell_formula_units_Z 14
_cell_length_a 8.504466
_cell_length_b 17.339978
_cell_length_c 10.946503
_cell_angle_alpha 48.062537
_cell_angle_beta 93.368774
_cell_angle_gamma 131.089336
_cell_volume 664.711951
_symmetry_space_group_name_H-M "P -1"
_symmetry_group_IT_number 2
_symmetry_cell_setting 'triclinic'
loop_
_space_group_symop_operation_xyz
x,y,z
-x,-y,-z
loop_
_atom_site_type_symbol
_atom_site_label
_atom_site_fract_x
_atom_site_fract_y
_atom_site_fract_z
Si Si1 0.965959 0.152512 0.358908
Si Si2 0.738496 0.495638 0.467913
Si Si3 0.835681 0.549164 0.806301
Si Si4 0.794729 0.308031 0.543383
Si Si5 0.760202 0.999324 0.266498
Si Si6 0.585370 0.765628 0.710661
Si Si7 0.658676 0.667896 0.166733
O O1 0.967446 0.248956 0.349468
O O2 0.277763 0.273578 0.232495
O O3 0.862721 0.133141 0.238523
O O4 0.755417 0.943615 0.614439
O O5 0.742422 0.393643 0.499952
O O6 0.717714 0.578981 0.285933
O O7 0.465792 0.345194 0.704500
O O8 0.028984 0.665074 0.381157
O O9 0.558366 0.440716 0.839851
O O10 0.030805 0.588233 0.685073
O O11 0.731440 0.420626 0.051430
O O12 0.484856 0.085361 0.741256
O O13 0.601758 0.812926 0.520372
O O14 0.036115 0.113441 0.081981
#
# Coordination Sequence:
#
# PCOD8005255 Si02
#       7
#     2   2   2   2   2   2   2
#     4   9  19  34  57  92 125 145 201 241 268 373
#     4   9  22  42  60  83 113 152 218 247 290 354
#     4  11  20  37  64  88 126 162 187 235 308 348
#     4  10  23  40  57  86 122 158 189 256 306 342
#     4  10  21  36  59  90 123 149 197 242 303 347
#     4   9  19  36  56  94 122 151 200 238 272 372
#     4  10  20  38  66  86 106 163 204 248 292 343
#
# _framework density 21.061754000000001
#
# number of rings (size 3 to 8) (size 9 to 14) (size 15 to 20)
#    0.857    1.429    1.429    0.429    2.000    2.286 
#    2.571    0.000    6.286    0.000    0.000    0.000 
#    0.000    0.000    0.000    0.000    0.000    0.000 
#
# Total GULP energy -173455.353865 kJ/mol
# GULP energy per Si atom -12389.668133 kJ/mol
# Density = 2.101382 g / cm^3
# Si number density = 21.061754 Si / 1000 Ang^3
#
#
#
# Elastic Constant Matrix: (Units=GPa)
#
#
# Indices 1 2 3 4 5 6 
#
# 1 85.1788 35.3883 45.2845 1.7135 -20.1975 -4.1589
# 2 35.3883 79.8126 39.7968 -0.8863 -19.0017 3.3904
# 3 45.2845 39.7968 94.2380 5.5685 -10.8797 -1.5932
# 4 1.7135 -0.8863 5.5685 23.1872 5.4248 -6.4808
# 5 -20.1975 -19.0017 -10.8797 5.4248 25.6043 -7.9834
# 6 -4.1589 3.3904 -1.5932 -6.4808 -7.9834 36.7449
#
#
#
# Elastic Compliance Matrix: (Units=1/GPa)
#
#
# Indices 1 2 3 4 5 6 
#
# 1 0.019591 -0.002589 -0.006715 -0.001562 0.012443 0.004593
# 2 -0.002589 0.018704 -0.005571 -0.000018 0.009407 -0.000220
# 3 -0.006715 -0.005571 0.016137 -0.003270 -0.002060 -0.000570
# 4 -0.001562 -0.000018 -0.003270 0.048230 -0.011048 0.005789
# 5 0.012443 0.009407 -0.002060 -0.011048 0.060982 0.011752
# 6 0.004593 -0.000220 -0.000570 0.005789 0.011752 0.031304
#
#
# Mechanical properties :
#
#
# Convention : Reuss Voigt Hill
#
# Bulk Modulus (GPa) = 40.51452 55.57429 48.04441
# Shear Modulus (GPa) = 21.46609 26.35792 23.91200
#
# Velocity S-wave (km/s) = 3.19595 3.54143 3.37312
# Velocity P-wave (km/s) = 5.73556 6.57008 6.16695
#
# Compressibility (1/GPa) = 0.02468251
#
# Stress axis : x y z
#
# Youngs Moduli (GPa) = 51.04265 53.46502 61.97083
#
# Poissons Ratio (x) = 0.13840 0.41612
# Poissons Ratio (y) = 0.13213 0.34526
# Poissons Ratio (z) = 0.34274 0.29788
#
# Static dielectric constant tensor:
#      x y z
#    x 3.602940 0.245890 -0.256420 
#    y 0.245890 3.836390 0.067930 
#    z -0.256420 0.067930 3.705200 
# 
# 
# High freq. dielectric constant tensor:
#      x y z
#    x 1.808940 0.015950 -0.022400 
#    y 0.015950 1.822710 0.006580 
#    z -0.022400 0.006580 1.811600 
# 
# From -- ./inp_files/273096.got.cif
#   From: 2010.06.25/outbox.cif.g09.slc.cpg/sg2_137_cif.got.tgz:273096.got - 2010.06.27 13:26:56.
