data_PCOD8005147
_publ_section_title
;
Structure prediction by ZEFSAII (Michael W. Deem and Ramdas Pophale) SiO2 
 PCOD8005147
Probable space group: P -1
;
_chemical_formula_sum "Si O2"
_cell_formula_units_Z 16
_cell_length_a 17.035653
_cell_length_b 11.157418
_cell_length_c 9.135174
_cell_angle_alpha 139.732013
_cell_angle_beta 131.279318
_cell_angle_gamma 67.120716
_cell_volume 819.614590
_symmetry_space_group_name_H-M "P -1"
_symmetry_group_IT_number 2
_symmetry_cell_setting 'triclinic'
loop_
_space_group_symop_operation_xyz
x,y,z
-x,-y,-z
loop_
_atom_site_type_symbol
_atom_site_label
_atom_site_fract_x
_atom_site_fract_y
_atom_site_fract_z
Si Si1 0.981610 0.698430 0.211509
Si Si2 0.380937 0.765392 0.246177
Si Si3 0.166420 0.522340 0.642507
Si Si4 0.497110 0.481807 0.653151
Si Si5 0.299408 0.310536 0.432456
Si Si6 0.026311 0.278414 0.466070
Si Si7 0.553828 0.796261 0.245510
Si Si8 0.109002 0.031982 0.839923
O O1 0.914860 0.661470 0.248040
O O2 0.918764 0.778105 0.081515
O O3 0.092037 0.862127 0.538158
O O4 0.000000 0.500000 0.000000
O O5 0.428798 0.656645 0.331218
O O6 0.441174 0.761166 0.161202
O O7 0.395706 0.982801 0.518832
O O8 0.254979 0.672093 0.983693
O O9 0.219089 0.446607 0.496095
O O10 0.071636 0.616788 0.566755
O O11 0.114407 0.334724 0.501492
O O12 0.500000 0.500000 0.500000
O O13 0.374285 0.393898 0.466459
O O14 0.536751 0.689497 0.969713
O O15 0.366967 0.297894 0.649371
O O16 0.232184 0.097900 0.106130
O O17 0.969467 0.050364 0.193935
#
# Coordination Sequence:
#
# PCOD8005147 Si02
#       8
#     2   2   2   2   2   2   2   2
#     4   9  18  39  56  77 121 158 190 242 299 346
#     4  10  20  38  65  85 119 157 200 245 305 360
#     4  11  19  35  61  84 119 157 200 252 296 345
#     4  11  23  41  60  92 126 152 197 252 306 370
#     4  11  20  38  64  87 116 163 201 242 308 351
#     4   9  21  34  54  90 117 151 208 244 284 349
#     4  10  20  40  63  90 117 156 202 252 298 365
#     4   9  20  36  57  85 115 157 199 237 293 358
#
# _framework density 19.521372
#
# number of rings (size 3 to 8) (size 9 to 14) (size 15 to 20)
#    0.750    1.250    2.500    2.250    0.000    2.000 
#    0.000    2.500    0.000    0.000    0.000    0.000 
#    0.000    0.000    0.000    0.000    0.000    0.000 
#
# Total GULP energy -198251.862225 kJ/mol
# GULP energy per Si atom -12390.741389 kJ/mol
# Density = 1.947694 g / cm^3
# Si number density = 19.521372 Si / 1000 Ang^3
#
#
#
# Elastic Constant Matrix: (Units=GPa)
#
#
# Indices 1 2 3 4 5 6 
#
# 1 78.5011 40.2804 42.8960 3.3174 6.0676 14.1841
# 2 40.2804 98.1850 34.4659 14.0788 -2.2391 20.5625
# 3 42.8960 34.4659 132.1366 9.3947 3.0156 11.1638
# 4 3.3174 14.0788 9.3947 26.7406 -0.1378 -6.2048
# 5 6.0676 -2.2391 3.0156 -0.1378 32.7723 1.7302
# 6 14.1841 20.5625 11.1638 -6.2048 1.7302 29.5315
#
#
#
# Elastic Compliance Matrix: (Units=1/GPa)
#
#
# Indices 1 2 3 4 5 6 
#
# 1 0.018866 -0.005951 -0.004387 0.001688 -0.003346 -0.002709
# 2 -0.005951 0.016719 -0.000854 -0.010251 0.002849 -0.010780
# 3 -0.004387 -0.000854 0.009532 -0.002695 -0.000057 -0.001464
# 4 0.001688 -0.010251 -0.002695 0.047566 -0.001485 0.017426
# 5 -0.003346 0.002849 -0.000057 -0.001485 0.031459 -0.002510
# 6 -0.002709 -0.010780 -0.001464 0.017426 -0.002510 0.047031
#
#
# Mechanical properties :
#
#
# Convention : Reuss Voigt Hill
#
# Bulk Modulus (GPa) = 43.99189 60.45635 52.22412
# Shear Modulus (GPa) = 24.85886 30.55425 27.70655
#
# Velocity S-wave (km/s) = 3.57237 3.96051 3.77144
# Velocity P-wave (km/s) = 6.29285 7.20769 6.76575
#
# Compressibility (1/GPa) = 0.02273146
#
# Stress axis : x y z
#
# Youngs Moduli (GPa) = 53.00473 59.81347 104.91432
#
# Poissons Ratio (x) = 0.35595 0.46028
# Poissons Ratio (y) = 0.31543 0.08963
# Poissons Ratio (z) = 0.23254 0.05110
#
# Static dielectric constant tensor:
#      x y z
#    x 3.312210 0.095300 0.207560 
#    y 0.095300 3.665230 0.023290 
#    z 0.207560 0.023290 3.795810 
# 
# 
# High freq. dielectric constant tensor:
#      x y z
#    x 1.724740 0.001360 0.008210 
#    y 0.001360 1.764030 0.006440 
#    z 0.008210 0.006440 1.773110 
# 
# From -- ./inp_files/306049.got.cif
#   From: 2010.06.25/outbox.cif.g09.slc.cpg/sg2_154_cif.got.tgz:306049.got - 2010.06.27 13:26:56.
