data_PCOD8005593
_publ_section_title
;
Structure prediction by ZEFSAII (Michael W. Deem and Ramdas Pophale) SiO2 
 PCOD8005593
Probable space group: P -1
;
_chemical_formula_sum "Si O2"
_cell_formula_units_Z 16
_cell_length_a 9.506475
_cell_length_b 6.844223
_cell_length_c 16.789433
_cell_angle_alpha 88.107364
_cell_angle_beta 47.856224
_cell_angle_gamma 72.093963
_cell_volume 747.132991
_symmetry_space_group_name_H-M "P -1"
_symmetry_group_IT_number 2
_symmetry_cell_setting 'triclinic'
loop_
_space_group_symop_operation_xyz
x,y,z
-x,-y,-z
loop_
_atom_site_type_symbol
_atom_site_label
_atom_site_fract_x
_atom_site_fract_y
_atom_site_fract_z
Si Si1 0.360680 0.637309 0.702767
Si Si2 0.726716 0.746474 0.564056
Si Si3 0.339680 0.766575 0.207741
Si Si4 0.654190 0.879270 0.009613
Si Si5 0.881734 0.524376 0.669966
Si Si6 0.767230 0.054078 0.111838
Si Si7 0.536105 0.821738 0.287974
Si Si8 0.038743 0.191434 0.234431
O O1 0.583287 0.625273 0.590160
O O2 0.319520 0.728328 0.808188
O O3 0.362723 0.402217 0.703660
O O4 0.192146 0.781462 0.701408
O O5 0.777802 0.695962 0.638850
O O6 0.930522 0.676401 0.434831
O O7 0.597440 0.997745 0.601214
O O8 0.281233 0.562150 0.229212
O O9 0.366440 0.820584 0.288051
O O10 0.163782 0.960990 0.226793
O O11 0.565274 0.712253 0.082794
O O12 0.873586 0.767271 0.885228
O O13 0.500000 0.000000 0.000000
O O14 0.648257 0.057904 0.074337
O O15 0.965722 0.628845 0.705399
O O16 0.728476 0.873480 0.181448
O O17 0.000000 0.000000 0.000000
#
# Coordination Sequence:
#
# PCOD8005593 Si02
#       8
#     2   2   2   2   2   2   2   2
#     4  11  23  40  64  92 129 162 199 257 319 360
#     4  10  23  42  64  92 122 159 213 267 303 364
#     4  10  21  40  64  91 124 163 207 255 300 372
#     4   9  20  38  62  90 129 163 198 251 304 357
#     4  11  23  40  67  92 116 167 217 252 312 365
#     4  10  20  39  60  89 126 165 202 251 298 372
#     4  10  21  39  63  91 122 163 210 250 306 375
#     4  11  23  41  60  95 129 160 204 257 309 368
#
# _framework density 21.415196999999999
#
# number of rings (size 3 to 8) (size 9 to 14) (size 15 to 20)
#    0.000    1.750    3.750    0.000    1.750    5.000 
#    0.000    1.250    0.000    0.000    0.000    0.000 
#    0.000    0.000    0.000    0.000    0.000    0.000 
#
# Total GULP energy -198307.822452 kJ/mol
# GULP energy per Si atom -12394.238903 kJ/mol
# Density = 2.136645 g / cm^3
# Si number density = 21.415197 Si / 1000 Ang^3
#
#
#
# Elastic Constant Matrix: (Units=GPa)
#
#
# Indices 1 2 3 4 5 6 
#
# 1 89.2728 11.9332 8.4380 0.1955 -2.3489 11.4782
# 2 11.9332 79.8692 16.9372 5.3277 4.1469 5.9633
# 3 8.4380 16.9372 42.6676 -0.9392 -2.0096 7.4346
# 4 0.1955 5.3277 -0.9392 23.1291 5.3638 -3.0640
# 5 -2.3489 4.1469 -2.0096 5.3638 31.8972 3.2962
# 6 11.4782 5.9633 7.4346 -3.0640 3.2962 31.8191
#
#
#
# Elastic Compliance Matrix: (Units=1/GPa)
#
#
# Indices 1 2 3 4 5 6 
#
# 1 0.012044 -0.001291 -0.001104 -0.000744 0.001532 -0.004075
# 2 -0.001291 0.014231 -0.005351 -0.003254 -0.001622 -0.001096
# 3 -0.001104 -0.005351 0.026804 0.001049 0.002647 -0.005035
# 4 -0.000744 -0.003254 0.001049 0.046686 -0.008032 0.005961
# 5 0.001532 -0.001622 0.002647 -0.008032 0.033722 -0.005134
# 6 -0.004075 -0.001096 -0.005035 0.005961 -0.005134 0.035386
#
#
# Mechanical properties :
#
#
# Convention : Reuss Voigt Hill
#
# Bulk Modulus (GPa) = 26.60349 31.82516 29.21433
# Shear Modulus (GPa) = 25.39425 29.00248 27.19836
#
# Velocity S-wave (km/s) = 3.44729 3.68407 3.56764
# Velocity P-wave (km/s) = 5.31928 5.74367 5.53554
#
# Compressibility (1/GPa) = 0.03758905
#
# Stress axis : x y z
#
# Youngs Moduli (GPa) = 83.02593 70.26823 37.30731
#
# Poissons Ratio (x) = 0.09072 0.04117
# Poissons Ratio (y) = 0.10720 0.19962
# Poissons Ratio (z) = 0.09162 0.37599
#
# Static dielectric constant tensor:
#      x y z
#    x 3.887010 0.224780 -0.099320 
#    y 0.224780 3.546630 -0.658830 
#    z -0.099320 -0.658830 2.726490 
# 
# 
# High freq. dielectric constant tensor:
#      x y z
#    x 1.845220 0.017590 -0.009630 
#    y 0.017590 1.820600 -0.002530 
#    z -0.009630 -0.002530 1.835690 
# 
# From -- ./inp_files/315408.got.cif
#   From: 2010.06.25/outbox.cif.g09.slc.cpg/sg2_158_cif.got.tgz:315408.got - 2010.06.27 13:26:56.
