data_PCOD8005702
_publ_section_title
;
Structure prediction by ZEFSAII (Michael W. Deem and Ramdas Pophale) SiO2 
 PCOD8005702
Probable space group: P -1
;
_chemical_formula_sum "Si O2"
_cell_formula_units_Z 16
_cell_length_a 11.627612
_cell_length_b 12.203774
_cell_length_c 8.794986
_cell_angle_alpha 83.630367
_cell_angle_beta 55.727319
_cell_angle_gamma 117.405866
_cell_volume 790.490368
_symmetry_space_group_name_H-M "P -1"
_symmetry_group_IT_number 2
_symmetry_cell_setting 'triclinic'
loop_
_space_group_symop_operation_xyz
x,y,z
-x,-y,-z
loop_
_atom_site_type_symbol
_atom_site_label
_atom_site_fract_x
_atom_site_fract_y
_atom_site_fract_z
Si Si1 0.680019 0.519560 0.370483
Si Si2 0.893941 0.259941 0.349069
Si Si3 0.987560 0.820276 0.988581
Si Si4 0.836070 0.452247 0.019451
Si Si5 0.623801 0.297750 0.656639
Si Si6 0.757357 0.052566 0.739505
Si Si7 0.639107 0.203452 0.975459
Si Si8 0.796917 0.920803 0.987308
O O1 0.500000 0.500000 0.500000
O O2 0.854399 0.685997 0.219593
O O3 0.688060 0.450103 0.528324
O O4 0.686915 0.443880 0.228520
O O5 0.719188 0.249495 0.495833
O O6 0.896491 0.169007 0.493577
O O7 0.077418 0.425393 0.194419
O O8 0.887225 0.198576 0.198929
O O9 0.867187 0.831286 0.958208
O O10 0.113075 0.961510 0.968656
O O11 0.739116 0.299730 0.035677
O O12 0.000000 0.500000 0.000000
O O13 0.669985 0.305701 0.798820
O O14 0.413134 0.179092 0.804501
O O15 0.721110 0.126456 0.884022
O O16 0.842197 0.991216 0.774878
O O17 0.572872 0.921356 0.813907
#
# Coordination Sequence:
#
# PCOD8005702 Si02
#       8
#     2   2   2   2   2   2   2   2
#     4  11  22  40  61  84 120 158 196 240 298 354
#     4  10  22  38  56  94 115 151 196 244 295 345
#     4  10  23  37  57  88 121 148 200 248 287 343
#     4  11  23  39  61  91 121 149 196 254 290 344
#     4  10  20  39  62  83 116 158 192 238 295 354
#     4   9  20  38  62  84 120 161 191 237 295 353
#     4   9  21  39  59  90 121 152 199 240 293 352
#     4  10  21  38  59  83 116 163 193 241 290 344
#
# _framework density 20.240600000000001
#
# number of rings (size 3 to 8) (size 9 to 14) (size 15 to 20)
#    0.000    2.000    2.500    0.750    3.500    5.000 
#    0.000    0.625    0.000    0.000    0.000    0.000 
#    0.000    0.000    0.000    0.000    0.000    0.000 
#
# Total GULP energy -198374.211678 kJ/mol
# GULP energy per Si atom -12398.388230 kJ/mol
# Density = 2.019453 g / cm^3
# Si number density = 20.240600 Si / 1000 Ang^3
#
#
#
# Elastic Constant Matrix: (Units=GPa)
#
#
# Indices 1 2 3 4 5 6 
#
# 1 99.2907 33.9435 38.9473 -8.8704 7.6716 -11.7211
# 2 33.9435 104.7523 22.7870 -2.2486 0.4436 9.1804
# 3 38.9473 22.7870 91.0861 -3.1198 5.0811 -9.8747
# 4 -8.8704 -2.2486 -3.1198 26.9070 -18.6648 8.5615
# 5 7.6716 0.4436 5.0811 -18.6648 32.4250 -9.4220
# 6 -11.7211 9.1804 -9.8747 8.5615 -9.4220 32.6614
#
#
#
# Elastic Compliance Matrix: (Units=1/GPa)
#
#
# Indices 1 2 3 4 5 6 
#
# 1 0.013807 -0.003813 -0.004429 0.002493 0.000095 0.004062
# 2 -0.003813 0.011701 -0.001860 0.001442 0.000259 -0.005523
# 3 -0.004429 -0.001860 0.013690 -0.001909 -0.001236 0.003216
# 4 0.002493 0.001442 -0.001909 0.064053 0.034553 -0.006910
# 5 0.000095 0.000259 -0.001236 0.034553 0.052551 0.005690
# 6 0.004062 -0.005523 0.003216 -0.006910 0.005690 0.038052
#
#
# Mechanical properties :
#
#
# Convention : Reuss Voigt Hill
#
# Bulk Modulus (GPa) = 52.65433 54.05385 53.35409
# Shear Modulus (GPa) = 22.68684 31.69543 27.19114
#
# Velocity S-wave (km/s) = 3.35155 3.96148 3.66921
# Velocity P-wave (km/s) = 6.40686 6.90565 6.66093
#
# Compressibility (1/GPa) = 0.01899179
#
# Stress axis : x y z
#
# Youngs Moduli (GPa) = 72.42480 85.46588 73.04466
#
# Poissons Ratio (x) = 0.32591 0.32355
# Poissons Ratio (y) = 0.27618 0.13589
# Poissons Ratio (z) = 0.32080 0.15900
#
# Static dielectric constant tensor:
#      x y z
#    x 3.819700 -0.408420 0.176480 
#    y -0.408420 3.619010 -0.248170 
#    z 0.176480 -0.248170 3.853650 
# 
# 
# High freq. dielectric constant tensor:
#      x y z
#    x 1.786250 -0.023230 0.008850 
#    y -0.023230 1.780330 -0.017070 
#    z 0.008850 -0.017070 1.793690 
# 
# From -- ./inp_files/262474.got.cif
#   From: 2010.06.25/outbox.cif.g09.slc.cpg/sg2_132_cif.got.tgz:262474.got - 2010.06.27 13:26:56.
