data_PCOD8005656
_publ_section_title
;
Structure prediction by ZEFSAII (Michael W. Deem and Ramdas Pophale) SiO2 
 PCOD8005656
Probable space group: P -1
;
_chemical_formula_sum "Si O2"
_cell_formula_units_Z 14
_cell_length_a 6.791730
_cell_length_b 7.195310
_cell_length_c 23.949804
_cell_angle_alpha 142.962453
_cell_angle_beta 120.286895
_cell_angle_gamma 65.148006
_cell_volume 608.399139
_symmetry_space_group_name_H-M "P -1"
_symmetry_group_IT_number 2
_symmetry_cell_setting 'triclinic'
loop_
_space_group_symop_operation_xyz
x,y,z
-x,-y,-z
loop_
_atom_site_type_symbol
_atom_site_label
_atom_site_fract_x
_atom_site_fract_y
_atom_site_fract_z
Si Si1 0.817452 0.646939 0.637803
Si Si2 0.876956 0.208069 0.696527
Si Si3 0.369396 0.102161 0.060617
Si Si4 0.250880 0.890792 0.797037
Si Si5 0.072769 0.534917 0.900997
Si Si6 0.475857 0.519374 0.650197
Si Si7 0.038743 0.239676 0.488237
O O1 0.582561 0.626216 0.632519
O O2 0.868509 0.315909 0.534262
O O3 0.805315 0.929206 0.660028
O O4 0.017883 0.704023 0.725634
O O5 0.652388 0.400904 0.693416
O O6 0.042828 0.434669 0.807704
O O7 0.997560 0.085185 0.626474
O O8 0.559359 0.220942 0.158553
O O9 0.239298 0.815422 0.999195
O O10 0.178631 0.375260 0.088021
O O11 0.500000 0.000000 0.000000
O O12 0.189428 0.252778 0.884170
O O13 0.340411 0.817682 0.729093
O O14 0.301010 0.248521 0.548297
O O15 0.000000 0.500000 0.500000
#
# Coordination Sequence:
#
# PCOD8005656 Si02
#       7
#     2   2   2   2   2   2   2
#     4   9  22  38  62  93 124 168 205 249 312 359
#     4  10  20  39  61  88 127 159 208 257 295 369
#     4  11  24  40  65  92 117 159 207 250 317 378
#     4  10  22  42  61  91 128 157 206 257 301 374
#     4  10  23  42  60  89 126 158 200 262 308 359
#     4  11  21  39  65  88 126 170 201 253 310 360
#     4   9  20  39  57  91 130 159 209 257 295 367
#
# _framework density 23.011209000000001
#
# number of rings (size 3 to 8) (size 9 to 14) (size 15 to 20)
#    0.000    2.000    1.429    1.714    2.000    5.714 
#    0.000    8.571    0.000    0.000    0.000    0.000 
#    0.000    0.000    0.000    0.000    0.000    0.000 
#
# Total GULP energy -173539.135758 kJ/mol
# GULP energy per Si atom -12395.652554 kJ/mol
# Density = 2.295883 g / cm^3
# Si number density = 23.011209 Si / 1000 Ang^3
#
#
#
# Elastic Constant Matrix: (Units=GPa)
#
#
# Indices 1 2 3 4 5 6 
#
# 1 97.4547 7.9893 17.4922 7.7963 -31.3697 -6.4429
# 2 7.9893 63.1195 0.6993 0.5241 0.5040 -18.3839
# 3 17.4922 0.6993 87.0606 3.3186 -21.9501 -3.4982
# 4 7.7963 0.5241 3.3186 37.2555 -7.8337 -7.7130
# 5 -31.3697 0.5040 -21.9501 -7.8337 30.4298 3.3541
# 6 -6.4429 -18.3839 -3.4982 -7.7130 3.3541 23.5548
#
#
#
# Elastic Compliance Matrix: (Units=1/GPa)
#
#
# Indices 1 2 3 4 5 6 
#
# 1 0.015737 -0.001962 0.001185 0.000362 0.017135 0.000628
# 2 -0.001962 0.021185 -0.000095 0.002981 -0.003601 0.017473
# 3 0.001185 -0.000095 0.014181 0.001159 0.011632 0.001079
# 4 0.000362 0.002981 0.001159 0.030642 0.007778 0.011524
# 5 0.017135 -0.003601 0.011632 0.007778 0.061263 -0.002573
# 6 0.000628 0.017473 0.001079 0.011524 -0.002573 0.060563
#
#
# Mechanical properties :
#
#
# Convention : Reuss Voigt Hill
#
# Bulk Modulus (GPa) = 20.25953 33.33294 26.79623
# Shear Modulus (GPa) = 22.54599 33.01162 27.77880
#
# Velocity S-wave (km/s) = 3.13354 3.79171 3.47823
# Velocity P-wave (km/s) = 4.68139 5.80399 5.27266
#
# Compressibility (1/GPa) = 0.04935949
#
# Stress axis : x y z
#
# Youngs Moduli (GPa) = 63.54290 47.20224 70.51806
#
# Poissons Ratio (x) = 0.09261 -0.08359
# Poissons Ratio (y) = 0.12468 0.00672
# Poissons Ratio (z) = -0.07532 0.00450
#
# Static dielectric constant tensor:
#      x y z
#    x 3.959070 -0.432850 -0.191330 
#    y -0.432850 4.110600 -0.068600 
#    z -0.191330 -0.068600 5.041410 
# 
# 
# High freq. dielectric constant tensor:
#      x y z
#    x 1.887090 -0.028110 -0.015730 
#    y -0.028110 1.908020 -0.004280 
#    z -0.015730 -0.004280 1.920760 
# 
# From -- ./inp_files/37558.got.cif
#   From: 2010.06.25/outbox.cif.g09.slc.cpg/sg2_19_cif.got.tgz:37558.got - 2010.06.27 13:26:56.
