data_PCOD8005822
_publ_section_title
;
Structure prediction by ZEFSAII (Michael W. Deem and Ramdas Pophale) SiO2 
 PCOD8005822
Probable space group: P -1
;
_chemical_formula_sum "Si O2"
_cell_formula_units_Z 16
_cell_length_a 21.908637
_cell_length_b 23.219792
_cell_length_c 8.748082
_cell_angle_alpha 36.632210
_cell_angle_beta 142.310439
_cell_angle_gamma 162.410432
_cell_volume 793.814238
_symmetry_space_group_name_H-M "P -1"
_symmetry_group_IT_number 2
_symmetry_cell_setting 'triclinic'
loop_
_space_group_symop_operation_xyz
x,y,z
-x,-y,-z
loop_
_atom_site_type_symbol
_atom_site_label
_atom_site_fract_x
_atom_site_fract_y
_atom_site_fract_z
Si Si1 0.317265 0.024698 0.486799
Si Si2 0.791740 0.985422 0.009925
Si Si3 0.261346 0.386385 0.153755
Si Si4 0.529134 0.622754 0.452220
Si Si5 0.523417 0.132764 0.241370
Si Si6 0.445572 0.722113 0.299665
Si Si7 0.281116 0.618614 0.631826
Si Si8 0.032164 0.419656 0.286806
O O1 0.217096 0.018838 0.184465
O O2 0.168094 0.808016 0.669200
O O3 0.362055 0.105526 0.571366
O O4 0.535572 0.172173 0.540142
O O5 0.682204 0.989882 0.844752
O O6 0.020215 0.177763 0.111436
O O7 0.683534 0.800405 0.257228
O O8 0.321194 0.424670 0.369586
O O9 0.367290 0.389672 0.258578
O O10 0.340920 0.556032 0.888518
O O11 0.478873 0.648412 0.439594
O O12 0.720323 0.337879 0.292598
O O13 0.500000 0.000000 0.500000
O O14 0.558934 0.191465 0.010563
O O15 0.229986 0.536529 0.354617
O O16 0.068223 0.452408 0.473256
O O17 0.000000 0.500000 0.000000
#
# Coordination Sequence:
#
# PCOD8005822 Si02
#       8
#     2   2   2   2   2   2   2   2
#     4  10  21  39  60  79 125 154 194 246 290 350
#     4  10  20  39  63  87 118 158 202 239 296 366
#     4  11  19  38  69  88 115 160 203 247 300 357
#     4  10  22  40  62  92 120 154 200 256 305 341
#     4  10  22  39  61  88 125 155 190 257 306 341
#     4  10  23  40  57  88 124 152 197 250 303 346
#     4  10  21  41  63  86 119 158 201 243 299 356
#     4  11  25  39  62  87 117 167 205 235 297 366
#
# _framework density 20.155849
#
# number of rings (size 3 to 8) (size 9 to 14) (size 15 to 20)
#    0.000    1.750    5.000    0.375    5.250    3.000 
#    0.000    4.375    0.000    0.000    0.000    0.000 
#    0.000    0.000    0.000    0.000    0.000    0.000 
#
# Total GULP energy -198335.410127 kJ/mol
# GULP energy per Si atom -12395.963133 kJ/mol
# Density = 2.010997 g / cm^3
# Si number density = 20.155849 Si / 1000 Ang^3
#
#
#
# Elastic Constant Matrix: (Units=GPa)
#
#
# Indices 1 2 3 4 5 6 
#
# 1 68.2192 40.8078 35.2219 4.8382 -4.9683 -22.1637
# 2 40.8078 115.3656 23.7320 11.4526 -3.5006 -20.3229
# 3 35.2219 23.7320 96.9358 -3.7938 7.7792 -17.7659
# 4 4.8382 11.4526 -3.7938 34.6225 -6.2745 -3.1157
# 5 -4.9683 -3.5006 7.7792 -6.2745 35.1292 -0.1441
# 6 -22.1637 -20.3229 -17.7659 -3.1157 -0.1441 27.1498
#
#
#
# Elastic Compliance Matrix: (Units=1/GPa)
#
#
# Indices 1 2 3 4 5 6 
#
# 1 0.025451 -0.005332 -0.005955 -0.000500 0.004350 0.012855
# 2 -0.005332 0.011558 -0.000307 -0.002774 -0.000014 0.003780
# 3 -0.005955 -0.000307 0.013669 0.002165 -0.003496 0.004083
# 4 -0.000500 -0.002774 0.002165 0.031198 0.004756 0.002537
# 5 0.004350 -0.000014 -0.003496 0.004756 0.030712 0.001962
# 6 0.012855 0.003780 0.004083 0.002537 0.001962 0.053130
#
#
# Mechanical properties :
#
#
# Convention : Reuss Voigt Hill
#
# Bulk Modulus (GPa) = 36.37632 53.33823 44.85727
# Shear Modulus (GPa) = 25.24371 31.43088 28.33730
#
# Velocity S-wave (km/s) = 3.54280 3.95320 3.75361
# Velocity P-wave (km/s) = 5.90101 6.88167 6.41012
#
# Compressibility (1/GPa) = 0.02749041
#
# Stress axis : x y z
#
# Youngs Moduli (GPa) = 39.29057 86.52003 73.15952
#
# Poissons Ratio (x) = 0.46128 0.43569
# Poissons Ratio (y) = 0.20948 0.02247
# Poissons Ratio (z) = 0.23399 0.02657
#
# Static dielectric constant tensor:
#      x y z
#    x 3.530570 -0.238580 -0.160260 
#    y -0.238580 3.895700 0.144870 
#    z -0.160260 0.144870 3.805770 
# 
# 
# High freq. dielectric constant tensor:
#      x y z
#    x 1.757450 -0.016020 -0.005890 
#    y -0.016020 1.800360 0.006250 
#    z -0.005890 0.006250 1.792030 
# 
# From -- ./inp_files/349697.got.cif
#   From: 2010.06.25/outbox.cif.g09.slc.cpg/sg2_175_cif.got.tgz:349697.got - 2010.06.27 13:26:56.
