data_PCOD8005838
_publ_section_title
;
Structure prediction by ZEFSAII (Michael W. Deem and Ramdas Pophale) SiO2 
 PCOD8005838
Probable space group: P -1
;
_chemical_formula_sum "Si O2"
_cell_formula_units_Z 16
_cell_length_a 19.104792
_cell_length_b 8.887212
_cell_length_c 13.796694
_cell_angle_alpha 132.943138
_cell_angle_beta 29.118852
_cell_angle_gamma 135.059654
_cell_volume 791.614728
_symmetry_space_group_name_H-M "P -1"
_symmetry_group_IT_number 2
_symmetry_cell_setting 'triclinic'
loop_
_space_group_symop_operation_xyz
x,y,z
-x,-y,-z
loop_
_atom_site_type_symbol
_atom_site_label
_atom_site_fract_x
_atom_site_fract_y
_atom_site_fract_z
Si Si1 0.846362 0.493343 0.899252
Si Si2 0.666266 0.646241 0.337997
Si Si3 0.811462 0.327249 0.476407
Si Si4 0.835592 0.007835 0.666611
Si Si5 0.839472 0.970067 0.422064
Si Si6 0.668067 0.666097 0.863453
Si Si7 0.347299 0.977512 0.619983
Si Si8 0.812410 0.843122 0.957837
O O1 0.820844 0.244677 0.798770
O O2 0.783337 0.608401 0.939722
O O3 0.024035 0.623317 0.748658
O O4 0.762047 0.512085 0.109332
O O5 0.500000 0.500000 0.500000
O O6 0.640757 0.829104 0.382050
O O7 0.759293 0.744106 0.365481
O O8 0.782221 0.154941 0.523440
O O9 0.789026 0.539516 0.643331
O O10 0.699055 0.241468 0.483718
O O11 0.799480 0.936293 0.568175
O O12 0.696214 0.843385 0.822025
O O13 0.000000 0.000000 0.500000
O O14 0.018938 0.040720 0.229293
O O15 0.701866 0.798510 0.980181
O O16 0.500000 0.500000 0.000000
O O17 0.500000 0.000000 0.500000
O O18 0.223034 0.981923 0.852313
#
# Coordination Sequence:
#
# PCOD8005838 Si02
#       8
#     2   2   2   2   2   2   2   2
#     4  10  21  40  66  87 120 162 208 256 300 374
#     4  10  23  41  60  91 125 161 206 254 309 367
#     4  10  20  39  63  89 118 163 206 244 313 368
#     4  12  23  41  61  93 124 156 210 261 302 361
#     4  10  21  40  66  87 120 162 208 256 300 374
#     4  12  25  39  59  91 129 158 203 258 311 361
#     4  10  21  37  59  88 122 156 197 253 305 367
#     4  10  20  39  63  89 118 163 206 244 313 368
#
# _framework density 20.211853000000001
#
# number of rings (size 3 to 8) (size 9 to 14) (size 15 to 20)
#    0.000    1.500    2.500    2.250    0.000   11.000 
#    0.000    2.500    0.000    0.000    0.000    0.000 
#    0.000    0.000    0.000    0.000    0.000    0.000 
#
# Total GULP energy -198390.866237 kJ/mol
# GULP energy per Si atom -12399.429140 kJ/mol
# Density = 2.016585 g / cm^3
# Si number density = 20.211853 Si / 1000 Ang^3
#
#
#
# Elastic Constant Matrix: (Units=GPa)
#
#
# Indices 1 2 3 4 5 6 
#
# 1 133.1574 37.0574 41.4095 -8.6109 25.8453 14.8863
# 2 37.0574 80.1210 36.4023 -14.0089 20.0451 7.5133
# 3 41.4095 36.4023 89.4980 -5.1750 19.4600 -2.4515
# 4 -8.6109 -14.0089 -5.1750 36.1179 0.2512 -2.6478
# 5 25.8453 20.0451 19.4600 0.2512 35.1741 1.7529
# 6 14.8863 7.5133 -2.4515 -2.6478 1.7529 27.4780
#
#
#
# Elastic Compliance Matrix: (Units=1/GPa)
#
#
# Indices 1 2 3 4 5 6 
#
# 1 0.010537 -0.001488 -0.003300 0.001116 -0.004819 -0.005181
# 2 -0.001488 0.018521 -0.005210 0.005852 -0.006434 -0.003749
# 3 -0.003300 -0.005210 0.015710 -0.000178 -0.003537 0.004822
# 4 0.001116 0.005852 -0.000178 0.030299 -0.004321 0.000975
# 5 -0.004819 -0.006434 -0.003537 -0.004321 0.037563 0.001242
# 6 -0.005181 -0.003749 0.004822 0.000975 0.001242 0.040670
#
#
# Mechanical properties :
#
#
# Convention : Reuss Voigt Hill
#
# Bulk Modulus (GPa) = 40.36704 59.16830 49.76767
# Shear Modulus (GPa) = 27.54028 32.28113 29.91071
#
# Velocity S-wave (km/s) = 3.69532 4.00076 3.85107
# Velocity P-wave (km/s) = 6.18244 7.11892 6.66714
#
# Compressibility (1/GPa) = 0.02477268
#
# Stress axis : x y z
#
# Youngs Moduli (GPa) = 94.90591 53.99299 63.65306
#
# Poissons Ratio (x) = 0.08033 0.21004
# Poissons Ratio (y) = 0.14119 0.33164
# Poissons Ratio (z) = 0.31317 0.28131
#
# Static dielectric constant tensor:
#      x y z
#    x 4.205960 0.123860 0.467160 
#    y 0.123860 3.687500 0.123800 
#    z 0.467160 0.123800 4.015630 
# 
# 
# High freq. dielectric constant tensor:
#      x y z
#    x 1.792490 0.004980 0.010780 
#    y 0.004980 1.786470 0.001100 
#    z 0.010780 0.001100 1.797120 
# 
# From -- ./inp_files/185805.got.cif
#   From: 2010.06.25/outbox.cif.g09.slc.cpg/sg2_93_cif.got.tgz:185805.got - 2010.06.27 13:26:56.
