data_PCOD8005065
_publ_section_title
;
Structure prediction by ZEFSAII (Michael W. Deem and Ramdas Pophale) SiO2 
 PCOD8005065
Probable space group: P -1
;
_chemical_formula_sum "Si O2"
_cell_formula_units_Z 16
_cell_length_a 15.883166
_cell_length_b 9.166571
_cell_length_c 16.851158
_cell_angle_alpha 124.910658
_cell_angle_beta 148.203948
_cell_angle_gamma 36.586440
_cell_volume 721.541173
_symmetry_space_group_name_H-M "P -1"
_symmetry_group_IT_number 2
_symmetry_cell_setting 'triclinic'
loop_
_space_group_symop_operation_xyz
x,y,z
-x,-y,-z
loop_
_atom_site_type_symbol
_atom_site_label
_atom_site_fract_x
_atom_site_fract_y
_atom_site_fract_z
Si Si1 0.057594 0.196506 0.662184
Si Si2 0.012689 0.349150 0.220480
Si Si3 0.216354 0.915190 0.544581
Si Si4 0.813597 0.793785 0.855234
Si Si5 0.074838 0.009273 0.287658
Si Si6 0.421703 0.744496 0.082337
Si Si7 0.494951 0.701045 0.954167
Si Si8 0.270740 0.498204 0.229679
O O1 0.945143 0.479604 0.674094
O O2 0.852295 0.225894 0.526180
O O3 0.133216 0.124169 0.608577
O O4 0.282176 0.982571 0.832647
O O5 0.153522 0.181253 0.201853
O O6 0.733459 0.543467 0.047900
O O7 0.130286 0.131657 0.314375
O O8 0.093707 0.062871 0.409172
O O9 0.495404 0.701998 0.696686
O O10 0.739273 0.648205 0.757340
O O11 0.609456 0.078595 0.821419
O O12 0.058272 0.638368 0.043902
O O13 0.260494 0.698116 0.326558
O O14 0.821295 0.139755 0.106728
O O15 0.566507 0.461149 0.147778
O O16 0.538264 0.727084 0.089337
#
# Coordination Sequence:
#
# PCOD8005065 Si02
#       8
#     2   2   2   2   2   2   2   2
#     4  11  24  39  62  89 124 157 213 247 293 364
#     4  11  24  38  63  94 124 157 201 260 298 351
#     4  11  23  41  60  86 118 172 203 244 301 364
#     4  10  22  39  64  96 120 149 206 255 300 362
#     4  10  21  41  61  85 128 159 201 248 305 357
#     4   9  20  37  64  94 121 157 196 248 308 360
#     4  10  20  38  64  91 126 155 195 253 309 350
#     4  10  22  39  66  87 119 163 200 249 306 362
#
# _framework density 22.174755999999999
#
# number of rings (size 3 to 8) (size 9 to 14) (size 15 to 20)
#    0.000    1.750    1.250    2.250    5.250    6.000 
#    0.000    5.000    0.000    0.000    0.000    0.000 
#    0.000    0.000    0.000    0.000    0.000    0.000 
#
# Total GULP energy -198411.511713 kJ/mol
# GULP energy per Si atom -12400.719482 kJ/mol
# Density = 2.212429 g / cm^3
# Si number density = 22.174756 Si / 1000 Ang^3
#
#
#
# Elastic Constant Matrix: (Units=GPa)
#
#
# Indices 1 2 3 4 5 6 
#
# 1 140.8387 55.4341 27.9502 11.4792 -24.2450 -7.8675
# 2 55.4341 121.3457 22.3046 20.1756 -19.5611 5.8698
# 3 27.9502 22.3046 31.8109 9.7300 -9.7663 1.4447
# 4 11.4792 20.1756 9.7300 21.6851 -9.5366 -2.5101
# 5 -24.2450 -19.5611 -9.7663 -9.5366 38.8755 -0.4903
# 6 -7.8675 5.8698 1.4447 -2.5101 -0.4903 36.3941
#
#
#
# Elastic Compliance Matrix: (Units=1/GPa)
#
#
# Indices 1 2 3 4 5 6 
#
# 1 0.010403 -0.003574 -0.006471 0.002772 0.003786 0.003324
# 2 -0.003574 0.011981 -0.002279 -0.008066 0.001208 -0.003155
# 3 -0.006471 -0.002279 0.043749 -0.013422 0.002470 -0.003660
# 4 0.002772 -0.008066 -0.013422 0.063341 0.009924 0.006935
# 5 0.003786 0.001208 0.002470 0.009924 0.031768 0.001638
# 6 0.003324 -0.003155 -0.003660 0.006935 0.001638 0.029350
#
#
# Mechanical properties :
#
#
# Convention : Reuss Voigt Hill
#
# Bulk Modulus (GPa) = 24.10488 56.15257 40.12872
# Shear Modulus (GPa) = 21.82764 31.94472 26.88618
#
# Velocity S-wave (km/s) = 3.14083 3.79963 3.48583
# Velocity P-wave (km/s) = 4.90379 6.68037 5.85980
#
# Compressibility (1/GPa) = 0.04148538
#
# Stress axis : x y z
#
# Youngs Moduli (GPa) = 96.12827 83.46440 22.85787
#
# Poissons Ratio (x) = 0.29833 0.14790
# Poissons Ratio (y) = 0.34359 0.05209
# Poissons Ratio (z) = 0.62201 0.19019
#
# Static dielectric constant tensor:
#      x y z
#    x 4.208440 -0.020620 -0.039270 
#    y -0.020620 4.253270 0.093690 
#    z -0.039270 0.093690 3.663960 
# 
# 
# High freq. dielectric constant tensor:
#      x y z
#    x 1.887520 -0.005550 -0.001850 
#    y -0.005550 1.873310 0.004390 
#    z -0.001850 0.004390 1.844850 
# 
# From -- ./inp_files/528961.got.cif
#   From: 2010.06.25/outbox.cif.g09.slc.cpg/sg2_265_cif.got.tgz:528961.got - 2010.06.27 13:26:56.
