data_PCOD8005507
_publ_section_title
;
Structure prediction by ZEFSAII (Michael W. Deem and Ramdas Pophale) SiO2 
 PCOD8005507
Probable space group: P -1
;
_chemical_formula_sum "Si O2"
_cell_formula_units_Z 14
_cell_length_a 11.021954
_cell_length_b 13.842380
_cell_length_c 13.718247
_cell_angle_alpha 21.457661
_cell_angle_beta 111.828394
_cell_angle_gamma 113.223838
_cell_volume 703.533641
_symmetry_space_group_name_H-M "P -1"
_symmetry_group_IT_number 2
_symmetry_cell_setting 'triclinic'
loop_
_space_group_symop_operation_xyz
x,y,z
-x,-y,-z
loop_
_atom_site_type_symbol
_atom_site_label
_atom_site_fract_x
_atom_site_fract_y
_atom_site_fract_z
Si Si1 0.919276 0.481154 0.151391
Si Si2 0.917740 0.942038 0.345170
Si Si3 0.345963 0.208316 0.687995
Si Si4 0.678848 0.724507 0.832880
Si Si5 0.489468 0.712431 0.156372
Si Si6 0.214078 0.926010 0.632537
Si Si7 0.525199 0.294629 0.058804
O O1 0.887038 0.348440 0.158369
O O2 0.979318 0.268905 0.438054
O O3 0.774430 0.540087 0.089370
O O4 0.020507 0.750811 0.927787
O O5 0.809940 0.891215 0.274781
O O6 0.845574 0.892578 0.475663
O O7 0.379746 0.477450 0.382691
O O8 0.379543 0.268035 0.755774
O O9 0.431415 0.989516 0.879834
O O10 0.593897 0.851056 0.771764
O O11 0.775369 0.942047 0.595953
O O12 0.579201 0.571203 0.868045
O O13 0.529879 0.650450 0.116182
O O14 0.358240 0.882942 0.752708
#
# Coordination Sequence:
#
# PCOD8005507 Si02
#       7
#     2   2   2   2   2   2   2
#     4  11  24  36  54  81 117 153 188 225 276 339
#     4  12  22  35  58  83 115 149 184 233 283 335
#     4  10  21  36  61  86 115 141 185 235 293 335
#     4  10  22  38  54  86 116 158 191 226 274 342
#     4  10  20  39  58  88 113 143 183 240 288 333
#     4  11  21  35  57  83 116 149 190 232 281 335
#     4  10  21  36  60  84 116 151 190 236 280 334
#
# _framework density 19.899546000000001
#
# number of rings (size 3 to 8) (size 9 to 14) (size 15 to 20)
#    0.000    1.429    2.857    3.000    4.000    0.000 
#    0.000    0.000    0.000    1.714    0.000    0.000 
#    0.000    0.000    0.000    0.000    0.000    0.000 
#
# Total GULP energy -173520.531800 kJ/mol
# GULP energy per Si atom -12394.323700 kJ/mol
# Density = 1.985425 g / cm^3
# Si number density = 19.899546 Si / 1000 Ang^3
#
#
#
# Elastic Constant Matrix: (Units=GPa)
#
#
# Indices 1 2 3 4 5 6 
#
# 1 55.7971 49.5981 16.9741 0.1862 -1.1253 8.3911
# 2 49.5981 129.9956 33.8846 9.2802 -2.6590 15.9578
# 3 16.9741 33.8846 80.8758 -4.6986 0.0672 5.8967
# 4 0.1862 9.2802 -4.6986 24.0926 4.3901 -2.8063
# 5 -1.1253 -2.6590 0.0672 4.3901 22.5292 3.2068
# 6 8.3911 15.9578 5.8967 -2.8063 3.2068 29.9853
#
#
#
# Elastic Compliance Matrix: (Units=1/GPa)
#
#
# Indices 1 2 3 4 5 6 
#
# 1 0.027660 -0.010283 -0.001178 0.003365 -0.000243 -0.001695
# 2 -0.010283 0.013713 -0.003656 -0.007038 0.003156 -0.004697
# 3 -0.001178 -0.003656 0.014404 0.004485 -0.001409 0.000013
# 4 0.003365 -0.007038 0.004485 0.047975 -0.011106 0.007599
# 5 -0.000243 0.003156 -0.001409 -0.011106 0.047984 -0.007505
# 6 -0.001695 -0.004697 0.000013 0.007599 -0.007505 0.037835
#
#
# Mechanical properties :
#
#
# Convention : Reuss Voigt Hill
#
# Bulk Modulus (GPa) = 39.14943 51.95357 45.55150
# Shear Modulus (GPa) = 21.89917 26.40219 24.15068
#
# Velocity S-wave (km/s) = 3.32096 3.64644 3.48750
# Velocity P-wave (km/s) = 5.86696 6.62520 6.25758
#
# Compressibility (1/GPa) = 0.02554316
#
# Stress axis : x y z
#
# Youngs Moduli (GPa) = 36.15315 72.92565 69.42391
#
# Poissons Ratio (x) = 0.74993 0.08175
# Poissons Ratio (y) = 0.37178 0.25381
# Poissons Ratio (z) = 0.04257 0.26661
#
# Static dielectric constant tensor:
#      x y z
#    x 3.533200 0.238970 0.075160 
#    y 0.238970 3.717090 -0.011600 
#    z 0.075160 -0.011600 3.646560 
# 
# 
# High freq. dielectric constant tensor:
#      x y z
#    x 1.749720 0.027840 0.011180 
#    y 0.027840 1.764570 -0.008580 
#    z 0.011180 -0.008580 1.781540 
# 
# From -- ./inp_files/83977.got.cif
#   From: 2010.06.25/outbox.cif.g09.slc.cpg/sg2_42_cif.got.tgz:83977.got - 2010.06.27 13:26:56.
