data_PCOD8005068
_publ_section_title
;
Structure prediction by ZEFSAII (Michael W. Deem and Ramdas Pophale) SiO2 
 PCOD8005068
Probable space group: P -1
;
_chemical_formula_sum "Si O2"
_cell_formula_units_Z 16
_cell_length_a 19.333740
_cell_length_b 6.696519
_cell_length_c 7.667914
_cell_angle_alpha 96.800025
_cell_angle_beta 66.551490
_cell_angle_gamma 129.741080
_cell_volume 687.192861
_symmetry_space_group_name_H-M "P -1"
_symmetry_group_IT_number 2
_symmetry_cell_setting 'triclinic'
loop_
_space_group_symop_operation_xyz
x,y,z
-x,-y,-z
loop_
_atom_site_type_symbol
_atom_site_label
_atom_site_fract_x
_atom_site_fract_y
_atom_site_fract_z
Si Si1 0.058111 0.577955 0.686138
Si Si2 0.820168 0.599940 0.491593
Si Si3 0.693810 0.588533 0.162619
Si Si4 0.096406 0.029026 0.881098
Si Si5 0.114212 0.919724 0.340813
Si Si6 0.667543 0.803469 0.892097
Si Si7 0.622423 0.427941 0.599745
Si Si8 0.436860 0.977825 0.903682
O O1 0.148659 0.577450 0.575672
O O2 0.053537 0.726513 0.546499
O O3 0.959316 0.262489 0.766824
O O4 0.068033 0.741938 0.860786
O O5 0.849310 0.792076 0.323271
O O6 0.700435 0.396151 0.591700
O O7 0.866331 0.803935 0.633021
O O8 0.815420 0.802371 0.044172
O O9 0.653136 0.566392 0.394255
O O10 0.654445 0.306594 0.109320
O O11 0.647531 0.670977 0.087233
O O12 0.000000 0.000000 0.000000
O O13 0.215002 0.970153 0.231042
O O14 0.619321 0.601070 0.760273
O O15 0.615222 0.922698 0.951481
O O16 0.511463 0.145185 0.683049
O O17 0.500000 0.000000 0.000000
#
# Coordination Sequence:
#
# PCOD8005068 Si02
#       8
#     2   2   2   2   2   2   2   2
#     4  10  20  38  64  91 132 186 221 271 349 397
#     4   9  20  39  64  93 129 178 224 273 341 409
#     4  11  26  47  69 102 140 183 231 285 351 411
#     4  10  24  41  61  97 142 176 228 282 332 416
#     4   9  21  37  61 101 127 171 231 278 333 415
#     4  11  25  45  71 103 139 179 235 285 352 416
#     4  10  23  48  69 100 142 178 229 294 344 411
#     4  12  26  46  73 106 135 183 236 288 353 413
#
# _framework density 23.283128999999999
#
# number of rings (size 3 to 8) (size 9 to 14) (size 15 to 20)
#    0.000    1.750    1.250    1.875    5.250    3.000 
#    4.500    0.000    0.000    0.000    0.000    0.000 
#    0.000    0.000    0.000    0.000    0.000    0.000 
#
# Total GULP energy -198299.873154 kJ/mol
# GULP energy per Si atom -12393.742072 kJ/mol
# Density = 2.323014 g / cm^3
# Si number density = 23.283129 Si / 1000 Ang^3
#
#
#
# Elastic Constant Matrix: (Units=GPa)
#
#
# Indices 1 2 3 4 5 6 
#
# 1 98.0548 66.3476 42.3921 40.1086 -18.3934 1.2527
# 2 66.3476 129.4041 47.9019 27.4409 -23.6128 14.1082
# 3 42.3921 47.9019 86.9645 26.0507 -6.1990 3.2831
# 4 40.1086 27.4409 26.0507 36.7462 -4.3476 -9.7014
# 5 -18.3934 -23.6128 -6.1990 -4.3476 46.0376 1.0442
# 6 1.2527 14.1082 3.2831 -9.7014 1.0442 38.7267
#
#
#
# Elastic Compliance Matrix: (Units=1/GPa)
#
#
# Indices 1 2 3 4 5 6 
#
# 1 0.025117 -0.006307 -0.001695 -0.022020 0.004583 -0.004011
# 2 -0.006307 0.014012 -0.003577 -0.001927 0.004121 -0.005191
# 3 -0.001695 -0.003577 0.016686 -0.007958 -0.000970 -0.002024
# 4 -0.022020 -0.001927 -0.007958 0.062411 -0.005369 0.017868
# 5 0.004583 0.004121 -0.000970 -0.005369 0.025110 -0.003589
# 6 -0.004011 -0.005191 -0.002024 0.017868 -0.003589 0.032587
#
#
# Mechanical properties :
#
#
# Convention : Reuss Voigt Hill
#
# Bulk Modulus (GPa) = 30.62101 69.74517 50.18309
# Shear Modulus (GPa) = 23.81310 34.82089 29.31700
#
# Velocity S-wave (km/s) = 3.20153 3.87142 3.55230
# Velocity P-wave (km/s) = 5.18137 7.07136 6.19882
#
# Compressibility (1/GPa) = 0.03265731
#
# Stress axis : x y z
#
# Youngs Moduli (GPa) = 39.81318 71.36676 59.92934
#
# Poissons Ratio (x) = 0.45014 0.10159
# Poissons Ratio (y) = 0.25112 0.21435
# Poissons Ratio (z) = 0.06749 0.25526
#
# Static dielectric constant tensor:
#      x y z
#    x 4.153890 0.429150 -0.040190 
#    y 0.429150 4.565950 -0.053310 
#    z -0.040190 -0.053310 4.369530 
# 
# 
# High freq. dielectric constant tensor:
#      x y z
#    x 1.912250 0.015080 -0.000560 
#    y 0.015080 1.927360 -0.005730 
#    z -0.000560 -0.005730 1.927270 
# 
# From -- ./inp_files/340548.got.cif
#   From: 2010.06.25/outbox.cif.g09.slc.cpg/sg2_171_cif.got.tgz:340548.got - 2010.06.27 13:26:56.
