data_PCOD8005366
_publ_section_title
;
Structure prediction by ZEFSAII (Michael W. Deem and Ramdas Pophale) SiO2 
 PCOD8005366
Probable space group: P -1
;
_chemical_formula_sum "Si O2"
_cell_formula_units_Z 16
_cell_length_a 23.474090
_cell_length_b 9.355999
_cell_length_c 5.171647
_cell_angle_alpha 81.268253
_cell_angle_beta 58.661718
_cell_angle_gamma 55.579999
_cell_volume 783.799816
_symmetry_space_group_name_H-M "P -1"
_symmetry_group_IT_number 2
_symmetry_cell_setting 'triclinic'
loop_
_space_group_symop_operation_xyz
x,y,z
-x,-y,-z
loop_
_atom_site_type_symbol
_atom_site_label
_atom_site_fract_x
_atom_site_fract_y
_atom_site_fract_z
Si Si1 0.806101 0.221997 0.507153
Si Si2 0.406900 0.573095 0.196414
Si Si3 0.214412 0.185440 0.912354
Si Si4 0.937958 0.196803 0.502373
Si Si5 0.266732 0.966335 0.365595
Si Si6 0.334874 0.540588 0.898099
Si Si7 0.220319 0.511457 0.898009
Si Si8 0.028581 0.379381 0.214114
O O1 0.895793 0.173186 0.360057
O O2 0.757410 0.401540 0.403228
O O3 0.806083 0.063250 0.419309
O O4 0.749729 0.266671 0.885889
O O5 0.382338 0.552763 0.545038
O O6 0.353728 0.778642 0.179184
O O7 0.500000 0.500000 0.000000
O O8 0.393333 0.467259 0.033679
O O9 0.272580 0.056018 0.583556
O O10 0.213497 0.359441 0.850622
O O11 0.247408 0.094279 0.135743
O O12 0.124847 0.237383 0.047116
O O13 0.988176 0.275077 0.294411
O O14 0.867382 0.329686 0.830532
O O15 0.000000 0.000000 0.500000
O O16 0.297133 0.429373 0.939923
O O17 0.000000 0.500000 0.500000
O O18 0.000000 0.500000 0.000000
#
# Coordination Sequence:
#
# PCOD8005366 Si02
#       8
#     2   2   2   2   2   2   2   2
#     4  10  22  41  65  88 129 167 226 266 321 377
#     4  11  22  41  71 105 134 160 205 269 327 382
#     4  12  26  41  66  91 134 174 219 270 323 387
#     4  11  25  39  62  93 126 169 228 282 329 377
#     4  11  24  42  66  98 124 166 221 264 318 391
#     4  10  20  38  67  97 124 167 214 250 308 393
#     4  11  23  42  64  91 128 178 217 263 327 385
#     4  12  25  45  61  89 132 173 221 270 337 379
#
# _framework density 20.413376
#
# number of rings (size 3 to 8) (size 9 to 14) (size 15 to 20)
#    0.000    1.000    3.750    4.125    7.000    0.500 
#    0.000    0.000    0.000    4.500    0.000    0.000 
#    0.000    0.000    0.000    0.000    0.000    0.000 
#
# Total GULP energy -198256.676679 kJ/mol
# GULP energy per Si atom -12391.042292 kJ/mol
# Density = 2.036691 g / cm^3
# Si number density = 20.413376 Si / 1000 Ang^3
#
#
#
# Elastic Constant Matrix: (Units=GPa)
#
#
# Indices 1 2 3 4 5 6 
#
# 1 146.5901 41.9118 48.8219 6.1799 -2.8562 10.0604
# 2 41.9118 99.9028 38.3002 -8.2971 3.5212 18.1528
# 3 48.8219 38.3002 99.5912 -11.6510 4.0724 2.9952
# 4 6.1799 -8.2971 -11.6510 28.4454 -7.5053 0.1337
# 5 -2.8562 3.5212 4.0724 -7.5053 38.1319 -0.4954
# 6 10.0604 18.1528 2.9952 0.1337 -0.4954 34.6255
#
#
#
# Elastic Compliance Matrix: (Units=1/GPa)
#
#
# Indices 1 2 3 4 5 6 
#
# 1 0.009117 -0.002481 -0.003998 -0.004206 0.000498 -0.000979
# 2 -0.002481 0.013806 -0.003532 0.002997 -0.000575 -0.006231
# 3 -0.003998 -0.003532 0.013958 0.005450 -0.000368 0.001779
# 4 -0.004206 0.002997 0.005450 0.040996 0.006884 -0.000881
# 5 0.000498 -0.000575 -0.000368 0.006884 0.027717 0.000558
# 6 -0.000979 -0.006231 0.001779 -0.000881 0.000558 0.032289
#
#
# Mechanical properties :
#
#
# Convention : Reuss Voigt Hill
#
# Bulk Modulus (GPa) = 59.31322 67.12799 63.22061
# Shear Modulus (GPa) = 30.57652 34.71059 32.64355
#
# Velocity S-wave (km/s) = 3.87443 4.12805 4.00325
# Velocity P-wave (km/s) = 7.00957 7.46168 7.23916
#
# Compressibility (1/GPa) = 0.01685965
#
# Stress axis : x y z
#
# Youngs Moduli (GPa) = 109.68671 72.43256 71.64157
#
# Poissons Ratio (x) = 0.17970 0.28643
# Poissons Ratio (y) = 0.27213 0.25301
# Poissons Ratio (z) = 0.43855 0.25581
#
# Static dielectric constant tensor:
#      x y z
#    x 4.261390 0.148440 0.155470 
#    y 0.148440 3.470440 -0.016270 
#    z 0.155470 -0.016270 3.768750 
# 
# 
# High freq. dielectric constant tensor:
#      x y z
#    x 1.820530 0.013040 0.012340 
#    y 0.013040 1.770650 -0.007290 
#    z 0.012340 -0.007290 1.797400 
# 
# From -- ./inp_files/47001.got.cif
#   From: 2010.06.25/outbox.cif.g09.slc.cpg/sg2_24_cif.got.tgz:47001.got - 2010.06.27 13:26:56.
