data_PCOD8005477
_publ_section_title
;
Structure prediction by ZEFSAII (Michael W. Deem and Ramdas Pophale) SiO2 
 PCOD8005477
Probable space group: P -1
;
_chemical_formula_sum "Si O2"
_cell_formula_units_Z 12
_cell_length_a 23.784418
_cell_length_b 6.411640
_cell_length_c 5.089050
_cell_angle_alpha 107.910358
_cell_angle_beta 124.835656
_cell_angle_gamma 58.359195
_cell_volume 542.269156
_symmetry_space_group_name_H-M "P -1"
_symmetry_group_IT_number 2
_symmetry_cell_setting 'triclinic'
loop_
_space_group_symop_operation_xyz
x,y,z
-x,-y,-z
loop_
_atom_site_type_symbol
_atom_site_label
_atom_site_fract_x
_atom_site_fract_y
_atom_site_fract_z
Si Si1 0.539146 0.172013 0.742081
Si Si2 0.975161 0.299390 0.772209
Si Si3 0.726041 0.492037 0.777712
Si Si4 0.397996 0.599043 0.382571
Si Si5 0.097788 0.769128 0.933713
Si Si6 0.649339 0.744882 0.157144
O O1 0.471544 0.447571 0.711664
O O2 0.594234 0.178047 0.653502
O O3 0.500000 0.000000 0.500000
O O4 0.594364 0.041451 0.091534
O O5 0.928572 0.377791 0.403755
O O6 0.920387 0.272952 0.834905
O O7 0.053289 0.053042 0.847027
O O8 0.000000 0.500000 0.000000
O O9 0.680470 0.323797 0.629404
O O10 0.687994 0.689559 0.521824
O O11 0.812811 0.309436 0.877657
O O12 0.716342 0.653825 0.076496
O O13 0.399877 0.406636 0.083659
#
# Coordination Sequence:
#
# PCOD8005477 Si02
#       6
#     2   2   2   2   2   2
#     4   9  16  38  57  81 112 157 200 249 291 356
#     4  10  21  40  65  94 119 162 203 240 301 370
#     4  10  20  39  57  84 121 154 193 250 307 348
#     4   8  19  35  57  82 112 153 203 246 299 351
#     4  10  21  39  64  88 129 158 197 255 298 360
#     4   9  20  36  55  81 116 150 198 244 301 350
#
# _framework density 22.12923
#
# number of rings (size 3 to 8) (size 9 to 14) (size 15 to 20)
#    1.000    1.667    0.000    1.500    0.000    0.667 
#    6.000    5.833    0.000    0.000    0.000    0.000 
#    0.000    0.000    0.000    0.000    0.000    0.000 
#
# Total GULP energy -148660.849791 kJ/mol
# GULP energy per Si atom -12388.404149 kJ/mol
# Density = 2.207886 g / cm^3
# Si number density = 22.129230 Si / 1000 Ang^3
#
#
#
# Elastic Constant Matrix: (Units=GPa)
#
#
# Indices 1 2 3 4 5 6 
#
# 1 134.3109 52.5984 42.2423 -27.6929 22.8335 -4.6768
# 2 52.5984 74.2547 29.2643 -19.2731 17.2039 12.5990
# 3 42.2423 29.2643 85.1869 -19.7794 1.1987 4.0609
# 4 -27.6929 -19.2731 -19.7794 29.9604 -4.6017 -0.8038
# 5 22.8335 17.2039 1.1987 -4.6017 37.3025 -8.4065
# 6 -4.6768 12.5990 4.0609 -0.8038 -8.4065 27.7002
#
#
#
# Elastic Compliance Matrix: (Units=1/GPa)
#
#
# Indices 1 2 3 4 5 6 
#
# 1 0.012724 -0.006636 -0.003018 0.005187 -0.002891 0.004882
# 2 -0.006636 0.026307 -0.003335 0.006526 -0.010686 -0.015651
# 3 -0.003018 -0.003335 0.015725 0.006001 0.003614 -0.000027
# 4 0.005187 0.006526 0.006001 0.046104 -0.001137 -0.001980
# 5 -0.002891 -0.010686 0.003614 -0.001137 0.036612 0.014920
# 6 0.004882 -0.015651 -0.000027 -0.001980 0.014920 0.048518
#
#
# Mechanical properties :
#
#
# Convention : Reuss Voigt Hill
#
# Bulk Modulus (GPa) = 34.74759 60.21805 47.48282
# Shear Modulus (GPa) = 22.56715 30.30245 26.43480
#
# Velocity S-wave (km/s) = 3.19688 3.70447 3.46000
# Velocity P-wave (km/s) = 5.41876 6.75045 6.12093
#
# Compressibility (1/GPa) = 0.02877898
#
# Stress axis : x y z
#
# Youngs Moduli (GPa) = 78.58943 38.01216 63.59418
#
# Poissons Ratio (x) = 0.25226 0.19191
# Poissons Ratio (y) = 0.52154 0.21207
# Poissons Ratio (z) = 0.23716 0.12676
#
# Static dielectric constant tensor:
#      x y z
#    x 3.991910 0.067920 -0.162200 
#    y 0.067920 3.865070 -0.262820 
#    z -0.162200 -0.262820 3.947420 
# 
# 
# High freq. dielectric constant tensor:
#      x y z
#    x 1.868800 0.005540 -0.011510 
#    y 0.005540 1.854080 -0.010660 
#    z -0.011510 -0.010660 1.864210 
# 
# From -- ./inp_files/121327.got.cif
#   From: 2010.06.25/outbox.cif.g09.slc.cpg/sg2_61_cif.got.tgz:121327.got - 2010.06.27 13:26:56.
