data_PCOD8005228
_publ_section_title
;
Structure prediction by ZEFSAII (Michael W. Deem and Ramdas Pophale) SiO2 
 PCOD8005228
Probable space group: P -1
;
_chemical_formula_sum "Si O2"
_cell_formula_units_Z 16
_cell_length_a 18.639966
_cell_length_b 15.113467
_cell_length_c 9.015630
_cell_angle_alpha 140.153230
_cell_angle_beta 39.238016
_cell_angle_gamma 152.010518
_cell_volume 723.285203
_symmetry_space_group_name_H-M "P -1"
_symmetry_group_IT_number 2
_symmetry_cell_setting 'triclinic'
loop_
_space_group_symop_operation_xyz
x,y,z
-x,-y,-z
loop_
_atom_site_type_symbol
_atom_site_label
_atom_site_fract_x
_atom_site_fract_y
_atom_site_fract_z
Si Si1 0.810368 0.358884 0.647522
Si Si2 0.534415 0.649520 0.453113
Si Si3 0.743392 0.913292 0.010090
Si Si4 0.264809 0.342011 0.078115
Si Si5 0.438198 0.022436 0.272854
Si Si6 0.740379 0.751178 0.520859
Si Si7 0.595077 0.251132 0.590761
Si Si8 0.074234 0.254589 0.006832
O O1 0.733459 0.192667 0.681335
O O2 0.699939 0.252457 0.539919
O O3 0.000000 0.500000 0.500000
O O4 0.802890 0.511106 0.912117
O O5 0.612952 0.717605 0.576617
O O6 0.344097 0.454417 0.527944
O O7 0.583623 0.834278 0.534373
O O8 0.595965 0.577608 0.158754
O O9 0.579998 0.858554 0.205010
O O10 0.748815 0.781264 0.931529
O O11 0.791438 0.910081 0.762949
O O12 0.886417 0.135631 0.132698
O O13 0.312308 0.528205 0.318736
O O14 0.100566 0.217323 0.083641
O O15 0.570048 0.128817 0.331501
O O16 0.500000 0.000000 0.000000
O O17 0.890893 0.831090 0.284389
#
# Coordination Sequence:
#
# PCOD8005228 Si02
#       8
#     2   2   2   2   2   2   2   2
#     4  11  26  48  65  91 133 183 222 267 321 384
#     4  10  20  39  62  93 129 162 211 263 329 381
#     4  12  20  36  67 100 125 161 214 266 330 395
#     4  10  20  38  65  96 123 160 208 275 325 376
#     4  12  25  41  68  96 131 174 227 266 316 388
#     4  10  21  36  64  97 133 161 203 273 340 383
#     4  11  23  42  69  97 123 170 224 272 324 391
#     4  10  23  39  60  92 134 171 206 265 331 381
#
# _framework density 22.121288
#
# number of rings (size 3 to 8) (size 9 to 14) (size 15 to 20)
#    0.000    1.250    2.500    3.750    3.500    0.000 
#    2.250    0.625    0.000    0.000    0.000    0.000 
#    0.000    0.000    0.000    0.000    0.000    0.000 
#
# Total GULP energy -198344.644853 kJ/mol
# GULP energy per Si atom -12396.540303 kJ/mol
# Density = 2.207094 g / cm^3
# Si number density = 22.121288 Si / 1000 Ang^3
#
#
#
# Elastic Constant Matrix: (Units=GPa)
#
#
# Indices 1 2 3 4 5 6 
#
# 1 100.5263 49.3844 34.5382 -4.7297 5.1966 14.7929
# 2 49.3844 109.2041 16.9398 1.2474 3.8083 5.1726
# 3 34.5382 16.9398 92.0071 2.1642 27.8961 17.5514
# 4 -4.7297 1.2474 2.1642 26.4968 2.5921 -8.1412
# 5 5.1966 3.8083 27.8961 2.5921 38.5478 4.2195
# 6 14.7929 5.1726 17.5514 -8.1412 4.2195 43.7111
#
#
#
# Elastic Compliance Matrix: (Units=1/GPa)
#
#
# Indices 1 2 3 4 5 6 
#
# 1 0.014839 -0.005972 -0.004755 0.002451 0.002101 -0.002152
# 2 -0.005972 0.011850 0.000162 -0.001500 -0.000416 0.000315
# 3 -0.004755 0.000162 0.016871 -0.002585 -0.010905 -0.004613
# 4 0.002451 -0.001500 -0.002585 0.041188 -0.001984 0.008249
# 5 0.002101 -0.000416 -0.010905 -0.001984 0.033715 0.000093
# 6 -0.002152 0.000315 -0.004613 0.008249 0.000093 0.026948
#
#
# Mechanical properties :
#
#
# Convention : Reuss Voigt Hill
#
# Bulk Modulus (GPa) = 44.58640 55.94025 50.26333
# Shear Modulus (GPa) = 28.73275 35.14281 31.93778
#
# Velocity S-wave (km/s) = 3.60790 3.99010 3.80380
# Velocity P-wave (km/s) = 6.12822 6.82428 6.48559
#
# Compressibility (1/GPa) = 0.02242836
#
# Stress axis : x y z
#
# Youngs Moduli (GPa) = 67.39215 84.39148 59.27275
#
# Poissons Ratio (x) = 0.50399 0.28184
# Poissons Ratio (y) = 0.40247 -0.00957
# Poissons Ratio (z) = 0.32044 -0.01363
#
# Static dielectric constant tensor:
#      x y z
#    x 4.129850 0.091400 0.162130 
#    y 0.091400 4.084930 0.314030 
#    z 0.162130 0.314030 4.010810 
# 
# 
# High freq. dielectric constant tensor:
#      x y z
#    x 1.872710 0.004210 0.011120 
#    y 0.004210 1.871210 0.019180 
#    z 0.011120 0.019180 1.862120 
# 
# From -- ./inp_files/331913.got.cif
#   From: 2010.06.25/outbox.cif.g09.slc.cpg/sg2_166_cif.got.tgz:331913.got - 2010.06.27 13:26:56.
