data_PCOD8005232
_publ_section_title
;
Structure prediction by ZEFSAII (Michael W. Deem and Ramdas Pophale) SiO2 
 PCOD8005232
Probable space group: P -1
;
_chemical_formula_sum "Si O2"
_cell_formula_units_Z 14
_cell_length_a 8.692884
_cell_length_b 12.889197
_cell_length_c 12.766448
_cell_angle_alpha 146.827926
_cell_angle_beta 66.761274
_cell_angle_gamma 92.604428
_cell_volume 592.624678
_symmetry_space_group_name_H-M "P -1"
_symmetry_group_IT_number 2
_symmetry_cell_setting 'triclinic'
loop_
_space_group_symop_operation_xyz
x,y,z
-x,-y,-z
loop_
_atom_site_type_symbol
_atom_site_label
_atom_site_fract_x
_atom_site_fract_y
_atom_site_fract_z
Si Si1 0.995494 0.660681 0.725355
Si Si2 0.432319 0.117656 0.007900
Si Si3 0.615029 0.435622 0.523429
Si Si4 0.448138 0.228005 0.761047
Si Si5 0.998704 0.532595 0.219635
Si Si6 0.328249 0.504068 0.826419
Si Si7 0.743539 0.041711 0.709309
O O1 0.761871 0.880950 0.978808
O O2 0.000000 0.500000 0.500000
O O3 0.145347 0.739988 0.720248
O O4 0.063273 0.517548 0.694436
O O5 0.388814 0.366508 0.244182
O O6 0.602757 0.982790 0.760446
O O7 0.500000 0.000000 0.000000
O O8 0.500000 0.500000 0.500000
O O9 0.505968 0.360175 0.569014
O O10 0.431296 0.400786 0.823568
O O11 0.638063 0.155665 0.723283
O O12 0.500000 0.000000 0.500000
O O13 0.237712 0.347425 0.982603
O O14 0.859302 0.518544 0.158381
O O15 0.954979 0.788155 0.433407
O O16 0.229301 0.778630 0.083637
#
# Coordination Sequence:
#
# PCOD8005232 Si02
#       7
#     2   2   2   2   2   2   2
#     4  10  20  39  69 100 135 180 227 279 348 416
#     4  10  21  39  66  97 133 179 231 277 347 415
#     4  10  20  38  65  96 138 174 218 290 342 399
#     4  12  26  48  72 101 138 184 236 286 347 412
#     4  12  24  47  75  97 142 184 228 287 351 412
#     4  11  25  44  69 104 140 182 236 285 341 417
#     4  11  24  45  70 101 138 184 228 289 345 404
#
# _framework density 23.623722000000001
#
# number of rings (size 3 to 8) (size 9 to 14) (size 15 to 20)
#    0.000    1.143    4.286    2.571    0.000    0.571 
#    2.571    2.143    0.000    0.000    0.000    0.000 
#    0.000    0.000    0.000    0.000    0.000    0.000 
#
# Total GULP energy -173501.021829 kJ/mol
# GULP energy per Si atom -12392.930131 kJ/mol
# Density = 2.356995 g / cm^3
# Si number density = 23.623722 Si / 1000 Ang^3
#
#
#
# Elastic Constant Matrix: (Units=GPa)
#
#
# Indices 1 2 3 4 5 6 
#
# 1 68.2089 8.3606 12.9342 -2.1795 -10.8713 -1.2435
# 2 8.3606 113.3334 13.1872 -8.7928 -7.9475 -11.2799
# 3 12.9342 13.1872 96.6548 2.4746 -8.4343 9.3796
# 4 -2.1795 -8.7928 2.4746 34.5885 -1.5050 -2.5906
# 5 -10.8713 -7.9475 -8.4343 -1.5050 31.3024 1.1143
# 6 -1.2435 -11.2799 9.3796 -2.5906 1.1143 41.3768
#
#
#
# Elastic Compliance Matrix: (Units=1/GPa)
#
#
# Indices 1 2 3 4 5 6 
#
# 1 0.015891 -0.000454 -0.001730 0.001278 0.004974 0.000692
# 2 -0.000454 0.009692 -0.001465 0.002856 0.001936 0.003087
# 3 -0.001730 -0.001465 0.011306 -0.001435 0.002117 -0.003161
# 4 0.001278 0.002856 -0.001435 0.030136 0.002125 0.002972
# 5 0.004974 0.001936 0.002117 0.002125 0.034860 -0.000608
# 6 0.000692 0.003087 -0.003161 0.002972 -0.000608 0.025950
#
#
# Mechanical properties :
#
#
# Convention : Reuss Voigt Hill
#
# Bulk Modulus (GPa) = 33.79624 38.57346 36.18485
# Shear Modulus (GPa) = 34.48363 37.70120 36.09241
#
# Velocity S-wave (km/s) = 3.82475 3.99921 3.91295
# Velocity P-wave (km/s) = 5.81739 6.13911 5.98041
#
# Compressibility (1/GPa) = 0.02958909
#
# Stress axis : x y z
#
# Youngs Moduli (GPa) = 62.92916 103.17691 88.45006
#
# Poissons Ratio (x) = 0.04685 0.15305
# Poissons Ratio (y) = 0.02858 0.12961
# Poissons Ratio (z) = 0.10889 0.15119
#
# Static dielectric constant tensor:
#      x y z
#    x 0.000000 0.000000 0.000000 
#    y 0.000000 0.000000 0.000000 
#    z 0.000000 0.000000 0.000000 
# 
# 
# High freq. dielectric constant tensor:
#      x y z
#    x 1.937640 -0.003550 -0.003500 
#    y -0.003550 1.939780 -0.016320 
#    z -0.003500 -0.016320 1.929830 
# 
# From -- ./inp_files/505727.got.cif
#   From: 2010.06.25/outbox.cif.g09.slc.cpg/sg2_253_cif.got.tgz:505727.got - 2010.06.27 13:26:56.
