data_PCOD8005544
_publ_section_title
;
Structure prediction by ZEFSAII (Michael W. Deem and Ramdas Pophale) SiO2 
 PCOD8005544
Probable space group: P -1
;
_chemical_formula_sum "Si O2"
_cell_formula_units_Z 16
_cell_length_a 8.846416
_cell_length_b 20.729927
_cell_length_c 5.551415
_cell_angle_alpha 117.465723
_cell_angle_beta 80.780013
_cell_angle_gamma 130.808394
_cell_volume 668.427439
_symmetry_space_group_name_H-M "P -1"
_symmetry_group_IT_number 2
_symmetry_cell_setting 'triclinic'
loop_
_space_group_symop_operation_xyz
x,y,z
-x,-y,-z
loop_
_atom_site_type_symbol
_atom_site_label
_atom_site_fract_x
_atom_site_fract_y
_atom_site_fract_z
Si Si1 0.023782 0.603247 0.803688
Si Si2 0.748931 0.454763 0.239543
Si Si3 0.886282 0.120969 0.944053
Si Si4 0.322815 0.296677 0.271994
Si Si5 0.261456 0.779410 0.716641
Si Si6 0.128176 0.358730 0.710392
Si Si7 0.683442 0.856879 0.771208
Si Si8 0.113218 0.964330 0.691870
O O1 0.148109 0.590718 0.942514
O O2 0.194976 0.688313 0.729208
O O3 0.843304 0.498740 0.554991
O O4 0.906171 0.638888 0.993776
O O5 0.503968 0.373516 0.175588
O O6 0.809378 0.540118 0.204145
O O7 0.827722 0.056421 0.608760
O O8 0.734926 0.142662 0.007305
O O9 0.861435 0.073330 0.128303
O O10 0.120591 0.221640 0.034276
O O11 0.293844 0.352376 0.573023
O O12 0.382834 0.244852 0.317718
O O13 0.490102 0.835414 0.657074
O O14 0.096721 0.737809 0.477381
O O15 0.877014 0.916283 0.643545
O O16 0.745311 0.920094 0.109795
#
# Coordination Sequence:
#
# PCOD8005544 Si02
#       8
#     2   2   2   2   2   2   2   2
#     4  10  21  37  61  88 129 163 207 270 317 379
#     4  10  20  39  59  90 125 164 214 263 319 381
#     4  10  24  44  68  97 132 171 215 271 325 388
#     4  10  21  40  62  92 126 169 218 260 320 387
#     4  10  22  40  63  94 127 169 217 264 323 388
#     4  10  22  38  60  91 127 166 214 263 324 374
#     4  10  22  42  66  93 128 170 215 267 326 392
#     4  10  24  46  68  95 134 169 214 272 331 384
#
# _framework density 23.936776999999999
#
# number of rings (size 3 to 8) (size 9 to 14) (size 15 to 20)
#    0.000    2.000    1.250    0.750    5.250    7.000 
#    6.750    0.000    0.000    0.000    0.000    0.000 
#    0.000    0.000    0.000    0.000    0.000    0.000 
#
# Total GULP energy -198214.865956 kJ/mol
# GULP energy per Si atom -12388.429122 kJ/mol
# Density = 2.388230 g / cm^3
# Si number density = 23.936777 Si / 1000 Ang^3
#
#
#
# Elastic Constant Matrix: (Units=GPa)
#
#
# Indices 1 2 3 4 5 6 
#
# 1 108.7077 24.1909 12.3335 7.2374 -16.8707 0.7230
# 2 24.1909 53.3005 12.7752 7.0939 -3.5311 0.4469
# 3 12.3335 12.7752 78.1232 -3.8801 -22.7569 -12.2892
# 4 7.2374 7.0939 -3.8801 20.1032 -7.0194 -3.8061
# 5 -16.8707 -3.5311 -22.7569 -7.0194 31.1626 6.6106
# 6 0.7230 0.4469 -12.2892 -3.8061 6.6106 28.1770
#
#
#
# Elastic Compliance Matrix: (Units=1/GPa)
#
#
# Indices 1 2 3 4 5 6 
#
# 1 0.011179 -0.004735 0.000549 -0.000380 0.006141 -0.001464
# 2 -0.004735 0.023259 -0.005670 -0.010129 -0.005770 -0.002735
# 3 0.000549 -0.005670 0.019820 0.012308 0.015469 0.006754
# 4 -0.000380 -0.010129 0.012308 0.064683 0.020181 0.009541
# 5 0.006141 -0.005770 0.015469 0.020181 0.051153 -0.002594
# 6 -0.001464 -0.002735 0.006754 0.009541 -0.002594 0.040414
#
#
# Mechanical properties :
#
#
# Convention : Reuss Voigt Hill
#
# Bulk Modulus (GPa) = 28.94731 37.63674 33.29202
# Shear Modulus (GPa) = 20.68379 28.61068 24.64724
#
# Velocity S-wave (km/s) = 2.94275 3.46100 3.21234
# Velocity P-wave (km/s) = 4.86476 5.63284 5.26283
#
# Compressibility (1/GPa) = 0.03454553
#
# Stress axis : x y z
#
# Youngs Moduli (GPa) = 89.45667 42.99488 50.45285
#
# Poissons Ratio (x) = 0.20360 -0.02771
# Poissons Ratio (y) = 0.42361 0.28606
# Poissons Ratio (z) = -0.04914 0.24378
#
# Static dielectric constant tensor:
#      x y z
#    x 4.442430 -0.067450 -0.329180 
#    y -0.067450 4.139340 0.356950 
#    z -0.329180 0.356950 4.249600 
# 
# 
# High freq. dielectric constant tensor:
#      x y z
#    x 1.953890 -0.003370 -0.026240 
#    y -0.003370 1.941720 0.023480 
#    z -0.026240 0.023480 1.931580 
# 
# From -- ./inp_files/37899.got.cif
#   From: 2010.06.25/outbox.cif.g09.slc.cpg/sg2_19_cif.got.tgz:37899.got - 2010.06.27 13:26:56.
