data_PCOD8005066
_publ_section_title
;
Structure prediction by ZEFSAII (Michael W. Deem and Ramdas Pophale) SiO2 
 PCOD8005066
Probable space group: P -1
;
_chemical_formula_sum "Si O2"
_cell_formula_units_Z 16
_cell_length_a 10.861822
_cell_length_b 16.320098
_cell_length_c 10.758689
_cell_angle_alpha 44.597231
_cell_angle_beta 41.601417
_cell_angle_gamma 73.595807
_cell_volume 750.326353
_symmetry_space_group_name_H-M "P -1"
_symmetry_group_IT_number 2
_symmetry_cell_setting 'triclinic'
loop_
_space_group_symop_operation_xyz
x,y,z
-x,-y,-z
loop_
_atom_site_type_symbol
_atom_site_label
_atom_site_fract_x
_atom_site_fract_y
_atom_site_fract_z
Si Si1 0.033688 0.417730 0.668742
Si Si2 0.085430 0.345912 0.167174
Si Si3 0.352437 0.132024 0.481922
Si Si4 0.124125 0.612502 0.927310
Si Si5 0.235428 0.842525 0.967191
Si Si6 0.077725 0.897958 0.269604
Si Si7 0.386978 0.210620 0.656142
Si Si8 0.435725 0.473903 0.432738
O O1 0.260222 0.509399 0.476588
O O2 0.000000 0.500000 0.500000
O O3 0.844115 0.361937 0.976877
O O4 0.998764 0.283158 0.770521
O O5 0.036598 0.342067 0.059631
O O6 0.949427 0.191130 0.491567
O O7 0.015600 0.448139 0.165222
O O8 0.342842 0.419315 0.924024
O O9 0.576673 0.193557 0.164084
O O10 0.375612 0.198041 0.528722
O O11 0.165682 0.143851 0.541363
O O12 0.270199 0.972530 0.726430
O O13 0.358817 0.715512 0.574401
O O14 0.205586 0.859016 0.117076
O O15 0.233826 0.062370 0.999279
O O16 0.322694 0.314757 0.646841
O O17 0.500000 0.500000 0.500000
#
# Coordination Sequence:
#
# PCOD8005066 Si02
#       8
#     2   2   2   2   2   2   2   2
#     4  12  23  37  63  96 122 159 222 268 312 386
#     4  10  23  41  62  89 129 172 210 268 321 386
#     4  10  20  38  64  91 129 169 210 260 330 384
#     4  10  21  41  62  86 126 172 210 254 332 387
#     4  10  21  38  60  95 128 169 205 266 327 381
#     4  11  22  40  64  98 130 165 219 268 317 383
#     4  10  21  40  66  89 127 173 210 262 325 393
#     4  11  23  42  66  90 128 176 212 262 335 385
#
# _framework density 21.324054
#
# number of rings (size 3 to 8) (size 9 to 14) (size 15 to 20)
#    0.000    1.500    2.500    3.750    1.750    0.500 
#    0.000    3.750    0.000    0.000    0.000    0.000 
#    0.000    0.000    0.000    0.000    0.000    0.000 
#
# Total GULP energy -198211.224976 kJ/mol
# GULP energy per Si atom -12388.201561 kJ/mol
# Density = 2.127552 g / cm^3
# Si number density = 21.324054 Si / 1000 Ang^3
#
#
#
# Elastic Constant Matrix: (Units=GPa)
#
#
# Indices 1 2 3 4 5 6 
#
# 1 131.1938 38.2515 54.5577 -4.4655 7.9231 -5.6877
# 2 38.2515 94.4503 33.9103 -2.2180 5.6208 6.6670
# 3 54.5577 33.9103 113.3244 -11.4112 10.6671 -3.3355
# 4 -4.4655 -2.2180 -11.4112 28.7439 1.2088 -9.6796
# 5 7.9231 5.6208 10.6671 1.2088 35.0986 2.8629
# 6 -5.6877 6.6670 -3.3355 -9.6796 2.8629 26.2783
#
#
#
# Elastic Compliance Matrix: (Units=1/GPa)
#
#
# Indices 1 2 3 4 5 6 
#
# 1 0.010271 -0.002921 -0.003806 0.000880 -0.000962 0.002910
# 2 -0.002921 0.013128 -0.002905 -0.002338 -0.000057 -0.005187
# 3 -0.003806 -0.002905 0.012481 0.005569 -0.002976 0.003873
# 4 0.000880 -0.002338 0.005569 0.043164 -0.004461 0.017876
# 5 -0.000962 -0.000057 -0.002976 -0.004461 0.030225 -0.005508
# 6 0.002910 -0.005187 0.003873 0.017876 -0.005508 0.047676
#
#
# Mechanical properties :
#
#
# Convention : Reuss Voigt Hill
#
# Bulk Modulus (GPa) = 60.18220 65.82308 63.00264
# Shear Modulus (GPa) = 27.51081 32.17410 29.84245
#
# Velocity S-wave (km/s) = 3.59574 3.88856 3.74501
# Velocity P-wave (km/s) = 6.74708 7.14816 6.95051
#
# Compressibility (1/GPa) = 0.01661621
#
# Stress axis : x y z
#
# Youngs Moduli (GPa) = 97.36383 76.17334 80.12366
#
# Poissons Ratio (x) = 0.22247 0.30495
# Poissons Ratio (y) = 0.28436 0.23276
# Poissons Ratio (z) = 0.37056 0.22129
#
# Static dielectric constant tensor:
#      x y z
#    x 3.804580 0.004120 -0.327150 
#    y 0.004120 3.904460 0.058830 
#    z -0.327150 0.058830 4.130550 
# 
# 
# High freq. dielectric constant tensor:
#      x y z
#    x 1.825960 0.001030 -0.018300 
#    y 0.001030 1.833580 0.003030 
#    z -0.018300 0.003030 1.838130 
# 
# From -- ./inp_files/437232.got.cif
#   From: 2010.06.25/outbox.cif.g09.slc.cpg/sg2_219_cif.got.tgz:437232.got - 2010.06.27 13:26:56.
