data_PCOD8005397
_publ_section_title
;
Structure prediction by ZEFSAII (Michael W. Deem and Ramdas Pophale) SiO2 
 PCOD8005397
Probable space group: P -1
;
_chemical_formula_sum "Si O2"
_cell_formula_units_Z 16
_cell_length_a 9.639443
_cell_length_b 28.780664
_cell_length_c 15.228351
_cell_angle_alpha 160.597420
_cell_angle_beta 136.206444
_cell_angle_gamma 35.615102
_cell_volume 794.947081
_symmetry_space_group_name_H-M "P -1"
_symmetry_group_IT_number 2
_symmetry_cell_setting 'triclinic'
loop_
_space_group_symop_operation_xyz
x,y,z
-x,-y,-z
loop_
_atom_site_type_symbol
_atom_site_label
_atom_site_fract_x
_atom_site_fract_y
_atom_site_fract_z
Si Si1 0.886070 0.399588 0.796156
Si Si2 0.515900 0.714612 0.894177
Si Si3 0.439718 0.528126 0.376472
Si Si4 0.230820 0.056231 0.453928
Si Si5 0.012455 0.686272 0.797221
Si Si6 0.981435 0.579043 0.768132
Si Si7 0.418622 0.604752 0.063683
Si Si8 0.931486 0.028113 0.415660
O O1 0.793587 0.357994 0.591408
O O2 0.640464 0.535823 0.977271
O O3 0.067782 0.234426 0.644338
O O4 0.000000 0.500000 0.000000
O O5 0.430687 0.653964 0.667246
O O6 0.576407 0.611669 0.828677
O O7 0.771657 0.690372 0.943369
O O8 0.282180 0.907806 0.146482
O O9 0.693176 0.426654 0.257016
O O10 0.107625 0.056529 0.488943
O O11 0.500000 0.000000 0.500000
O O12 0.952273 0.615864 0.556467
O O13 0.876299 0.663005 0.773948
O O14 0.912845 0.884984 0.104419
O O15 0.205321 0.592589 0.907201
O O16 0.500000 0.500000 0.000000
O O17 0.333842 0.794518 0.389399
O O18 0.000000 0.000000 0.500000
#
# Coordination Sequence:
#
# PCOD8005397 Si02
#       8
#     2   2   2   2   2   2   2   2
#     4  12  27  43  65  92 133 175 211 270 330 385
#     4  10  22  38  69  95 127 166 217 266 315 389
#     4  10  20  42  64  94 127 172 215 259 325 386
#     4  12  26  42  63  97 131 168 223 270 320 386
#     4  10  20  38  68  96 123 168 217 266 315 385
#     4  10  21  39  66  96 127 166 214 260 325 383
#     4  12  25  43  63  96 133 172 213 269 324 388
#     4  12  23  41  68  96 128 167 219 270 320 381
#
# _framework density 20.127126000000001
#
# number of rings (size 3 to 8) (size 9 to 14) (size 15 to 20)
#    0.000    1.000    5.000    1.500    3.500    0.500 
#    0.000    0.625    2.750    0.000    0.000    0.000 
#    0.000    0.000    0.000    0.000    0.000    0.000 
#
# Total GULP energy -198244.431782 kJ/mol
# GULP energy per Si atom -12390.276986 kJ/mol
# Density = 2.008132 g / cm^3
# Si number density = 20.127126 Si / 1000 Ang^3
#
#
#
# Elastic Constant Matrix: (Units=GPa)
#
#
# Indices 1 2 3 4 5 6 
#
# 1 152.5165 36.7762 41.7383 10.2704 -0.9508 -0.1182
# 2 36.7762 80.3440 45.1501 11.7900 -1.5058 1.6832
# 3 41.7383 45.1501 140.2238 15.8188 -1.3080 -3.9943
# 4 10.2704 11.7900 15.8188 27.0739 -1.2217 3.1370
# 5 -0.9508 -1.5058 -1.3080 -1.2217 31.4198 1.1936
# 6 -0.1182 1.6832 -3.9943 3.1370 1.1936 33.0451
#
#
#
# Elastic Compliance Matrix: (Units=1/GPa)
#
#
# Indices 1 2 3 4 5 6 
#
# 1 0.007610 -0.002602 -0.001312 -0.000998 0.000009 0.000096
# 2 -0.002602 0.016543 -0.004166 -0.003644 0.000438 -0.001025
# 3 -0.001312 -0.004166 0.009283 -0.003304 -0.000044 0.001645
# 4 -0.000998 -0.003644 -0.003304 0.041383 0.001426 -0.004197
# 5 0.000009 0.000438 -0.000044 0.001426 0.031952 -0.001317
# 6 0.000096 -0.001025 0.001645 -0.004197 -0.001317 0.030959
#
#
# Mechanical properties :
#
#
# Convention : Reuss Voigt Hill
#
# Bulk Modulus (GPa) = 57.88330 68.93484 63.40907
# Shear Modulus (GPa) = 31.31874 34.93574 33.12724
#
# Velocity S-wave (km/s) = 3.94895 4.17076 4.06137
# Velocity P-wave (km/s) = 7.04369 7.58404 7.31886
#
# Compressibility (1/GPa) = 0.01727614
#
# Stress axis : x y z
#
# Youngs Moduli (GPa) = 131.39883 60.44842 107.72700
#
# Poissons Ratio (x) = 0.15726 0.14136
# Poissons Ratio (y) = 0.34184 0.44882
# Poissons Ratio (z) = 0.17243 0.25184
#
# Static dielectric constant tensor:
#      x y z
#    x 4.045020 0.087620 -0.093530 
#    y 0.087620 3.551110 -0.000920 
#    z -0.093530 -0.000920 4.104210 
# 
# 
# High freq. dielectric constant tensor:
#      x y z
#    x 1.813290 0.006460 -0.004120 
#    y 0.006460 1.754350 -0.014240 
#    z -0.004120 -0.014240 1.797360 
# 
# From -- ./inp_files/509031.got.cif
#   From: 2010.06.25/outbox.cif.g09.slc.cpg/sg2_255_cif.got.tgz:509031.got - 2010.06.27 13:26:56.
