data_PCOD8005569
_publ_section_title
;
Structure prediction by ZEFSAII (Michael W. Deem and Ramdas Pophale) SiO2 
 PCOD8005569
Probable space group: P -1
;
_chemical_formula_sum "Si O2"
_cell_formula_units_Z 14
_cell_length_a 9.697275
_cell_length_b 18.715452
_cell_length_c 11.889582
_cell_angle_alpha 133.144547
_cell_angle_beta 53.274662
_cell_angle_gamma 152.732425
_cell_volume 720.999264
_symmetry_space_group_name_H-M "P -1"
_symmetry_group_IT_number 2
_symmetry_cell_setting 'triclinic'
loop_
_space_group_symop_operation_xyz
x,y,z
-x,-y,-z
loop_
_atom_site_type_symbol
_atom_site_label
_atom_site_fract_x
_atom_site_fract_y
_atom_site_fract_z
Si Si1 0.066235 0.509837 0.797082
Si Si2 0.406371 0.598310 0.198642
Si Si3 0.727223 0.657672 0.911228
Si Si4 0.636930 0.670720 0.609029
Si Si5 0.197617 0.740278 0.153173
Si Si6 0.750257 0.690214 0.328070
Si Si7 0.097526 0.935969 0.857546
O O1 0.386900 0.634516 0.721824
O O2 0.826484 0.420125 0.716787
O O3 0.941792 0.362127 0.771712
O O4 0.094503 0.622231 0.975728
O O5 0.209012 0.406134 0.107668
O O6 0.645759 0.720762 0.316783
O O7 0.587320 0.678369 0.078700
O O8 0.483895 0.511859 0.777320
O O9 0.022147 0.834775 0.895031
O O10 0.500000 0.500000 0.500000
O O11 0.748440 0.743028 0.505415
O O12 0.924373 0.815167 0.703621
O O13 0.075044 0.793889 0.252282
O O14 0.553829 0.910051 0.172530
O O15 0.000000 0.000000 0.000000
#
# Coordination Sequence:
#
# PCOD8005569 Si02
#       7
#     2   2   2   2   2   2   2
#     4  11  20  37  63  91 116 162 207 235 300 367
#     4   9  18  36  66  86 114 163 205 239 284 375
#     4   9  17  36  62  85 118 151 201 242 293 346
#     4  12  22  39  60  90 125 155 197 258 301 347
#     4  11  21  35  63  91 118 156 205 247 295 355
#     4  10  20  39  60  85 119 157 199 240 298 355
#     4  12  23  36  60  96 123 152 202 260 293 345
#
# _framework density 19.417494999999999
#
# number of rings (size 3 to 8) (size 9 to 14) (size 15 to 20)
#    0.857    0.571    5.714    0.857    0.000    1.143 
#    0.000    2.857    0.000    3.429    0.000    0.000 
#    0.000    0.000    0.000    0.000    0.000    0.000 
#
# Total GULP energy -173539.528790 kJ/mol
# GULP energy per Si atom -12395.680628 kJ/mol
# Density = 1.937330 g / cm^3
# Si number density = 19.417495 Si / 1000 Ang^3
#
#
#
# Elastic Constant Matrix: (Units=GPa)
#
#
# Indices 1 2 3 4 5 6 
#
# 1 113.4247 33.8900 26.4942 -9.1225 12.9312 25.9266
# 2 33.8900 89.1724 33.3428 -14.0345 11.7033 21.2108
# 3 26.4942 33.3428 70.4610 -12.4865 20.2020 -0.4389
# 4 -9.1225 -14.0345 -12.4865 29.7943 3.8822 -0.5752
# 5 12.9312 11.7033 20.2020 3.8822 25.9291 -4.1901
# 6 25.9266 21.2108 -0.4389 -0.5752 -4.1901 30.6629
#
#
#
# Elastic Compliance Matrix: (Units=1/GPa)
#
#
# Indices 1 2 3 4 5 6 
#
# 1 0.013304 0.000466 -0.002406 0.004033 -0.007606 -0.012569
# 2 0.000466 0.018711 -0.005603 0.007339 -0.007729 -0.014336
# 3 -0.002406 -0.005603 0.023703 0.008639 -0.015335 0.004316
# 4 0.004033 0.007339 0.008639 0.044330 -0.020359 -0.010314
# 5 -0.007606 -0.007729 -0.015335 -0.020359 0.064065 0.019930
# 6 -0.012569 -0.014336 0.004316 -0.010314 0.019930 0.055749
#
#
# Mechanical properties :
#
#
# Convention : Reuss Voigt Hill
#
# Bulk Modulus (GPa) = 24.61046 51.16802 37.88924
# Shear Modulus (GPa) = 20.12151 29.23268 24.67710
#
# Velocity S-wave (km/s) = 3.22259 3.88426 3.56879
# Velocity P-wave (km/s) = 5.15254 6.82095 6.04459
#
# Compressibility (1/GPa) = 0.04063313
#
# Stress axis : x y z
#
# Youngs Moduli (GPa) = 75.16722 53.44346 42.18939
#
# Poissons Ratio (x) = -0.02492 0.10151
# Poissons Ratio (y) = -0.03505 0.23637
# Poissons Ratio (z) = 0.18085 0.29942
#
# Static dielectric constant tensor:
#      x y z
#    x 3.537040 0.145950 0.153520 
#    y 0.145950 3.487050 -0.135290 
#    z 0.153520 -0.135290 3.466050 
# 
# 
# High freq. dielectric constant tensor:
#      x y z
#    x 1.757750 0.009740 0.011910 
#    y 0.009740 1.734370 -0.020090 
#    z 0.011910 -0.020090 1.739080 
# 
# From -- ./inp_files/403212.got.cif
#   From: 2010.06.25/outbox.cif.g09.slc.cpg/sg2_202_cif.got.tgz:403212.got - 2010.06.27 13:26:56.
