data_PCOD8005005
_publ_section_title
;
Structure prediction by ZEFSAII (Michael W. Deem and Ramdas Pophale) SiO2 
 PCOD8005005
Probable space group: P -1
;
_chemical_formula_sum "Si O2"
_cell_formula_units_Z 14
_cell_length_a 15.925524
_cell_length_b 15.847240
_cell_length_c 8.192288
_cell_angle_alpha 51.651476
_cell_angle_beta 34.986282
_cell_angle_gamma 35.607600
_cell_volume 683.738929
_symmetry_space_group_name_H-M "P -1"
_symmetry_group_IT_number 2
_symmetry_cell_setting 'triclinic'
loop_
_space_group_symop_operation_xyz
x,y,z
-x,-y,-z
loop_
_atom_site_type_symbol
_atom_site_label
_atom_site_fract_x
_atom_site_fract_y
_atom_site_fract_z
Si Si1 0.199400 0.647922 0.019031
Si Si2 0.470771 0.188866 0.343767
Si Si3 0.477427 0.334423 0.474801
Si Si4 0.515425 0.673961 0.169241
Si Si5 0.176134 0.152516 0.837973
Si Si6 0.726209 0.399804 0.702900
Si Si7 0.898962 0.165556 0.470905
O O1 0.317385 0.700581 0.796867
O O2 0.329131 0.500282 0.884597
O O3 0.154635 0.619073 0.305115
O O4 0.982091 0.775241 0.141727
O O5 0.490347 0.248054 0.405259
O O6 0.261594 0.229590 0.631779
O O7 0.650949 0.016921 0.273044
O O8 0.476322 0.250169 0.089344
O O9 0.442486 0.293950 0.756593
O O10 0.284943 0.507585 0.537443
O O11 0.291543 0.736601 0.463719
O O12 0.062435 0.173745 0.157274
O O13 0.816890 0.240149 0.690298
O O14 0.500000 0.500000 0.000000
O O15 0.000000 0.000000 0.500000
#
# Coordination Sequence:
#
# PCOD8005005 Si02
#       7
#     2   2   2   2   2   2   2
#     4  11  21  40  71  98 132 172 229 281 330 396
#     4  11  26  48  61  97 146 184 210 284 347 401
#     4  11  21  39  72  95 128 176 229 275 332 390
#     4  12  21  42  73  97 129 176 229 281 330 397
#     4  11  26  44  64  95 148 174 220 283 347 391
#     4  10  20  38  64 103 138 165 217 290 333 382
#     4  12  22  39  69 103 130 177 230 278 331 402
#
# _framework density 20.475652
#
# number of rings (size 3 to 8) (size 9 to 14) (size 15 to 20)
#    0.000    0.857    7.143    2.143    0.000    2.286 
#    2.571    2.857    0.000    0.000    0.000    0.000 
#    0.000    0.000    0.000    0.000    0.000    0.000 
#
# Total GULP energy -173439.645336 kJ/mol
# GULP energy per Si atom -12388.546095 kJ/mol
# Density = 2.042905 g / cm^3
# Si number density = 20.475652 Si / 1000 Ang^3
#
#
#
# Elastic Constant Matrix: (Units=GPa)
#
#
# Indices 1 2 3 4 5 6 
#
# 1 162.5168 57.1644 68.3591 -7.4585 21.9864 -1.1410
# 2 57.1644 102.9397 41.3510 11.1577 3.0814 2.6990
# 3 68.3591 41.3510 107.7269 -5.0340 -2.4185 4.0501
# 4 -7.4585 11.1577 -5.0340 26.1928 4.5620 4.5193
# 5 21.9864 3.0814 -2.4185 4.5620 39.4121 0.3209
# 6 -1.1410 2.6990 4.0501 4.5193 0.3209 33.1129
#
#
#
# Elastic Compliance Matrix: (Units=1/GPa)
#
#
# Indices 1 2 3 4 5 6 
#
# 1 0.011070 -0.004390 -0.005283 0.005051 -0.006747 0.000762
# 2 -0.004390 0.014188 -0.003006 -0.008269 0.002111 0.000168
# 3 -0.005283 -0.003006 0.014050 0.002155 0.003811 -0.001987
# 4 0.005051 -0.008269 0.002155 0.045789 -0.007293 -0.005594
# 5 -0.006747 0.002111 0.003811 -0.007293 0.030051 -0.000167
# 6 0.000762 0.000168 -0.001987 -0.005594 -0.000167 0.031220
#
#
# Mechanical properties :
#
#
# Convention : Reuss Voigt Hill
#
# Bulk Modulus (GPa) = 71.68618 78.54805 75.11711
# Shear Modulus (GPa) = 28.34843 33.49748 30.92295
#
# Velocity S-wave (km/s) = 3.72492 4.04910 3.89038
# Velocity P-wave (km/s) = 7.32028 7.76564 7.54625
#
# Compressibility (1/GPa) = 0.01394969
#
# Stress axis : x y z
#
# Youngs Moduli (GPa) = 90.33649 70.47968 71.17484
#
# Poissons Ratio (x) = 0.30943 0.37603
# Poissons Ratio (y) = 0.39661 0.21392
# Poissons Ratio (z) = 0.47727 0.21183
#
# Static dielectric constant tensor:
#      x y z
#    x 4.183300 -0.304360 0.239200 
#    y -0.304360 3.879000 -0.109910 
#    z 0.239200 -0.109910 3.866740 
# 
# 
# High freq. dielectric constant tensor:
#      x y z
#    x 1.806530 -0.011160 0.021210 
#    y -0.011160 1.803300 0.007050 
#    z 0.021210 0.007050 1.783370 
# 
# From -- ./inp_files/312600.got.cif
#   From: 2010.06.25/outbox.cif.g09.slc.cpg/sg2_157_cif.got.tgz:312600.got - 2010.06.27 13:26:56.
