data_PCOD8005183
_publ_section_title
;
Structure prediction by ZEFSAII (Michael W. Deem and Ramdas Pophale) SiO2 
 PCOD8005183
Probable space group: P -1
;
_chemical_formula_sum "Si O2"
_cell_formula_units_Z 16
_cell_length_a 15.658948
_cell_length_b 24.649784
_cell_length_c 7.297070
_cell_angle_alpha 138.072007
_cell_angle_beta 42.702744
_cell_angle_gamma 160.436309
_cell_volume 622.956068
_symmetry_space_group_name_H-M "P -1"
_symmetry_group_IT_number 2
_symmetry_cell_setting 'triclinic'
loop_
_space_group_symop_operation_xyz
x,y,z
-x,-y,-z
loop_
_atom_site_type_symbol
_atom_site_label
_atom_site_fract_x
_atom_site_fract_y
_atom_site_fract_z
Si Si1 0.297939 0.019791 0.905260
Si Si2 0.072044 0.974857 0.475753
Si Si3 0.033360 0.591684 0.503932
Si Si4 0.658784 0.619477 0.293371
Si Si5 0.113311 0.340735 0.322926
Si Si6 0.570632 0.805978 0.194333
Si Si7 0.779257 0.536008 0.104065
Si Si8 0.142800 0.647437 0.024128
O O1 0.256327 0.067091 0.935234
O O2 0.602207 0.176954 0.840266
O O3 0.125812 0.845443 0.684341
O O4 0.228262 0.998058 0.170085
O O5 0.819402 0.792188 0.502169
O O6 0.253695 0.105956 0.682508
O O7 0.000000 0.000000 0.500000
O O8 0.992330 0.628011 0.481737
O O9 0.932842 0.587324 0.817867
O O10 0.855371 0.408393 0.306547
O O11 0.335775 0.738350 0.416140
O O12 0.358377 0.479384 0.425593
O O13 0.749523 0.625427 0.981427
O O14 0.703721 0.585840 0.311018
O O15 0.469777 0.658629 0.947968
O O16 0.981141 0.639800 0.217465
O O17 0.000000 0.500000 0.000000
#
# Coordination Sequence:
#
# PCOD8005183 Si02
#       8
#     2   2   2   2   2   2   2   2
#     4  11  23  42  64  96 131 163 214 267 316 376
#     4  11  26  43  68  93 128 171 214 266 314 388
#     4  10  20  38  65  91 125 168 213 262 319 382
#     4   9  21  42  61  92 124 168 218 258 322 376
#     4   9  21  39  65  89 126 172 208 265 322 373
#     4  11  23  41  63 100 125 164 218 259 323 375
#     4  10  20  38  67  89 129 168 211 266 309 389
#     4  11  20  38  59  96 126 162 206 260 321 369
#
# _framework density 25.683993999999998
#
# number of rings (size 3 to 8) (size 9 to 14) (size 15 to 20)
#    0.000    1.750    2.500    3.000    8.750    2.000 
#    2.250    4.375    0.000    0.000    0.000    0.000 
#    0.000    0.000    0.000    0.000    0.000    0.000 
#
# Total GULP energy -198282.338972 kJ/mol
# GULP energy per Si atom -12392.646186 kJ/mol
# Density = 2.562554 g / cm^3
# Si number density = 25.683994 Si / 1000 Ang^3
#
#
#
# Elastic Constant Matrix: (Units=GPa)
#
#
# Indices 1 2 3 4 5 6 
#
# 1 227.5215 103.8163 26.5059 23.6229 -13.6348 9.8708
# 2 103.8163 198.4288 45.4768 29.8819 -14.2658 5.5229
# 3 26.5059 45.4768 38.7723 6.3204 -2.3830 5.2563
# 4 23.6229 29.8819 6.3204 44.9596 -4.4698 -0.0365
# 5 -13.6348 -14.2658 -2.3830 -4.4698 47.2957 10.3586
# 6 9.8708 5.5229 5.2563 -0.0365 10.3586 51.3386
#
#
#
# Elastic Compliance Matrix: (Units=1/GPa)
#
#
# Indices 1 2 3 4 5 6 
#
# 1 0.005908 -0.002713 -0.000477 -0.001138 0.000971 -0.000992
# 2 -0.002713 0.008842 -0.007942 -0.003221 0.001148 0.000150
# 3 -0.000477 -0.007942 0.035710 0.000497 -0.000098 -0.002690
# 4 -0.001138 -0.003221 0.000497 0.025013 0.001018 0.000327
# 5 0.000971 0.001148 -0.000098 0.001018 0.022940 -0.004928
# 6 -0.000992 0.000150 -0.002690 0.000327 -0.004928 0.020923
#
#
# Mechanical properties :
#
#
# Convention : Reuss Voigt Hill
#
# Bulk Modulus (GPa) = 35.46412 90.70226 63.08319
# Shear Modulus (GPa) = 33.11275 47.98034 40.54655
#
# Velocity S-wave (km/s) = 3.59449 4.32684 3.97756
# Velocity P-wave (km/s) = 5.57360 7.76875 6.76086
#
# Compressibility (1/GPa) = 0.02819752
#
# Stress axis : x y z
#
# Youngs Moduli (GPa) = 169.26137 113.09140 28.00307
#
# Poissons Ratio (x) = 0.30680 0.01337
# Poissons Ratio (y) = 0.45918 0.22239
# Poissons Ratio (z) = 0.08079 0.89812
#
# Static dielectric constant tensor:
#      x y z
#    x 4.750040 -2.859970 -4.208800 
#    y -2.859970 -5.291520 -17.511770 
#    z -4.208800 -17.511770 -24.912540 
# 
# 
# High freq. dielectric constant tensor:
#      x y z
#    x 2.056030 -0.003730 0.017840 
#    y -0.003730 2.018180 -0.021410 
#    z 0.017840 -0.021410 2.061420 
# 
# From -- ./inp_files/256615.got.cif
#   From: 2010.06.25/outbox.cif.g09.slc.cpg/sg2_129_cif.got.tgz:256615.got - 2010.06.27 13:26:56.
