data_PCOD8005441
_publ_section_title
;
Structure prediction by ZEFSAII (Michael W. Deem and Ramdas Pophale) SiO2 
 PCOD8005441
Probable space group: P -1
;
_chemical_formula_sum "Si O2"
_cell_formula_units_Z 16
_cell_length_a 17.216955
_cell_length_b 10.893757
_cell_length_c 7.570811
_cell_angle_alpha 64.777887
_cell_angle_beta 78.315231
_cell_angle_gamma 33.388900
_cell_volume 672.596570
_symmetry_space_group_name_H-M "P -1"
_symmetry_group_IT_number 2
_symmetry_cell_setting 'triclinic'
loop_
_space_group_symop_operation_xyz
x,y,z
-x,-y,-z
loop_
_atom_site_type_symbol
_atom_site_label
_atom_site_fract_x
_atom_site_fract_y
_atom_site_fract_z
Si Si1 0.793166 0.000098 0.879859
Si Si2 0.966907 0.902209 0.160907
Si Si3 0.258665 0.327264 0.310654
Si Si4 0.630497 0.673597 0.274849
Si Si5 0.794746 0.157751 0.441390
Si Si6 0.494658 0.533247 0.778031
Si Si7 0.520519 0.801383 0.621049
Si Si8 0.297881 0.159375 0.030655
O O1 0.804148 0.819904 0.002085
O O2 0.862752 0.972987 0.689446
O O3 0.615873 0.273743 0.774721
O O4 0.851695 0.986676 0.039117
O O5 0.111823 0.599068 0.298978
O O6 0.913135 0.003248 0.324027
O O7 0.000000 0.000000 0.000000
O O8 0.370318 0.291860 0.223654
O O9 0.224333 0.291710 0.174242
O O10 0.348267 0.094205 0.544268
O O11 0.738171 0.387436 0.385693
O O12 0.587536 0.775165 0.430646
O O13 0.474852 0.869539 0.123618
O O14 0.724127 0.668901 0.170215
O O15 0.663675 0.257527 0.361520
O O16 0.546788 0.609861 0.691306
O O17 0.500000 0.500000 0.000000
#
# Coordination Sequence:
#
# PCOD8005441 Si02
#       8
#     2   2   2   2   2   2   2   2
#     4  12  25  46  72 109 148 183 243 299 360 426
#     4  12  28  48  71 103 147 194 243 291 360 439
#     4  10  23  45  67  96 142 178 238 290 352 428
#     4  10  20  38  70 103 138 178 235 289 355 418
#     4  12  24  44  74 107 141 192 237 301 358 421
#     4  12  23  40  75 109 143 183 242 301 361 416
#     4  10  22  43  73 103 134 185 237 307 353 418
#     4  10  22  40  67 102 140 183 226 297 354 412
#
# _framework density 23.788402999999999
#
# number of rings (size 3 to 8) (size 9 to 14) (size 15 to 20)
#    0.000    1.000    3.750    3.375    1.750    3.000 
#    4.500    2.500    0.000    0.000    0.000    0.000 
#    0.000    0.000    0.000    0.000    0.000    0.000 
#
# Total GULP energy -198224.364396 kJ/mol
# GULP energy per Si atom -12389.022775 kJ/mol
# Density = 2.373426 g / cm^3
# Si number density = 23.788403 Si / 1000 Ang^3
#
#
#
# Elastic Constant Matrix: (Units=GPa)
#
#
# Indices 1 2 3 4 5 6 
#
# 1 115.6385 9.6595 25.8032 -7.1052 -29.5289 19.2917
# 2 9.6595 115.3292 16.9117 3.8747 -2.1906 3.9042
# 3 25.8032 16.9117 77.8344 9.7382 -17.6385 0.3019
# 4 -7.1052 3.8747 9.7382 31.6274 -0.7447 -1.7483
# 5 -29.5289 -2.1906 -17.6385 -0.7447 36.9948 -3.8843
# 6 19.2917 3.9042 0.3019 -1.7483 -3.8843 29.7437
#
#
#
# Elastic Compliance Matrix: (Units=1/GPa)
#
#
# Indices 1 2 3 4 5 6 
#
# 1 0.012752 -0.000402 -0.002696 0.003556 0.008215 -0.006909
# 2 -0.000402 0.009030 -0.001927 -0.000681 -0.000830 -0.001053
# 3 -0.002696 -0.001927 0.016033 -0.005051 0.005514 0.002262
# 4 0.003556 -0.000681 -0.005051 0.034080 0.001073 -0.000022
# 5 0.008215 -0.000830 0.005514 0.001073 0.036138 -0.000493
# 6 -0.006909 -0.001053 0.002262 -0.000022 -0.000493 0.038151
#
#
# Mechanical properties :
#
#
# Convention : Reuss Voigt Hill
#
# Bulk Modulus (GPa) = 36.01926 45.95010 40.98468
# Shear Modulus (GPa) = 30.21335 36.76834 33.49085
#
# Velocity S-wave (km/s) = 3.56769 3.93573 3.75622
# Velocity P-wave (km/s) = 5.66971 6.32546 6.00654
#
# Compressibility (1/GPa) = 0.02776292
#
# Stress axis : x y z
#
# Youngs Moduli (GPa) = 78.42082 110.74301 62.37043
#
# Poissons Ratio (x) = 0.04454 0.16818
# Poissons Ratio (y) = 0.03154 0.12021
# Poissons Ratio (z) = 0.21146 0.21344
#
# Static dielectric constant tensor:
#      x y z
#    x 3.555520 0.139290 0.215600 
#    y 0.139290 4.235820 0.039640 
#    z 0.215600 0.039640 4.297670 
# 
# 
# High freq. dielectric constant tensor:
#      x y z
#    x 1.956090 0.023920 -0.006380 
#    y 0.023920 1.937100 0.002270 
#    z -0.006380 0.002270 1.929980 
# 
# From -- ./inp_files/332866.got.cif
#   From: 2010.06.25/outbox.cif.g09.slc.cpg/sg2_167_cif.got.tgz:332866.got - 2010.06.27 13:26:56.
