data_PCOD8005512
_publ_section_title
;
Structure prediction by ZEFSAII (Michael W. Deem and Ramdas Pophale) SiO2 
 PCOD8005512
Probable space group: P -1
;
_chemical_formula_sum "Si O2"
_cell_formula_units_Z 16
_cell_length_a 15.145362
_cell_length_b 14.600060
_cell_length_c 9.168611
_cell_angle_alpha 39.818878
_cell_angle_beta 62.429333
_cell_angle_gamma 41.180172
_cell_volume 822.267159
_symmetry_space_group_name_H-M "P -1"
_symmetry_group_IT_number 2
_symmetry_cell_setting 'triclinic'
loop_
_space_group_symop_operation_xyz
x,y,z
-x,-y,-z
loop_
_atom_site_type_symbol
_atom_site_label
_atom_site_fract_x
_atom_site_fract_y
_atom_site_fract_z
Si Si1 0.341412 0.541887 0.197557
Si Si2 0.136933 0.222477 0.665839
Si Si3 0.171217 0.215974 0.322623
Si Si4 0.668643 0.229309 0.330148
Si Si5 0.148480 0.511736 0.803450
Si Si6 0.183404 0.441089 0.525671
Si Si7 0.139054 0.905340 0.094703
Si Si8 0.140616 0.831855 0.510882
O O1 0.504931 0.381429 0.292649
O O2 0.288867 0.430792 0.360196
O O3 0.264370 0.674477 0.239520
O O4 0.294102 0.685950 0.920388
O O5 0.168762 0.262240 0.437172
O O6 0.209644 0.247570 0.703390
O O7 0.972463 0.368273 0.642480
O O8 0.197829 0.002456 0.891206
O O9 0.018196 0.322346 0.260171
O O10 0.276330 0.980195 0.504985
O O11 0.218309 0.308805 0.083385
O O12 0.734795 0.207428 0.459897
O O13 0.202259 0.449961 0.672063
O O14 0.190520 0.617130 0.720805
O O15 0.108767 0.928522 0.259569
O O16 0.000000 0.000000 0.000000
O O17 0.000000 0.000000 0.500000
#
# Coordination Sequence:
#
# PCOD8005512 Si02
#       8
#     2   2   2   2   2   2   2   2
#     4  11  23  44  64  85 132 170 210 262 310 368
#     4  10  21  34  65  92 118 159 208 255 311 370
#     4  10  20  39  58  90 130 155 202 257 315 371
#     4  11  25  41  63  93 126 171 211 257 316 370
#     4  10  21  37  61  91 126 157 197 265 315 364
#     4  10  21  38  59  92 121 161 206 254 312 372
#     4  12  21  40  67  93 125 162 209 266 310 368
#     4  12  24  37  66  98 122 159 211 263 317 370
#
# _framework density 19.458393999999998
#
# number of rings (size 3 to 8) (size 9 to 14) (size 15 to 20)
#    0.000    1.250    5.000    1.500    3.500    1.500 
#    0.000    2.500    0.000    0.000    0.000    0.000 
#    0.000    0.000    0.000    0.000    0.000    0.000 
#
# Total GULP energy -198407.674014 kJ/mol
# GULP energy per Si atom -12400.479626 kJ/mol
# Density = 1.941411 g / cm^3
# Si number density = 19.458394 Si / 1000 Ang^3
#
#
#
# Elastic Constant Matrix: (Units=GPa)
#
#
# Indices 1 2 3 4 5 6 
#
# 1 108.6871 51.3410 49.0294 1.9024 -9.9838 14.7540
# 2 51.3410 91.4290 40.1762 3.8354 3.5491 3.0966
# 3 49.0294 40.1762 117.9965 9.8537 -11.5060 -2.2052
# 4 1.9024 3.8354 9.8537 32.7673 4.0716 -2.4067
# 5 -9.9838 3.5491 -11.5060 4.0716 35.8640 -1.1678
# 6 14.7540 3.0966 -2.2052 -2.4067 -1.1678 28.3851
#
#
#
# Elastic Compliance Matrix: (Units=1/GPa)
#
#
# Indices 1 2 3 4 5 6 
#
# 1 0.015570 -0.006905 -0.003925 0.000099 0.003503 -0.007492
# 2 -0.006905 0.016301 -0.003101 0.000086 -0.004494 0.001392
# 3 -0.003925 -0.003101 0.011823 -0.003163 0.003470 0.003172
# 4 0.000099 0.000086 -0.003163 0.032186 -0.004577 0.002234
# 5 0.003503 -0.004494 0.003470 -0.004577 0.030930 -0.000177
# 6 -0.007492 0.001392 0.003172 0.002234 -0.000177 0.039401
#
#
# Mechanical properties :
#
#
# Convention : Reuss Voigt Hill
#
# Bulk Modulus (GPa) = 63.15950 66.57842 64.86896
# Shear Modulus (GPa) = 27.87830 31.24103 29.55966
#
# Velocity S-wave (km/s) = 3.78923 4.01125 3.90182
# Velocity P-wave (km/s) = 7.18843 7.46616 7.32861
#
# Compressibility (1/GPa) = 0.01583293
#
# Stress axis : x y z
#
# Youngs Moduli (GPa) = 64.22505 61.34608 84.57844
#
# Poissons Ratio (x) = 0.42358 0.33200
# Poissons Ratio (y) = 0.44346 0.26225
# Poissons Ratio (z) = 0.25211 0.19021
#
# Static dielectric constant tensor:
#      x y z
#    x 3.543930 0.204300 -0.168900 
#    y 0.204300 3.502100 0.067280 
#    z -0.168900 0.067280 3.683330 
# 
# 
# High freq. dielectric constant tensor:
#      x y z
#    x 1.747580 0.021750 -0.017820 
#    y 0.021750 1.749480 0.008680 
#    z -0.017820 0.008680 1.761890 
# 
# From -- ./inp_files/238542.got.cif
#   From: 2010.06.25/outbox.cif.g09.slc.cpg/sg2_120_cif.got.tgz:238542.got - 2010.06.27 13:26:56.
