data_PCOD8005048
_publ_section_title
;
Structure prediction by ZEFSAII (Michael W. Deem and Ramdas Pophale) SiO2 
 PCOD8005048
Probable space group: P -1
;
_chemical_formula_sum "Si O2"
_cell_formula_units_Z 16
_cell_length_a 8.742698
_cell_length_b 15.070135
_cell_length_c 14.970884
_cell_angle_alpha 49.460148
_cell_angle_beta 147.040165
_cell_angle_gamma 127.161856
_cell_volume 807.262238
_symmetry_space_group_name_H-M "P -1"
_symmetry_group_IT_number 2
_symmetry_cell_setting 'triclinic'
loop_
_space_group_symop_operation_xyz
x,y,z
-x,-y,-z
loop_
_atom_site_type_symbol
_atom_site_label
_atom_site_fract_x
_atom_site_fract_y
_atom_site_fract_z
Si Si1 0.810472 0.547688 0.084986
Si Si2 0.048306 0.040396 0.746771
Si Si3 0.857230 0.670025 0.651881
Si Si4 0.722564 0.269202 0.727425
Si Si5 0.360315 0.824276 0.059637
Si Si6 0.835869 0.084386 0.421680
Si Si7 0.228542 0.955896 0.204255
Si Si8 0.050997 0.372555 0.083047
O O1 0.997835 0.443964 0.226896
O O2 0.988021 0.638248 0.182352
O O3 0.500000 0.500000 0.000000
O O4 0.763457 0.618529 0.923301
O O5 0.881387 0.070943 0.557918
O O6 0.839228 0.035928 0.730344
O O7 0.160880 0.916582 0.866837
O O8 0.314863 0.139896 0.832298
O O9 0.546139 0.660366 0.461952
O O10 0.807844 0.682561 0.726614
O O11 0.068845 0.781285 0.647400
O O12 0.740768 0.180381 0.712074
O O13 0.666545 0.185517 0.840668
O O14 0.256072 0.701243 0.040439
O O15 0.508246 0.047490 0.262286
O O16 0.000000 0.000000 0.500000
O O17 0.000000 0.000000 0.000000
O O18 0.000000 0.500000 0.000000
#
# Coordination Sequence:
#
# PCOD8005048 Si02
#       8
#     2   2   2   2   2   2   2   2
#     4  10  24  43  67  92 123 160 208 263 322 372
#     4  11  23  39  61  93 131 168 211 260 318 372
#     4  11  22  42  67  90 123 164 214 259 307 382
#     4  11  22  44  62  93 124 169 210 256 315 380
#     4  10  20  38  64  89 125 171 210 252 316 384
#     4  12  24  42  65  96 130 169 215 255 322 380
#     4  12  26  40  62  96 135 168 211 267 317 373
#     4   9  21  38  63  90 120 160 207 253 316 377
#
# _framework density 19.820077000000001
#
# number of rings (size 3 to 8) (size 9 to 14) (size 15 to 20)
#    0.000    1.250    3.750    1.500    5.250    1.000 
#    2.250    0.625    0.000    0.000    0.000    0.000 
#    0.000    0.000    0.000    0.000    0.000    0.000 
#
# Total GULP energy -198394.923580 kJ/mol
# GULP energy per Si atom -12399.682724 kJ/mol
# Density = 1.977497 g / cm^3
# Si number density = 19.820077 Si / 1000 Ang^3
#
#
#
# Elastic Constant Matrix: (Units=GPa)
#
#
# Indices 1 2 3 4 5 6 
#
# 1 88.4195 41.4253 44.9957 17.5465 -2.8794 19.4438
# 2 41.4253 115.7010 45.2474 23.8652 3.5489 9.2383
# 3 44.9957 45.2474 115.2784 8.9698 -6.0821 16.9567
# 4 17.5465 23.8652 8.9698 28.8578 5.5183 3.9289
# 5 -2.8794 3.5489 -6.0821 5.5183 39.0960 1.7182
# 6 19.4438 9.2383 16.9567 3.9289 1.7182 32.6385
#
#
#
# Elastic Compliance Matrix: (Units=1/GPa)
#
#
# Indices 1 2 3 4 5 6 
#
# 1 0.017631 -0.002868 -0.004123 -0.006541 0.002143 -0.006875
# 2 -0.002868 0.012491 -0.003374 -0.007494 -0.000851 0.000872
# 3 -0.004123 -0.003374 0.012035 0.001642 0.001781 -0.003133
# 4 -0.006541 -0.007494 0.001642 0.045456 -0.005962 0.000007
# 5 0.002143 -0.000851 0.001781 -0.005962 0.027049 -0.002667
# 6 -0.006875 0.000872 -0.003133 0.000007 -0.002667 0.036255
#
#
# Mechanical properties :
#
#
# Convention : Reuss Voigt Hill
#
# Bulk Modulus (GPa) = 46.66621 64.74841 55.70731
# Shear Modulus (GPa) = 27.96598 32.63383 30.29990
#
# Velocity S-wave (km/s) = 3.76039 4.06212 3.91416
# Velocity P-wave (km/s) = 6.51537 7.39865 6.97102
#
# Compressibility (1/GPa) = 0.02142878
#
# Stress axis : x y z
#
# Youngs Moduli (GPa) = 56.71808 80.05586 83.09047
#
# Poissons Ratio (x) = 0.22959 0.34257
# Poissons Ratio (y) = 0.16266 0.28031
# Poissons Ratio (z) = 0.23384 0.27008
#
# Static dielectric constant tensor:
#      x y z
#    x 3.823920 0.223230 -0.357090 
#    y 0.223230 3.973030 0.034740 
#    z -0.357090 0.034740 3.765970 
# 
# 
# High freq. dielectric constant tensor:
#      x y z
#    x 1.768380 0.005790 -0.015830 
#    y 0.005790 1.788260 0.007640 
#    z -0.015830 0.007640 1.773310 
# 
# From -- ./inp_files/186435.got.cif
#   From: 2010.06.25/outbox.cif.g09.slc.cpg/sg2_94_cif.got.tgz:186435.got - 2010.06.27 13:26:56.
