data_PCOD8005012
_publ_section_title
;
Structure prediction by ZEFSAII (Michael W. Deem and Ramdas Pophale) SiO2 
 PCOD8005012
Probable space group: P -1
;
_chemical_formula_sum "Si O2"
_cell_formula_units_Z 16
_cell_length_a 15.780433
_cell_length_b 9.195493
_cell_length_c 12.357728
_cell_angle_alpha 51.936625
_cell_angle_beta 37.751923
_cell_angle_gamma 49.294201
_cell_volume 812.375175
_symmetry_space_group_name_H-M "P -1"
_symmetry_group_IT_number 2
_symmetry_cell_setting 'triclinic'
loop_
_space_group_symop_operation_xyz
x,y,z
-x,-y,-z
loop_
_atom_site_type_symbol
_atom_site_label
_atom_site_fract_x
_atom_site_fract_y
_atom_site_fract_z
Si Si1 0.050526 0.142832 0.459769
Si Si2 0.668019 0.146938 0.344044
Si Si3 0.972703 0.916800 0.241162
Si Si4 0.556883 0.861424 0.254685
Si Si5 0.316134 0.450283 0.910556
Si Si6 0.796013 0.879870 0.151108
Si Si7 0.995246 0.555436 0.232161
Si Si8 0.621343 0.874962 0.852825
O O1 0.998202 0.122903 0.643201
O O2 0.969706 0.367316 0.398798
O O3 0.227292 0.080407 0.306378
O O4 0.000000 0.000000 0.500000
O O5 0.518161 0.191041 0.540776
O O6 0.652264 0.350017 0.209028
O O7 0.808684 0.069360 0.317007
O O8 0.678073 0.994390 0.308069
O O9 0.997097 0.710602 0.252231
O O10 0.084417 0.014089 0.033460
O O11 0.584826 0.690577 0.216733
O O12 0.712312 0.880165 0.123312
O O13 0.445729 0.069338 0.224853
O O14 0.145319 0.487002 0.043115
O O15 0.351188 0.352018 0.040451
O O16 0.870143 0.657670 0.222786
O O17 0.500000 0.000000 0.000000
#
# Coordination Sequence:
#
# PCOD8005012 Si02
#       8
#     2   2   2   2   2   2   2   2
#     4  11  24  39  66  93 119 152 208 258 286 361
#     4  11  20  42  59  90 118 162 206 241 305 357
#     4  11  21  40  67  85 125 162 199 246 303 363
#     4  11  23  38  61  87 124 162 197 252 301 351
#     4  10  20  38  64  84 117 161 205 243 299 362
#     4  11  23  39  63  91 123 158 203 253 291 365
#     4  10  21  42  61  92 122 160 198 247 309 350
#     4   9  21  41  58  82 125 159 189 239 315 348
#
# _framework density 19.695333999999999
#
# number of rings (size 3 to 8) (size 9 to 14) (size 15 to 20)
#    0.000    1.500    3.750    1.875    5.250    1.500 
#    4.500    0.625    0.000    0.000    0.000    0.000 
#    0.000    0.000    0.000    0.000    0.000    0.000 
#
# Total GULP energy -198375.280929 kJ/mol
# GULP energy per Si atom -12398.455058 kJ/mol
# Density = 1.965051 g / cm^3
# Si number density = 19.695334 Si / 1000 Ang^3
#
#
#
# Elastic Constant Matrix: (Units=GPa)
#
#
# Indices 1 2 3 4 5 6 
#
# 1 108.0026 40.1084 21.7307 -18.3904 2.9119 -20.4502
# 2 40.1084 105.7314 33.8459 -18.0108 3.9465 -19.0766
# 3 21.7307 33.8459 76.2402 -4.4572 11.8174 -7.4664
# 4 -18.3904 -18.0108 -4.4572 40.0996 -3.4526 5.5009
# 5 2.9119 3.9465 11.8174 -3.4526 25.3887 -0.1562
# 6 -20.4502 -19.0766 -7.4664 5.5009 -0.1562 21.3131
#
#
#
# Elastic Compliance Matrix: (Units=1/GPa)
#
#
# Indices 1 2 3 4 5 6 
#
# 1 0.012611 -0.002097 -0.001628 0.003473 0.000164 0.008758
# 2 -0.002097 0.013733 -0.004656 0.003704 0.000824 0.007699
# 3 -0.001628 -0.004656 0.016697 -0.001660 -0.007084 0.000496
# 4 0.003473 0.003704 -0.001660 0.028499 0.003666 -0.001262
# 5 0.000164 0.000824 -0.007084 0.003666 0.043023 -0.002218
# 6 0.008758 0.007699 0.000496 -0.001262 -0.002218 0.062697
#
#
# Mechanical properties :
#
#
# Convention : Reuss Voigt Hill
#
# Bulk Modulus (GPa) = 38.05410 53.48269 45.76839
# Shear Modulus (GPa) = 24.65708 30.31289 27.48498
#
# Velocity S-wave (km/s) = 3.54209 3.92738 3.73970
# Velocity P-wave (km/s) = 6.00765 6.91229 6.47579
#
# Compressibility (1/GPa) = 0.02627838
#
# Stress axis : x y z
#
# Youngs Moduli (GPa) = 79.29832 72.81658 59.89041
#
# Poissons Ratio (x) = 0.15269 0.09751
# Poissons Ratio (y) = 0.16628 0.27886
# Poissons Ratio (z) = 0.12911 0.33905
#
# Static dielectric constant tensor:
#      x y z
#    x 3.587170 -0.409460 0.226640 
#    y -0.409460 3.847750 -0.115850 
#    z 0.226640 -0.115850 3.706730 
# 
# 
# High freq. dielectric constant tensor:
#      x y z
#    x 1.750680 -0.019930 0.012200 
#    y -0.019930 1.772480 0.001970 
#    z 0.012200 0.001970 1.778880 
# 
# From -- ./inp_files/178985.got.cif
#   From: 2010.06.25/outbox.cif.g09.slc.cpg/sg2_90_cif.got.tgz:178985.got - 2010.06.27 13:26:56.
