data_PCOD8005312
_publ_section_title
;
Structure prediction by ZEFSAII (Michael W. Deem and Ramdas Pophale) SiO2 
 PCOD8005312
Probable space group: P -1
;
_chemical_formula_sum "Si O2"
_cell_formula_units_Z 16
_cell_length_a 11.310776
_cell_length_b 11.209060
_cell_length_c 14.510104
_cell_angle_alpha 41.990702
_cell_angle_beta 143.350943
_cell_angle_gamma 118.766321
_cell_volume 703.476362
_symmetry_space_group_name_H-M "P -1"
_symmetry_group_IT_number 2
_symmetry_cell_setting 'triclinic'
loop_
_space_group_symop_operation_xyz
x,y,z
-x,-y,-z
loop_
_atom_site_type_symbol
_atom_site_label
_atom_site_fract_x
_atom_site_fract_y
_atom_site_fract_z
Si Si1 0.546400 0.355765 0.029052
Si Si2 0.721448 0.471713 0.606282
Si Si3 0.332474 0.003686 0.601045
Si Si4 0.967266 0.115281 0.632268
Si Si5 0.093417 0.724594 0.006211
Si Si6 0.973162 0.759976 0.597126
Si Si7 0.309001 0.596597 0.587747
Si Si8 0.679637 0.668789 0.707766
O O1 0.788656 0.326395 0.172945
O O2 0.502415 0.161721 0.145899
O O3 0.500000 0.500000 0.000000
O O4 0.392330 0.420059 0.809481
O O5 0.500000 0.500000 0.500000
O O6 0.832835 0.627324 0.613830
O O7 0.718391 0.460957 0.500801
O O8 0.867375 0.283817 0.854139
O O9 0.125737 0.060523 0.503774
O O10 0.408136 0.180371 0.516610
O O11 0.255688 0.909732 0.519306
O O12 0.909678 0.268635 0.590187
O O13 0.062470 0.197165 0.558556
O O14 0.124104 0.918183 0.876483
O O15 0.863286 0.719817 0.844576
O O16 0.256634 0.544397 0.165951
O O17 0.490686 0.697782 0.643678
#
# Coordination Sequence:
#
# PCOD8005312 Si02
#       8
#     2   2   2   2   2   2   2   2
#     4  11  22  42  65 100 130 164 213 264 324 377
#     4  12  25  43  66  92 131 174 217 259 317 385
#     4  10  20  38  66  97 125 159 218 270 312 369
#     4  10  23  39  61  98 127 164 212 262 323 377
#     4  10  21  41  65  93 122 166 218 262 321 369
#     4  11  22  42  68  93 128 168 213 270 316 374
#     4  12  24  41  63  94 137 168 207 263 316 389
#     4  10  21  39  68  96 120 166 220 268 313 365
#
# _framework density 22.744192000000002
#
# number of rings (size 3 to 8) (size 9 to 14) (size 15 to 20)
#    0.000    1.250    5.000    2.250    5.250    3.000 
#    2.250    3.750    0.000    0.000    0.000    0.000 
#    0.000    0.000    0.000    0.000    0.000    0.000 
#
# Total GULP energy -198212.495534 kJ/mol
# GULP energy per Si atom -12388.280971 kJ/mol
# Density = 2.269242 g / cm^3
# Si number density = 22.744192 Si / 1000 Ang^3
#
#
#
# Elastic Constant Matrix: (Units=GPa)
#
#
# Indices 1 2 3 4 5 6 
#
# 1 71.2189 10.8427 47.7548 -12.2445 -10.9246 -14.6411
# 2 10.8427 37.7907 42.6739 -4.9562 -0.7455 -7.8506
# 3 47.7548 42.6739 162.8025 -25.7795 -36.4041 -3.4139
# 4 -12.2445 -4.9562 -25.7795 39.2110 -2.8896 -9.9611
# 5 -10.9246 -0.7455 -36.4041 -2.8896 38.5719 0.6779
# 6 -14.6411 -7.8506 -3.4139 -9.9611 0.6779 39.1744
#
#
#
# Elastic Compliance Matrix: (Units=1/GPa)
#
#
# Indices 1 2 3 4 5 6 
#
# 1 0.020169 0.002970 -0.005445 0.005453 0.000881 0.009030
# 2 0.002970 0.044618 -0.015891 -0.002806 -0.013648 0.008189
# 3 -0.005445 -0.015891 0.016159 0.007394 0.013994 -0.002173
# 4 0.005453 -0.002806 0.007394 0.035287 0.010921 0.010904
# 5 0.000881 -0.013648 0.013994 0.010921 0.039921 0.000900
# 6 0.009030 0.008189 -0.002173 0.010904 0.000900 0.033111
#
#
# Mechanical properties :
#
#
# Convention : Reuss Voigt Hill
#
# Bulk Modulus (GPa) = 22.61695 52.70611 37.66153
# Shear Modulus (GPa) = 20.76974 34.76084 27.76529
#
# Velocity S-wave (km/s) = 3.02518 3.91364 3.49773
# Velocity P-wave (km/s) = 4.70828 6.60650 5.73645
#
# Compressibility (1/GPa) = 0.04421463
#
# Stress axis : x y z
#
# Youngs Moduli (GPa) = 49.58097 22.41265 61.88329
#
# Poissons Ratio (x) = -0.06657 0.33696
# Poissons Ratio (y) = -0.14727 0.98338
# Poissons Ratio (z) = 0.26997 0.35616
#
# Static dielectric constant tensor:
#      x y z
#    x 4.087360 0.039430 -0.326340 
#    y 0.039430 3.888370 -0.243800 
#    z -0.326340 -0.243800 4.515410 
# 
# 
# High freq. dielectric constant tensor:
#      x y z
#    x 1.898720 -0.003620 -0.023450 
#    y -0.003620 1.871940 -0.017900 
#    z -0.023450 -0.017900 1.900820 
# 
# From -- ./inp_files/519556.got.cif
#   From: 2010.06.25/outbox.cif.g09.slc.cpg/sg2_260_cif.got.tgz:519556.got - 2010.06.27 13:26:56.
