data_PCOD8005775
_publ_section_title
;
Structure prediction by ZEFSAII (Michael W. Deem and Ramdas Pophale) SiO2 
 PCOD8005775
Probable space group: P -1
;
_chemical_formula_sum "Si O2"
_cell_formula_units_Z 16
_cell_length_a 18.455823
_cell_length_b 5.265368
_cell_length_c 15.776340
_cell_angle_alpha 114.509248
_cell_angle_beta 146.580118
_cell_angle_gamma 55.920750
_cell_volume 694.661290
_symmetry_space_group_name_H-M "P -1"
_symmetry_group_IT_number 2
_symmetry_cell_setting 'triclinic'
loop_
_space_group_symop_operation_xyz
x,y,z
-x,-y,-z
loop_
_atom_site_type_symbol
_atom_site_label
_atom_site_fract_x
_atom_site_fract_y
_atom_site_fract_z
Si Si1 0.670334 0.340457 0.166758
Si Si2 0.925984 0.832661 0.668843
Si Si3 0.603300 0.139343 0.376431
Si Si4 0.114820 0.154093 0.816577
Si Si5 0.800233 0.774036 0.916010
Si Si6 0.078026 0.815642 0.130847
Si Si7 0.607049 0.981288 0.179552
Si Si8 0.505897 0.148409 0.616228
O O1 0.718732 0.620751 0.253642
O O2 0.761753 0.078059 0.154544
O O3 0.693391 0.179409 0.259840
O O4 0.500000 0.500000 0.000000
O O5 0.015080 0.464580 0.711625
O O6 0.771632 0.924777 0.486052
O O7 0.873282 0.979428 0.731970
O O8 0.019435 0.982592 0.733616
O O9 0.583731 0.484491 0.425965
O O10 0.524425 0.127214 0.208437
O O11 0.550157 0.002767 0.384383
O O12 0.206975 0.235206 0.990380
O O13 0.785535 0.489584 0.813073
O O14 0.672589 0.078873 0.793641
O O15 0.963230 0.733352 0.057691
O O16 0.000000 0.000000 0.000000
O O17 0.500000 0.000000 0.000000
O O18 0.500000 0.000000 0.500000
#
# Coordination Sequence:
#
# PCOD8005775 Si02
#       8
#     2   2   2   2   2   2   2   2
#     4  10  22  41  67  98 136 164 221 290 352 388
#     4  11  24  43  66  95 138 180 229 269 345 405
#     4  12  27  46  71  97 144 184 229 280 352 407
#     4  11  23  41  68 102 128 177 227 286 322 423
#     4  10  24  37  65  98 132 173 235 268 346 390
#     4  10  20  39  62  92 132 177 216 281 330 398
#     4  10  23  42  68  97 129 180 224 280 352 397
#     4  12  28  44  68 105 142 183 228 285 339 415
#
# _framework density 23.032807999999999
#
# number of rings (size 3 to 8) (size 9 to 14) (size 15 to 20)
#    0.000    1.250    1.250    3.375   10.500    0.000 
#    0.000    3.750    0.000    0.000    0.000    0.000 
#    0.000    0.000    0.000    0.000    0.000    0.000 
#
# Total GULP energy -198238.887027 kJ/mol
# GULP energy per Si atom -12389.930439 kJ/mol
# Density = 2.298038 g / cm^3
# Si number density = 23.032808 Si / 1000 Ang^3
#
#
#
# Elastic Constant Matrix: (Units=GPa)
#
#
# Indices 1 2 3 4 5 6 
#
# 1 142.5987 75.2806 29.2189 -0.1080 -29.9276 3.4556
# 2 75.2806 188.5714 32.9877 -19.2370 -16.3458 3.3098
# 3 29.2189 32.9877 75.4210 -9.2997 -7.6267 -8.9487
# 4 -0.1080 -19.2370 -9.2997 36.5749 -8.1587 -7.6410
# 5 -29.9276 -16.3458 -7.6267 -8.1587 25.1802 -3.1161
# 6 3.4556 3.3098 -8.9487 -7.6410 -3.1161 51.6324
#
#
#
# Elastic Compliance Matrix: (Units=1/GPa)
#
#
# Indices 1 2 3 4 5 6 
#
# 1 0.011417 -0.003251 -0.001886 0.000247 0.010945 -0.000185
# 2 -0.003251 0.007391 -0.001258 0.004029 0.001888 0.000236
# 3 -0.001886 -0.001258 0.016045 0.005128 0.003956 0.003985
# 4 0.000247 0.004029 0.005128 0.036011 0.016992 0.006969
# 5 0.010945 0.001888 0.003956 0.016992 0.061401 0.006052
# 6 -0.000185 0.000236 0.003985 0.006969 0.006052 0.021452
#
#
# Mechanical properties :
#
#
# Convention : Reuss Voigt Hill
#
# Bulk Modulus (GPa) = 45.32228 75.72950 60.52589
# Shear Modulus (GPa) = 28.75855 40.61776 34.68816
#
# Velocity S-wave (km/s) = 3.53737 4.20393 3.88497
# Velocity P-wave (km/s) = 6.03357 7.51760 6.81610
#
# Compressibility (1/GPa) = 0.02206420
#
# Stress axis : x y z
#
# Youngs Moduli (GPa) = 87.58829 135.29465 62.32517
#
# Poissons Ratio (x) = 0.43980 0.11755
# Poissons Ratio (y) = 0.28472 0.07839
# Poissons Ratio (z) = 0.16519 0.17017
#
# Static dielectric constant tensor:
#      x y z
#    x 3.381310 0.053930 -0.361830 
#    y 0.053930 3.731510 0.416280 
#    z -0.361830 0.416280 3.876040 
# 
# 
# High freq. dielectric constant tensor:
#      x y z
#    x 1.915560 -0.000240 -0.019560 
#    y -0.000240 1.928400 -0.003480 
#    z -0.019560 -0.003480 1.891070 
# 
# From -- ./inp_files/488202.got.cif
#   From: 2010.06.25/outbox.cif.g09.slc.cpg/sg2_245_cif.got.tgz:488202.got - 2010.06.27 13:26:56.
