data_PCOD8005628
_publ_section_title
;
Structure prediction by ZEFSAII (Michael W. Deem and Ramdas Pophale) SiO2 
 PCOD8005628
Probable space group: P -1
;
_chemical_formula_sum "Si O2"
_cell_formula_units_Z 16
_cell_length_a 9.411837
_cell_length_b 22.054207
_cell_length_c 25.289099
_cell_angle_alpha 17.784952
_cell_angle_beta 38.940008
_cell_angle_gamma 30.896853
_cell_volume 797.081397
_symmetry_space_group_name_H-M "P -1"
_symmetry_group_IT_number 2
_symmetry_cell_setting 'triclinic'
loop_
_space_group_symop_operation_xyz
x,y,z
-x,-y,-z
loop_
_atom_site_type_symbol
_atom_site_label
_atom_site_fract_x
_atom_site_fract_y
_atom_site_fract_z
Si Si1 0.402221 0.825559 0.966282
Si Si2 0.582655 0.153113 0.498531
Si Si3 0.140442 0.571213 0.215471
Si Si4 0.921896 0.351086 0.257887
Si Si5 0.199930 0.400814 0.802152
Si Si6 0.387341 0.091079 0.846126
Si Si7 0.467769 0.464372 0.478387
Si Si8 0.124032 0.284674 0.600175
O O1 0.291237 0.964254 0.940272
O O2 0.375759 0.013806 0.775541
O O3 0.195841 0.769894 0.048824
O O4 0.733668 0.582937 0.079135
O O5 0.442064 0.293939 0.366363
O O6 0.783694 0.207877 0.422339
O O7 0.293877 0.308215 0.486862
O O8 0.757872 0.853698 0.688202
O O9 0.047025 0.578984 0.175924
O O10 0.877425 0.653687 0.261723
O O11 0.942430 0.437833 0.237390
O O12 0.328053 0.515281 0.635780
O O13 0.423899 0.108000 0.996493
O O14 0.535146 0.188295 0.687000
O O15 0.500000 0.500000 0.500000
O O16 0.144929 0.690233 0.366206
O O17 0.000000 0.500000 0.500000
#
# Coordination Sequence:
#
# PCOD8005628 Si02
#       8
#     2   2   2   2   2   2   2   2
#     4  10  22  36  58  84 119 156 198 241 295 351
#     4  10  20  39  61  83 117 149 205 242 286 356
#     4  11  20  37  58  86 117 157 194 242 293 358
#     4   9  22  40  59  82 111 162 197 243 293 348
#     4  11  23  38  60  87 123 161 192 242 302 355
#     4  11  21  38  56  88 124 157 191 244 299 357
#     4  12  23  36  57  92 124 154 191 240 308 355
#     4  12  21  36  60  91 117 151 192 248 294 350
#
# _framework density 20.073232999999998
#
# number of rings (size 3 to 8) (size 9 to 14) (size 15 to 20)
#    0.000    1.250    3.750    2.250    1.750    3.000 
#    0.000    0.000    0.000    0.750    0.000    0.000 
#    0.000    0.000    0.000    0.000    0.000    0.000 
#
# Total GULP energy -198218.596591 kJ/mol
# GULP energy per Si atom -12388.662287 kJ/mol
# Density = 2.002755 g / cm^3
# Si number density = 20.073233 Si / 1000 Ang^3
#
#
#
# Elastic Constant Matrix: (Units=GPa)
#
#
# Indices 1 2 3 4 5 6 
#
# 1 159.4575 32.7628 44.0618 -13.8686 5.3166 -0.6693
# 2 32.7628 66.7992 28.4407 -19.8458 1.3749 4.9937
# 3 44.0618 28.4407 127.3158 -13.7491 11.0887 1.4181
# 4 -13.8686 -19.8458 -13.7491 33.9823 -2.2926 -2.0472
# 5 5.3166 1.3749 11.0887 -2.2926 28.2042 -0.1947
# 6 -0.6693 4.9937 1.4181 -2.0472 -0.1947 16.9293
#
#
#
# Elastic Compliance Matrix: (Units=1/GPa)
#
#
# Indices 1 2 3 4 5 6 
#
# 1 0.007430 -0.002724 -0.001857 0.000739 -0.000468 0.001337
# 2 -0.002724 0.020653 -0.002689 0.009662 0.001316 -0.004791
# 3 -0.001857 -0.002689 0.009513 0.001311 -0.003152 0.000045
# 4 0.000739 0.009662 0.001311 0.036112 0.001820 0.001457
# 5 -0.000468 0.001316 -0.003152 0.001820 0.036871 0.000501
# 6 0.001337 -0.004791 0.000045 0.001457 0.000501 0.060714
#
#
# Mechanical properties :
#
#
# Convention : Reuss Voigt Hill
#
# Bulk Modulus (GPa) = 43.37250 62.67811 53.02531
# Shear Modulus (GPa) = 25.83756 32.37696 29.10726
#
# Velocity S-wave (km/s) = 3.59160 4.02050 3.81209
# Velocity P-wave (km/s) = 6.23326 7.26946 6.77121
#
# Compressibility (1/GPa) = 0.02305608
#
# Stress axis : x y z
#
# Youngs Moduli (GPa) = 134.59678 48.42008 105.11479
#
# Poissons Ratio (x) = 0.13190 0.19520
# Poissons Ratio (y) = 0.36666 0.28261
# Poissons Ratio (z) = 0.24995 0.13018
#
# Static dielectric constant tensor:
#      x y z
#    x 3.786820 -0.004110 0.075240 
#    y -0.004110 3.343740 -0.154790 
#    z 0.075240 -0.154790 4.134030 
# 
# 
# High freq. dielectric constant tensor:
#      x y z
#    x 1.800710 -0.000360 0.010950 
#    y -0.000360 1.740590 -0.008870 
#    z 0.010950 -0.008870 1.793740 
# 
# From -- ./inp_files/203160.got.cif
#   From: 2010.06.25/outbox.cif.g09.slc.cpg/sg2_102_cif.got.tgz:203160.got - 2010.06.27 13:26:56.
