data_PCOD8005746
_publ_section_title
;
Structure prediction by ZEFSAII (Michael W. Deem and Ramdas Pophale) SiO2 
 PCOD8005746
Probable space group: P -1
;
_chemical_formula_sum "Si O2"
_cell_formula_units_Z 14
_cell_length_a 27.208917
_cell_length_b 7.007978
_cell_length_c 8.957840
_cell_angle_alpha 53.762036
_cell_angle_beta 152.258168
_cell_angle_gamma 130.908992
_cell_volume 600.565387
_symmetry_space_group_name_H-M "P -1"
_symmetry_group_IT_number 2
_symmetry_cell_setting 'triclinic'
loop_
_space_group_symop_operation_xyz
x,y,z
-x,-y,-z
loop_
_atom_site_type_symbol
_atom_site_label
_atom_site_fract_x
_atom_site_fract_y
_atom_site_fract_z
Si Si1 0.433840 0.339891 0.707197
Si Si2 0.198146 0.774186 0.585704
Si Si3 0.816549 0.827235 0.870213
Si Si4 0.445893 0.120210 0.148356
Si Si5 0.025407 0.864241 0.271946
Si Si6 0.578275 0.786330 0.583914
Si Si7 0.184936 0.216536 0.772682
O O1 0.311670 0.365056 0.403053
O O2 0.521132 0.627491 0.775500
O O3 0.418116 0.148272 0.614509
O O4 0.476376 0.220708 0.015069
O O5 0.207858 0.513441 0.681122
O O6 0.168406 0.911095 0.298271
O O7 0.103096 0.711199 0.491120
O O8 0.315646 0.950921 0.893237
O O9 0.847385 0.886757 0.098970
O O10 0.903095 0.699566 0.090270
O O11 0.528243 0.958518 0.473132
O O12 0.085449 0.068285 0.464500
O O13 0.000000 0.000000 0.000000
O O14 0.500000 0.500000 0.500000
O O15 0.702264 0.827175 0.958640
#
# Coordination Sequence:
#
# PCOD8005746 Si02
#       7
#     2   2   2   2   2   2   2
#     4   9  21  38  61  88 123 166 204 251 312 366
#     4  10  22  40  65  93 126 164 209 258 313 375
#     4   9  21  43  61  91 128 161 213 260 307 376
#     4  10  20  39  62  89 126 163 203 255 307 374
#     4  10  23  43  66  93 122 162 216 263 310 373
#     4  11  22  36  57  93 126 159 202 249 307 378
#     4  11  23  41  64  94 124 168 207 256 324 366
#
# _framework density 23.311366
#
# number of rings (size 3 to 8) (size 9 to 14) (size 15 to 20)
#    0.000    2.000    1.429    0.857    2.000    5.714 
#    0.000    5.714    0.000    0.000    0.000    0.000 
#    0.000    0.000    0.000    0.000    0.000    0.000 
#
# Total GULP energy -173531.512192 kJ/mol
# GULP energy per Si atom -12395.108014 kJ/mol
# Density = 2.325831 g / cm^3
# Si number density = 23.311366 Si / 1000 Ang^3
#
#
#
# Elastic Constant Matrix: (Units=GPa)
#
#
# Indices 1 2 3 4 5 6 
#
# 1 97.4294 22.5042 41.2242 -5.5430 12.8667 -10.0524
# 2 22.5042 62.2993 19.4761 -3.8721 -1.2669 -13.9988
# 3 41.2242 19.4761 101.8463 0.5028 9.4931 -4.6637
# 4 -5.5430 -3.8721 0.5028 31.9909 -3.3388 -0.1247
# 5 12.8667 -1.2669 9.4931 -3.3388 46.3802 -0.0275
# 6 -10.0524 -13.9988 -4.6637 -0.1247 -0.0275 33.2244
#
#
#
# Elastic Compliance Matrix: (Units=1/GPa)
#
#
# Indices 1 2 3 4 5 6 
#
# 1 0.013577 -0.002912 -0.004586 0.001791 -0.002777 0.002241
# 2 -0.002912 0.019629 -0.002449 0.002146 0.002004 0.007055
# 3 -0.004586 -0.002449 0.012249 -0.001433 -0.001405 -0.000707
# 4 0.001791 0.002146 -0.001433 0.032083 0.002165 0.001367
# 5 -0.002777 0.002004 -0.001405 0.002165 0.022830 -0.000166
# 6 0.002241 0.007055 -0.000707 0.001367 -0.000166 0.033655
#
#
# Mechanical properties :
#
#
# Convention : Reuss Voigt Hill
#
# Bulk Modulus (GPa) = 39.12367 47.55379 43.33873
# Shear Modulus (GPa) = 30.78129 34.21044 32.49587
#
# Velocity S-wave (km/s) = 3.63773 3.83501 3.73767
# Velocity P-wave (km/s) = 5.87057 6.32878 6.10398
#
# Compressibility (1/GPa) = 0.02555998
#
# Stress axis : x y z
#
# Youngs Moduli (GPa) = 73.65519 50.94597 81.63915
#
# Poissons Ratio (x) = 0.14836 0.37439
# Poissons Ratio (y) = 0.21449 0.19995
# Poissons Ratio (z) = 0.33778 0.12478
#
# Static dielectric constant tensor:
#      x y z
#    x 5.196160 -0.165170 0.036980 
#    y -0.165170 3.850490 0.108680 
#    z 0.036980 0.108680 4.855610 
# 
# 
# High freq. dielectric constant tensor:
#      x y z
#    x 1.954140 0.001450 -0.009000 
#    y 0.001450 1.882560 0.002840 
#    z -0.009000 0.002840 1.941260 
# 
# From -- ./inp_files/37682.got.cif
#   From: 2010.06.25/outbox.cif.g09.slc.cpg/sg2_19_cif.got.tgz:37682.got - 2010.06.27 13:26:56.
