data_PCOD8005589
_publ_section_title
;
Structure prediction by ZEFSAII (Michael W. Deem and Ramdas Pophale) SiO2 
 PCOD8005589
Probable space group: P -1
;
_chemical_formula_sum "Si O2"
_cell_formula_units_Z 14
_cell_length_a 12.453042
_cell_length_b 8.821455
_cell_length_c 11.527287
_cell_angle_alpha 49.355101
_cell_angle_beta 99.177257
_cell_angle_gamma 128.562350
_cell_volume 683.360157
_symmetry_space_group_name_H-M "P -1"
_symmetry_group_IT_number 2
_symmetry_cell_setting 'triclinic'
loop_
_space_group_symop_operation_xyz
x,y,z
-x,-y,-z
loop_
_atom_site_type_symbol
_atom_site_label
_atom_site_fract_x
_atom_site_fract_y
_atom_site_fract_z
Si Si1 0.453591 0.608924 0.592857
Si Si2 0.792402 0.450624 0.891888
Si Si3 0.828405 0.604184 0.235707
Si Si4 0.119783 0.139815 0.117106
Si Si5 0.658393 0.938635 0.253436
Si Si6 0.730422 0.798375 0.675836
Si Si7 0.912989 0.289138 0.301381
O O1 0.334241 0.614249 0.621209
O O2 0.527025 0.800409 0.395546
O O3 0.366658 0.294806 0.705539
O O4 0.580483 0.727834 0.652527
O O5 0.884913 0.653139 0.919308
O O6 0.712367 0.538331 0.770737
O O7 0.909127 0.490698 0.805539
O O8 0.662655 0.130736 0.069699
O O9 0.872046 0.445045 0.275579
O O10 0.815830 0.747865 0.056947
O O11 0.952284 0.835072 0.234503
O O12 0.229749 0.131184 0.214591
O O13 0.820514 0.134399 0.244993
O O14 0.873229 0.062319 0.497182
#
# Coordination Sequence:
#
# PCOD8005589 Si02
#       7
#     2   2   2   2   2   2   2
#     4  10  23  40  61  87 122 151 199 239 294 353
#     4  10  20  39  60  88 115 155 198 245 280 353
#     4  11  22  38  63  90 115 156 196 243 290 352
#     4   9  22  39  59  89 117 154 199 239 293 341
#     4  10  21  38  62  87 113 162 195 242 284 350
#     4   9  22  40  58  87 122 155 192 242 296 341
#     4  11  20  36  66  89 117 152 200 243 292 338
#
# _framework density 20.487000999999999
#
# number of rings (size 3 to 8) (size 9 to 14) (size 15 to 20)
#    0.857    1.143    1.429    1.714    4.000    4.000 
#    0.000    0.000    3.143    0.000    0.000    0.000 
#    0.000    0.000    0.000    0.000    0.000    0.000 
#
# Total GULP energy -173539.659053 kJ/mol
# GULP energy per Si atom -12395.689932 kJ/mol
# Density = 2.044037 g / cm^3
# Si number density = 20.487001 Si / 1000 Ang^3
#
#
#
# Elastic Constant Matrix: (Units=GPa)
#
#
# Indices 1 2 3 4 5 6 
#
# 1 94.0108 26.6771 41.7257 -1.8072 -18.3553 -3.2644
# 2 26.6771 72.6813 21.9735 -4.0577 -1.6562 -0.9531
# 3 41.7257 21.9735 124.8115 -17.8873 7.5173 -0.2627
# 4 -1.8072 -4.0577 -17.8873 27.5266 0.1652 -1.4084
# 5 -18.3553 -1.6562 7.5173 0.1652 30.7187 -0.1446
# 6 -3.2644 -0.9531 -0.2627 -1.4084 -0.1446 15.6993
#
#
#
# Elastic Compliance Matrix: (Units=1/GPa)
#
#
# Indices 1 2 3 4 5 6 
#
# 1 0.016739 -0.004220 -0.006005 -0.003343 0.011276 0.002928
# 2 -0.004220 0.015676 -0.001069 0.001356 -0.001421 0.000165
# 3 -0.006005 -0.001069 0.011603 0.006999 -0.006525 -0.000552
# 4 -0.003343 0.001356 0.006999 0.041041 -0.003843 0.003151
# 5 0.011276 -0.001421 -0.006525 -0.003843 0.040842 0.002181
# 6 0.002928 0.000165 -0.000552 0.003151 0.002181 0.064609
#
#
# Mechanical properties :
#
#
# Convention : Reuss Voigt Hill
#
# Bulk Modulus (GPa) = 46.66288 52.47293 49.56790
# Shear Modulus (GPa) = 22.70242 28.19740 25.44991
#
# Velocity S-wave (km/s) = 3.33248 3.71395 3.52838
# Velocity P-wave (km/s) = 6.13462 6.63774 6.39113
#
# Compressibility (1/GPa) = 0.02143031
#
# Stress axis : x y z
#
# Youngs Moduli (GPa) = 59.74176 63.79134 86.18671
#
# Poissons Ratio (x) = 0.26917 0.51756
# Poissons Ratio (y) = 0.25209 0.09212
# Poissons Ratio (z) = 0.35876 0.06819
#
# Static dielectric constant tensor:
#      x y z
#    x 3.289450 0.025680 0.065160 
#    y 0.025680 3.607280 -0.067570 
#    z 0.065160 -0.067570 3.887010 
# 
# 
# High freq. dielectric constant tensor:
#      x y z
#    x 1.772800 -0.000550 0.002360 
#    y -0.000550 1.791930 -0.006610 
#    z 0.002360 -0.006610 1.812510 
# 
# From -- ./inp_files/418922.got.cif
#   From: 2010.06.25/outbox.cif.g09.slc.cpg/sg2_210_cif.got.tgz:418922.got - 2010.06.27 13:26:56.
