data_PCOD8005821
_publ_section_title
;
Structure prediction by ZEFSAII (Michael W. Deem and Ramdas Pophale) SiO2 
 PCOD8005821
Probable space group: P -1
;
_chemical_formula_sum "Si O2"
_cell_formula_units_Z 14
_cell_length_a 15.868411
_cell_length_b 14.588489
_cell_length_c 6.290883
_cell_angle_alpha 95.817400
_cell_angle_beta 91.176613
_cell_angle_gamma 156.020047
_cell_volume 565.298329
_symmetry_space_group_name_H-M "P -1"
_symmetry_group_IT_number 2
_symmetry_cell_setting 'triclinic'
loop_
_space_group_symop_operation_xyz
x,y,z
-x,-y,-z
loop_
_atom_site_type_symbol
_atom_site_label
_atom_site_fract_x
_atom_site_fract_y
_atom_site_fract_z
Si Si1 0.102187 0.060734 0.312620
Si Si2 0.565089 0.295228 0.764940
Si Si3 0.704762 0.282142 0.071614
Si Si4 0.669943 0.602268 0.929165
Si Si5 0.106168 0.439502 0.475760
Si Si6 0.207105 0.964830 0.344844
Si Si7 0.149065 0.761153 0.965114
O O1 0.273799 0.306187 0.283820
O O2 0.242035 0.109115 0.367686
O O3 0.000000 0.000000 0.500000
O O4 0.902696 0.832449 0.102557
O O5 0.559835 0.391607 0.887352
O O6 0.371055 0.083800 0.545183
O O7 0.783430 0.508245 0.691830
O O8 0.550520 0.201165 0.924023
O O9 0.728962 0.325785 0.337312
O O10 0.947677 0.531865 0.048732
O O11 0.656850 0.123003 0.985903
O O12 0.500000 0.500000 0.000000
O O13 0.025930 0.289441 0.620914
O O14 0.915351 0.298763 0.301967
O O15 0.237768 0.947135 0.111123
#
# Coordination Sequence:
#
# PCOD8005821 Si02
#       7
#     2   2   2   2   2   2   2
#     4  11  24  43  66  94 126 165 211 262 318 375
#     4  11  24  40  61  92 124 161 207 253 307 374
#     4   9  19  37  62  89 121 161 207 253 305 368
#     4  11  25  43  66  94 126 164 212 263 316 377
#     4  10  20  39  63  86 123 165 204 254 310 363
#     4  11  24  39  61  92 127 162 204 254 308 373
#     4   9  19  37  61  90 122 161 205 253 308 367
#
# _framework density 24.765682999999999
#
# number of rings (size 3 to 8) (size 9 to 14) (size 15 to 20)
#    0.000    1.714    0.000    4.714    0.000   10.857 
#    0.000    1.429    0.000    0.000    0.000    0.000 
#    0.000    0.000    0.000    0.000    0.000    0.000 
#
# Total GULP energy -173562.995176 kJ/mol
# GULP energy per Si atom -12397.356798 kJ/mol
# Density = 2.470932 g / cm^3
# Si number density = 24.765683 Si / 1000 Ang^3
#
#
#
# Elastic Constant Matrix: (Units=GPa)
#
#
# Indices 1 2 3 4 5 6 
#
# 1 198.3529 35.1544 74.9950 -3.9914 -1.7156 -14.2952
# 2 35.1544 50.7584 18.7223 -15.7190 0.5588 -14.9613
# 3 74.9950 18.7223 155.8263 4.5608 1.9517 -11.4534
# 4 -3.9914 -15.7190 4.5608 42.4194 3.7096 2.1221
# 5 -1.7156 0.5588 1.9517 3.7096 35.2635 8.8782
# 6 -14.2952 -14.9613 -11.4534 2.1221 8.8782 43.0957
#
#
#
# Elastic Compliance Matrix: (Units=1/GPa)
#
#
# Indices 1 2 3 4 5 6 
#
# 1 0.006770 -0.003804 -0.002786 -0.000528 0.000576 0.000092
# 2 -0.003804 0.028537 -0.001218 0.010251 -0.003814 0.008603
# 3 -0.002786 -0.001218 0.008032 -0.001570 -0.000647 0.000998
# 4 -0.000528 0.010251 -0.001570 0.027690 -0.003605 0.002345
# 5 0.000576 -0.003814 -0.000647 -0.003605 0.030740 -0.007460
# 6 0.000092 0.008603 0.000998 0.002345 -0.007460 0.027908
#
#
# Mechanical properties :
#
#
# Convention : Reuss Voigt Hill
#
# Bulk Modulus (GPa) = 36.07086 73.63121 54.85103
# Shear Modulus (GPa) = 32.35534 42.56012 37.45773
#
# Velocity S-wave (km/s) = 3.61842 4.14999 3.89329
# Velocity P-wave (km/s) = 5.66160 7.26353 6.51201
#
# Compressibility (1/GPa) = 0.02772321
#
# Stress axis : x y z
#
# Youngs Moduli (GPa) = 147.70764 35.04201 124.50015
#
# Poissons Ratio (x) = 0.13330 0.34689
# Poissons Ratio (y) = 0.56187 0.15163
# Poissons Ratio (z) = 0.41155 0.04268
#
# Static dielectric constant tensor:
#      x y z
#    x 4.613140 0.003870 -0.004570 
#    y 0.003870 4.603380 0.077980 
#    z -0.004570 0.077980 4.673610 
# 
# 
# High freq. dielectric constant tensor:
#      x y z
#    x 1.994410 0.009700 0.001260 
#    y 0.009700 1.999270 -0.002650 
#    z 0.001260 -0.002650 1.986740 
# 
# From -- ./inp_files/57040.got.cif
#   From: 2010.06.25/outbox.cif.g09.slc.cpg/sg2_29_cif.got.tgz:57040.got - 2010.06.27 13:26:56.
