data_PCOD8005299
_publ_section_title
;
Structure prediction by ZEFSAII (Michael W. Deem and Ramdas Pophale) SiO2 
 PCOD8005299
Probable space group: P -1
;
_chemical_formula_sum "Si O2"
_cell_formula_units_Z 16
_cell_length_a 10.129045
_cell_length_b 11.698033
_cell_length_c 19.367223
_cell_angle_alpha 49.328895
_cell_angle_beta 153.942584
_cell_angle_gamma 120.959078
_cell_volume 746.982771
_symmetry_space_group_name_H-M "P -1"
_symmetry_group_IT_number 2
_symmetry_cell_setting 'triclinic'
loop_
_space_group_symop_operation_xyz
x,y,z
-x,-y,-z
loop_
_atom_site_type_symbol
_atom_site_label
_atom_site_fract_x
_atom_site_fract_y
_atom_site_fract_z
Si Si1 0.052418 0.067141 0.784007
Si Si2 0.352252 0.922843 0.859085
Si Si3 0.487108 0.892734 0.252722
Si Si4 0.288038 0.406136 0.130591
Si Si5 0.214109 0.598717 0.524154
Si Si6 0.709190 0.548917 0.519840
Si Si7 0.571591 0.569642 0.077995
Si Si8 0.147130 0.098279 0.125489
O O1 0.984433 0.246408 0.662795
O O2 0.066366 0.961101 0.763153
O O3 0.370012 0.029969 0.988458
O O4 0.814568 0.015080 0.745340
O O5 0.284253 0.039788 0.716520
O O6 0.430202 0.750544 0.935813
O O7 0.674342 0.732273 0.434541
O O8 0.407719 0.015714 0.228274
O O9 0.181841 0.869582 0.079321
O O10 0.555000 0.351492 0.333060
O O11 0.405015 0.509756 0.087432
O O12 0.206574 0.261675 0.111216
O O13 0.000000 0.500000 0.000000
O O14 0.398281 0.498298 0.587534
O O15 0.000000 0.500000 0.500000
O O16 0.500000 0.500000 0.500000
O O17 0.062392 0.463070 0.728552
O O18 0.500000 0.500000 0.000000
#
# Coordination Sequence:
#
# PCOD8005299 Si02
#       8
#     2   2   2   2   2   2   2   2
#     4  10  20  38  66  94 128 171 220 271 330 396
#     4  10  20  40  66  93 129 172 218 268 335 393
#     4  10  22  40  71  93 130 180 224 270 329 405
#     4  12  26  44  69 100 139 177 224 280 345 396
#     4  12  23  44  71  99 136 175 230 285 332 402
#     4  12  26  44  71 101 133 179 231 273 336 401
#     4  12  27  46  66 101 139 175 224 283 333 402
#     4  10  22  41  64  98 134 173 221 272 335 403
#
# _framework density 21.419502000000001
#
# number of rings (size 3 to 8) (size 9 to 14) (size 15 to 20)
#    0.000    1.000    2.500    3.750    7.000    2.500 
#    2.250    1.250    0.000    0.000    0.000    0.000 
#    0.000    0.000    0.000    0.000    0.000    0.000 
#
# Total GULP energy -198396.426245 kJ/mol
# GULP energy per Si atom -12399.776640 kJ/mol
# Density = 2.137075 g / cm^3
# Si number density = 21.419502 Si / 1000 Ang^3
#
#
#
# Elastic Constant Matrix: (Units=GPa)
#
#
# Indices 1 2 3 4 5 6 
#
# 1 181.6463 60.9827 32.8553 -3.7668 -5.3563 1.5212
# 2 60.9827 129.0004 27.2320 -19.4416 -2.5305 -12.8145
# 3 32.8553 27.2320 51.7156 -13.9721 -4.1630 3.1699
# 4 -3.7668 -19.4416 -13.9721 37.9874 2.1116 -6.4150
# 5 -5.3563 -2.5305 -4.1630 2.1116 26.8187 -7.1857
# 6 1.5212 -12.8145 3.1699 -6.4150 -7.1857 51.7365
#
#
#
# Elastic Compliance Matrix: (Units=1/GPa)
#
#
# Indices 1 2 3 4 5 6 
#
# 1 0.007139 -0.003088 -0.003437 -0.002331 0.000522 -0.000981
# 2 -0.003088 0.010872 -0.002621 0.004874 0.000591 0.003631
# 3 -0.003437 -0.002621 0.025094 0.007279 0.002151 -0.000884
# 4 -0.002331 0.004874 0.007279 0.032081 -0.000118 0.004791
# 5 0.000522 0.000591 0.002151 -0.000118 0.039247 0.005436
# 6 -0.000981 0.003631 -0.000884 0.004791 0.005436 0.021660
#
#
# Mechanical properties :
#
#
# Convention : Reuss Voigt Hill
#
# Bulk Modulus (GPa) = 40.30201 67.16691 53.73446
# Shear Modulus (GPa) = 30.73981 39.39466 35.06724
#
# Velocity S-wave (km/s) = 3.79242 4.29324 4.05058
# Velocity P-wave (km/s) = 6.16709 7.48343 6.85692
#
# Compressibility (1/GPa) = 0.02481266
#
# Stress axis : x y z
#
# Youngs Moduli (GPa) = 140.08065 91.98190 39.84968
#
# Poissons Ratio (x) = 0.28401 0.13697
# Poissons Ratio (y) = 0.43252 0.10446
# Poissons Ratio (z) = 0.48148 0.24111
#
# Static dielectric constant tensor:
#      x y z
#    x 5.309310 -0.148040 -0.506220 
#    y -0.148040 3.805710 -0.054930 
#    z -0.506220 -0.054930 3.862340 
# 
# 
# High freq. dielectric constant tensor:
#      x y z
#    x 1.871260 -0.007520 -0.009140 
#    y -0.007520 1.843890 -0.017990 
#    z -0.009140 -0.017990 1.820300 
# 
# From -- ./inp_files/205080.got.cif
#   From: 2010.06.25/outbox.cif.g09.slc.cpg/sg2_103_cif.got.tgz:205080.got - 2010.06.27 13:26:56.
