data_PCOD8005768
_publ_section_title
;
Structure prediction by ZEFSAII (Michael W. Deem and Ramdas Pophale) SiO2 
 PCOD8005768
Probable space group: P -1
;
_chemical_formula_sum "Si O2"
_cell_formula_units_Z 16
_cell_length_a 9.215167
_cell_length_b 14.044410
_cell_length_c 14.330309
_cell_angle_alpha 29.227796
_cell_angle_beta 61.284105
_cell_angle_gamma 57.442240
_cell_volume 763.015636
_symmetry_space_group_name_H-M "P -1"
_symmetry_group_IT_number 2
_symmetry_cell_setting 'triclinic'
loop_
_space_group_symop_operation_xyz
x,y,z
-x,-y,-z
loop_
_atom_site_type_symbol
_atom_site_label
_atom_site_fract_x
_atom_site_fract_y
_atom_site_fract_z
Si Si1 0.839583 0.170425 0.518946
Si Si2 0.699853 0.477214 0.459163
Si Si3 0.183038 0.533722 0.898477
Si Si4 0.599653 0.904299 0.841971
Si Si5 0.773080 0.852047 0.018138
Si Si6 0.103896 0.834042 0.817920
Si Si7 0.777567 0.044010 0.136575
Si Si8 0.139537 0.787621 0.209922
O O1 0.790201 0.283186 0.535609
O O2 0.834721 0.330530 0.303823
O O3 0.707232 0.041548 0.643026
O O4 0.028832 0.017227 0.610132
O O5 0.500000 0.500000 0.500000
O O6 0.750179 0.675608 0.242704
O O7 0.771034 0.426797 0.585822
O O8 0.223565 0.648781 0.879678
O O9 0.334058 0.327721 0.015412
O O10 0.000000 0.500000 0.000000
O O11 0.402454 0.999850 0.792373
O O12 0.612443 0.914483 0.942267
O O13 0.943275 0.773661 0.967616
O O14 0.784376 0.038236 0.918635
O O15 0.223667 0.891178 0.810620
O O16 0.810535 0.222368 0.906657
O O17 0.933494 0.841977 0.241302
#
# Coordination Sequence:
#
# PCOD8005768 Si02
#       8
#     2   2   2   2   2   2   2   2
#     4  11  22  40  63  95 119 153 209 255 301 361
#     4  12  22  34  64  95 120 153 208 257 300 353
#     4  12  22  40  70  94 113 157 211 262 302 349
#     4  11  22  37  63  93 123 157 202 258 303 355
#     4  10  20  39  62  92 116 158 211 252 297 350
#     4  10  21  43  64  84 124 164 200 252 304 363
#     4  10  22  41  61  85 130 169 196 242 312 370
#     4  10  22  42  62  84 127 171 201 244 304 363
#
# _framework density 20.969427
#
# number of rings (size 3 to 8) (size 9 to 14) (size 15 to 20)
#    0.000    1.250    7.500    1.125    1.750    1.500 
#    0.000    8.750    0.000    0.000    0.000    0.000 
#    0.000    0.000    0.000    0.000    0.000    0.000 
#
# Total GULP energy -198396.473927 kJ/mol
# GULP energy per Si atom -12399.779620 kJ/mol
# Density = 2.092170 g / cm^3
# Si number density = 20.969427 Si / 1000 Ang^3
#
#
#
# Elastic Constant Matrix: (Units=GPa)
#
#
# Indices 1 2 3 4 5 6 
#
# 1 132.8186 13.1039 28.4532 -4.1757 12.5456 -10.0798
# 2 13.1039 43.3144 -2.7941 -6.5727 -3.4660 2.8833
# 3 28.4532 -2.7941 120.2284 0.7303 9.0878 -13.4952
# 4 -4.1757 -6.5727 0.7303 22.9355 7.3854 1.5675
# 5 12.5456 -3.4660 9.0878 7.3854 21.6055 -1.7465
# 6 -10.0798 2.8833 -13.4952 1.5675 -1.7465 24.3959
#
#
#
# Elastic Compliance Matrix: (Units=1/GPa)
#
#
# Indices 1 2 3 4 5 6 
#
# 1 0.008968 -0.003071 -0.001476 0.002451 -0.005700 0.002686
# 2 -0.003071 0.025492 0.000575 0.005959 0.003262 -0.004113
# 3 -0.001476 0.000575 0.009366 0.000174 -0.002702 0.004298
# 4 0.002451 0.005959 0.000174 0.052057 -0.018681 -0.004277
# 5 -0.005700 0.003262 -0.002702 -0.018681 0.057729 0.001098
# 6 0.002686 -0.004113 0.004298 -0.004277 0.001098 0.045318
#
#
# Mechanical properties :
#
#
# Convention : Reuss Voigt Hill
#
# Bulk Modulus (GPa) = 27.87010 41.54305 34.70658
# Shear Modulus (GPa) = 22.84836 30.96061 26.90449
#
# Velocity S-wave (km/s) = 3.30450 3.84665 3.58583
# Velocity P-wave (km/s) = 5.28008 6.29152 5.80786
#
# Compressibility (1/GPa) = 0.03588074
#
# Stress axis : x y z
#
# Youngs Moduli (GPa) = 111.51261 39.22765 106.77030
#
# Poissons Ratio (x) = 0.12047 0.15761
# Poissons Ratio (y) = 0.34247 -0.06137
# Poissons Ratio (z) = 0.16461 -0.02255
#
# Static dielectric constant tensor:
#      x y z
#    x 3.805450 0.228510 0.159080 
#    y 0.228510 4.239200 0.040720 
#    z 0.159080 0.040720 3.856930 
# 
# 
# High freq. dielectric constant tensor:
#      x y z
#    x 1.812450 0.007950 0.010090 
#    y 0.007950 1.814840 0.005840 
#    z 0.010090 0.005840 1.820110 
# 
# From -- ./inp_files/500474.got.cif
#   From: 2010.06.25/outbox.cif.g09.slc.cpg/sg2_251_cif.got.tgz:500474.got - 2010.06.27 13:26:56.
