data_PCOD8005667
_publ_section_title
;
Structure prediction by ZEFSAII (Michael W. Deem and Ramdas Pophale) SiO2 
 PCOD8005667
Probable space group: P -1
;
_chemical_formula_sum "Si O2"
_cell_formula_units_Z 14
_cell_length_a 16.235634
_cell_length_b 12.762626
_cell_length_c 20.983298
_cell_angle_alpha 152.710851
_cell_angle_beta 21.094091
_cell_angle_gamma 153.347205
_cell_volume 660.196903
_symmetry_space_group_name_H-M "P -1"
_symmetry_group_IT_number 2
_symmetry_cell_setting 'triclinic'
loop_
_space_group_symop_operation_xyz
x,y,z
-x,-y,-z
loop_
_atom_site_type_symbol
_atom_site_label
_atom_site_fract_x
_atom_site_fract_y
_atom_site_fract_z
Si Si1 0.325734 0.234146 0.424867
Si Si2 0.318029 0.717192 0.980859
Si Si3 0.710875 0.650687 0.980515
Si Si4 0.583637 0.739441 0.366997
Si Si5 0.135429 0.691410 0.233341
Si Si6 0.232809 0.009907 0.762450
Si Si7 0.195592 0.303826 0.691004
O O1 0.221423 0.155313 0.529486
O O2 0.611151 0.414077 0.309021
O O3 0.158276 0.367044 0.585118
O O4 0.297721 0.984367 0.275025
O O5 0.464299 0.553724 0.759302
O O6 0.220673 0.603805 0.059396
O O7 0.075199 0.689822 0.100188
O O8 0.500000 0.000000 0.000000
O O9 0.630072 0.772272 0.166225
O O10 0.500000 0.500000 0.000000
O O11 0.811377 0.446993 0.820498
O O12 0.934242 0.885010 0.915506
O O13 0.729617 0.882463 0.277273
O O14 0.747895 0.835292 0.364242
O O15 0.334132 0.791477 0.580324
#
# Coordination Sequence:
#
# PCOD8005667 Si02
#       7
#     2   2   2   2   2   2   2
#     4   9  20  37  62  95 122 157 205 260 317 372
#     4  11  23  38  60  92 128 164 202 255 323 378
#     4  11  24  43  69  93 119 169 221 262 310 370
#     4  11  22  44  63  89 131 167 203 261 320 375
#     4  10  20  39  61  89 127 155 205 267 311 368
#     4  10  25  45  65  93 128 168 214 265 313 367
#     4  10  21  36  63  93 120 165 208 249 319 380
#
# _framework density 21.205794999999998
#
# number of rings (size 3 to 8) (size 9 to 14) (size 15 to 20)
#    0.000    1.714    1.429    2.143    2.000    4.571 
#    0.000    1.429    0.000    0.000    0.000    0.000 
#    0.000    0.000    0.000    0.000    0.000    0.000 
#
# Total GULP energy -173527.490230 kJ/mol
# GULP energy per Si atom -12394.820731 kJ/mol
# Density = 2.115753 g / cm^3
# Si number density = 21.205795 Si / 1000 Ang^3
#
#
#
# Elastic Constant Matrix: (Units=GPa)
#
#
# Indices 1 2 3 4 5 6 
#
# 1 146.3892 30.7722 40.2631 3.9092 -14.9685 -0.7378
# 2 30.7722 72.1922 41.1291 -6.1655 -16.7681 11.3821
# 3 40.2631 41.1291 104.5794 11.0449 -6.9076 5.8119
# 4 3.9092 -6.1655 11.0449 28.3829 -0.4823 -6.7332
# 5 -14.9685 -16.7681 -6.9076 -0.4823 28.6758 3.0918
# 6 -0.7378 11.3821 5.8119 -6.7332 3.0918 34.8085
#
#
#
# Elastic Compliance Matrix: (Units=1/GPa)
#
#
# Indices 1 2 3 4 5 6 
#
# 1 0.008096 -0.001711 -0.002280 -0.000363 0.002582 0.000812
# 2 -0.001711 0.023588 -0.008293 0.007367 0.011671 -0.005976
# 3 -0.002280 -0.008293 0.014355 -0.007336 -0.002606 -0.000921
# 4 -0.000363 0.007367 -0.007336 0.041343 0.002335 0.006598
# 5 0.002582 0.011671 -0.002606 0.002335 0.043180 -0.006710
# 6 0.000812 -0.005976 -0.000921 0.006598 -0.006710 0.032726
#
#
# Mechanical properties :
#
#
# Convention : Reuss Voigt Hill
#
# Bulk Modulus (GPa) = 46.57523 60.83217 53.70370
# Shear Modulus (GPa) = 25.63924 32.43988 29.03956
#
# Velocity S-wave (km/s) = 3.48094 3.91546 3.70458
# Velocity P-wave (km/s) = 6.17795 7.01356 6.60897
#
# Compressibility (1/GPa) = 0.02147064
#
# Stress axis : x y z
#
# Youngs Moduli (GPa) = 123.52136 42.39420 69.66000
#
# Poissons Ratio (x) = 0.07254 0.15884
# Poissons Ratio (y) = 0.21134 0.57770
# Poissons Ratio (z) = 0.28166 0.35158
#
# Static dielectric constant tensor:
#      x y z
#    x 4.115840 0.054010 0.157900 
#    y 0.054010 3.536760 0.064340 
#    z 0.157900 0.064340 3.913140 
# 
# 
# High freq. dielectric constant tensor:
#      x y z
#    x 1.846730 -0.004330 0.011600 
#    y -0.004330 1.816090 0.004050 
#    z 0.011600 0.004050 1.833170 
# 
# From -- ./inp_files/285845.got.cif
#   From: 2010.06.25/outbox.cif.g09.slc.cpg/sg2_143_cif.got.tgz:285845.got - 2010.06.27 13:26:56.
