data_PCOD8005144
_publ_section_title
;
Structure prediction by ZEFSAII (Michael W. Deem and Ramdas Pophale) SiO2 
 PCOD8005144
Probable space group: P -1
;
_chemical_formula_sum "Si O2"
_cell_formula_units_Z 14
_cell_length_a 23.114821
_cell_length_b 8.128732
_cell_length_c 9.455922
_cell_angle_alpha 124.992236
_cell_angle_beta 38.513238
_cell_angle_gamma 144.423339
_cell_volume 633.876642
_symmetry_space_group_name_H-M "P -1"
_symmetry_group_IT_number 2
_symmetry_cell_setting 'triclinic'
loop_
_space_group_symop_operation_xyz
x,y,z
-x,-y,-z
loop_
_atom_site_type_symbol
_atom_site_label
_atom_site_fract_x
_atom_site_fract_y
_atom_site_fract_z
Si Si1 0.964292 0.303393 0.656943
Si Si2 0.102463 0.871984 0.821796
Si Si3 0.834379 0.456799 0.829258
Si Si4 0.260455 0.132003 0.929037
Si Si5 0.158243 0.319776 0.778836
Si Si6 0.575930 0.218305 0.089483
Si Si7 0.602441 0.064970 0.444382
O O1 0.060024 0.585603 0.712603
O O2 0.058243 0.309591 0.381643
O O3 0.869464 0.288127 0.729166
O O4 0.867293 0.023410 0.803733
O O5 0.215570 0.034803 0.804350
O O6 0.153859 0.070367 0.679122
O O7 0.973723 0.789139 0.090969
O O8 0.836167 0.611583 0.032071
O O9 0.687114 0.233286 0.935675
O O10 0.332828 0.038374 0.793119
O O11 0.359636 0.470474 0.924363
O O12 0.282918 0.589925 0.583706
O O13 0.467086 0.094489 0.355407
O O14 0.500000 0.000000 0.000000
O O15 0.500000 0.000000 0.500000
#
# Coordination Sequence:
#
# PCOD8005144 Si02
#       7
#     2   2   2   2   2   2   2
#     4  10  22  38  70  96 128 164 205 272 332 381
#     4  10  20  38  65 102 125 157 214 275 318 388
#     4  10  20  45  60  90 138 163 211 265 323 381
#     4  12  23  43  67  95 127 170 218 271 324 376
#     4  10  20  40  67  94 128 168 214 260 327 384
#     4  12  28  45  61  95 135 173 221 266 315 381
#     4  12  23  46  69  89 131 182 217 260 310 393
#
# _framework density 22.086317000000001
#
# number of rings (size 3 to 8) (size 9 to 14) (size 15 to 20)
#    0.000    1.143    5.714    0.857    2.000    0.571 
#   10.286    1.429    0.000    0.000    0.000    0.000 
#    0.000    0.000    0.000    0.000    0.000    0.000 
#
# Total GULP energy -173570.954606 kJ/mol
# GULP energy per Si atom -12397.925329 kJ/mol
# Density = 2.203605 g / cm^3
# Si number density = 22.086317 Si / 1000 Ang^3
#
#
#
# Elastic Constant Matrix: (Units=GPa)
#
#
# Indices 1 2 3 4 5 6 
#
# 1 78.8606 32.0631 8.1593 1.7365 -13.5519 14.0015
# 2 32.0631 135.1503 34.4082 -28.6068 8.9970 -4.7901
# 3 8.1593 34.4082 106.5251 -24.4334 16.5501 -3.6738
# 4 1.7365 -28.6068 -24.4334 36.1606 -1.4178 12.8571
# 5 -13.5519 8.9970 16.5501 -1.4178 32.9134 -11.8023
# 6 14.0015 -4.7901 -3.6738 12.8571 -11.8023 36.8599
#
#
#
# Elastic Compliance Matrix: (Units=1/GPa)
#
#
# Indices 1 2 3 4 5 6 
#
# 1 0.017089 -0.005224 -0.002162 -0.005029 0.008264 -0.002986
# 2 -0.005224 0.010905 -0.000329 0.008946 -0.005075 -0.001376
# 3 -0.002162 -0.000329 0.013065 0.009769 -0.008388 -0.004013
# 4 -0.005029 0.008946 0.009769 0.046956 -0.013362 -0.016610
# 5 0.008264 -0.005075 -0.008388 -0.013362 0.043860 0.014070
# 6 -0.002986 -0.001376 -0.004013 -0.016610 0.014070 0.037984
#
#
# Mechanical properties :
#
#
# Convention : Reuss Voigt Hill
#
# Bulk Modulus (GPa) = 39.01986 52.19969 45.60978
# Shear Modulus (GPa) = 25.79548 37.58048 31.68798
#
# Velocity S-wave (km/s) = 3.42122 4.12943 3.79190
# Velocity P-wave (km/s) = 5.77163 6.81337 6.31402
#
# Compressibility (1/GPa) = 0.02562798
#
# Stress axis : x y z
#
# Youngs Moduli (GPa) = 58.51577 91.70121 76.54122
#
# Poissons Ratio (x) = 0.47908 0.16547
# Poissons Ratio (y) = 0.30570 0.02522
# Poissons Ratio (z) = 0.12650 0.03021
#
# Static dielectric constant tensor:
#      x y z
#    x 4.045670 0.000340 -0.095380 
#    y 0.000340 3.942190 -0.144490 
#    z -0.095380 -0.144490 3.480680 
# 
# 
# High freq. dielectric constant tensor:
#      x y z
#    x 1.872060 -0.002420 -0.001860 
#    y -0.002420 1.862250 -0.020700 
#    z -0.001860 -0.020700 1.858700 
# 
# From -- ./inp_files/341984.got.cif
#   From: 2010.06.25/outbox.cif.g09.slc.cpg/sg2_171_cif.got.tgz:341984.got - 2010.06.27 13:26:56.
