data_PCOD8005057
_publ_section_title
;
Structure prediction by ZEFSAII (Michael W. Deem and Ramdas Pophale) SiO2 
 PCOD8005057
Probable space group: P -1
;
_chemical_formula_sum "Si O2"
_cell_formula_units_Z 16
_cell_length_a 9.844687
_cell_length_b 11.622994
_cell_length_c 15.082961
_cell_angle_alpha 148.363062
_cell_angle_beta 97.785739
_cell_angle_gamma 68.731536
_cell_volume 788.778406
_symmetry_space_group_name_H-M "P -1"
_symmetry_group_IT_number 2
_symmetry_cell_setting 'triclinic'
loop_
_space_group_symop_operation_xyz
x,y,z
-x,-y,-z
loop_
_atom_site_type_symbol
_atom_site_label
_atom_site_fract_x
_atom_site_fract_y
_atom_site_fract_z
Si Si1 0.751568 0.238922 0.593051
Si Si2 0.868923 0.637627 0.506740
Si Si3 0.593734 0.103683 0.831411
Si Si4 0.215390 0.630304 0.984159
Si Si5 0.832744 0.236336 0.128928
Si Si6 0.492042 0.788479 0.918697
Si Si7 0.077119 0.986406 0.359888
Si Si8 0.413234 0.070422 0.631680
O O1 0.646903 0.526965 0.744967
O O2 0.795876 0.175329 0.659362
O O3 0.642946 0.125926 0.478191
O O4 0.905165 0.115536 0.467406
O O5 0.813206 0.452660 0.336872
O O6 0.000000 0.500000 0.500000
O O7 0.743986 0.843040 0.695767
O O8 0.901245 0.785509 0.527037
O O9 0.536522 0.048034 0.699262
O O10 0.632931 0.329778 0.967293
O O11 0.482512 0.163095 0.944713
O O12 0.144269 0.701741 0.928057
O O13 0.264746 0.341165 0.805892
O O14 0.091828 0.793423 0.156363
O O15 0.676841 0.203201 0.104445
O O16 0.000000 0.000000 0.000000
O O17 0.500000 0.000000 0.000000
O O18 0.500000 0.000000 0.500000
#
# Coordination Sequence:
#
# PCOD8005057 Si02
#       8
#     2   2   2   2   2   2   2   2
#     4  11  24  41  64  93 136 169 221 266 339 393
#     4  11  22  40  68  92 127 169 223 268 318 394
#     4  10  21  38  60  92 120 166 214 265 330 381
#     4  10  20  38  64  90 127 163 218 265 325 386
#     4  11  23  41  65  98 123 170 228 267 322 394
#     4  11  25  45  64  95 134 178 215 280 332 387
#     4  10  23  42  64  95 130 180 209 275 331 389
#     4  12  21  37  64  95 125 166 216 275 325 396
#
# _framework density 20.28453
#
# number of rings (size 3 to 8) (size 9 to 14) (size 15 to 20)
#    0.000    1.250    0.000    8.625    3.500    0.500 
#    4.500    1.250    0.000    0.000    0.000    0.000 
#    0.000    0.000    0.000    0.000    0.000    0.000 
#
# Total GULP energy -198243.678433 kJ/mol
# GULP energy per Si atom -12390.229902 kJ/mol
# Density = 2.023836 g / cm^3
# Si number density = 20.284530 Si / 1000 Ang^3
#
#
#
# Elastic Constant Matrix: (Units=GPa)
#
#
# Indices 1 2 3 4 5 6 
#
# 1 72.6628 43.6567 38.1321 1.8545 -8.6224 0.6241
# 2 43.6567 116.8725 44.9305 7.6995 -0.3315 -1.4925
# 3 38.1321 44.9305 120.5745 0.1732 -4.5062 12.4595
# 4 1.8545 7.6995 0.1732 46.7121 -5.2350 0.2462
# 5 -8.6224 -0.3315 -4.5062 -5.2350 35.0906 -0.6361
# 6 0.6241 -1.4925 12.4595 0.2462 -0.6361 33.3971
#
#
#
# Elastic Compliance Matrix: (Units=1/GPa)
#
#
# Indices 1 2 3 4 5 6 
#
# 1 0.019935 -0.005917 -0.004032 0.000692 0.004445 0.000947
# 2 -0.005917 0.012007 -0.002848 -0.001963 -0.001969 0.001687
# 3 -0.004032 -0.002848 0.011077 0.000658 0.000427 -0.004181
# 4 0.000692 -0.001963 0.000658 0.022099 0.003525 -0.000442
# 5 0.004445 -0.001969 0.000427 0.003525 0.030156 0.000218
# 6 0.000947 0.001687 -0.004181 -0.000442 0.000218 0.031568
#
#
# Mechanical properties :
#
#
# Convention : Reuss Voigt Hill
#
# Bulk Modulus (GPa) = 57.39133 62.61649 60.00391
# Shear Modulus (GPa) = 31.59670 35.26600 33.43135
#
# Velocity S-wave (km/s) = 3.95102 4.17414 4.06411
# Velocity P-wave (km/s) = 7.01204 7.35984 7.18804
#
# Compressibility (1/GPa) = 0.01742423
#
# Stress axis : x y z
#
# Youngs Moduli (GPa) = 50.16275 83.28618 90.27600
#
# Poissons Ratio (x) = 0.49283 0.36402
# Poissons Ratio (y) = 0.29683 0.25709
# Poissons Ratio (z) = 0.20227 0.23719
#
# Static dielectric constant tensor:
#      x y z
#    x 3.700670 -0.093110 0.050950 
#    y -0.093110 3.846410 -0.026360 
#    z 0.050950 -0.026360 4.038410 
# 
# 
# High freq. dielectric constant tensor:
#      x y z
#    x 1.777060 -0.010460 -0.006820 
#    y -0.010460 1.802600 0.001290 
#    z -0.006820 0.001290 1.817830 
# 
# From -- ./inp_files/501228.got.cif
#   From: 2010.06.25/outbox.cif.g09.slc.cpg/sg2_251_cif.got.tgz:501228.got - 2010.06.27 13:26:56.
