data_PCOD8005550
_publ_section_title
;
Structure prediction by ZEFSAII (Michael W. Deem and Ramdas Pophale) SiO2 
 PCOD8005550
Probable space group: P -1
;
_chemical_formula_sum "Si O2"
_cell_formula_units_Z 16
_cell_length_a 17.936978
_cell_length_b 8.041911
_cell_length_c 11.357535
_cell_angle_alpha 113.439717
_cell_angle_beta 31.602677
_cell_angle_gamma 123.386148
_cell_volume 707.368558
_symmetry_space_group_name_H-M "P -1"
_symmetry_group_IT_number 2
_symmetry_cell_setting 'triclinic'
loop_
_space_group_symop_operation_xyz
x,y,z
-x,-y,-z
loop_
_atom_site_type_symbol
_atom_site_label
_atom_site_fract_x
_atom_site_fract_y
_atom_site_fract_z
Si Si1 0.202636 0.493334 0.613350
Si Si2 0.861520 0.796488 0.082217
Si Si3 0.687386 0.596342 0.776247
Si Si4 0.636937 0.761526 0.563443
Si Si5 0.699232 0.268250 0.995845
Si Si6 0.221505 0.986282 0.346989
Si Si7 0.124775 0.321241 0.219939
Si Si8 0.851952 0.373842 0.050375
O O1 0.258326 0.549897 0.417584
O O2 0.312124 0.391535 0.482334
O O3 0.226691 0.673469 0.724931
O O4 0.013385 0.347171 0.827022
O O5 0.700689 0.789961 0.352236
O O6 0.889455 0.605830 0.033695
O O7 0.848089 0.802946 0.960305
O O8 0.000000 0.000000 0.000000
O O9 0.740798 0.618254 0.844795
O O10 0.774842 0.815564 0.661291
O O11 0.500000 0.500000 0.000000
O O12 0.448384 0.677119 0.789786
O O13 0.712535 0.970511 0.595964
O O14 0.733255 0.220724 0.070667
O O15 0.667393 0.081198 0.900883
O O16 0.855686 0.464698 0.797358
O O17 0.045561 0.807077 0.530545
#
# Coordination Sequence:
#
# PCOD8005550 Si02
#       8
#     2   2   2   2   2   2   2   2
#     4   9  19  39  60  87 117 157 207 241 311 361
#     4  10  20  39  59  92 121 156 212 250 309 364
#     4  11  24  41  61  90 127 169 205 256 312 370
#     4  10  21  38  65  87 124 165 198 261 309 365
#     4  11  23  39  62  99 125 157 210 258 318 361
#     4  11  22  40  61  89 128 164 209 252 307 373
#     4  11  22  38  66  90 123 168 205 258 309 373
#     4   9  20  37  64  89 117 160 201 261 300 370
#
# _framework density 22.619043999999999
#
# number of rings (size 3 to 8) (size 9 to 14) (size 15 to 20)
#    0.000    1.750    1.250    3.375    0.000    7.500 
#    4.500    0.000    0.000    1.500    0.000    0.000 
#    0.000    0.000    0.000    0.000    0.000    0.000 
#
# Total GULP energy -198236.477160 kJ/mol
# GULP energy per Si atom -12389.779822 kJ/mol
# Density = 2.256756 g / cm^3
# Si number density = 22.619044 Si / 1000 Ang^3
#
#
#
# Elastic Constant Matrix: (Units=GPa)
#
#
# Indices 1 2 3 4 5 6 
#
# 1 124.0571 11.5570 48.7810 16.8813 15.8362 41.5374
# 2 11.5570 36.9802 15.1654 5.1647 16.9332 17.3061
# 3 48.7810 15.1654 120.2542 19.6989 15.4289 20.6707
# 4 16.8813 5.1647 19.6989 37.3663 12.3216 10.4861
# 5 15.8362 16.9332 15.4289 12.3216 43.7730 9.1488
# 6 41.5374 17.3061 20.6707 10.4861 9.1488 36.1384
#
#
#
# Elastic Compliance Matrix: (Units=1/GPa)
#
#
# Indices 1 2 3 4 5 6 
#
# 1 0.015165 0.006381 -0.003538 0.000106 -0.003033 -0.017726
# 2 0.006381 0.043414 -0.002752 0.004026 -0.014225 -0.024117
# 3 -0.003538 -0.002752 0.010676 -0.003613 -0.000496 0.000452
# 4 0.000106 0.004026 -0.003613 0.032795 -0.007992 -0.007477
# 5 -0.003033 -0.014225 -0.000496 -0.007992 0.030803 0.005103
# 6 -0.017726 -0.024117 0.000452 -0.007477 0.005103 0.060214
#
#
# Mechanical properties :
#
#
# Convention : Reuss Voigt Hill
#
# Bulk Modulus (GPa) = 14.40164 48.03313 31.21739
# Shear Modulus (GPa) = 23.14473 37.17476 30.15975
#
# Velocity S-wave (km/s) = 3.20228 4.05843 3.65551
# Velocity P-wave (km/s) = 4.47814 6.57594 5.62568
#
# Compressibility (1/GPa) = 0.06943654
#
# Stress axis : x y z
#
# Youngs Moduli (GPa) = 65.93988 23.03407 93.67112
#
# Poissons Ratio (x) = -0.14698 0.33139
# Poissons Ratio (y) = -0.42075 0.25780
# Poissons Ratio (z) = 0.23328 0.06340
#
# Static dielectric constant tensor:
#      x y z
#    x 4.442030 0.478530 0.586380 
#    y 0.478530 3.932390 0.434260 
#    z 0.586380 0.434260 4.404350 
# 
# 
# High freq. dielectric constant tensor:
#      x y z
#    x 1.896210 0.033460 0.016680 
#    y 0.033460 1.860520 0.022490 
#    z 0.016680 0.022490 1.899970 
# 
# From -- ./inp_files/419204.got.cif
#   From: 2010.06.25/outbox.cif.g09.slc.cpg/sg2_210_cif.got.tgz:419204.got - 2010.06.27 13:26:56.
