data_PCOD8005797
_publ_section_title
;
Structure prediction by ZEFSAII (Michael W. Deem and Ramdas Pophale) SiO2 
 PCOD8005797
Probable space group: P -1
;
_chemical_formula_sum "Si O2"
_cell_formula_units_Z 16
_cell_length_a 16.851662
_cell_length_b 8.979941
_cell_length_c 11.666245
_cell_angle_alpha 52.863343
_cell_angle_beta 41.145020
_cell_angle_gamma 82.653141
_cell_volume 724.390775
_symmetry_space_group_name_H-M "P -1"
_symmetry_group_IT_number 2
_symmetry_cell_setting 'triclinic'
loop_
_space_group_symop_operation_xyz
x,y,z
-x,-y,-z
loop_
_atom_site_type_symbol
_atom_site_label
_atom_site_fract_x
_atom_site_fract_y
_atom_site_fract_z
Si Si1 0.103171 0.940018 0.523092
Si Si2 0.957661 0.706656 0.562792
Si Si3 0.821131 0.897040 0.249176
Si Si4 0.414578 0.930322 0.957445
Si Si5 0.325253 0.608134 0.407085
Si Si6 0.822442 0.191877 0.914833
Si Si7 0.305563 0.981435 0.471211
Si Si8 0.130706 0.478695 0.887189
O O1 0.091533 0.856699 0.443704
O O2 0.235980 0.945629 0.435172
O O3 0.142240 0.198538 0.369165
O O4 0.932784 0.747037 0.857318
O O5 0.027477 0.742121 0.344210
O O6 0.850919 0.422754 0.834146
O O7 0.684782 0.611802 0.526163
O O8 0.778875 0.946847 0.394179
O O9 0.782024 0.010040 0.142895
O O10 0.000000 0.000000 0.000000
O O11 0.304728 0.729384 0.265965
O O12 0.316664 0.937217 0.963971
O O13 0.511013 0.851727 0.828285
O O14 0.521936 0.190902 0.780678
O O15 0.176306 0.451870 0.724463
O O16 0.269758 0.735612 0.670786
O O17 0.000000 0.500000 0.000000
#
# Coordination Sequence:
#
# PCOD8005797 Si02
#       8
#     2   2   2   2   2   2   2   2
#     4  10  20  39  62  97 123 166 215 268 321 372
#     4  10  23  38  62  92 133 163 213 270 326 372
#     4  12  25  42  69  99 128 164 218 272 323 373
#     4  10  25  43  64  92 131 178 214 250 322 393
#     4  10  23  41  65  93 128 173 217 256 310 397
#     4  11  25  41  63  94 130 170 207 274 321 375
#     4  10  22  39  65  93 128 170 214 258 316 390
#     4   9  17  33  61  89 121 158 212 258 310 362
#
# _framework density 22.087524999999999
#
# number of rings (size 3 to 8) (size 9 to 14) (size 15 to 20)
#    0.000    1.750    0.000    3.750   12.250    1.500 
#    0.000    0.000    0.000    0.000    0.000    0.000 
#    0.000    0.000    0.000    0.000    0.000    0.000 
#
# Total GULP energy -198208.791493 kJ/mol
# GULP energy per Si atom -12388.049468 kJ/mol
# Density = 2.203725 g / cm^3
# Si number density = 22.087525 Si / 1000 Ang^3
#
#
#
# Elastic Constant Matrix: (Units=GPa)
#
#
# Indices 1 2 3 4 5 6 
#
# 1 91.3271 17.6813 9.6065 -20.2000 4.9913 0.0495
# 2 17.6813 102.2317 25.6375 -18.6394 5.1506 10.6182
# 3 9.6065 25.6375 61.2332 -14.9477 13.7726 -1.2455
# 4 -20.2000 -18.6394 -14.9477 42.9070 -3.5347 5.4505
# 5 4.9913 5.1506 13.7726 -3.5347 29.8439 0.4924
# 6 0.0495 10.6182 -1.2455 5.4505 0.4924 23.7964
#
#
#
# Elastic Compliance Matrix: (Units=1/GPa)
#
#
# Indices 1 2 3 4 5 6 
#
# 1 0.012409 -0.001034 0.000080 0.005413 -0.001280 -0.000773
# 2 -0.001034 0.012509 -0.004287 0.004371 0.000623 -0.006818
# 3 0.000080 -0.004287 0.021199 0.004583 -0.008549 0.002149
# 4 0.005413 0.004371 0.004583 0.030453 -0.000025 -0.008697
# 5 -0.001280 0.000623 -0.008549 -0.000025 0.037581 -0.001495
# 6 -0.000773 -0.006818 0.002149 -0.008697 -0.001495 0.047203
#
#
# Mechanical properties :
#
#
# Convention : Reuss Voigt Hill
#
# Bulk Modulus (GPa) = 28.06268 40.07139 34.06704
# Shear Modulus (GPa) = 27.21601 32.76723 29.99162
#
# Velocity S-wave (km/s) = 3.51406 3.85582 3.68890
# Velocity P-wave (km/s) = 5.40349 6.16479 5.79665
#
# Compressibility (1/GPa) = 0.03563451
#
# Stress axis : x y z
#
# Youngs Moduli (GPa) = 80.58516 79.93943 47.17265
#
# Poissons Ratio (x) = 0.08269 -0.00377
# Poissons Ratio (y) = 0.08336 0.20223
# Poissons Ratio (z) = -0.00644 0.34269
#
# Static dielectric constant tensor:
#      x y z
#    x 3.688100 0.056840 0.482750 
#    y 0.056840 4.116420 -0.172650 
#    z 0.482750 -0.172650 5.369780 
# 
# 
# High freq. dielectric constant tensor:
#      x y z
#    x 1.846870 0.009600 0.018380 
#    y 0.009600 1.882720 -0.002480 
#    z 0.018380 -0.002480 1.862040 
# 
# From -- ./inp_files/461900.got.cif
#   From: 2010.06.25/outbox.cif.g09.slc.cpg/sg2_231_cif.got.tgz:461900.got - 2010.06.27 13:26:56.
