data_PCOD8005107
_publ_section_title
;
Structure prediction by ZEFSAII (Michael W. Deem and Ramdas Pophale) SiO2 
 PCOD8005107
Probable space group: P -1
;
_chemical_formula_sum "Si O2"
_cell_formula_units_Z 16
_cell_length_a 17.084986
_cell_length_b 17.018933
_cell_length_c 17.937595
_cell_angle_alpha 163.889987
_cell_angle_beta 149.341238
_cell_angle_gamma 30.952207
_cell_volume 719.878582
_symmetry_space_group_name_H-M "P -1"
_symmetry_group_IT_number 2
_symmetry_cell_setting 'triclinic'
loop_
_space_group_symop_operation_xyz
x,y,z
-x,-y,-z
loop_
_atom_site_type_symbol
_atom_site_label
_atom_site_fract_x
_atom_site_fract_y
_atom_site_fract_z
Si Si1 0.301351 0.670924 0.705317
Si Si2 0.606513 0.185466 0.797634
Si Si3 0.094872 0.787688 0.030185
Si Si4 0.220441 0.367942 0.120249
Si Si5 0.384563 0.716875 0.660244
Si Si6 0.071286 0.854014 0.348515
Si Si7 0.737513 0.938630 0.836537
Si Si8 0.947507 0.825683 0.516282
O O1 0.426819 0.655390 0.725963
O O2 0.301943 0.373876 0.476134
O O3 0.134298 0.800908 0.648279
O O4 0.342481 0.884661 0.996170
O O5 0.500000 0.000000 0.500000
O O6 0.652996 0.078789 0.821450
O O7 0.500000 0.500000 0.000000
O O8 0.771077 0.182744 0.890617
O O9 0.105469 0.461140 0.765146
O O10 0.925217 0.925955 0.979413
O O11 0.130955 0.943748 0.276537
O O12 0.233031 0.576902 0.392145
O O13 0.212875 0.578029 0.232780
O O14 0.059428 0.274423 0.919347
O O15 0.357570 0.071303 0.946512
O O16 0.500000 0.500000 0.500000
O O17 0.123592 0.071771 0.530769
O O18 0.000000 0.000000 0.500000
#
# Coordination Sequence:
#
# PCOD8005107 Si02
#       8
#     2   2   2   2   2   2   2   2
#     4  10  20  38  64  95 121 165 221 268 324 362
#     4  12  25  45  71  95 136 173 203 254 339 409
#     4  10  23  41  66 101 125 166 219 270 320 385
#     4  11  23  37  60  91 123 169 226 262 334 376
#     4  12  24  41  61  89 133 178 225 272 318 391
#     4  11  22  37  66  93 130 167 216 276 332 386
#     4  10  22  41  70  97 125 164 220 275 311 393
#     4  10  21  36  65  94 128 158 215 281 317 368
#
# _framework density 22.22597
#
# number of rings (size 3 to 8) (size 9 to 14) (size 15 to 20)
#    0.000    1.250    2.500    3.000    7.000    0.000 
#    0.000   10.000    2.750    0.000    0.000    0.000 
#    0.000    0.000    0.000    0.000    0.000    0.000 
#
# Total GULP energy -198252.243395 kJ/mol
# GULP energy per Si atom -12390.765212 kJ/mol
# Density = 2.217538 g / cm^3
# Si number density = 22.225970 Si / 1000 Ang^3
#
#
#
# Elastic Constant Matrix: (Units=GPa)
#
#
# Indices 1 2 3 4 5 6 
#
# 1 107.0262 56.9236 32.2610 -7.4392 -21.4112 14.5317
# 2 56.9236 193.3193 -39.5148 84.0548 -18.2544 68.4097
# 3 32.2610 -39.5148 249.3184 -80.1294 -13.0831 -38.8072
# 4 -7.4392 84.0548 -80.1294 108.5249 -12.0750 42.8385
# 5 -21.4112 -18.2544 -13.0831 -12.0750 29.4443 -1.7778
# 6 14.5317 68.4097 -38.8072 42.8385 -1.7778 59.4344
#
#
#
# Elastic Compliance Matrix: (Units=1/GPa)
#
#
# Indices 1 2 3 4 5 6 
#
# 1 0.015698 -0.006357 -0.000332 0.007683 0.010359 -0.001966
# 2 -0.006357 0.013428 -0.001108 -0.008320 -0.000724 -0.008650
# 3 -0.000332 -0.001108 0.005950 0.004952 0.003855 0.001787
# 4 0.007683 -0.008320 0.004952 0.023351 0.011870 -0.005544
# 5 0.010359 -0.000724 0.003855 0.011870 0.047245 -0.006325
# 6 -0.001966 -0.008650 0.001787 -0.005544 -0.006325 0.032236
#
#
# Mechanical properties :
#
#
# Convention : Reuss Voigt Hill
#
# Bulk Modulus (GPa) = 51.32496 72.11149 61.71823
# Shear Modulus (GPa) = 31.25089 72.81366 52.03228
#
# Velocity S-wave (km/s) = 3.75381 5.72990 4.84370
# Velocity P-wave (km/s) = 6.47538 8.73446 7.68835
#
# Compressibility (1/GPa) = 0.01948370
#
# Stress axis : x y z
#
# Youngs Moduli (GPa) = 63.70297 74.46884 168.05840
#
# Poissons Ratio (x) = 0.47340 0.05577
# Poissons Ratio (y) = 0.40496 0.18614
# Poissons Ratio (z) = 0.02114 0.08248
#
# Static dielectric constant tensor:
#      x y z
#    x 3.867730 0.015960 0.050230 
#    y 0.015960 4.371360 -0.269590 
#    z 0.050230 -0.269590 5.145570 
# 
# 
# High freq. dielectric constant tensor:
#      x y z
#    x 1.863390 0.012560 -0.007170 
#    y 0.012560 1.871190 0.011500 
#    z -0.007170 0.011500 1.900590 
# 
# From -- ./inp_files/533987.got.cif
#   From: 2010.06.25/outbox.cif.g09.slc.cpg/sg2_267_cif.got.tgz:533987.got - 2010.06.27 13:26:56.
