data_PCOD8005951
_publ_section_title
;
Structure prediction by ZEFSAII (Michael W. Deem and Ramdas Pophale) SiO2 
 PCOD8005951
Probable space group: P -1
;
_chemical_formula_sum "Si O2"
_cell_formula_units_Z 16
_cell_length_a 14.086896
_cell_length_b 11.033541
_cell_length_c 13.885292
_cell_angle_alpha 33.746681
_cell_angle_beta 56.330147
_cell_angle_gamma 52.319342
_cell_volume 943.612941
_symmetry_space_group_name_H-M "P -1"
_symmetry_group_IT_number 2
_symmetry_cell_setting 'triclinic'
loop_
_space_group_symop_operation_xyz
x,y,z
-x,-y,-z
loop_
_atom_site_type_symbol
_atom_site_label
_atom_site_fract_x
_atom_site_fract_y
_atom_site_fract_z
Si Si1 0.617304 0.339135 0.253609
Si Si2 0.326610 0.050401 0.384045
Si Si3 0.507716 0.087658 0.790863
Si Si4 0.623238 0.287087 0.887774
Si Si5 0.640516 0.459128 0.955759
Si Si6 0.286713 0.439891 0.772766
Si Si7 0.141233 0.918952 0.460910
Si Si8 0.263674 0.002695 0.150305
O O1 0.472873 0.462655 0.247826
O O2 0.676903 0.468235 0.209410
O O3 0.643422 0.074749 0.446715
O O4 0.683605 0.334711 0.116035
O O5 0.328172 0.306864 0.221534
O O6 0.195333 0.057660 0.415228
O O7 0.423958 0.888422 0.361307
O O8 0.403984 0.326832 0.714484
O O9 0.603604 0.023744 0.865891
O O10 0.453985 0.882658 0.940093
O O11 0.697486 0.303203 0.933126
O O12 0.720366 0.195526 0.808523
O O13 0.500000 0.500000 0.000000
O O14 0.195675 0.644629 0.627553
O O15 0.219154 0.254627 0.958670
O O16 0.168697 0.979859 0.296685
O O17 0.000000 0.000000 0.500000
#
# Coordination Sequence:
#
# PCOD8005951 Si02
#       8
#     2   2   2   2   2   2   2   2
#     4  10  17  28  46  69 103 138 159 188 244 297
#     4  10  20  31  51  73 102 137 164 196 254 297
#     4  10  16  30  49  79 105 127 159 199 254 319
#     4  10  17  29  48  72 108 132 159 194 243 308
#     4  10  19  32  43  72 111 136 160 198 233 302
#     4  10  18  31  53  76 101 130 161 203 261 304
#     4  10  23  36  51  76  99 128 177 213 243 294
#     4  10  18  32  53  73 103 133 160 203 258 296
#
# _framework density 16.956105000000001
#
# number of rings (size 3 to 8) (size 9 to 14) (size 15 to 20)
#    0.000    2.000    5.000    1.500    1.750    4.000 
#    0.000    0.000    0.000    0.750    0.000    7.000 
#    0.000    0.000    0.000    0.000    0.000    0.000 
#
# Total GULP energy -198352.379016 kJ/mol
# GULP energy per Si atom -12397.023689 kJ/mol
# Density = 1.691751 g / cm^3
# Si number density = 16.956105 Si / 1000 Ang^3
#
#
#
# Elastic Constant Matrix: (Units=GPa)
#
#
# Indices 1 2 3 4 5 6 
#
# 1 68.6999 50.7705 43.2772 4.6584 -4.0857 8.7916
# 2 50.7705 80.6985 45.5904 10.0115 -4.3080 5.3445
# 3 43.2772 45.5904 119.8919 7.1227 0.3834 4.9219
# 4 4.6584 10.0115 7.1227 20.2256 2.6322 3.0317
# 5 -4.0857 -4.3080 0.3834 2.6322 15.6195 4.3467
# 6 8.7916 5.3445 4.9219 3.0317 4.3467 33.9623
#
#
#
# Elastic Compliance Matrix: (Units=1/GPa)
#
#
# Indices 1 2 3 4 5 6 
#
# 1 0.030199 -0.016064 -0.004755 0.002887 0.004615 -0.005449
# 2 -0.016064 0.025702 -0.003521 -0.008451 0.004162 0.000846
# 3 -0.004755 -0.003521 0.011439 -0.000946 -0.002484 0.000530
# 4 0.002887 -0.008451 -0.000946 0.055034 -0.010017 -0.002911
# 5 0.004615 0.004162 -0.002484 -0.010017 0.070815 -0.009659
# 6 -0.005449 0.000846 0.000530 -0.002911 -0.009659 0.032141
#
#
# Mechanical properties :
#
#
# Convention : Reuss Voigt Hill
#
# Bulk Modulus (GPa) = 53.59063 60.95182 57.27123
# Shear Modulus (GPa) = 17.84260 22.60497 20.22378
#
# Velocity S-wave (km/s) = 3.24741 3.65519 3.45732
# Velocity P-wave (km/s) = 6.76277 7.33749 7.05598
#
# Compressibility (1/GPa) = 0.01865998
#
# Stress axis : x y z
#
# Youngs Moduli (GPa) = 33.11375 38.90758 87.42390
#
# Poissons Ratio (x) = 0.62501 0.41569
# Poissons Ratio (y) = 0.53193 0.30781
# Poissons Ratio (z) = 0.15745 0.13699
#
# Static dielectric constant tensor:
#      x y z
#    x 3.193000 0.505980 0.152350 
#    y 0.505980 3.214900 0.119810 
#    z 0.152350 0.119810 3.335730 
# 
# 
# High freq. dielectric constant tensor:
#      x y z
#    x 1.621890 0.033850 0.002920 
#    y 0.033850 1.628460 0.007120 
#    z 0.002920 0.007120 1.666290 
# 
# From -- ./inp_files/255922.got.cif
#   From: 2010.06.25/outbox.cif.g09.slc.cpg/sg2_128_cif.got.tgz:255922.got - 2010.06.27 13:26:56.
