data_PCOD8005624
_publ_section_title
;
Structure prediction by ZEFSAII (Michael W. Deem and Ramdas Pophale) SiO2 
 PCOD8005624
Probable space group: P -1
;
_chemical_formula_sum "Si O2"
_cell_formula_units_Z 12
_cell_length_a 15.220178
_cell_length_b 7.142989
_cell_length_c 13.047959
_cell_angle_alpha 113.992815
_cell_angle_beta 152.554991
_cell_angle_gamma 77.330464
_cell_volume 562.559444
_symmetry_space_group_name_H-M "P -1"
_symmetry_group_IT_number 2
_symmetry_cell_setting 'triclinic'
loop_
_space_group_symop_operation_xyz
x,y,z
-x,-y,-z
loop_
_atom_site_type_symbol
_atom_site_label
_atom_site_fract_x
_atom_site_fract_y
_atom_site_fract_z
Si Si1 0.129658 0.783535 0.271768
Si Si2 0.701048 0.511174 0.995339
Si Si3 0.163787 0.634203 0.499591
Si Si4 0.679221 0.744801 0.355135
Si Si5 0.696668 0.476096 0.747967
Si Si6 0.763841 0.916911 0.257427
O O1 0.175410 0.676675 0.399626
O O2 0.256438 0.727562 0.298714
O O3 0.191441 0.041394 0.401857
O O4 0.890318 0.693314 0.979111
O O5 0.558392 0.320614 0.877706
O O6 0.653424 0.431363 0.812776
O O7 0.658138 0.743425 0.019535
O O8 0.930413 0.548837 0.274839
O O9 0.256867 0.452909 0.582572
O O10 0.294158 0.862233 0.743579
O O11 0.711965 0.775630 0.275779
O O12 0.500000 0.500000 0.500000
O O13 0.000000 0.000000 0.500000
#
# Coordination Sequence:
#
# PCOD8005624 Si02
#       6
#     2   2   2   2   2   2
#     4   9  21  39  58  86 116 145 191 236 274 338
#     4  10  21  36  57  88 115 145 195 235 272 339
#     4   9  20  39  60  84 117 151 184 230 285 335
#     4  11  21  37  62  86 114 150 185 233 289 333
#     4  10  20  39  61  80 114 156 188 231 286 331
#     4   9  20  39  58  84 119 148 186 234 278 340
#
# _framework density 21.331081000000001
#
# number of rings (size 3 to 8) (size 9 to 14) (size 15 to 20)
#    0.000    2.333    0.000    2.500    0.000    5.333 
#    0.000   21.667    0.000    0.000    0.000    0.000 
#    0.000    0.000    0.000    0.000    0.000    0.000 
#
# Total GULP energy -148760.060966 kJ/mol
# GULP energy per Si atom -12396.671747 kJ/mol
# Density = 2.128253 g / cm^3
# Si number density = 21.331081 Si / 1000 Ang^3
#
#
#
# Elastic Constant Matrix: (Units=GPa)
#
#
# Indices 1 2 3 4 5 6 
#
# 1 150.7782 49.1695 39.3892 15.2202 -2.4861 3.8714
# 2 49.1695 122.7799 32.9765 12.3359 0.2088 -5.9702
# 3 39.3892 32.9765 71.4987 9.2599 4.1374 1.3961
# 4 15.2202 12.3359 9.2599 25.3310 0.9963 -2.0194
# 5 -2.4861 0.2088 4.1374 0.9963 26.1558 13.1826
# 6 3.8714 -5.9702 1.3961 -2.0194 13.1826 33.4722
#
#
#
# Elastic Compliance Matrix: (Units=1/GPa)
#
#
# Indices 1 2 3 4 5 6 
#
# 1 0.008736 -0.002397 -0.003412 -0.003153 0.002817 -0.002595
# 2 -0.002397 0.010289 -0.003133 -0.002187 -0.000992 0.002502
# 3 -0.003412 -0.003133 0.017852 -0.002818 -0.003084 0.000136
# 4 -0.003153 -0.002187 -0.002818 0.043941 -0.003609 0.004164
# 5 0.002817 -0.000992 -0.003084 -0.003609 0.049197 -0.019967
# 6 -0.002595 0.002502 0.000136 0.004164 -0.019967 0.038731
#
#
# Mechanical properties :
#
#
# Convention : Reuss Voigt Hill
#
# Bulk Modulus (GPa) = 52.64863 65.34745 58.99804
# Shear Modulus (GPa) = 25.91199 31.89324 28.90261
#
# Velocity S-wave (km/s) = 3.48911 3.87092 3.68496
# Velocity P-wave (km/s) = 6.40055 7.11899 6.76931
#
# Compressibility (1/GPa) = 0.01899385
#
# Stress axis : x y z
#
# Youngs Moduli (GPa) = 114.46371 97.19084 56.01698
#
# Poissons Ratio (x) = 0.23293 0.19111
# Poissons Ratio (y) = 0.27432 0.17553
# Poissons Ratio (z) = 0.39051 0.30454
#
# Static dielectric constant tensor:
#      x y z
#    x 4.326390 -0.215970 0.061160 
#    y -0.215970 3.661710 0.461290 
#    z 0.061160 0.461290 4.050910 
# 
# 
# High freq. dielectric constant tensor:
#      x y z
#    x 1.860950 -0.011590 0.007030 
#    y -0.011590 1.811830 0.028460 
#    z 0.007030 0.028460 1.841940 
# 
# From -- ./inp_files/31839.got.cif
#   From: 2010.06.25/outbox.cif.g09.slc.cpg/sg2_16_cif.got.tgz:31839.got - 2010.06.27 13:26:56.
