data_PCOD8005297
_publ_section_title
;
Structure prediction by ZEFSAII (Michael W. Deem and Ramdas Pophale) SiO2 
 PCOD8005297
Probable space group: P -1
;
_chemical_formula_sum "Si O2"
_cell_formula_units_Z 14
_cell_length_a 11.351188
_cell_length_b 13.983779
_cell_length_c 14.312445
_cell_angle_alpha 41.232613
_cell_angle_beta 150.511869
_cell_angle_gamma 118.465318
_cell_volume 616.271073
_symmetry_space_group_name_H-M "P -1"
_symmetry_group_IT_number 2
_symmetry_cell_setting 'triclinic'
loop_
_space_group_symop_operation_xyz
x,y,z
-x,-y,-z
loop_
_atom_site_type_symbol
_atom_site_label
_atom_site_fract_x
_atom_site_fract_y
_atom_site_fract_z
Si Si1 0.249866 0.908898 0.932551
Si Si2 0.581586 0.804665 0.702344
Si Si3 0.352073 0.116034 0.615282
Si Si4 0.368054 0.823327 0.737986
Si Si5 0.806313 0.332643 0.802113
Si Si6 0.297381 0.693578 0.961106
Si Si7 0.515082 0.318826 0.448509
O O1 0.407979 0.777866 0.050365
O O2 0.470555 0.930984 0.130084
O O3 0.111374 0.828421 0.958412
O O4 0.971191 0.089669 0.575908
O O5 0.531142 0.744664 0.810854
O O6 0.389001 0.791549 0.499530
O O7 0.500000 0.000000 0.500000
O O8 0.912523 0.659044 0.007037
O O9 0.350099 0.266783 0.444942
O O10 0.037941 0.171826 0.386536
O O11 0.466960 0.948493 0.752119
O O12 0.457862 0.672990 0.988482
O O13 0.500000 0.500000 0.500000
O O14 0.793334 0.283461 0.721653
O O15 0.328365 0.521561 0.146661
#
# Coordination Sequence:
#
# PCOD8005297 Si02
#       7
#     2   2   2   2   2   2   2
#     4  10  20  38  66  94 127 164 216 263 310 371
#     4  12  24  44  65  91 132 170 210 260 316 381
#     4  10  21  37  68  93 123 170 217 257 315 367
#     4  11  24  42  59  94 132 174 206 255 319 386
#     4  11  23  40  69 100 122 156 218 273 309 365
#     4  11  23  38  61  96 136 161 210 266 317 373
#     4  11  24  38  67  95 121 168 215 264 312 369
#
# _framework density 22.717275999999998
#
# number of rings (size 3 to 8) (size 9 to 14) (size 15 to 20)
#    0.000    1.143    4.286    3.000    4.000    4.571 
#    0.000    0.714    0.000    0.000    0.000    0.000 
#    0.000    0.000    0.000    0.000    0.000    0.000 
#
# Total GULP energy -173487.141542 kJ/mol
# GULP energy per Si atom -12391.938682 kJ/mol
# Density = 2.266557 g / cm^3
# Si number density = 22.717276 Si / 1000 Ang^3
#
#
#
# Elastic Constant Matrix: (Units=GPa)
#
#
# Indices 1 2 3 4 5 6 
#
# 1 123.6151 25.4900 33.0997 12.0302 -27.1193 -21.1555
# 2 25.4900 75.8464 22.6548 20.3199 -8.9896 -15.2798
# 3 33.0997 22.6548 61.2553 4.7879 -14.5431 -2.5946
# 4 12.0302 20.3199 4.7879 28.3008 -9.6627 -10.7280
# 5 -27.1193 -8.9896 -14.5431 -9.6627 30.8303 2.8542
# 6 -21.1555 -15.2798 -2.5946 -10.7280 2.8542 36.5232
#
#
#
# Elastic Compliance Matrix: (Units=1/GPa)
#
#
# Indices 1 2 3 4 5 6 
#
# 1 0.012111 -0.001037 -0.004037 0.001421 0.008331 0.006061
# 2 -0.001037 0.018831 -0.005855 -0.011414 -0.002100 0.003673
# 3 -0.004037 -0.005855 0.021796 0.003351 0.006328 -0.002750
# 4 0.001421 -0.011414 0.003351 0.051208 0.014609 0.010186
# 5 0.008331 -0.002100 0.006328 0.014609 0.046245 0.005074
# 6 0.006061 0.003673 -0.002750 0.010186 0.005074 0.034827
#
#
# Mechanical properties :
#
#
# Convention : Reuss Voigt Hill
#
# Bulk Modulus (GPa) = 32.38382 47.02285 39.70334
# Shear Modulus (GPa) = 23.02344 31.09570 27.05957
#
# Velocity S-wave (km/s) = 3.18697 3.70376 3.45504
# Velocity P-wave (km/s) = 5.27527 6.24776 5.78200
#
# Compressibility (1/GPa) = 0.03087962
#
# Stress axis : x y z
#
# Youngs Moduli (GPa) = 82.56892 53.10467 45.87967
#
# Poissons Ratio (x) = 0.05504 0.18524
# Poissons Ratio (y) = 0.08558 0.26864
# Poissons Ratio (z) = 0.33336 0.31094
#
# Static dielectric constant tensor:
#      x y z
#    x 4.113370 -0.228630 -0.423770 
#    y -0.228630 4.151640 0.278790 
#    z -0.423770 0.278790 3.882800 
# 
# 
# High freq. dielectric constant tensor:
#      x y z
#    x 1.898940 -0.007550 -0.037050 
#    y -0.007550 1.895120 0.018870 
#    z -0.037050 0.018870 1.872740 
# 
# From -- ./inp_files/522294.got.cif
#   From: 2010.06.25/outbox.cif.g09.slc.cpg/sg2_262_cif.got.tgz:522294.got - 2010.06.27 13:26:56.
