data_PCOD8005213
_publ_section_title
;
Structure prediction by ZEFSAII (Michael W. Deem and Ramdas Pophale) SiO2 
 PCOD8005213
Probable space group: P -1
;
_chemical_formula_sum "Si O2"
_cell_formula_units_Z 16
_cell_length_a 13.174411
_cell_length_b 24.142084
_cell_length_c 16.568937
_cell_angle_alpha 23.019864
_cell_angle_beta 142.507504
_cell_angle_gamma 157.690911
_cell_volume 719.993620
_symmetry_space_group_name_H-M "P -1"
_symmetry_group_IT_number 2
_symmetry_cell_setting 'triclinic'
loop_
_space_group_symop_operation_xyz
x,y,z
-x,-y,-z
loop_
_atom_site_type_symbol
_atom_site_label
_atom_site_fract_x
_atom_site_fract_y
_atom_site_fract_z
Si Si1 0.851944 0.027507 0.184742
Si Si2 0.593381 0.681031 0.626595
Si Si3 0.980141 0.371300 0.911378
Si Si4 0.618513 0.383232 0.673511
Si Si5 0.818180 0.068104 0.350805
Si Si6 0.778061 0.826745 0.970014
Si Si7 0.624967 0.705225 0.204285
Si Si8 0.666292 0.852593 0.702749
O O1 0.168476 0.173354 0.190630
O O2 0.626466 0.787826 0.421107
O O3 0.692989 0.905247 0.161323
O O4 0.881244 0.208220 0.991469
O O5 0.309668 0.383101 0.847314
O O6 0.868380 0.771270 0.693047
O O7 0.574894 0.783775 0.549529
O O8 0.885084 0.466241 0.707251
O O9 0.323849 0.598202 0.831513
O O10 0.808582 0.205997 0.107699
O O11 0.660727 0.560676 0.416690
O O12 0.628331 0.421570 0.724841
O O13 0.765269 0.048633 0.440635
O O14 0.558735 0.708603 0.065544
O O15 0.771254 0.946562 0.736628
O O16 0.086353 0.022087 0.944123
#
# Coordination Sequence:
#
# PCOD8005213 Si02
#       8
#     2   2   2   2   2   2   2   2
#     4  10  20  38  65  94 125 163 201 242 312 382
#     4   9  17  33  61  89 124 154 202 249 295 369
#     4  11  23  39  61  99 133 154 192 262 316 367
#     4  11  22  43  63  87 122 167 210 253 312 358
#     4   9  20  34  56  95 129 157 187 245 314 377
#     4  11  20  38  65  90 114 159 222 260 289 359
#     4  10  24  41  64  84 114 169 222 257 291 360
#     4  11  22  37  66  95 122 166 203 241 312 378
#
# _framework density 22.22242
#
# number of rings (size 3 to 8) (size 9 to 14) (size 15 to 20)
#    0.000    1.750    3.750    1.500    1.750    0.000 
#    4.500    1.250    0.000    4.500    0.000    0.000 
#    0.000    0.000    0.000    0.000    0.000    0.000 
#
# Total GULP energy -198225.348050 kJ/mol
# GULP energy per Si atom -12389.084253 kJ/mol
# Density = 2.217184 g / cm^3
# Si number density = 22.222420 Si / 1000 Ang^3
#
#
#
# Elastic Constant Matrix: (Units=GPa)
#
#
# Indices 1 2 3 4 5 6 
#
# 1 94.7210 24.6866 44.4869 20.3945 -14.7655 -8.5865
# 2 24.6866 68.4346 28.1844 -4.0683 6.5605 3.0362
# 3 44.4869 28.1844 64.7183 -0.2469 -2.6967 0.6927
# 4 20.3945 -4.0683 -0.2469 27.0870 -5.9676 -8.2489
# 5 -14.7655 6.5605 -2.6967 -5.9676 37.7150 10.0029
# 6 -8.5865 3.0362 0.6927 -8.2489 10.0029 26.4821
#
#
#
# Elastic Compliance Matrix: (Units=1/GPa)
#
#
# Indices 1 2 3 4 5 6 
#
# 1 0.022345 -0.004076 -0.013417 -0.016021 0.005721 0.000912
# 2 -0.004076 0.019165 -0.005713 0.004853 -0.004531 -0.000146
# 3 -0.013417 -0.005713 0.027190 0.008943 -0.000522 -0.001423
# 4 -0.016021 0.004853 0.008943 0.052880 -0.000990 0.010861
# 5 0.005721 -0.004531 -0.000522 -0.000990 0.032003 -0.010008
# 6 0.000912 -0.000146 -0.001423 0.010861 -0.010008 0.045275
#
#
# Mechanical properties :
#
#
# Convention : Reuss Voigt Hill
#
# Bulk Modulus (GPa) = 44.86841 46.95440 45.91140
# Shear Modulus (GPa) = 19.78626 26.95789 23.37208
#
# Velocity S-wave (km/s) = 2.98715 3.48673 3.24656
# Velocity P-wave (km/s) = 5.66850 6.11432 5.89562
#
# Compressibility (1/GPa) = 0.02228740
#
# Stress axis : x y z
#
# Youngs Moduli (GPa) = 44.75237 52.17789 36.77799
#
# Poissons Ratio (x) = 0.21268 0.49346
# Poissons Ratio (y) = 0.18242 0.21012
# Poissons Ratio (z) = 0.60046 0.29810
#
# Static dielectric constant tensor:
#      x y z
#    x 4.216890 -0.466660 -0.402840 
#    y -0.466660 3.877870 -0.035690 
#    z -0.402840 -0.035690 3.948030 
# 
# 
# High freq. dielectric constant tensor:
#      x y z
#    x 1.863960 -0.028150 -0.033830 
#    y -0.028150 1.857950 -0.011990 
#    z -0.033830 -0.011990 1.856250 
# 
# From -- ./inp_files/574470.got.cif
#   From: 2010.06.25/outbox.cif.g09.slc.cpg/sg2_288_cif.got.tgz:574470.got - 2010.06.27 13:26:56.
