data_PCOD8005031
_publ_section_title
;
Structure prediction by ZEFSAII (Michael W. Deem and Ramdas Pophale) SiO2 
 PCOD8005031
Probable space group: P -1
;
_chemical_formula_sum "Si O2"
_cell_formula_units_Z 16
_cell_length_a 9.653699
_cell_length_b 26.695686
_cell_length_c 11.543461
_cell_angle_alpha 148.161389
_cell_angle_beta 141.563253
_cell_angle_gamma 29.221290
_cell_volume 755.933248
_symmetry_space_group_name_H-M "P -1"
_symmetry_group_IT_number 2
_symmetry_cell_setting 'triclinic'
loop_
_space_group_symop_operation_xyz
x,y,z
-x,-y,-z
loop_
_atom_site_type_symbol
_atom_site_label
_atom_site_fract_x
_atom_site_fract_y
_atom_site_fract_z
Si Si1 0.420754 0.744273 0.170257
Si Si2 0.852407 0.107828 0.520864
Si Si3 0.163343 0.050246 0.166694
Si Si4 0.880653 0.451410 0.241173
Si Si5 0.768494 0.817117 0.124585
Si Si6 0.692953 0.491116 0.942226
Si Si7 0.825109 0.935425 0.048188
Si Si8 0.197451 0.228941 0.683996
O O1 0.439710 0.779382 0.383938
O O2 0.596729 0.598972 0.001536
O O3 0.553891 0.784748 0.250418
O O4 0.076289 0.821312 0.069988
O O5 0.003931 0.160527 0.677962
O O6 0.815820 0.053083 0.276717
O O7 0.000000 0.000000 0.500000
O O8 0.141811 0.138192 0.421041
O O9 0.483288 0.933833 0.110243
O O10 0.065168 0.122334 0.121875
O O11 0.000000 0.000000 0.000000
O O12 0.841993 0.491756 0.159232
O O13 0.000000 0.500000 0.500000
O O14 0.572734 0.503631 0.189257
O O15 0.106233 0.304038 0.104850
O O16 0.685202 0.809643 0.185329
O O17 0.906176 0.368318 0.765594
O O18 0.500000 0.000000 0.000000
#
# Coordination Sequence:
#
# PCOD8005031 Si02
#       8
#     2   2   2   2   2   2   2   2
#     4  11  21  43  64  90 131 175 215 264 336 396
#     4  10  20  38  64  87 123 169 212 262 323 387
#     4  12  24  38  60  95 130 164 215 271 325 385
#     4  10  23  43  71 101 130 167 229 280 321 392
#     4  11  22  42  66  91 124 177 217 264 335 389
#     4  10  23  44  68  98 131 178 220 266 335 398
#     4  11  23  38  61  97 132 163 222 276 322 387
#     4  11  24  42  65  89 133 177 216 260 337 406
#
# _framework density 21.165889
#
# number of rings (size 3 to 8) (size 9 to 14) (size 15 to 20)
#    0.000    1.250    1.250    6.000    1.750    1.000 
#    2.250    0.625    0.000    0.000    0.000    0.000 
#    0.000    0.000    0.000    0.000    0.000    0.000 
#
# Total GULP energy -198246.402271 kJ/mol
# GULP energy per Si atom -12390.400142 kJ/mol
# Density = 2.111771 g / cm^3
# Si number density = 21.165889 Si / 1000 Ang^3
#
#
#
# Elastic Constant Matrix: (Units=GPa)
#
#
# Indices 1 2 3 4 5 6 
#
# 1 91.2814 18.5136 18.6986 -5.7425 14.7012 -14.2088
# 2 18.5136 95.0704 54.9840 19.4384 -4.0732 -6.4776
# 3 18.6986 54.9840 128.5527 -1.5952 11.4847 -13.1092
# 4 -5.7425 19.4384 -1.5952 29.4210 3.6127 -3.2021
# 5 14.7012 -4.0732 11.4847 3.6127 29.9991 7.8347
# 6 -14.2088 -6.4776 -13.1092 -3.2021 7.8347 30.9007
#
#
#
# Elastic Compliance Matrix: (Units=1/GPa)
#
#
# Indices 1 2 3 4 5 6 
#
# 1 0.017044 -0.007660 0.003664 0.011917 -0.015621 0.012982
# 2 -0.007660 0.022660 -0.011256 -0.020110 0.016098 -0.009713
# 3 0.003664 -0.011256 0.014351 0.011573 -0.012785 0.009854
# 4 0.011917 -0.020110 0.011573 0.055189 -0.024367 0.018070
# 5 -0.015621 0.016098 -0.012785 -0.024367 0.057909 -0.026440
# 6 0.012982 -0.009713 0.009854 0.018070 -0.026440 0.049052
#
#
# Mechanical properties :
#
#
# Convention : Reuss Voigt Hill
#
# Bulk Modulus (GPa) = 42.45891 55.47742 48.96817
# Shear Modulus (GPa) = 19.64186 32.91139 26.27662
#
# Velocity S-wave (km/s) = 3.04961 3.94753 3.52726
# Velocity P-wave (km/s) = 5.70121 6.85894 6.30669
#
# Compressibility (1/GPa) = 0.02355218
#
# Stress axis : x y z
#
# Youngs Moduli (GPa) = 58.67060 44.13093 69.68158
#
# Poissons Ratio (x) = 0.33803 -0.25533
# Poissons Ratio (y) = 0.44940 0.78433
# Poissons Ratio (z) = -0.21498 0.49674
#
# Static dielectric constant tensor:
#      x y z
#    x 3.715190 0.011790 -0.189360 
#    y 0.011790 3.891720 0.150510 
#    z -0.189360 0.150510 4.238070 
# 
# 
# High freq. dielectric constant tensor:
#      x y z
#    x 1.842170 -0.003830 -0.007370 
#    y -0.003830 1.824020 0.013170 
#    z -0.007370 0.013170 1.828950 
# 
# From -- ./inp_files/407363.got.cif
#   From: 2010.06.25/outbox.cif.g09.slc.cpg/sg2_204_cif.got.tgz:407363.got - 2010.06.27 13:26:56.
