data_PCOD8005459
_publ_section_title
;
Structure prediction by ZEFSAII (Michael W. Deem and Ramdas Pophale) SiO2 
 PCOD8005459
Probable space group: P -1
;
_chemical_formula_sum "Si O2"
_cell_formula_units_Z 16
_cell_length_a 7.472699
_cell_length_b 13.650363
_cell_length_c 9.467555
_cell_angle_alpha 62.675711
_cell_angle_beta 98.804765
_cell_angle_gamma 56.022513
_cell_volume 591.390161
_symmetry_space_group_name_H-M "P -1"
_symmetry_group_IT_number 2
_symmetry_cell_setting 'triclinic'
loop_
_space_group_symop_operation_xyz
x,y,z
-x,-y,-z
loop_
_atom_site_type_symbol
_atom_site_label
_atom_site_fract_x
_atom_site_fract_y
_atom_site_fract_z
Si Si1 0.901662 0.402938 0.404328
Si Si2 0.037148 0.870161 0.171926
Si Si3 0.444380 0.858691 0.913285
Si Si4 0.404333 0.918847 0.548588
Si Si5 0.324182 0.661211 0.101347
Si Si6 0.112632 0.754770 0.720012
Si Si7 0.982463 0.628175 0.250419
Si Si8 0.522053 0.321914 0.419395
O O1 0.027337 0.281229 0.367788
O O2 0.997627 0.322558 0.624449
O O3 0.944480 0.513200 0.331318
O O4 0.600350 0.490138 0.298618
O O5 0.300681 0.750052 0.373259
O O6 0.086998 0.754262 0.130501
O O7 0.783010 0.959818 0.177859
O O8 0.000000 0.000000 0.000000
O O9 0.448476 0.849194 0.753489
O O10 0.387463 0.762959 0.031080
O O11 0.723157 0.786194 0.040669
O O12 0.546844 0.778746 0.541638
O O13 0.500000 0.000000 0.500000
O O14 0.095865 0.061072 0.383150
O O15 0.233001 0.651217 0.947029
O O16 0.333487 0.719090 0.682277
O O17 0.260216 0.513249 0.272351
#
# Coordination Sequence:
#
# PCOD8005459 Si02
#       8
#     2   2   2   2   2   2   2   2
#     4  10  22  43  67 102 140 178 224 278 345 410
#     4  10  20  38  72 101 131 181 234 276 342 405
#     4  10  21  43  69 100 136 184 228 280 342 411
#     4  12  25  44  66 101 141 182 231 283 349 407
#     4  10  20  42  71 102 135 177 231 281 339 407
#     4  12  24  43  69 101 140 178 230 287 335 407
#     4  10  23  44  71  97 141 182 224 279 345 410
#     4  12  23  44  73  95 138 186 230 285 337 404
#
# _framework density 27.054894000000001
#
# number of rings (size 3 to 8) (size 9 to 14) (size 15 to 20)
#    0.000    1.250    3.750    3.000    1.750    1.000 
#    6.750    1.875    0.000    0.000    0.000    0.000 
#    0.000    0.000    0.000    0.000    0.000    0.000 
#
# Total GULP energy -198385.543435 kJ/mol
# GULP energy per Si atom -12399.096465 kJ/mol
# Density = 2.699332 g / cm^3
# Si number density = 27.054894 Si / 1000 Ang^3
#
#
#
# Elastic Constant Matrix: (Units=GPa)
#
#
# Indices 1 2 3 4 5 6 
#
# 1 75.5722 16.6130 12.9522 3.1197 20.1207 0.9502
# 2 16.6130 183.6760 56.0326 -0.0369 20.1883 18.2923
# 3 12.9522 56.0326 181.2872 11.1535 19.0117 -7.2700
# 4 3.1197 -0.0369 11.1535 52.6753 -2.2907 5.1329
# 5 20.1207 20.1883 19.0117 -2.2907 39.3954 1.7896
# 6 0.9502 18.2923 -7.2700 5.1329 1.7896 38.6766
#
#
#
# Elastic Compliance Matrix: (Units=1/GPa)
#
#
# Indices 1 2 3 4 5 6 
#
# 1 0.015457 -0.000590 -0.000021 -0.001286 -0.007676 0.000421
# 2 -0.000590 0.006674 -0.002002 0.000722 -0.001951 -0.003524
# 3 -0.000021 -0.002002 0.006593 -0.001745 -0.002361 0.002527
# 4 -0.001286 0.000722 -0.001745 0.019867 0.002438 -0.003387
# 5 -0.007676 -0.001951 -0.002361 0.002438 0.031636 -0.001120
# 6 0.000421 -0.003524 0.002527 -0.003387 -0.001120 0.028488
#
#
# Mechanical properties :
#
#
# Convention : Reuss Voigt Hill
#
# Bulk Modulus (GPa) = 42.55704 67.97013 55.26359
# Shear Modulus (GPa) = 41.06014 49.81196 45.43605
#
# Velocity S-wave (km/s) = 3.89994 4.29551 4.10250
# Velocity P-wave (km/s) = 6.00362 7.05546 6.55068
#
# Compressibility (1/GPa) = 0.02349787
#
# Stress axis : x y z
#
# Youngs Moduli (GPa) = 64.69485 149.83755 151.68362
#
# Poissons Ratio (x) = 0.08844 0.00317
# Poissons Ratio (y) = 0.03818 0.30364
# Poissons Ratio (z) = 0.00135 0.29994
#
# Static dielectric constant tensor:
#      x y z
#    x 5.255460 0.094300 0.148280 
#    y 0.094300 6.012300 -0.268030 
#    z 0.148280 -0.268030 4.934250 
# 
# 
# High freq. dielectric constant tensor:
#      x y z
#    x 2.119610 0.021040 -0.009320 
#    y 0.021040 2.120130 -0.008870 
#    z -0.009320 -0.008870 2.088430 
# 
# From -- ./inp_files/207027.got.cif
#   From: 2010.06.25/outbox.cif.g09.slc.cpg/sg2_104_cif.got.tgz:207027.got - 2010.06.27 13:26:56.
