data_PCOD8005988
_publ_section_title
;
Structure prediction by ZEFSAII (Michael W. Deem and Ramdas Pophale) SiO2 
 PCOD8005988
Probable space group: P -1
;
_chemical_formula_sum "Si O2"
_cell_formula_units_Z 16
_cell_length_a 11.789500
_cell_length_b 8.812568
_cell_length_c 14.390556
_cell_angle_alpha 92.110999
_cell_angle_beta 138.684929
_cell_angle_gamma 109.793655
_cell_volume 820.403711
_symmetry_space_group_name_H-M "P -1"
_symmetry_group_IT_number 2
_symmetry_cell_setting 'triclinic'
loop_
_space_group_symop_operation_xyz
x,y,z
-x,-y,-z
loop_
_atom_site_type_symbol
_atom_site_label
_atom_site_fract_x
_atom_site_fract_y
_atom_site_fract_z
Si Si1 0.575139 0.200969 0.391074
Si Si2 0.623298 0.715482 0.573320
Si Si3 0.950537 0.979036 0.190688
Si Si4 0.080156 0.708036 0.260135
Si Si5 0.453182 0.306159 0.142534
Si Si6 0.568924 0.863065 0.054875
Si Si7 0.647293 0.401612 0.922473
Si Si8 0.382777 0.789290 0.283339
O O1 0.406061 0.201505 0.350171
O O2 0.795336 0.314034 0.581364
O O3 0.593945 0.298632 0.307717
O O4 0.500966 0.994237 0.322681
O O5 0.500000 0.500000 0.500000
O O6 0.547195 0.767094 0.437444
O O7 0.871578 0.810458 0.719640
O O8 0.818908 0.972889 0.198861
O O9 0.065511 0.877546 0.280929
O O10 0.786684 0.871695 0.002371
O O11 0.195513 0.744659 0.233803
O O12 0.855643 0.523234 0.112397
O O13 0.461969 0.491539 0.163134
O O14 0.539194 0.298195 0.093711
O O15 0.508833 0.777864 0.118145
O O16 0.500000 0.000000 0.000000
O O17 0.703640 0.346132 0.860217
#
# Coordination Sequence:
#
# PCOD8005988 Si02
#       8
#     2   2   2   2   2   2   2   2
#     4  11  20  39  61  90 128 164 191 255 311 366
#     4  11  21  37  61  91 131 161 198 253 308 366
#     4   9  20  40  62  87 123 159 206 244 313 355
#     4  10  20  39  64  91 127 163 198 251 313 359
#     4   9  22  38  62  88 122 158 211 248 305 356
#     4  10  22  41  64  86 120 164 210 258 298 357
#     4  11  22  40  64  91 120 167 208 253 295 367
#     4  11  21  37  62  93 128 158 205 246 312 367
#
# _framework density 19.502592
#
# number of rings (size 3 to 8) (size 9 to 14) (size 15 to 20)
#    0.750    1.000    2.500    3.000    0.000    2.500 
#    2.250    1.250    0.000    0.000    0.000    0.000 
#    0.000    0.000    0.000    0.000    0.000    0.000 
#
# Total GULP energy -198347.789256 kJ/mol
# GULP energy per Si atom -12396.736829 kJ/mol
# Density = 1.945820 g / cm^3
# Si number density = 19.502592 Si / 1000 Ang^3
#
#
#
# Elastic Constant Matrix: (Units=GPa)
#
#
# Indices 1 2 3 4 5 6 
#
# 1 100.7427 37.0399 30.5637 -4.9176 9.4805 -8.1065
# 2 37.0399 116.2251 28.8142 -4.8562 1.0408 -11.7245
# 3 30.5637 28.8142 53.5519 -7.9677 -3.2825 -0.9066
# 4 -4.9176 -4.8562 -7.9677 35.3560 2.6467 -2.6369
# 5 9.4805 1.0408 -3.2825 2.6467 23.2184 -2.4463
# 6 -8.1065 -11.7245 -0.9066 -2.6369 -2.4463 28.2744
#
#
#
# Elastic Compliance Matrix: (Units=1/GPa)
#
#
# Indices 1 2 3 4 5 6 
#
# 1 0.013650 -0.002363 -0.006763 0.000686 -0.006266 0.002239
# 2 -0.002363 0.010825 -0.004334 0.000444 0.000209 0.003732
# 3 -0.006763 -0.004334 0.025741 0.003666 0.005961 -0.002053
# 4 0.000686 0.000444 0.003666 0.029705 -0.002849 0.003022
# 5 -0.006266 0.000209 0.005961 -0.002849 0.047027 0.002284
# 6 0.002239 0.003732 -0.002053 0.003022 0.002284 0.037971
#
#
# Mechanical properties :
#
#
# Convention : Reuss Voigt Hill
#
# Bulk Modulus (GPa) = 42.92508 51.48390 47.20449
# Shear Modulus (GPa) = 25.04968 28.97657 27.01313
#
# Velocity S-wave (km/s) = 3.58778 3.85876 3.72574
# Velocity P-wave (km/s) = 6.26264 6.80509 6.53949
#
# Compressibility (1/GPa) = 0.02329641
#
# Stress axis : x y z
#
# Youngs Moduli (GPa) = 73.25881 92.38292 38.84808
#
# Poissons Ratio (x) = 0.21829 0.26274
# Poissons Ratio (y) = 0.17310 0.16835
# Poissons Ratio (z) = 0.49548 0.40035
#
# Static dielectric constant tensor:
#      x y z
#    x 3.508750 -0.189550 0.050810 
#    y -0.189550 3.563580 -0.004170 
#    z 0.050810 -0.004170 3.467630 
# 
# 
# High freq. dielectric constant tensor:
#      x y z
#    x 1.752920 -0.014990 0.001020 
#    y -0.014990 1.757540 -0.001860 
#    z 0.001020 -0.001860 1.746930 
# 
# From -- ./inp_files/447764.got.cif
#   From: 2010.06.25/outbox.cif.g09.slc.cpg/sg2_224_cif.got.tgz:447764.got - 2010.06.27 13:26:56.
