data_PCOD8005659
_publ_section_title
;
Structure prediction by ZEFSAII (Michael W. Deem and Ramdas Pophale) SiO2 
 PCOD8005659
Probable space group: P -1
;
_chemical_formula_sum "Si O2"
_cell_formula_units_Z 16
_cell_length_a 9.837301
_cell_length_b 11.556544
_cell_length_c 19.631493
_cell_angle_alpha 146.902849
_cell_angle_beta 138.741187
_cell_angle_gamma 36.536752
_cell_volume 703.997881
_symmetry_space_group_name_H-M "P -1"
_symmetry_group_IT_number 2
_symmetry_cell_setting 'triclinic'
loop_
_space_group_symop_operation_xyz
x,y,z
-x,-y,-z
loop_
_atom_site_type_symbol
_atom_site_label
_atom_site_fract_x
_atom_site_fract_y
_atom_site_fract_z
Si Si1 0.997487 0.520315 0.125145
Si Si2 0.313682 0.478041 0.492037
Si Si3 0.577063 0.033616 0.452431
Si Si4 0.897275 0.823029 0.583019
Si Si5 0.046143 0.786875 0.147934
Si Si6 0.505595 0.633138 0.173310
Si Si7 0.343609 0.327140 0.282891
Si Si8 0.543413 0.206859 0.910926
O O1 0.739285 0.624144 0.111098
O O2 0.988940 0.711274 0.161270
O O3 0.180000 0.476395 0.232246
O O4 0.080675 0.267656 0.990078
O O5 0.536008 0.213715 0.462770
O O6 0.223951 0.461970 0.374921
O O7 0.405768 0.675287 0.628789
O O8 0.093475 0.559049 0.500989
O O9 0.326076 0.177264 0.467306
O O10 0.791136 0.003098 0.565738
O O11 0.649538 0.758660 0.321013
O O12 0.024157 0.930134 0.733616
O O13 0.325207 0.642299 0.167258
O O14 0.374253 0.798325 0.138476
O O15 0.654330 0.348390 0.067150
O O16 0.376263 0.057710 0.160110
#
# Coordination Sequence:
#
# PCOD8005659 Si02
#       8
#     2   2   2   2   2   2   2   2
#     4  10  21  39  64  85 119 161 202 247 304 354
#     4  11  23  38  57  90 126 153 196 249 293 356
#     4  10  20  39  61  89 117 157 200 243 298 361
#     4  10  21  37  63  86 118 161 197 242 303 350
#     4   9  19  40  60  87 120 155 203 255 291 352
#     4   9  19  37  63  84 120 155 195 251 297 345
#     4  11  24  38  60  91 122 159 199 243 301 362
#     4  10  20  40  61  87 121 157 196 251 298 350
#
# _framework density 22.727342
#
# number of rings (size 3 to 8) (size 9 to 14) (size 15 to 20)
#    0.000    2.000    1.250    1.875    1.750    0.000 
#    0.000   27.500    0.000    0.000    0.000    0.000 
#    0.000    0.000    0.000    0.000    0.000    0.000 
#
# Total GULP energy -198219.863226 kJ/mol
# GULP energy per Si atom -12388.741452 kJ/mol
# Density = 2.267561 g / cm^3
# Si number density = 22.727342 Si / 1000 Ang^3
#
#
#
# Elastic Constant Matrix: (Units=GPa)
#
#
# Indices 1 2 3 4 5 6 
#
# 1 53.1138 3.1066 11.4280 0.0018 -5.0322 0.8751
# 2 3.1066 62.6542 27.5329 -4.8716 -7.3775 6.6442
# 3 11.4280 27.5329 121.1163 1.7464 -7.2241 -4.5311
# 4 0.0018 -4.8716 1.7464 29.1995 9.6867 -4.9496
# 5 -5.0322 -7.3775 -7.2241 9.6867 30.7066 2.3573
# 6 0.8751 6.6442 -4.5311 -4.9496 2.3573 23.3823
#
#
#
# Elastic Compliance Matrix: (Units=1/GPa)
#
#
# Indices 1 2 3 4 5 6 
#
# 1 0.019539 0.000290 -0.001755 -0.001274 0.003396 -0.001766
# 2 0.000290 0.019089 -0.004400 0.001118 0.003739 -0.006428
# 3 -0.001755 -0.004400 0.009609 -0.001187 0.001074 0.002818
# 4 -0.001274 0.001118 -0.001187 0.040688 -0.013785 0.009503
# 5 0.003396 0.003739 0.001074 -0.013785 0.039225 -0.007854
# 6 -0.001766 -0.006428 0.002818 0.009503 -0.007854 0.048010
#
#
# Mechanical properties :
#
#
# Convention : Reuss Voigt Hill
#
# Bulk Modulus (GPa) = 27.39158 35.66879 31.53018
# Shear Modulus (GPa) = 24.99267 29.64548 27.31907
#
# Velocity S-wave (km/s) = 3.31973 3.61556 3.47080
# Velocity P-wave (km/s) = 5.17422 5.75830 5.47406
#
# Compressibility (1/GPa) = 0.03650757
#
# Stress axis : x y z
#
# Youngs Moduli (GPa) = 51.17972 52.38667 104.06875
#
# Poissons Ratio (x) = -0.01522 0.18261
# Poissons Ratio (y) = -0.01487 0.45794
# Poissons Ratio (z) = 0.08981 0.23052
#
# Static dielectric constant tensor:
#      x y z
#    x 4.087730 0.219800 -0.138280 
#    y 0.219800 3.528870 -0.012970 
#    z -0.138280 -0.012970 4.425640 
# 
# 
# High freq. dielectric constant tensor:
#      x y z
#    x 1.901050 0.021300 -0.006110 
#    y 0.021300 1.843170 0.003560 
#    z -0.006110 0.003560 1.918270 
# 
# From -- ./inp_files/70452.got.cif
#   From: 2010.06.25/outbox.cif.g09.slc.cpg/sg2_36_cif.got.tgz:70452.got - 2010.06.27 13:26:56.
