data_PCOD8005915
_publ_section_title
;
Structure prediction by ZEFSAII (Michael W. Deem and Ramdas Pophale) SiO2 
 PCOD8005915
Probable space group: P -1
;
_chemical_formula_sum "Si O2"
_cell_formula_units_Z 16
_cell_length_a 7.304373
_cell_length_b 16.833897
_cell_length_c 9.548290
_cell_angle_alpha 135.131388
_cell_angle_beta 97.149796
_cell_angle_gamma 109.346866
_cell_volume 657.917017
_symmetry_space_group_name_H-M "P -1"
_symmetry_group_IT_number 2
_symmetry_cell_setting 'triclinic'
loop_
_space_group_symop_operation_xyz
x,y,z
-x,-y,-z
loop_
_atom_site_type_symbol
_atom_site_label
_atom_site_fract_x
_atom_site_fract_y
_atom_site_fract_z
Si Si1 0.189955 0.983757 0.118694
Si Si2 0.480748 0.042213 0.706792
Si Si3 0.952006 0.351834 0.543995
Si Si4 0.418734 0.473553 0.245210
Si Si5 0.073045 0.904245 0.698940
Si Si6 0.735372 0.398330 0.798802
Si Si7 0.866028 0.673817 0.717468
Si Si8 0.381370 0.671032 0.007169
O O1 0.410672 0.006712 0.237008
O O2 0.221001 0.991163 0.961830
O O3 0.149523 0.093901 0.316975
O O4 0.957804 0.831989 0.953292
O O5 0.616950 0.211260 0.929505
O O6 0.500000 0.000000 0.500000
O O7 0.223135 0.971105 0.653413
O O8 0.927202 0.320307 0.334829
O O9 0.022244 0.258294 0.505398
O O10 0.721059 0.312086 0.550806
O O11 0.142331 0.517550 0.785410
O O12 0.362119 0.515948 0.148506
O O13 0.652689 0.603286 0.500381
O O14 0.206410 0.416215 0.260585
O O15 0.424376 0.341799 0.050740
O O16 0.578599 0.291269 0.775290
O O17 0.000000 0.500000 0.000000
#
# Coordination Sequence:
#
# PCOD8005915 Si02
#       8
#     2   2   2   2   2   2   2   2
#     4  10  23  45  73  93 136 181 224 281 328 408
#     4  12  26  45  68 102 137 177 229 271 338 404
#     4   9  20  41  63  95 129 161 217 269 325 387
#     4  10  20  39  63  95 135 166 217 274 328 394
#     4  10  22  48  68 100 130 180 228 269 342 396
#     4  10  21  37  59  93 132 177 208 262 333 396
#     4   9  20  39  62  98 122 170 216 271 334 378
#     4  10  22  42  62  97 130 169 218 270 328 390
#
# _framework density 24.319175999999999
#
# number of rings (size 3 to 8) (size 9 to 14) (size 15 to 20)
#    0.000    2.000    0.000    2.250    3.500    1.000 
#   38.250    0.000    0.000    0.000    0.000    0.000 
#    0.000    0.000    0.000    0.000    0.000    0.000 
#
# Total GULP energy -198213.136521 kJ/mol
# GULP energy per Si atom -12388.321033 kJ/mol
# Density = 2.426382 g / cm^3
# Si number density = 24.319176 Si / 1000 Ang^3
#
#
#
# Elastic Constant Matrix: (Units=GPa)
#
#
# Indices 1 2 3 4 5 6 
#
# 1 75.9295 15.4937 15.2037 -11.0485 -31.4952 -5.4296
# 2 15.4937 96.4153 9.5437 -3.8537 -13.3884 7.9028
# 3 15.2037 9.5437 46.6465 10.8764 -16.9867 -0.9151
# 4 -11.0485 -3.8537 10.8764 45.4483 -3.0973 -10.0956
# 5 -31.4952 -13.3884 -16.9867 -3.0973 35.2071 -7.6985
# 6 -5.4296 7.9028 -0.9151 -10.0956 -7.6985 53.4514
#
#
#
# Elastic Compliance Matrix: (Units=1/GPa)
#
#
# Indices 1 2 3 4 5 6 
#
# 1 0.026072 -0.000848 -0.001418 0.010147 0.025018 0.008269
# 2 -0.000848 0.011143 -0.001271 0.000963 0.002691 -0.001186
# 3 -0.001418 -0.001271 0.027716 -0.006094 0.011302 0.000995
# 4 0.010147 0.000963 -0.006094 0.028448 0.010689 0.007697
# 5 0.025018 0.002691 0.011302 0.010689 0.061077 0.013153
# 6 0.008269 -0.001186 0.000995 0.007697 0.013153 0.023089
#
#
# Mechanical properties :
#
#
# Convention : Reuss Voigt Hill
#
# Bulk Modulus (GPa) = 17.28358 33.27482 25.27920
# Shear Modulus (GPa) = 24.52125 38.73804 31.62965
#
# Velocity S-wave (km/s) = 3.17883 3.99545 3.61030
# Velocity P-wave (km/s) = 4.53825 5.91583 5.27223
#
# Compressibility (1/GPa) = 0.05785840
#
# Stress axis : x y z
#
# Youngs Moduli (GPa) = 38.35518 89.74030 36.07981
#
# Poissons Ratio (x) = 0.07606 0.05115
# Poissons Ratio (y) = 0.03251 0.04587
# Poissons Ratio (z) = 0.05438 0.11409
#
# Static dielectric constant tensor:
#      x y z
#    x 4.655550 0.507430 -0.899130 
#    y 0.507430 4.716430 -0.440100 
#    z -0.899130 -0.440100 4.691310 
# 
# 
# High freq. dielectric constant tensor:
#      x y z
#    x 1.955340 0.015660 -0.035230 
#    y 0.015660 1.976790 0.000460 
#    z -0.035230 0.000460 1.947350 
# 
# From -- ./inp_files/209074.got.cif
#   From: 2010.06.25/outbox.cif.g09.slc.cpg/sg2_105_cif.got.tgz:209074.got - 2010.06.27 13:26:56.
