data_PCOD8005378
_publ_section_title
;
Structure prediction by ZEFSAII (Michael W. Deem and Ramdas Pophale) SiO2 
 PCOD8005378
Probable space group: P -1
;
_chemical_formula_sum "Si O2"
_cell_formula_units_Z 16
_cell_length_a 15.165822
_cell_length_b 20.783101
_cell_length_c 5.226003
_cell_angle_alpha 78.556835
_cell_angle_beta 88.733253
_cell_angle_gamma 25.002307
_cell_volume 630.980973
_symmetry_space_group_name_H-M "P -1"
_symmetry_group_IT_number 2
_symmetry_cell_setting 'triclinic'
loop_
_space_group_symop_operation_xyz
x,y,z
-x,-y,-z
loop_
_atom_site_type_symbol
_atom_site_label
_atom_site_fract_x
_atom_site_fract_y
_atom_site_fract_z
Si Si1 0.734042 0.669825 0.920240
Si Si2 0.260694 0.800831 0.808428
Si Si3 0.228245 0.301141 0.604747
Si Si4 0.422282 0.345705 0.773592
Si Si5 0.041490 0.289229 0.582129
Si Si6 0.976372 0.777587 0.893841
Si Si7 0.461504 0.483688 0.263133
Si Si8 0.169984 0.977206 0.330164
O O1 0.622490 0.768738 0.580000
O O2 0.640180 0.780124 0.070837
O O3 0.674025 0.635496 0.009326
O O4 0.000000 0.500000 0.000000
O O5 0.352189 0.702350 0.621372
O O6 0.055020 0.901900 0.875850
O O7 0.192397 0.922490 0.641430
O O8 0.465606 0.665676 0.103703
O O9 0.000000 0.500000 0.500000
O O10 0.193514 0.249636 0.573870
O O11 0.212877 0.512813 0.482484
O O12 0.608198 0.180423 0.729293
O O13 0.023912 0.265255 0.328919
O O14 0.150730 0.172696 0.902216
O O15 0.867269 0.920624 0.701952
O O16 0.212767 0.625585 0.143863
O O17 0.500000 0.500000 0.500000
O O18 0.500000 0.500000 0.000000
#
# Coordination Sequence:
#
# PCOD8005378 Si02
#       8
#     2   2   2   2   2   2   2   2
#     4  10  21  37  69 106 142 167 226 301 359 406
#     4  11  26  47  72 102 143 196 248 293 345 428
#     4  10  20  38  68 108 139 170 223 303 357 412
#     4  12  25  42  74 109 138 183 246 297 352 429
#     4  12  25  43  75 109 139 180 242 295 352 423
#     4  12  27  45  69 101 147 190 234 291 358 423
#     4  12  25  43  70 100 138 181 242 295 355 401
#     4  11  28  46  68 100 150 198 238 288 361 418
#
# _framework density 25.357340000000001
#
# number of rings (size 3 to 8) (size 9 to 14) (size 15 to 20)
#    0.000    0.750    5.000    2.625    7.000    1.000 
#    0.000    0.000    0.000    4.500    0.000    0.000 
#    0.000    0.000    0.000    0.000    0.000    0.000 
#
# Total GULP energy -198270.946952 kJ/mol
# GULP energy per Si atom -12391.934185 kJ/mol
# Density = 2.529963 g / cm^3
# Si number density = 25.357340 Si / 1000 Ang^3
#
#
#
# Elastic Constant Matrix: (Units=GPa)
#
#
# Indices 1 2 3 4 5 6 
#
# 1 104.9558 34.6493 37.3503 7.7796 -14.5651 27.6978
# 2 34.6493 86.5203 38.0882 7.9783 -7.0546 19.0037
# 3 37.3503 38.0882 118.6547 40.0681 -14.6957 23.2829
# 4 7.7796 7.9783 40.0681 38.4045 9.2257 -1.2002
# 5 -14.5651 -7.0546 -14.6957 9.2257 51.7263 2.1123
# 6 27.6978 19.0037 23.2829 -1.2002 2.1123 42.5873
#
#
#
# Elastic Compliance Matrix: (Units=1/GPa)
#
#
# Indices 1 2 3 4 5 6 
#
# 1 0.013391 -0.002985 -0.000205 -0.003117 0.004170 -0.007560
# 2 -0.002985 0.014860 -0.003819 0.001434 -0.000050 -0.002559
# 3 -0.000205 -0.003819 0.021330 -0.024227 0.010253 -0.011016
# 4 -0.003117 0.001434 -0.024227 0.056595 -0.018359 0.017138
# 5 0.004170 -0.000050 0.010253 -0.018359 0.027102 -0.010157
# 6 -0.007560 -0.002559 -0.011016 0.017138 -0.010157 0.036549
#
#
# Mechanical properties :
#
#
# Convention : Reuss Voigt Hill
#
# Bulk Modulus (GPa) = 28.11698 58.92294 43.51996
# Shear Modulus (GPa) = 25.54953 39.87983 32.71468
#
# Velocity S-wave (km/s) = 3.17768 3.97005 3.59576
# Velocity P-wave (km/s) = 4.95741 6.65601 5.86849
#
# Compressibility (1/GPa) = 0.03556570
#
# Stress axis : x y z
#
# Youngs Moduli (GPa) = 74.67815 67.29373 46.88130
#
# Poissons Ratio (x) = 0.20085 0.00959
# Poissons Ratio (y) = 0.22289 0.17903
# Poissons Ratio (z) = 0.01527 0.25697
#
# Static dielectric constant tensor:
#      x y z
#    x 4.774720 -0.199380 -0.381190 
#    y -0.199380 8.601300 4.167990 
#    z -0.381190 4.167990 7.495330 
# 
# 
# High freq. dielectric constant tensor:
#      x y z
#    x 2.033210 0.005090 -0.009960 
#    y 0.005090 1.987580 0.011590 
#    z -0.009960 0.011590 2.013770 
# 
# From -- ./inp_files/99682.got.cif
#   From: 2010.06.25/outbox.cif.g09.slc.cpg/sg2_50_cif.got.tgz:99682.got - 2010.06.27 13:26:56.
