data_PCOD8005202
_publ_section_title
;
Structure prediction by ZEFSAII (Michael W. Deem and Ramdas Pophale) SiO2 
 PCOD8005202
Probable space group: P -1
;
_chemical_formula_sum "Si O2"
_cell_formula_units_Z 14
_cell_length_a 21.945687
_cell_length_b 15.207259
_cell_length_c 9.239647
_cell_angle_alpha 150.049376
_cell_angle_beta 151.915329
_cell_angle_gamma 29.346094
_cell_volume 644.913308
_symmetry_space_group_name_H-M "P -1"
_symmetry_group_IT_number 2
_symmetry_cell_setting 'triclinic'
loop_
_space_group_symop_operation_xyz
x,y,z
-x,-y,-z
loop_
_atom_site_type_symbol
_atom_site_label
_atom_site_fract_x
_atom_site_fract_y
_atom_site_fract_z
Si Si1 0.065977 0.837024 0.781908
Si Si2 0.488301 0.325701 0.305658
Si Si3 0.915053 0.542761 0.595698
Si Si4 0.461365 0.045944 0.314991
Si Si5 0.211752 0.331413 0.801772
Si Si6 0.670143 0.107014 0.634621
Si Si7 0.128106 0.272843 0.958582
O O1 0.138534 0.617518 0.693212
O O2 0.934208 0.868627 0.441209
O O3 0.186554 0.869665 0.988310
O O4 0.000000 0.000000 0.000000
O O5 0.500000 0.500000 0.500000
O O6 0.597515 0.264169 0.579776
O O7 0.328397 0.414400 0.169398
O O8 0.507505 0.157160 0.989774
O O9 0.868016 0.621775 0.451640
O O10 0.092573 0.427521 0.815464
O O11 0.853494 0.740667 0.847309
O O12 0.564903 0.134517 0.590191
O O13 0.500000 0.000000 0.500000
O O14 0.293785 0.206437 0.157632
O O15 0.290261 0.097721 0.655979
O O16 0.000000 0.500000 0.000000
#
# Coordination Sequence:
#
# PCOD8005202 Si02
#       7
#     2   2   2   2   2   2   2
#     4  11  21  39  64  95 130 170 225 275 328 392
#     4  11  24  42  68  96 131 169 232 273 332 398
#     4  10  21  39  63  91 134 164 224 263 336 387
#     4  11  24  46  69  97 138 179 220 279 341 399
#     4  10  20  38  65  93 123 178 212 274 322 405
#     4  11  23  40  71  97 129 176 228 269 340 394
#     4  10  23  39  65  94 131 175 215 271 331 393
#
# _framework density 21.708344
#
# number of rings (size 3 to 8) (size 9 to 14) (size 15 to 20)
#    0.000    1.429    1.429    5.143    6.000    1.143 
#    2.571    5.000    0.000    0.000    0.000    0.000 
#    0.000    0.000    0.000    0.000    0.000    0.000 
#
# Total GULP energy -173479.460917 kJ/mol
# GULP energy per Si atom -12391.390065 kJ/mol
# Density = 2.165894 g / cm^3
# Si number density = 21.708344 Si / 1000 Ang^3
#
#
#
# Elastic Constant Matrix: (Units=GPa)
#
#
# Indices 1 2 3 4 5 6 
#
# 1 127.9185 40.8072 65.0230 2.6924 31.3471 -13.1979
# 2 40.8072 84.8584 31.1177 -8.5380 20.6538 -6.7017
# 3 65.0230 31.1177 127.5410 -6.3730 20.9953 -14.8415
# 4 2.6924 -8.5380 -6.3730 31.1705 -9.6854 6.4585
# 5 31.3471 20.6538 20.9953 -9.6854 49.6202 -4.6512
# 6 -13.1979 -6.7017 -14.8415 6.4585 -4.6512 43.1641
#
#
#
# Elastic Compliance Matrix: (Units=1/GPa)
#
#
# Indices 1 2 3 4 5 6 
#
# 1 0.013138 -0.003516 -0.004957 -0.005250 -0.005581 0.001951
# 2 -0.003516 0.014945 -0.001219 0.003257 -0.002845 0.000032
# 3 -0.004957 -0.001219 0.011046 0.001828 -0.000513 0.001764
# 4 -0.005250 0.003257 0.001828 0.037362 0.007993 -0.005200
# 5 -0.005581 -0.002845 -0.000513 0.007993 0.026578 -0.000656
# 6 0.001951 0.000032 0.001764 -0.005200 -0.000656 0.025083
#
#
# Mechanical properties :
#
#
# Convention : Reuss Voigt Hill
#
# Bulk Modulus (GPa) = 50.64417 68.24595 59.44506
# Shear Modulus (GPa) = 32.44265 38.34896 35.39580
#
# Velocity S-wave (km/s) = 3.87004 4.20760 4.04235
# Velocity P-wave (km/s) = 6.58404 7.42368 7.01644
#
# Compressibility (1/GPa) = 0.01974561
#
# Stress axis : x y z
#
# Youngs Moduli (GPa) = 76.11387 66.91284 90.52887
#
# Poissons Ratio (x) = 0.23527 0.44874
# Poissons Ratio (y) = 0.26762 0.11035
# Poissons Ratio (z) = 0.37728 0.08156
#
# Static dielectric constant tensor:
#      x y z
#    x 4.404210 -0.227200 -0.170870 
#    y -0.227200 3.748080 -0.106120 
#    z -0.170870 -0.106120 4.147090 
# 
# 
# High freq. dielectric constant tensor:
#      x y z
#    x 1.866160 -0.008950 0.000960 
#    y -0.008950 1.853690 -0.022880 
#    z 0.000960 -0.022880 1.843610 
# 
# From -- ./inp_files/347736.got.cif
#   From: 2010.06.25/outbox.cif.g09.slc.cpg/sg2_174_cif.got.tgz:347736.got - 2010.06.27 13:26:56.
