data_PCOD8005104
_publ_section_title
;
Structure prediction by ZEFSAII (Michael W. Deem and Ramdas Pophale) SiO2 
 PCOD8005104
Probable space group: P -1
;
_chemical_formula_sum "Si O2"
_cell_formula_units_Z 16
_cell_length_a 7.893577
_cell_length_b 9.813876
_cell_length_c 14.048869
_cell_angle_alpha 95.829095
_cell_angle_beta 74.549069
_cell_angle_gamma 136.715806
_cell_volume 712.141043
_symmetry_space_group_name_H-M "P -1"
_symmetry_group_IT_number 2
_symmetry_cell_setting 'triclinic'
loop_
_space_group_symop_operation_xyz
x,y,z
-x,-y,-z
loop_
_atom_site_type_symbol
_atom_site_label
_atom_site_fract_x
_atom_site_fract_y
_atom_site_fract_z
Si Si1 0.438875 0.698490 0.141765
Si Si2 0.212899 0.299654 0.816755
Si Si3 0.904770 0.528776 0.642243
Si Si4 0.489175 0.838497 0.638586
Si Si5 0.387147 0.481505 0.614109
Si Si6 0.719256 0.400279 0.043673
Si Si7 0.070573 0.741227 0.455761
Si Si8 0.623355 0.014748 0.835983
O O1 0.718656 0.796496 0.137804
O O2 0.240388 0.534267 0.241156
O O3 0.433412 0.856729 0.132875
O O4 0.362759 0.584861 0.045381
O O5 0.386539 0.382864 0.699717
O O6 0.298079 0.488096 0.869308
O O7 0.914561 0.138060 0.824783
O O8 0.804737 0.338110 0.586239
O O9 0.208746 0.703950 0.629563
O O10 0.882880 0.636715 0.571641
O O11 0.530851 0.701834 0.638307
O O12 0.535601 0.940808 0.737121
O O13 0.704772 0.019057 0.546130
O O14 0.500000 0.500000 0.500000
O O15 0.083501 0.325275 0.624453
O O16 0.544259 0.171563 0.081396
O O17 0.000000 0.500000 0.000000
#
# Coordination Sequence:
#
# PCOD8005104 Si02
#       8
#     2   2   2   2   2   2   2   2
#     4  12  25  46  72 106 140 183 238 289 351 414
#     4  12  26  48  71 105 147 183 234 296 345 417
#     4  10  21  39  63  98 138 174 232 289 338 414
#     4  11  20  40  69  94 138 187 236 283 351 414
#     4  11  23  42  66  95 144 189 230 286 349 412
#     4  12  26  49  78 100 141 191 231 290 360 413
#     4  10  20  38  64  94 133 186 231 280 348 409
#     4  12  24  49  72 104 142 187 232 293 351 420
#
# _framework density 22.467459000000002
#
# number of rings (size 3 to 8) (size 9 to 14) (size 15 to 20)
#    0.000    0.750    5.000    3.375    0.000    1.000 
#    6.750    0.000    0.000    0.000    0.000    0.000 
#    0.000    0.000    0.000    0.000    0.000    0.000 
#
# Total GULP energy -198273.241453 kJ/mol
# GULP energy per Si atom -12392.077591 kJ/mol
# Density = 2.241632 g / cm^3
# Si number density = 22.467459 Si / 1000 Ang^3
#
#
#
# Elastic Constant Matrix: (Units=GPa)
#
#
# Indices 1 2 3 4 5 6 
#
# 1 76.7636 21.3621 25.0905 -7.6597 14.4567 0.9359
# 2 21.3621 102.1771 31.0414 -16.6105 2.2353 18.8587
# 3 25.0905 31.0414 144.1046 -10.7031 9.7441 7.4688
# 4 -7.6597 -16.6105 -10.7031 39.7194 -2.4917 2.5904
# 5 14.4567 2.2353 9.7441 -2.4917 34.4324 3.5845
# 6 0.9359 18.8587 7.4688 2.5904 3.5845 17.8006
#
#
#
# Elastic Compliance Matrix: (Units=1/GPa)
#
#
# Indices 1 2 3 4 5 6 
#
# 1 0.015743 -0.003421 -0.001791 0.000414 -0.006347 0.004766
# 2 -0.003421 0.015026 -0.001503 0.006501 0.003093 -0.016677
# 3 -0.001791 -0.001503 0.007817 0.001162 -0.001118 -0.001537
# 4 0.000414 0.006501 0.001162 0.029234 0.002455 -0.012145
# 5 -0.006347 0.003093 -0.001118 0.002455 0.032987 -0.009473
# 6 0.004766 -0.016677 -0.001537 -0.012145 -0.009473 0.077916
#
#
# Mechanical properties :
#
#
# Convention : Reuss Voigt Hill
#
# Bulk Modulus (GPa) = 39.75272 53.11481 46.43377
# Shear Modulus (GPa) = 24.93295 34.76058 29.84676
#
# Velocity S-wave (km/s) = 3.33488 3.93765 3.64874
# Velocity P-wave (km/s) = 5.70618 6.66075 6.20186
#
# Compressibility (1/GPa) = 0.02515551
#
# Stress axis : x y z
#
# Youngs Moduli (GPa) = 63.52063 66.55138 127.93149
#
# Poissons Ratio (x) = 0.22765 0.22916
# Poissons Ratio (y) = 0.21728 0.19229
# Poissons Ratio (z) = 0.11378 0.10003
#
# Static dielectric constant tensor:
#      x y z
#    x 4.019430 -0.540650 -0.566180 
#    y -0.540650 2.525770 -2.189430 
#    z -0.566180 -2.189430 1.391400 
# 
# 
# High freq. dielectric constant tensor:
#      x y z
#    x 1.880700 0.010400 0.017050 
#    y 0.010400 1.879640 -0.000870 
#    z 0.017050 -0.000870 1.908320 
# 
# From -- ./inp_files/495060.got.cif
#   From: 2010.06.25/outbox.cif.g09.slc.cpg/sg2_248_cif.got.tgz:495060.got - 2010.06.27 13:26:56.
