data_PCOD8005651
_publ_section_title
;
Structure prediction by ZEFSAII (Michael W. Deem and Ramdas Pophale) SiO2 
 PCOD8005651
Probable space group: P -1
;
_chemical_formula_sum "Si O2"
_cell_formula_units_Z 14
_cell_length_a 7.941957
_cell_length_b 13.687920
_cell_length_c 7.721276
_cell_angle_alpha 88.279895
_cell_angle_beta 83.128951
_cell_angle_gamma 122.247316
_cell_volume 700.385739
_symmetry_space_group_name_H-M "P -1"
_symmetry_group_IT_number 2
_symmetry_cell_setting 'triclinic'
loop_
_space_group_symop_operation_xyz
x,y,z
-x,-y,-z
loop_
_atom_site_type_symbol
_atom_site_label
_atom_site_fract_x
_atom_site_fract_y
_atom_site_fract_z
Si Si1 0.939874 0.155581 0.226320
Si Si2 0.709520 0.254943 0.373491
Si Si3 0.384970 0.055841 0.930830
Si Si4 0.656573 0.807479 0.766565
Si Si5 0.307017 0.703725 0.251589
Si Si6 0.401724 0.573866 0.999871
Si Si7 0.021342 0.643657 0.977004
O O1 0.791464 0.168199 0.374998
O O2 0.041705 0.264413 0.071066
O O3 0.118157 0.158138 0.312869
O O4 0.814131 0.036807 0.142257
O O5 0.465652 0.180596 0.378092
O O6 0.768084 0.329064 0.539310
O O7 0.816764 0.341413 0.190378
O O8 0.531432 0.158154 0.775955
O O9 0.320195 0.108664 0.086892
O O10 0.500000 0.000000 0.000000
O O11 0.522759 0.671849 0.837780
O O12 0.406873 0.632596 0.180737
O O13 0.124523 0.676633 0.149783
O O14 0.165998 0.488405 0.985115
O O15 0.500000 0.500000 0.000000
#
# Coordination Sequence:
#
# PCOD8005651 Si02
#       7
#     2   2   2   2   2   2   2
#     4  10  20  39  61  88 120 159 196 249 296 347
#     4  10  22  41  59  90 126 152 200 246 297 357
#     4  11  18  39  65  88 117 162 199 242 300 352
#     4  11  21  39  62  88 125 155 200 251 292 355
#     4  11  23  38  65  88 117 164 196 242 307 351
#     4  11  20  39  63  88 120 156 204 245 295 356
#     4  10  20  40  62  83 121 159 196 246 296 351
#
# _framework density 19.988985
#
# number of rings (size 3 to 8) (size 9 to 14) (size 15 to 20)
#    0.857    0.571    7.143    0.857    0.000    1.143 
#    2.571    1.429    0.000    0.000    0.000    0.000 
#    0.000    0.000    0.000    0.000    0.000    0.000 
#
# Total GULP energy -173494.225759 kJ/mol
# GULP energy per Si atom -12392.444697 kJ/mol
# Density = 1.994349 g / cm^3
# Si number density = 19.988985 Si / 1000 Ang^3
#
#
#
# Elastic Constant Matrix: (Units=GPa)
#
#
# Indices 1 2 3 4 5 6 
#
# 1 163.2604 34.3311 37.0660 12.7860 6.4648 5.9462
# 2 34.3311 117.9958 24.1144 12.6579 -1.4711 6.0372
# 3 37.0660 24.1144 91.2651 27.6429 7.5009 13.8103
# 4 12.7860 12.6579 27.6429 17.0771 -0.4360 1.3636
# 5 6.4648 -1.4711 7.5009 -0.4360 12.7953 7.8478
# 6 5.9462 6.0372 13.8103 1.3636 7.8478 33.4223
#
#
#
# Elastic Compliance Matrix: (Units=1/GPa)
#
#
# Indices 1 2 3 4 5 6 
#
# 1 0.007094 -0.001616 -0.001989 -0.001018 -0.003006 0.000599
# 2 -0.001616 0.009703 -0.000261 -0.005333 0.003041 -0.001854
# 3 -0.001989 -0.000261 0.025772 -0.039874 -0.011921 -0.005822
# 4 -0.001018 -0.005333 -0.039874 0.127863 0.023394 0.006911
# 5 -0.003006 0.003041 -0.011921 0.023394 0.099746 -0.019464
# 6 0.000599 -0.001854 -0.005822 0.006911 -0.019464 0.036842
#
#
# Mechanical properties :
#
#
# Convention : Reuss Voigt Hill
#
# Bulk Modulus (GPa) = 28.70675 62.61603 45.66139
# Shear Modulus (GPa) = 15.32019 31.12624 23.22322
#
# Velocity S-wave (km/s) = 2.77145 3.95038 3.41222
# Velocity P-wave (km/s) = 4.96324 7.22500 6.19816
#
# Compressibility (1/GPa) = 0.03483502
#
# Stress axis : x y z
#
# Youngs Moduli (GPa) = 140.97180 103.05602 38.80152
#
# Poissons Ratio (x) = 0.16657 0.07719
# Poissons Ratio (y) = 0.22786 0.01015
# Poissons Ratio (z) = 0.28044 0.02695
#
# Static dielectric constant tensor:
#      x y z
#    x 3.848740 -0.074270 0.054840 
#    y -0.074270 3.835430 0.100630 
#    z 0.054840 0.100630 3.227840 
# 
# 
# High freq. dielectric constant tensor:
#      x y z
#    x 1.790190 -0.002340 0.005760 
#    y -0.002340 1.788950 0.011520 
#    z 0.005760 0.011520 1.737030 
# 
# From -- ./inp_files/193055.got.cif
#   From: 2010.06.25/outbox.cif.g09.slc.cpg/sg2_97_cif.got.tgz:193055.got - 2010.06.27 13:26:56.
