data_PCOD8005015
_publ_section_title
;
Structure prediction by ZEFSAII (Michael W. Deem and Ramdas Pophale) SiO2 
 PCOD8005015
Probable space group: P -1
;
_chemical_formula_sum "Si O2"
_cell_formula_units_Z 16
_cell_length_a 9.858415
_cell_length_b 10.666231
_cell_length_c 8.818030
_cell_angle_alpha 89.937028
_cell_angle_beta 112.042714
_cell_angle_gamma 110.124249
_cell_volume 798.207924
_symmetry_space_group_name_H-M "P -1"
_symmetry_group_IT_number 2
_symmetry_cell_setting 'triclinic'
loop_
_space_group_symop_operation_xyz
x,y,z
-x,-y,-z
loop_
_atom_site_type_symbol
_atom_site_label
_atom_site_fract_x
_atom_site_fract_y
_atom_site_fract_z
Si Si1 0.054978 0.152878 0.459244
Si Si2 0.490683 0.042557 0.827911
Si Si3 0.767915 0.164090 0.487865
Si Si4 0.400427 0.270156 0.703229
Si Si5 0.117061 0.188475 0.127962
Si Si6 0.194116 0.936617 0.176624
Si Si7 0.599378 0.349631 0.512613
Si Si8 0.391981 0.447064 0.249328
O O1 0.217522 0.246379 0.607464
O O2 0.068079 0.166575 0.283597
O O3 0.923731 0.213382 0.450182
O O4 0.000000 0.000000 0.500000
O O5 0.420006 0.158945 0.821354
O O6 0.665373 0.100245 0.833547
O O7 0.381784 0.925041 0.673200
O O8 0.500000 0.000000 0.000000
O O9 0.799237 0.077866 0.639167
O O10 0.737943 0.296112 0.533636
O O11 0.469012 0.244956 0.568945
O O12 0.507592 0.421357 0.810773
O O13 0.230571 0.337902 0.119233
O O14 0.205766 0.085642 0.132092
O O15 0.968542 0.166972 0.958900
O O16 0.507620 0.365583 0.324745
O O17 0.662662 0.497850 0.618766
#
# Coordination Sequence:
#
# PCOD8005015 Si02
#       8
#     2   2   2   2   2   2   2   2
#     4  12  21  35  59  95 129 162 192 265 322 353
#     4  12  24  38  61  93 125 157 203 263 318 363
#     4  12  23  37  61  91 127 156 207 260 312 362
#     4  10  20  38  64  85 119 165 209 235 312 373
#     4  11  21  38  60  92 123 163 208 257 311 366
#     4  11  23  36  62  92 120 159 213 259 307 371
#     4   9  18  36  64  89 109 169 211 245 288 377
#     4   9  18  39  64  85 118 168 216 242 302 378
#
# _framework density 20.044900999999999
#
# number of rings (size 3 to 8) (size 9 to 14) (size 15 to 20)
#    0.750    0.500    5.000    1.875    0.000    0.000 
#    0.000    5.000    0.000    8.250    0.000    0.000 
#    0.000    0.000    0.000    0.000    0.000    0.000 
#
# Total GULP energy -198251.626494 kJ/mol
# GULP energy per Si atom -12390.726656 kJ/mol
# Density = 1.999928 g / cm^3
# Si number density = 20.044901 Si / 1000 Ang^3
#
#
#
# Elastic Constant Matrix: (Units=GPa)
#
#
# Indices 1 2 3 4 5 6 
#
# 1 99.9036 35.7816 19.0691 12.5948 24.5397 -8.7829
# 2 35.7816 89.7834 33.3661 12.8559 17.8541 4.8519
# 3 19.0691 33.3661 100.1740 1.4530 25.2090 8.9916
# 4 12.5948 12.8559 1.4530 30.1484 7.3497 9.3660
# 5 24.5397 17.8541 25.2090 7.3497 26.0600 -3.6603
# 6 -8.7829 4.8519 8.9916 9.3660 -3.6603 32.1409
#
#
#
# Elastic Compliance Matrix: (Units=1/GPa)
#
#
# Indices 1 2 3 4 5 6 
#
# 1 0.014525 -0.003776 0.000779 -0.003240 -0.010357 0.004086
# 2 -0.003776 0.015036 -0.003419 -0.003512 -0.002677 -0.001627
# 3 0.000779 -0.003419 0.015715 0.006746 -0.016552 -0.007518
# 4 -0.003240 -0.003512 0.006746 0.044977 -0.016168 -0.017190
# 5 -0.010357 -0.002677 -0.016552 -0.016168 0.072665 0.015191
# 6 0.004086 -0.001627 -0.007518 -0.017190 0.015191 0.041317
#
#
# Mechanical properties :
#
#
# Convention : Reuss Voigt Hill
#
# Bulk Modulus (GPa) = 30.82041 51.81050 41.31545
# Shear Modulus (GPa) = 21.94120 31.11283 26.52702
#
# Velocity S-wave (km/s) = 3.31207 3.94402 3.64178
# Velocity P-wave (km/s) = 5.48046 6.82962 6.19190
#
# Compressibility (1/GPa) = 0.03244603
#
# Stress axis : x y z
#
# Youngs Moduli (GPa) = 68.84771 66.50594 63.63153
#
# Poissons Ratio (x) = 0.25109 -0.04958
# Poissons Ratio (y) = 0.25994 0.21756
# Poissons Ratio (z) = -0.05365 0.22738
#
# Static dielectric constant tensor:
#      x y z
#    x 2.695630 -0.013840 0.419120 
#    y -0.013840 3.599490 -0.006800 
#    z 0.419120 -0.006800 3.382010 
# 
# 
# High freq. dielectric constant tensor:
#      x y z
#    x 1.782140 -0.003500 0.015270 
#    y -0.003500 1.773260 -0.003200 
#    z 0.015270 -0.003200 1.764600 
# 
# From -- ./inp_files/188731.got.cif
#   From: 2010.06.25/outbox.cif.g09.slc.cpg/sg2_95_cif.got.tgz:188731.got - 2010.06.27 13:26:56.
