data_PCOD8005790
_publ_section_title
;
Structure prediction by ZEFSAII (Michael W. Deem and Ramdas Pophale) SiO2 
 PCOD8005790
Probable space group: P -1
;
_chemical_formula_sum "Si O2"
_cell_formula_units_Z 16
_cell_length_a 19.373386
_cell_length_b 11.062018
_cell_length_c 5.295868
_cell_angle_alpha 59.954611
_cell_angle_beta 71.363104
_cell_angle_gamma 43.531716
_cell_volume 674.868660
_symmetry_space_group_name_H-M "P -1"
_symmetry_group_IT_number 2
_symmetry_cell_setting 'triclinic'
loop_
_space_group_symop_operation_xyz
x,y,z
-x,-y,-z
loop_
_atom_site_type_symbol
_atom_site_label
_atom_site_fract_x
_atom_site_fract_y
_atom_site_fract_z
Si Si1 0.538115 0.560937 0.696003
Si Si2 0.926370 0.176695 0.211515
Si Si3 0.916088 0.817647 0.121670
Si Si4 0.246915 0.390920 0.956450
Si Si5 0.660088 0.235094 0.524960
Si Si6 0.669397 0.625499 0.611905
Si Si7 0.785098 0.215898 0.996982
Si Si8 0.155297 0.213459 0.244393
O O1 0.641332 0.362310 0.655391
O O2 0.447070 0.701556 0.457576
O O3 0.564269 0.678092 0.662237
O O4 0.500000 0.500000 0.000000
O O5 0.826888 0.379306 0.233380
O O6 0.887644 0.102533 0.157535
O O7 0.000000 0.000000 0.500000
O O8 0.982032 0.227758 0.944176
O O9 0.903407 0.755176 0.467640
O O10 0.819602 0.047797 0.941969
O O11 0.916803 0.710139 0.995917
O O12 0.317717 0.287084 0.732726
O O13 0.319841 0.309668 0.201240
O O14 0.181372 0.339547 0.116637
O O15 0.689136 0.296999 0.192396
O O16 0.743541 0.006930 0.695924
O O17 0.760365 0.395275 0.712256
#
# Coordination Sequence:
#
# PCOD8005790 Si02
#       8
#     2   2   2   2   2   2   2   2
#     4  11  21  37  66 101 124 153 204 266 318 368
#     4  11  22  39  65  98 129 162 210 269 318 361
#     4  11  23  39  65  92 126 166 216 259 307 368
#     4  11  26  43  65  87 129 174 211 255 306 376
#     4  10  22  38  63  94 130 162 203 257 315 377
#     4  11  22  41  63  93 126 162 207 256 319 368
#     4  10  20  39  62  95 128 163 201 261 323 375
#     4  11  25  45  62  89 127 176 215 247 308 376
#
# _framework density 23.708314999999999
#
# number of rings (size 3 to 8) (size 9 to 14) (size 15 to 20)
#    0.000    1.250    1.250    5.625    3.500    5.000 
#    0.000    1.250    0.000    0.000    0.000    0.000 
#    0.000    0.000    0.000    0.000    0.000    0.000 
#
# Total GULP energy -198330.924991 kJ/mol
# GULP energy per Si atom -12395.682812 kJ/mol
# Density = 2.365435 g / cm^3
# Si number density = 23.708315 Si / 1000 Ang^3
#
#
#
# Elastic Constant Matrix: (Units=GPa)
#
#
# Indices 1 2 3 4 5 6 
#
# 1 135.2686 16.5890 35.6081 14.1956 -5.7721 0.7379
# 2 16.5890 41.0945 16.1777 17.6756 4.8779 3.8134
# 3 35.6081 16.1777 106.6057 28.1809 -4.4116 6.5511
# 4 14.1956 17.6756 28.1809 32.0332 1.7084 -1.5301
# 5 -5.7721 4.8779 -4.4116 1.7084 38.5899 5.4028
# 6 0.7379 3.8134 6.5511 -1.5301 5.4028 34.3890
#
#
#
# Elastic Compliance Matrix: (Units=1/GPa)
#
#
# Indices 1 2 3 4 5 6 
#
# 1 0.008396 -0.002508 -0.002291 -0.000375 0.001283 0.000316
# 2 -0.002508 0.033603 0.000616 -0.017997 -0.003183 -0.004090
# 3 -0.002291 0.000616 0.013344 -0.011336 0.002082 -0.003392
# 4 -0.000375 -0.017997 -0.011336 0.051738 -0.002324 0.006830
# 5 0.001283 -0.003183 0.002082 -0.002324 0.027477 -0.004492
# 6 0.000316 -0.004090 -0.003392 0.006830 -0.004492 0.031182
#
#
# Mechanical properties :
#
#
# Convention : Reuss Voigt Hill
#
# Bulk Modulus (GPa) = 21.28778 46.63539 33.96158
# Shear Modulus (GPa) = 26.34862 35.30870 30.82866
#
# Velocity S-wave (km/s) = 3.33733 3.86333 3.60992
# Velocity P-wave (km/s) = 4.88353 6.29393 5.63305
#
# Compressibility (1/GPa) = 0.04697531
#
# Stress axis : x y z
#
# Youngs Moduli (GPa) = 119.10886 29.75965 74.94270
#
# Poissons Ratio (x) = 0.07463 0.17170
# Poissons Ratio (y) = 0.29870 -0.04613
# Poissons Ratio (z) = 0.27288 -0.01832
#
# Static dielectric constant tensor:
#      x y z
#    x 4.690240 -0.065290 0.117910 
#    y -0.065290 4.032050 0.152740 
#    z 0.117910 0.152740 4.079650 
# 
# 
# High freq. dielectric constant tensor:
#      x y z
#    x 1.963730 -0.003900 0.004900 
#    y -0.003900 1.913850 0.016970 
#    z 0.004900 0.016970 1.933870 
# 
# From -- ./inp_files/85365.got.cif
#   From: 2010.06.25/outbox.cif.g09.slc.cpg/sg2_43_cif.got.tgz:85365.got - 2010.06.27 13:26:56.
