data_PCOD8005817
_publ_section_title
;
Structure prediction by ZEFSAII (Michael W. Deem and Ramdas Pophale) SiO2 
 PCOD8005817
Probable space group: P -1
;
_chemical_formula_sum "Si O2"
_cell_formula_units_Z 16
_cell_length_a 19.243193
_cell_length_b 11.135369
_cell_length_c 8.049746
_cell_angle_alpha 40.538116
_cell_angle_beta 131.952951
_cell_angle_gamma 139.212669
_cell_volume 714.536957
_symmetry_space_group_name_H-M "P -1"
_symmetry_group_IT_number 2
_symmetry_cell_setting 'triclinic'
loop_
_space_group_symop_operation_xyz
x,y,z
-x,-y,-z
loop_
_atom_site_type_symbol
_atom_site_label
_atom_site_fract_x
_atom_site_fract_y
_atom_site_fract_z
Si Si1 0.459676 0.878764 0.891974
Si Si2 0.577613 0.685952 0.138434
Si Si3 0.209646 0.909081 0.003898
Si Si4 0.550658 0.285512 0.388737
Si Si5 0.992219 0.125307 0.110236
Si Si6 0.088721 0.556060 0.943263
Si Si7 0.018185 0.267874 0.636157
Si Si8 0.262268 0.656386 0.601256
O O1 0.328500 0.750247 0.784302
O O2 0.517340 0.052336 0.652424
O O3 0.502880 0.712263 0.128237
O O4 0.500000 0.000000 0.000000
O O5 0.566877 0.453355 0.384959
O O6 0.545774 0.728914 0.860565
O O7 0.703827 0.863157 0.173653
O O8 0.243488 0.836727 0.300955
O O9 0.196735 0.745753 0.003119
O O10 0.105911 0.926503 0.867905
O O11 0.661526 0.387200 0.352355
O O12 0.095818 0.346733 0.119139
O O13 0.968254 0.164564 0.842284
O O14 0.008326 0.920847 0.343706
O O15 0.048849 0.621678 0.644807
O O16 0.000000 0.500000 0.000000
O O17 0.148367 0.434639 0.681014
#
# Coordination Sequence:
#
# PCOD8005817 Si02
#       8
#     2   2   2   2   2   2   2   2
#     4  11  23  40  60  91 122 151 189 245 298 352
#     4  10  20  39  63  86 117 151 199 238 287 348
#     4  11  20  38  61  90 115 158 198 242 288 344
#     4  10  20  39  64  86 113 155 196 242 285 350
#     4  10  23  39  59  84 123 158 195 238 296 344
#     4  10  21  36  56  84 114 150 198 242 284 333
#     4  11  22  41  59  86 121 160 192 244 291 346
#     4  11  20  39  64  84 116 159 200 234 295 350
#
# _framework density 22.392125
#
# number of rings (size 3 to 8) (size 9 to 14) (size 15 to 20)
#    0.000    1.500    5.000    1.875    0.000    3.500 
#    2.250    1.250    0.000    0.000    0.000    0.000 
#    0.000    0.000    0.000    0.000    0.000    0.000 
#
# Total GULP energy -198277.567076 kJ/mol
# GULP energy per Si atom -12392.347942 kJ/mol
# Density = 2.234116 g / cm^3
# Si number density = 22.392125 Si / 1000 Ang^3
#
#
#
# Elastic Constant Matrix: (Units=GPa)
#
#
# Indices 1 2 3 4 5 6 
#
# 1 32.6471 22.1614 -4.9552 7.3265 5.3842 -10.3052
# 2 22.1614 132.8040 3.2954 0.9102 14.0630 -15.7971
# 3 -4.9552 3.2954 27.4740 2.5354 1.0311 -0.0246
# 4 7.3265 0.9102 2.5354 33.3185 -9.4993 1.0571
# 5 5.3842 14.0630 1.0311 -9.4993 27.2733 -4.1488
# 6 -10.3052 -15.7971 -0.0246 1.0571 -4.1488 43.1251
#
#
#
# Elastic Compliance Matrix: (Units=1/GPa)
#
#
# Indices 1 2 3 4 5 6 
#
# 1 0.042619 -0.005371 0.009877 -0.012882 -0.009343 0.007639
# 2 -0.005371 0.009017 -0.001938 0.000111 -0.003218 0.001706
# 3 0.009877 -0.001938 0.039172 -0.006414 -0.004452 0.001402
# 4 -0.012882 0.000111 -0.006414 0.037838 0.015531 -0.002475
# 5 -0.009343 -0.003218 -0.004452 0.015531 0.045841 0.000616
# 6 0.007639 0.001706 0.001402 -0.002475 0.000616 0.025760
#
#
# Mechanical properties :
#
#
# Convention : Reuss Voigt Hill
#
# Bulk Modulus (GPa) = 10.42267 25.99206 18.20736
# Shear Modulus (GPa) = 22.01758 32.23826 27.12792
#
# Velocity S-wave (km/s) = 3.13912 3.79847 3.48443
# Velocity P-wave (km/s) = 4.21942 5.55614 4.93327
#
# Compressibility (1/GPa) = 0.09594467
#
# Stress axis : x y z
#
# Youngs Moduli (GPa) = 23.46388 110.89942 25.52834
#
# Poissons Ratio (x) = 0.59561 -0.25215
# Poissons Ratio (y) = 0.12602 0.04948
# Poissons Ratio (z) = -0.23176 0.21494
#
# Static dielectric constant tensor:
#      x y z
#    x 3.813600 -0.214380 0.163120 
#    y -0.214380 4.465280 -0.217550 
#    z 0.163120 -0.217550 3.676120 
# 
# 
# High freq. dielectric constant tensor:
#      x y z
#    x 1.863610 -0.016870 0.004960 
#    y -0.016870 1.900160 -0.006380 
#    z 0.004960 -0.006380 1.858240 
# 
# From -- ./inp_files/345004.got.cif
#   From: 2010.06.25/outbox.cif.g09.slc.cpg/sg2_173_cif.got.tgz:345004.got - 2010.06.27 13:26:56.
