data_PCOD8005528
_publ_section_title
;
Structure prediction by ZEFSAII (Michael W. Deem and Ramdas Pophale) SiO2 
 PCOD8005528
Probable space group: P -1
;
_chemical_formula_sum "Si O2"
_cell_formula_units_Z 16
_cell_length_a 15.691400
_cell_length_b 20.939417
_cell_length_c 9.665911
_cell_angle_alpha 62.456504
_cell_angle_beta 125.535601
_cell_angle_gamma 161.821829
_cell_volume 754.167232
_symmetry_space_group_name_H-M "P -1"
_symmetry_group_IT_number 2
_symmetry_cell_setting 'triclinic'
loop_
_space_group_symop_operation_xyz
x,y,z
-x,-y,-z
loop_
_atom_site_type_symbol
_atom_site_label
_atom_site_fract_x
_atom_site_fract_y
_atom_site_fract_z
Si Si1 0.602267 0.425491 0.139915
Si Si2 0.349003 0.962091 0.992701
Si Si3 0.633228 0.513361 0.802522
Si Si4 0.690736 0.065685 0.696894
Si Si5 0.245477 0.253551 0.217302
Si Si6 0.362470 0.253277 0.586779
Si Si7 0.512484 0.793602 0.068858
Si Si8 0.687981 0.320694 0.301460
O O1 0.321587 0.281648 0.104224
O O2 0.592370 0.335113 0.262255
O O3 0.936008 0.681909 0.232157
O O4 0.537394 0.391470 0.949329
O O5 0.400342 0.978476 0.186095
O O6 0.976829 0.722395 0.850679
O O7 0.500000 0.000000 0.000000
O O8 0.501194 0.139688 0.927660
O O9 0.600301 0.569092 0.785082
O O10 0.397275 0.348400 0.616436
O O11 0.500000 0.000000 0.500000
O O12 0.587719 0.918405 0.700061
O O13 0.435508 0.320289 0.429175
O O14 0.866390 0.010562 0.122577
O O15 0.571350 0.323789 0.780839
O O16 0.000000 0.000000 0.500000
O O17 0.262938 0.634665 0.863612
O O18 0.000000 0.500000 0.500000
#
# Coordination Sequence:
#
# PCOD8005528 Si02
#       8
#     2   2   2   2   2   2   2   2
#     4  11  22  40  64  95 125 163 207 255 309 371
#     4   9  20  38  62  84 110 160 208 246 302 364
#     4  10  20  39  63  82 124 162 194 253 315 357
#     4  10  21  39  60  89 124 157 204 253 301 361
#     4  10  22  39  63  94 121 158 209 253 308 371
#     4  10  20  39  59  86 122 163 198 247 308 367
#     4   9  20  41  62  88 125 158 203 261 304 364
#     4  11  21  39  66  87 125 169 201 251 314 362
#
# _framework density 21.215454000000001
#
# number of rings (size 3 to 8) (size 9 to 14) (size 15 to 20)
#    0.000    2.000    2.500    1.500    0.000    1.500 
#    6.750    0.625    0.000    0.000    0.000    0.000 
#    0.000    0.000    0.000    0.000    0.000    0.000 
#
# Total GULP energy -198290.099248 kJ/mol
# GULP energy per Si atom -12393.131203 kJ/mol
# Density = 2.116717 g / cm^3
# Si number density = 21.215454 Si / 1000 Ang^3
#
#
#
# Elastic Constant Matrix: (Units=GPa)
#
#
# Indices 1 2 3 4 5 6 
#
# 1 134.4422 41.8624 14.2882 2.9014 0.9565 -6.6491
# 2 41.8624 56.1935 16.6087 -1.0193 -3.2460 -16.1746
# 3 14.2882 16.6087 110.4393 -0.0989 -1.6597 -6.7658
# 4 2.9014 -1.0193 -0.0989 26.9540 -15.1706 -0.7163
# 5 0.9565 -3.2460 -1.6597 -15.1706 29.4480 -2.1694
# 6 -6.6491 -16.1746 -6.7658 -0.7163 -2.1694 34.7122
#
#
#
# Elastic Compliance Matrix: (Units=1/GPa)
#
#
# Indices 1 2 3 4 5 6 
#
# 1 0.010018 -0.008270 -0.000238 -0.003166 -0.003046 -0.002237
# 2 -0.008270 0.028641 -0.002389 0.006516 0.007524 0.011900
# 3 -0.000238 -0.002389 0.009497 0.000249 0.000461 0.000726
# 4 -0.003166 0.006516 0.000249 0.054260 0.029188 0.005422
# 5 -0.003046 0.007524 0.000461 0.029188 0.050448 0.006768
# 6 -0.002237 0.011900 0.000726 0.005422 0.006768 0.034601
#
#
# Mechanical properties :
#
#
# Convention : Reuss Voigt Hill
#
# Bulk Modulus (GPa) = 37.93506 49.62153 43.77829
# Shear Modulus (GPa) = 22.93100 33.44390 28.18745
#
# Velocity S-wave (km/s) = 3.29121 3.97469 3.64899
# Velocity P-wave (km/s) = 5.68880 6.67116 6.19947
#
# Compressibility (1/GPa) = 0.02636084
#
# Stress axis : x y z
#
# Youngs Moduli (GPa) = 99.82180 34.91522 105.30193
#
# Poissons Ratio (x) = 0.28874 0.02507
# Poissons Ratio (y) = 0.82551 0.25160
# Poissons Ratio (z) = 0.02376 0.08342
#
# Static dielectric constant tensor:
#      x y z
#    x 3.697280 -0.545930 0.059810 
#    y -0.545930 3.914680 -0.323270 
#    z 0.059810 -0.323270 4.697810 
# 
# 
# High freq. dielectric constant tensor:
#      x y z
#    x 1.820350 -0.040110 -0.002450 
#    y -0.040110 1.816810 -0.006530 
#    z -0.002450 -0.006530 1.845390 
# 
# From -- ./inp_files/319334.got.cif
#   From: 2010.06.25/outbox.cif.g09.slc.cpg/sg2_160_cif.got.tgz:319334.got - 2010.06.27 13:26:56.
