data_PCOD8005478
_publ_section_title
;
Structure prediction by ZEFSAII (Michael W. Deem and Ramdas Pophale) SiO2 
 PCOD8005478
Probable space group: P -1
;
_chemical_formula_sum "Si O2"
_cell_formula_units_Z 16
_cell_length_a 12.658325
_cell_length_b 12.744410
_cell_length_c 5.041065
_cell_angle_alpha 94.770844
_cell_angle_beta 92.677097
_cell_angle_gamma 99.101043
_cell_volume 798.736843
_symmetry_space_group_name_H-M "P -1"
_symmetry_group_IT_number 2
_symmetry_cell_setting 'triclinic'
loop_
_space_group_symop_operation_xyz
x,y,z
-x,-y,-z
loop_
_atom_site_type_symbol
_atom_site_label
_atom_site_fract_x
_atom_site_fract_y
_atom_site_fract_z
Si Si1 0.735243 0.629931 0.888184
Si Si2 0.850418 0.372253 0.459202
Si Si3 0.362172 0.949621 0.199498
Si Si4 0.434688 0.562374 0.206310
Si Si5 0.365310 0.302147 0.587168
Si Si6 0.278228 0.709411 0.068198
Si Si7 0.391932 0.070829 0.728501
Si Si8 0.050094 0.428554 0.209214
O O1 0.672146 0.517397 0.731508
O O2 0.703953 0.717195 0.695030
O O3 0.862690 0.634355 0.925940
O O4 0.698924 0.646059 0.184058
O O5 0.813697 0.318121 0.723795
O O6 0.883588 0.498792 0.539308
O O7 0.959000 0.342496 0.327255
O O8 0.756759 0.343636 0.229544
O O9 0.296928 0.836508 0.080724
O O10 0.486090 0.943237 0.237733
O O11 0.327026 0.990884 0.487297
O O12 0.338243 0.036535 0.997720
O O13 0.522849 0.615256 0.446330
O O14 0.389769 0.666736 0.116852
O O15 0.500000 0.500000 0.000000
O O16 0.387779 0.191292 0.678171
O O17 0.000000 0.500000 0.000000
#
# Coordination Sequence:
#
# PCOD8005478 Si02
#       8
#     2   2   2   2   2   2   2   2
#     4  11  24  36  59  84 121 160 199 225 292 354
#     4  11  24  35  61  82 120 149 196 245 293 339
#     4  10  21  36  61  84 115 155 198 251 289 338
#     4  10  22  36  53  82 129 165 190 226 267 358
#     4  11  23  38  56  87 119 165 194 232 281 363
#     4  12  22  39  57  92 116 161 196 237 297 350
#     4  10  20  39  57  85 117 154 200 246 292 331
#     4  11  23  41  60  86 120 159 194 257 288 339
#
# _framework density 20.031628999999999
#
# number of rings (size 3 to 8) (size 9 to 14) (size 15 to 20)
#    0.000    1.250    3.750    1.875    7.000    2.000 
#    0.000    0.000    0.000    0.000    0.000   17.500 
#    0.000    0.000    0.000    0.000    0.000    0.000 
#
# Total GULP energy -198221.289713 kJ/mol
# GULP energy per Si atom -12388.830607 kJ/mol
# Density = 1.998604 g / cm^3
# Si number density = 20.031629 Si / 1000 Ang^3
#
#
#
# Elastic Constant Matrix: (Units=GPa)
#
#
# Indices 1 2 3 4 5 6 
#
# 1 68.3438 12.6490 18.3007 0.4200 -5.4471 -3.9398
# 2 12.6490 46.3691 11.6490 -4.3516 -7.9621 -0.1526
# 3 18.3007 11.6490 85.3567 -3.4483 2.5331 6.7858
# 4 0.4200 -4.3516 -3.4483 31.2922 6.1113 2.2209
# 5 -5.4471 -7.9621 2.5331 6.1113 24.7646 -2.2401
# 6 -3.9398 -0.1526 6.7858 2.2209 -2.2401 18.7785
#
#
#
# Elastic Compliance Matrix: (Units=1/GPa)
#
#
# Indices 1 2 3 4 5 6 
#
# 1 0.016925 -0.003120 -0.003874 -0.002313 0.004202 0.005700
# 2 -0.003120 0.024551 -0.002931 0.001633 0.007219 0.001272
# 3 -0.003874 -0.002931 0.013703 0.002484 -0.004407 -0.006608
# 4 -0.002313 0.001633 0.002484 0.034798 -0.009423 -0.006609
# 5 0.004202 0.007219 -0.004407 -0.009423 0.047241 0.009283
# 6 0.005700 0.001272 -0.006608 -0.006609 0.009283 0.058735
#
#
# Mechanical properties :
#
#
# Convention : Reuss Voigt Hill
#
# Bulk Modulus (GPa) = 28.30698 31.69630 30.00164
# Shear Modulus (GPa) = 21.97042 25.46512 23.71777
#
# Velocity S-wave (km/s) = 3.31537 3.56932 3.44469
# Velocity P-wave (km/s) = 5.36818 5.73099 5.55255
#
# Compressibility (1/GPa) = 0.03532697
#
# Stress axis : x y z
#
# Youngs Moduli (GPa) = 59.08577 40.73227 72.97891
#
# Poissons Ratio (x) = 0.12710 0.28273
# Poissons Ratio (y) = 0.18437 0.21389
# Poissons Ratio (z) = 0.22891 0.11938
#
# Static dielectric constant tensor:
#      x y z
#    x 3.818950 0.127120 -0.010350 
#    y 0.127120 3.488700 0.022760 
#    z -0.010350 0.022760 3.878160 
# 
# 
# High freq. dielectric constant tensor:
#      x y z
#    x 1.766460 0.003730 -0.002740 
#    y 0.003730 1.753680 -0.000240 
#    z -0.002740 -0.000240 1.795780 
# 
# From -- ./inp_files/66866.got.cif
#   From: 2010.06.25/outbox.cif.g09.slc.cpg/sg2_34_cif.got.tgz:66866.got - 2010.06.27 13:26:56.
