data_PCOD8005681
_publ_section_title
;
Structure prediction by ZEFSAII (Michael W. Deem and Ramdas Pophale) SiO2 
 PCOD8005681
Probable space group: P -1
;
_chemical_formula_sum "Si O2"
_cell_formula_units_Z 14
_cell_length_a 10.924244
_cell_length_b 16.883017
_cell_length_c 19.776283
_cell_angle_alpha 19.740191
_cell_angle_beta 41.135692
_cell_angle_gamma 31.455861
_cell_volume 616.725872
_symmetry_space_group_name_H-M "P -1"
_symmetry_group_IT_number 2
_symmetry_cell_setting 'triclinic'
loop_
_space_group_symop_operation_xyz
x,y,z
-x,-y,-z
loop_
_atom_site_type_symbol
_atom_site_label
_atom_site_fract_x
_atom_site_fract_y
_atom_site_fract_z
Si Si1 0.997506 0.098772 0.345989
Si Si2 0.840088 0.331168 0.043605
Si Si3 0.626802 0.570053 0.800463
Si Si4 0.813761 0.940109 0.197336
Si Si5 0.790826 0.291015 0.555831
Si Si6 0.693920 0.717295 0.915020
Si Si7 0.096141 0.360603 0.462255
O O1 0.196868 0.137110 0.216036
O O2 0.068616 0.838129 0.471768
O O3 0.000000 0.000000 0.500000
O O4 0.738200 0.443582 0.162195
O O5 0.651328 0.277415 0.190623
O O6 0.780375 0.484048 0.873398
O O7 0.824759 0.565894 0.910357
O O8 0.110902 0.000076 0.202852
O O9 0.661806 0.773926 0.575361
O O10 0.774063 0.248071 0.956043
O O11 0.828410 0.900006 0.305586
O O12 0.039907 0.639692 0.305995
O O13 0.585996 0.995008 0.213606
O O14 0.500000 0.500000 0.500000
O O15 0.873490 0.461581 0.423966
#
# Coordination Sequence:
#
# PCOD8005681 Si02
#       7
#     2   2   2   2   2   2   2
#     4  10  22  40  62  88 117 164 216 246 295 368
#     4   9  20  39  61  87 124 154 201 262 298 359
#     4  10  20  39  61  91 120 157 206 251 305 366
#     4  10  21  40  59  92 124 158 199 259 308 368
#     4  11  23  42  60  91 130 163 201 255 309 367
#     4   9  20  39  62  82 123 160 199 256 303 350
#     4  11  23  37  64  91 126 163 199 251 319 365
#
# _framework density 22.700524999999999
#
# number of rings (size 3 to 8) (size 9 to 14) (size 15 to 20)
#    0.000    2.000    1.429    1.286    2.000    4.000 
#    2.571    0.714    0.000    0.000    0.000    0.000 
#    0.000    0.000    0.000    0.000    0.000    0.000 
#
# Total GULP energy -173436.469747 kJ/mol
# GULP energy per Si atom -12388.319268 kJ/mol
# Density = 2.264886 g / cm^3
# Si number density = 22.700525 Si / 1000 Ang^3
#
#
#
# Elastic Constant Matrix: (Units=GPa)
#
#
# Indices 1 2 3 4 5 6 
#
# 1 116.5124 30.9431 23.0394 9.0226 22.2518 10.1949
# 2 30.9431 78.4794 29.1272 11.2593 19.6250 2.5171
# 3 23.0394 29.1272 47.5823 13.1186 21.2336 4.1321
# 4 9.0226 11.2593 13.1186 31.3008 -0.7345 6.0432
# 5 22.2518 19.6250 21.2336 -0.7345 39.6603 -7.6501
# 6 10.1949 2.5171 4.1321 6.0432 -7.6501 36.1498
#
#
#
# Elastic Compliance Matrix: (Units=1/GPa)
#
#
# Indices 1 2 3 4 5 6 
#
# 1 0.010778 -0.002352 -0.000764 -0.001355 -0.005206 -0.003664
# 2 -0.002352 0.017670 -0.007360 -0.002671 -0.003538 -0.000028
# 3 -0.000764 -0.007360 0.037349 -0.012198 -0.017141 -0.005130
# 4 -0.001355 -0.002671 -0.012198 0.039143 0.008814 -0.002716
# 5 -0.005206 -0.003538 -0.017141 0.008814 0.041338 0.010949
# 6 -0.003664 -0.000028 -0.005130 -0.002716 0.010949 0.032055
#
#
# Mechanical properties :
#
#
# Convention : Reuss Voigt Hill
#
# Bulk Modulus (GPa) = 22.29876 45.42148 33.86012
# Shear Modulus (GPa) = 23.33894 32.05315 27.69605
#
# Velocity S-wave (km/s) = 3.20991 3.76174 3.49673
# Velocity P-wave (km/s) = 4.85617 6.23859 5.59028
#
# Compressibility (1/GPa) = 0.04484553
#
# Stress axis : x y z
#
# Youngs Moduli (GPa) = 92.77826 56.59246 26.77458
#
# Poissons Ratio (x) = 0.13313 0.02045
# Poissons Ratio (y) = 0.21825 0.19705
# Poissons Ratio (z) = 0.07086 0.41651
#
# Static dielectric constant tensor:
#      x y z
#    x 4.365730 0.170110 0.071860 
#    y 0.170110 3.652830 -0.228450 
#    z 0.071860 -0.228450 3.944850 
# 
# 
# High freq. dielectric constant tensor:
#      x y z
#    x 1.919190 0.019910 0.001260 
#    y 0.019910 1.861540 -0.022660 
#    z 0.001260 -0.022660 1.889630 
# 
# From -- ./inp_files/337402.got.cif
#   From: 2010.06.25/outbox.cif.g09.slc.cpg/sg2_169_cif.got.tgz:337402.got - 2010.06.27 13:26:56.
