data_PCOD8005669
_publ_section_title
;
Structure prediction by ZEFSAII (Michael W. Deem and Ramdas Pophale) SiO2 
 PCOD8005669
Probable space group: P -1
;
_chemical_formula_sum "Si O2"
_cell_formula_units_Z 16
_cell_length_a 21.105694
_cell_length_b 10.785648
_cell_length_c 6.726304
_cell_angle_alpha 106.242179
_cell_angle_beta 76.626657
_cell_angle_gamma 146.568123
_cell_volume 809.912829
_symmetry_space_group_name_H-M "P -1"
_symmetry_group_IT_number 2
_symmetry_cell_setting 'triclinic'
loop_
_space_group_symop_operation_xyz
x,y,z
-x,-y,-z
loop_
_atom_site_type_symbol
_atom_site_label
_atom_site_fract_x
_atom_site_fract_y
_atom_site_fract_z
Si Si1 0.716045 0.688024 0.591312
Si Si2 0.132085 0.248356 0.268562
Si Si3 0.514060 0.676998 0.587807
Si Si4 0.725103 0.061599 0.340931
Si Si5 0.890070 0.113240 0.393378
Si Si6 0.606151 0.741556 0.924981
Si Si7 0.899718 0.562690 0.361447
Si Si8 0.034538 0.229385 0.990614
O O1 0.753553 0.645401 0.712731
O O2 0.607464 0.455571 0.440020
O O3 0.682528 0.763930 0.761089
O O4 0.819752 0.883613 0.450131
O O5 0.108752 0.305111 0.494589
O O6 0.024206 0.977265 0.193007
O O7 0.139555 0.343856 0.100474
O O8 0.500000 0.500000 0.500000
O O9 0.552865 0.763714 0.826105
O O10 0.608585 0.891521 0.470616
O O11 0.807693 0.098990 0.412792
O O12 0.785019 0.297337 0.378962
O O13 0.693991 0.954141 0.101894
O O14 0.991216 0.326882 0.562372
O O15 0.940204 0.142348 0.162313
O O16 0.500000 0.500000 0.000000
O O17 0.914594 0.585514 0.121355
#
# Coordination Sequence:
#
# PCOD8005669 Si02
#       8
#     2   2   2   2   2   2   2   2
#     4  11  20  39  66  94 118 153 203 262 293 350
#     4  10  22  39  64  87 120 163 209 246 292 353
#     4  10  20  39  61  90 118 151 200 254 301 348
#     4  12  23  39  63  90 127 162 193 247 316 363
#     4  11  22  38  63  94 123 156 199 250 310 359
#     4  11  20  38  63  90 120 151 202 252 299 352
#     4  11  25  41  56  91 132 162 196 245 305 364
#     4  10  22  39  61  91 120 164 209 245 291 354
#
# _framework density 19.755212
#
# number of rings (size 3 to 8) (size 9 to 14) (size 15 to 20)
#    0.000    1.250    6.250    1.500    3.500    2.500 
#    0.000    0.625    0.000    1.500    0.000    0.000 
#    0.000    0.000    0.000    0.000    0.000    0.000 
#
# Total GULP energy -198355.368830 kJ/mol
# GULP energy per Si atom -12397.210552 kJ/mol
# Density = 1.971025 g / cm^3
# Si number density = 19.755212 Si / 1000 Ang^3
#
#
#
# Elastic Constant Matrix: (Units=GPa)
#
#
# Indices 1 2 3 4 5 6 
#
# 1 78.5875 25.6897 37.0990 6.8154 26.1129 19.8782
# 2 25.6897 110.7339 43.3884 -18.8958 8.0077 11.9317
# 3 37.0990 43.3884 110.0305 -11.7671 21.7898 8.7875
# 4 6.8154 -18.8958 -11.7671 26.5627 6.5563 7.2888
# 5 26.1129 8.0077 21.7898 6.5563 33.8818 9.4533
# 6 19.8782 11.9317 8.7875 7.2888 9.4533 24.3004
#
#
#
# Elastic Compliance Matrix: (Units=1/GPa)
#
#
# Indices 1 2 3 4 5 6 
#
# 1 0.021520 -0.002249 -0.003979 -0.003656 -0.009974 -0.010084
# 2 -0.002249 0.013170 -0.002827 0.010501 0.000327 -0.006881
# 3 -0.003979 -0.002827 0.013444 0.006428 -0.006233 0.000278
# 4 -0.003656 0.010501 0.006428 0.056121 -0.009769 -0.017523
# 5 -0.009974 0.000327 -0.006233 -0.009769 0.044135 -0.003987
# 6 -0.010084 -0.006881 0.000278 -0.017523 -0.003987 0.059485
#
#
# Mechanical properties :
#
#
# Convention : Reuss Voigt Hill
#
# Bulk Modulus (GPa) = 33.30794 56.85624 45.08209
# Shear Modulus (GPa) = 21.18678 29.82731 25.50705
#
# Velocity S-wave (km/s) = 3.27840 3.88989 3.59716
# Velocity P-wave (km/s) = 5.58816 7.00127 6.33425
#
# Compressibility (1/GPa) = 0.03002287
#
# Stress axis : x y z
#
# Youngs Moduli (GPa) = 46.46744 75.93076 74.38054
#
# Poissons Ratio (x) = 0.17080 0.29599
# Poissons Ratio (y) = 0.10452 0.21028
# Poissons Ratio (z) = 0.18491 0.21466
#
# Static dielectric constant tensor:
#      x y z
#    x 3.665090 0.257580 0.465630 
#    y 0.257580 3.532610 0.055810 
#    z 0.465630 0.055810 3.982330 
# 
# 
# High freq. dielectric constant tensor:
#      x y z
#    x 1.753910 0.017330 0.027950 
#    y 0.017330 1.751600 -0.002760 
#    z 0.027950 -0.002760 1.783120 
# 
# From -- ./inp_files/123713.got.cif
#   From: 2010.06.25/outbox.cif.g09.slc.cpg/sg2_62_cif.got.tgz:123713.got - 2010.06.27 13:26:56.
