data_PCOD8005007
_publ_section_title
;
Structure prediction by ZEFSAII (Michael W. Deem and Ramdas Pophale) SiO2 
 PCOD8005007
Probable space group: P -1
;
_chemical_formula_sum "Si O2"
_cell_formula_units_Z 16
_cell_length_a 10.190237
_cell_length_b 14.926956
_cell_length_c 11.775840
_cell_angle_alpha 137.960545
_cell_angle_beta 140.685223
_cell_angle_gamma 69.051711
_cell_volume 652.962183
_symmetry_space_group_name_H-M "P -1"
_symmetry_group_IT_number 2
_symmetry_cell_setting 'triclinic'
loop_
_space_group_symop_operation_xyz
x,y,z
-x,-y,-z
loop_
_atom_site_type_symbol
_atom_site_label
_atom_site_fract_x
_atom_site_fract_y
_atom_site_fract_z
Si Si1 0.511879 0.677856 0.575322
Si Si2 0.837331 0.657213 0.933834
Si Si3 0.410632 0.084123 0.725064
Si Si4 0.931852 0.322120 0.272432
Si Si5 0.311137 0.886328 0.679717
Si Si6 0.427196 0.362821 0.676562
Si Si7 0.709106 0.198540 0.762553
Si Si8 0.206961 0.298310 0.792785
O O1 0.751034 0.749080 0.880177
O O2 0.303894 0.526767 0.359763
O O3 0.424761 0.797800 0.609182
O O4 0.569394 0.632489 0.451672
O O5 0.778749 0.684076 0.045966
O O6 0.116635 0.718249 0.151806
O O7 0.285419 0.178717 0.690429
O O8 0.261862 0.976564 0.630894
O O9 0.412091 0.987533 0.522631
O O10 0.684767 0.205671 0.063741
O O11 0.000000 0.500000 0.500000
O O12 0.148114 0.308677 0.464647
O O13 0.874156 0.262203 0.045991
O O14 0.074819 0.772659 0.488639
O O15 0.500000 0.000000 0.000000
O O16 0.503307 0.246014 0.671827
O O17 0.623390 0.541684 0.012879
#
# Coordination Sequence:
#
# PCOD8005007 Si02
#       8
#     2   2   2   2   2   2   2   2
#     4  10  20  38  64 106 133 182 229 284 347 422
#     4  10  20  38  73  98 142 181 227 283 360 416
#     4  12  26  47  68 104 146 188 229 296 357 415
#     4  12  28  51  73  99 142 191 247 288 351 419
#     4  12  25  39  66 107 145 179 231 290 361 420
#     4  11  23  46  75 100 133 187 237 289 345 424
#     4  12  25  45  75 105 138 185 239 297 351 414
#     4  11  23  43  69 101 143 183 229 288 360 423
#
# _framework density 24.503716000000001
#
# number of rings (size 3 to 8) (size 9 to 14) (size 15 to 20)
#    0.000    0.750    5.000    2.250    1.750    5.000 
#    2.250    0.000    0.000    0.000    0.000    0.000 
#    0.000    0.000    0.000    0.000    0.000    0.000 
#
# Total GULP energy -198350.262604 kJ/mol
# GULP energy per Si atom -12396.891413 kJ/mol
# Density = 2.444794 g / cm^3
# Si number density = 24.503716 Si / 1000 Ang^3
#
#
#
# Elastic Constant Matrix: (Units=GPa)
#
#
# Indices 1 2 3 4 5 6 
#
# 1 45.2511 -0.4468 6.0886 5.7834 5.9360 -13.3216
# 2 -0.4468 100.1179 22.5711 10.1204 -12.8043 -32.9585
# 3 6.0886 22.5711 132.5999 5.8830 -4.0784 -15.5138
# 4 5.7834 10.1204 5.8830 41.1807 -4.8697 -3.4902
# 5 5.9360 -12.8043 -4.0784 -4.8697 34.1000 -5.6687
# 6 -13.3216 -32.9585 -15.5138 -3.4902 -5.6687 31.8604
#
#
#
# Elastic Compliance Matrix: (Units=1/GPa)
#
#
# Indices 1 2 3 4 5 6 
#
# 1 0.027936 0.006400 -0.000116 -0.003982 -0.000084 0.017794
# 2 0.006400 0.019598 -0.000380 -0.002436 0.009884 0.024256
# 3 -0.000116 -0.000380 0.008111 -0.000573 0.001379 0.003691
# 4 -0.003982 -0.002436 -0.000573 0.025814 0.003219 -0.001064
# 5 -0.000084 0.009884 0.001379 0.003219 0.036623 0.017729
# 6 0.017794 0.024256 0.003691 -0.001064 0.017729 0.068754
#
#
# Mechanical properties :
#
#
# Convention : Reuss Voigt Hill
#
# Bulk Modulus (GPa) = 14.82509 37.15495 25.99002
# Shear Modulus (GPa) = 25.31491 38.07861 31.69676
#
# Velocity S-wave (km/s) = 3.21768 3.94635 3.60050
# Velocity P-wave (km/s) = 4.45734 5.99673 5.28340
#
# Compressibility (1/GPa) = 0.06745324
#
# Stress axis : x y z
#
# Youngs Moduli (GPa) = 35.79599 51.02626 123.28743
#
# Poissons Ratio (x) = -0.32658 0.01434
# Poissons Ratio (y) = -0.22910 0.04683
# Poissons Ratio (z) = 0.00416 0.01938
#
# Static dielectric constant tensor:
#      x y z
#    x 4.770480 -0.166680 0.241470 
#    y -0.166680 4.030680 0.110590 
#    z 0.241470 0.110590 4.874570 
# 
# 
# High freq. dielectric constant tensor:
#      x y z
#    x 1.978140 -0.006050 0.000020 
#    y -0.006050 1.963180 0.000110 
#    z 0.000020 0.000110 1.990240 
# 
# From -- ./inp_files/523500.got.cif
#   From: 2010.06.25/outbox.cif.g09.slc.cpg/sg2_262_cif.got.tgz:523500.got - 2010.06.27 13:26:56.
