data_PCOD8005527
_publ_section_title
;
Structure prediction by ZEFSAII (Michael W. Deem and Ramdas Pophale) SiO2 
 PCOD8005527
Probable space group: P -1
;
_chemical_formula_sum "Si O2"
_cell_formula_units_Z 14
_cell_length_a 16.615357
_cell_length_b 8.956106
_cell_length_c 8.722237
_cell_angle_alpha 62.325209
_cell_angle_beta 128.981243
_cell_angle_gamma 135.911711
_cell_volume 701.809959
_symmetry_space_group_name_H-M "P -1"
_symmetry_group_IT_number 2
_symmetry_cell_setting 'triclinic'
loop_
_space_group_symop_operation_xyz
x,y,z
-x,-y,-z
loop_
_atom_site_type_symbol
_atom_site_label
_atom_site_fract_x
_atom_site_fract_y
_atom_site_fract_z
Si Si1 0.332240 0.489344 0.307015
Si Si2 0.358096 0.187941 0.939696
Si Si3 0.964629 0.805976 0.950847
Si Si4 0.901779 0.896564 0.291376
Si Si5 0.356478 0.832579 0.980058
Si Si6 0.909474 0.549991 0.290050
Si Si7 0.524985 0.568921 0.745268
O O1 0.178635 0.317075 0.236824
O O2 0.403346 0.534237 0.531938
O O3 0.369522 0.386008 0.274801
O O4 0.372299 0.712847 0.189554
O O5 0.245005 0.215079 0.773045
O O6 0.477100 0.360483 0.886907
O O7 0.306297 0.953877 0.939770
O O8 0.407504 0.229613 0.155176
O O9 0.967616 0.644293 0.142502
O O10 0.064574 0.913392 0.875643
O O11 0.000000 0.000000 0.000000
O O12 0.910564 0.722403 0.306494
O O13 0.000000 0.000000 0.500000
O O14 0.242953 0.664440 0.802395
O O15 0.500000 0.000000 0.000000
O O16 0.000000 0.500000 0.500000
#
# Coordination Sequence:
#
# PCOD8005527 Si02
#       7
#     2   2   2   2   2   2   2
#     4  10  20  39  59  86 115 160 198 245 292 366
#     4  11  22  37  60  87 120 154 198 249 300 347
#     4   9  19  37  61  82 119 153 201 236 296 355
#     4  11  22  39  63  91 119 155 203 250 300 355
#     4  11  22  40  60  87 123 159 199 247 307 358
#     4  10  22  41  63  89 120 163 203 245 302 367
#     4  10  21  36  60  84 118 154 203 240 296 350
#
# _framework density 19.948422000000001
#
# number of rings (size 3 to 8) (size 9 to 14) (size 15 to 20)
#    0.000    1.714    1.429    4.286    2.000    1.714 
#    2.571    7.857    0.000    0.000    0.000    0.000 
#    0.000    0.000    0.000    0.000    0.000    0.000 
#
# Total GULP energy -173561.410601 kJ/mol
# GULP energy per Si atom -12397.243614 kJ/mol
# Density = 1.990302 g / cm^3
# Si number density = 19.948422 Si / 1000 Ang^3
#
#
#
# Elastic Constant Matrix: (Units=GPa)
#
#
# Indices 1 2 3 4 5 6 
#
# 1 65.8548 31.7637 30.1278 3.6387 0.0314 -7.9394
# 2 31.7637 109.1929 46.1143 12.6845 -1.1632 -6.2058
# 3 30.1278 46.1143 139.8650 15.2898 0.4119 -11.0395
# 4 3.6387 12.6845 15.2898 33.9280 -3.7859 -1.3398
# 5 0.0314 -1.1632 0.4119 -3.7859 29.9555 0.1051
# 6 -7.9394 -6.2058 -11.0395 -1.3398 0.1051 34.3908
#
#
#
# Elastic Compliance Matrix: (Units=1/GPa)
#
#
# Indices 1 2 3 4 5 6 
#
# 1 0.018694 -0.004335 -0.002469 0.000832 -0.000059 0.002773
# 2 -0.004335 0.011877 -0.002668 -0.002749 0.000154 0.000178
# 3 -0.002469 -0.002668 0.009005 -0.002793 -0.000584 0.001732
# 4 0.000832 -0.002749 -0.002793 0.032118 0.003990 0.000039
# 5 -0.000059 0.000154 -0.000584 0.003990 0.033902 -0.000121
# 6 0.002773 0.000178 0.001732 0.000039 -0.000121 0.030308
#
#
# Mechanical properties :
#
#
# Convention : Reuss Voigt Hill
#
# Bulk Modulus (GPa) = 48.46950 58.99160 53.73055
# Shear Modulus (GPa) = 30.91674 33.44865 32.18269
#
# Velocity S-wave (km/s) = 3.94106 4.09926 4.02094
# Velocity P-wave (km/s) = 6.71263 7.21398 6.96782
#
# Compressibility (1/GPa) = 0.02063153
#
# Stress axis : x y z
#
# Youngs Moduli (GPa) = 53.49363 84.19694 111.04861
#
# Poissons Ratio (x) = 0.36496 0.27423
# Poissons Ratio (y) = 0.23188 0.29628
# Poissons Ratio (z) = 0.13210 0.22464
#
# Static dielectric constant tensor:
#      x y z
#    x 3.557210 0.114010 -0.167650 
#    y 0.114010 3.723040 -0.053070 
#    z -0.167650 -0.053070 3.811020 
# 
# 
# High freq. dielectric constant tensor:
#      x y z
#    x 1.766590 0.010380 -0.004450 
#    y 0.010380 1.783690 0.010830 
#    z -0.004450 0.010830 1.786080 
# 
# From -- ./inp_files/174731.got.cif
#   From: 2010.06.25/outbox.cif.g09.slc.cpg/sg2_88_cif.got.tgz:174731.got - 2010.06.27 13:26:56.
