data_PCOD8005783
_publ_section_title
;
Structure prediction by ZEFSAII (Michael W. Deem and Ramdas Pophale) SiO2 
 PCOD8005783
Probable space group: P -1
;
_chemical_formula_sum "Si O2"
_cell_formula_units_Z 16
_cell_length_a 11.185897
_cell_length_b 14.667797
_cell_length_c 10.899170
_cell_angle_alpha 148.238763
_cell_angle_beta 128.138719
_cell_angle_gamma 63.254617
_cell_volume 728.081765
_symmetry_space_group_name_H-M "P -1"
_symmetry_group_IT_number 2
_symmetry_cell_setting 'triclinic'
loop_
_space_group_symop_operation_xyz
x,y,z
-x,-y,-z
loop_
_atom_site_type_symbol
_atom_site_label
_atom_site_fract_x
_atom_site_fract_y
_atom_site_fract_z
Si Si1 0.579388 0.250941 0.725730
Si Si2 0.898990 0.878832 0.521298
Si Si3 0.370836 0.062771 0.756538
Si Si4 0.145069 0.805193 0.997720
Si Si5 0.758795 0.998732 0.134155
Si Si6 0.691224 0.268331 0.209771
Si Si7 0.712434 0.629779 0.278129
Si Si8 0.809832 0.644964 0.636911
O O1 0.592624 0.126952 0.476539
O O2 0.695107 0.217730 0.866445
O O3 0.400837 0.223360 0.627245
O O4 0.624192 0.456011 0.953783
O O5 0.857982 0.692112 0.351527
O O6 0.068682 0.917165 0.614633
O O7 0.781235 0.896482 0.358368
O O8 0.892799 0.007052 0.779245
O O9 0.346723 0.059386 0.882464
O O10 0.516053 0.214348 0.986056
O O11 0.175826 0.793359 0.859520
O O12 0.996156 0.662394 0.783376
O O13 0.694361 0.158163 0.210593
O O14 0.753950 0.824463 0.847640
O O15 0.732670 0.482087 0.489685
O O16 0.760388 0.595202 0.408380
#
# Coordination Sequence:
#
# PCOD8005783 Si02
#       8
#     2   2   2   2   2   2   2   2
#     4  10  22  37  63  89 129 153 194 261 308 356
#     4  10  22  39  67  88 121 165 201 253 316 354
#     4  11  24  44  60  87 125 169 209 246 296 367
#     4  10  20  39  62  94 125 151 199 260 314 368
#     4  11  25  44  62  88 127 167 211 250 291 367
#     4  12  23  39  66  91 122 168 200 254 313 361
#     4  11  21  38  61 101 123 148 203 259 315 370
#     4  11  24  40  64  96 126 156 202 259 308 366
#
# _framework density 21.975553999999999
#
# number of rings (size 3 to 8) (size 9 to 14) (size 15 to 20)
#    0.000    1.250    1.250    4.875    3.500    4.500 
#    2.250    0.625    0.000    0.000    0.000    0.000 
#    0.000    0.000    0.000    0.000    0.000    0.000 
#
# Total GULP energy -198326.747026 kJ/mol
# GULP energy per Si atom -12395.421689 kJ/mol
# Density = 2.192554 g / cm^3
# Si number density = 21.975554 Si / 1000 Ang^3
#
#
#
# Elastic Constant Matrix: (Units=GPa)
#
#
# Indices 1 2 3 4 5 6 
#
# 1 83.2829 13.5315 36.2933 4.2412 14.6558 11.4479
# 2 13.5315 69.2373 23.4776 10.0785 6.8324 4.8226
# 3 36.2933 23.4776 91.4579 6.7749 22.3286 12.9230
# 4 4.2412 10.0785 6.7749 27.8455 1.5997 8.0687
# 5 14.6558 6.8324 22.3286 1.5997 32.0212 -4.3710
# 6 11.4479 4.8226 12.9230 8.0687 -4.3710 30.7028
#
#
#
# Elastic Compliance Matrix: (Units=1/GPa)
#
#
# Indices 1 2 3 4 5 6 
#
# 1 0.015380 -0.000914 -0.004120 0.000613 -0.004641 -0.004679
# 2 -0.000914 0.016552 -0.003492 -0.005129 -0.000353 0.000508
# 3 -0.004120 -0.003492 0.016797 0.000253 -0.009978 -0.006473
# 4 0.000613 -0.005129 0.000253 0.040872 -0.002862 -0.010678
# 5 -0.004641 -0.000353 -0.009978 -0.002862 0.042271 0.012756
# 6 -0.004679 0.000508 -0.006473 -0.010678 0.012756 0.041581
#
#
# Mechanical properties :
#
#
# Convention : Reuss Voigt Hill
#
# Bulk Modulus (GPa) = 31.56888 43.39810 37.48349
# Shear Modulus (GPa) = 24.86768 29.49228 27.17998
#
# Velocity S-wave (km/s) = 3.36759 3.66737 3.52067
# Velocity P-wave (km/s) = 5.43300 6.14199 5.79834
#
# Compressibility (1/GPa) = 0.03167677
#
# Stress axis : x y z
#
# Youngs Moduli (GPa) = 65.02084 60.41628 59.53381
#
# Poissons Ratio (x) = 0.05523 0.24527
# Poissons Ratio (y) = 0.05944 0.20789
# Poissons Ratio (z) = 0.26787 0.21097
#
# Static dielectric constant tensor:
#      x y z
#    x 4.011090 -0.244600 0.230800 
#    y -0.244600 3.737360 -0.002080 
#    z 0.230800 -0.002080 4.199210 
# 
# 
# High freq. dielectric constant tensor:
#      x y z
#    x 1.856210 -0.013140 0.026100 
#    y -0.013140 1.856690 -0.000790 
#    z 0.026100 -0.000790 1.872500 
# 
# From -- ./inp_files/205663.got.cif
#   From: 2010.06.25/outbox.cif.g09.slc.cpg/sg2_103_cif.got.tgz:205663.got - 2010.06.27 13:26:56.
