data_PCOD8005558
_publ_section_title
;
Structure prediction by ZEFSAII (Michael W. Deem and Ramdas Pophale) SiO2 
 PCOD8005558
Probable space group: P -1
;
_chemical_formula_sum "Si O2"
_cell_formula_units_Z 14
_cell_length_a 16.397523
_cell_length_b 8.860797
_cell_length_c 13.965504
_cell_angle_alpha 54.039824
_cell_angle_beta 25.724313
_cell_angle_gamma 56.728161
_cell_volume 711.769874
_symmetry_space_group_name_H-M "P -1"
_symmetry_group_IT_number 2
_symmetry_cell_setting 'triclinic'
loop_
_space_group_symop_operation_xyz
x,y,z
-x,-y,-z
loop_
_atom_site_type_symbol
_atom_site_label
_atom_site_fract_x
_atom_site_fract_y
_atom_site_fract_z
Si Si1 0.360379 0.759960 0.301736
Si Si2 0.664117 0.661931 0.493896
Si Si3 0.338904 0.965708 0.053626
Si Si4 0.964967 0.066212 0.294589
Si Si5 0.007167 0.671180 0.998789
Si Si6 0.577083 0.307422 0.441180
Si Si7 0.633930 0.913537 0.617028
O O1 0.403418 0.539271 0.329337
O O2 0.182599 0.789054 0.549956
O O3 0.298273 0.842193 0.234356
O O4 0.551813 0.850294 0.101054
O O5 0.542354 0.744586 0.504350
O O6 0.637109 0.799427 0.559537
O O7 0.878113 0.658104 0.233117
O O8 0.136862 0.011820 0.202408
O O9 0.472940 0.843117 0.884309
O O10 0.044758 0.149845 0.080446
O O11 0.838714 0.893018 0.460929
O O12 0.212981 0.672948 0.825607
O O13 0.000000 0.500000 0.000000
O O14 0.500000 0.500000 0.500000
O O15 0.576772 0.134531 0.579199
#
# Coordination Sequence:
#
# PCOD8005558 Si02
#       7
#     2   2   2   2   2   2   2
#     4  10  22  37  60  88 106 149 200 238 281 334
#     4  12  23  37  57  86 123 147 187 237 286 345
#     4  10  21  40  61  80 113 150 196 242 281 328
#     4  10  20  39  60  81 115 148 191 237 283 336
#     4  11  21  34  58  87 112 148 185 232 284 340
#     4  11  21  37  60  85 115 153 190 228 284 341
#     4  10  24  38  55  88 118 151 189 231 286 348
#
# _framework density 19.669277000000001
#
# number of rings (size 3 to 8) (size 9 to 14) (size 15 to 20)
#    0.000    1.429    2.857    3.429    2.000    4.000 
#    0.000    0.714    0.000    0.000    0.000    0.000 
#    0.000    0.000    0.000    0.000    0.000    0.000 
#
# Total GULP energy -173542.291261 kJ/mol
# GULP energy per Si atom -12395.877947 kJ/mol
# Density = 1.962451 g / cm^3
# Si number density = 19.669277 Si / 1000 Ang^3
#
#
#
# Elastic Constant Matrix: (Units=GPa)
#
#
# Indices 1 2 3 4 5 6 
#
# 1 129.8684 36.8445 39.2238 13.2092 -17.2145 1.1136
# 2 36.8445 57.7245 31.3826 4.7567 11.6621 5.7269
# 3 39.2238 31.3826 82.7932 -1.3104 1.8962 0.1355
# 4 13.2092 4.7567 -1.3104 20.4769 -0.6678 8.5983
# 5 -17.2145 11.6621 1.8962 -0.6678 38.3208 11.6042
# 6 1.1136 5.7269 0.1355 8.5983 11.6042 31.6826
#
#
#
# Elastic Compliance Matrix: (Units=1/GPa)
#
#
# Indices 1 2 3 4 5 6 
#
# 1 0.012455 -0.007112 -0.003484 -0.006194 0.007933 -0.000362
# 2 -0.007112 0.028301 -0.007139 -0.002898 -0.011561 0.000186
# 3 -0.003484 -0.007139 0.016516 0.004935 -0.000140 0.000054
# 4 -0.006194 -0.002898 0.004935 0.061286 0.004208 -0.017453
# 5 0.007933 -0.011561 -0.000140 0.004208 0.037179 -0.012948
# 6 -0.000362 0.000186 0.000054 -0.017453 -0.012948 0.041021
#
#
# Mechanical properties :
#
#
# Convention : Reuss Voigt Hill
#
# Bulk Modulus (GPa) = 45.86924 53.92087 49.89506
# Shear Modulus (GPa) = 20.87724 28.95840 24.91782
#
# Velocity S-wave (km/s) = 3.26147 3.84117 3.56313
# Velocity P-wave (km/s) = 6.12811 6.86630 6.50768
#
# Compressibility (1/GPa) = 0.02180110
#
# Stress axis : x y z
#
# Youngs Moduli (GPa) = 80.29010 35.33493 60.54673
#
# Poissons Ratio (x) = 0.25131 0.21094
# Poissons Ratio (y) = 0.57103 0.43226
# Poissons Ratio (z) = 0.27972 0.25227
#
# Static dielectric constant tensor:
#      x y z
#    x 3.940720 0.037200 -0.152810 
#    y 0.037200 3.292750 -0.094070 
#    z -0.152810 -0.094070 3.996130 
# 
# 
# High freq. dielectric constant tensor:
#      x y z
#    x 1.779650 0.001130 -0.003780 
#    y 0.001130 1.733190 -0.003580 
#    z -0.003780 -0.003580 1.778890 
# 
# From -- ./inp_files/178560.got.cif
#   From: 2010.06.25/outbox.cif.g09.slc.cpg/sg2_90_cif.got.tgz:178560.got - 2010.06.27 13:26:56.
