data_PCOD8005168
_publ_section_title
;
Structure prediction by ZEFSAII (Michael W. Deem and Ramdas Pophale) SiO2 
 PCOD8005168
Probable space group: P -1
;
_chemical_formula_sum "Si O2"
_cell_formula_units_Z 16
_cell_length_a 11.758329
_cell_length_b 13.954425
_cell_length_c 8.815149
_cell_angle_alpha 43.516201
_cell_angle_beta 50.760587
_cell_angle_gamma 74.302125
_cell_volume 721.752706
_symmetry_space_group_name_H-M "P -1"
_symmetry_group_IT_number 2
_symmetry_cell_setting 'triclinic'
loop_
_space_group_symop_operation_xyz
x,y,z
-x,-y,-z
loop_
_atom_site_type_symbol
_atom_site_label
_atom_site_fract_x
_atom_site_fract_y
_atom_site_fract_z
Si Si1 0.818458 0.146253 0.203939
Si Si2 0.556514 0.703211 0.326900
Si Si3 0.092311 0.097074 0.171471
Si Si4 0.243046 0.033404 0.840833
Si Si5 0.554942 0.388558 0.786227
Si Si6 0.472345 0.941243 0.261269
Si Si7 0.182797 0.555922 0.256655
Si Si8 0.651100 0.644488 0.747023
O O1 0.685267 0.047886 0.546646
O O2 0.987431 0.191016 0.090241
O O3 0.828000 0.053695 0.151896
O O4 0.770043 0.288459 0.049543
O O5 0.538332 0.544561 0.586006
O O6 0.460591 0.701248 0.253587
O O7 0.475234 0.774144 0.438723
O O8 0.739748 0.794855 0.036895
O O9 0.115334 0.994514 0.130238
O O10 0.000000 0.000000 0.500000
O O11 0.384159 0.977003 0.838402
O O12 0.300245 0.214253 0.568490
O O13 0.719175 0.413275 0.703755
O O14 0.398680 0.298160 0.119696
O O15 0.500000 0.000000 0.000000
O O16 0.210434 0.424264 0.286198
O O17 0.000000 0.500000 0.500000
O O18 0.500000 0.500000 0.000000
#
# Coordination Sequence:
#
# PCOD8005168 Si02
#       8
#     2   2   2   2   2   2   2   2
#     4  12  24  40  65  97 127 162 217 272 315 375
#     4  10  22  42  62  89 127 169 217 247 322 387
#     4  11  24  44  63  90 132 175 208 257 325 383
#     4  11  24  41  65  94 126 169 224 258 308 394
#     4  10  21  39  67  89 121 169 215 261 299 399
#     4  11  23  37  62  92 132 165 201 264 326 368
#     4  11  22  39  63  95 129 159 208 271 332 358
#     4  10  20  38  65  89 125 167 216 252 319 373
#
# _framework density 22.168258999999999
#
# number of rings (size 3 to 8) (size 9 to 14) (size 15 to 20)
#    0.000    1.250    0.000    9.000    5.250    0.000 
#    0.000    0.000    0.000    4.500    0.000    0.000 
#    0.000    0.000    0.000    0.000    0.000    0.000 
#
# Total GULP energy -198269.480553 kJ/mol
# GULP energy per Si atom -12391.842535 kJ/mol
# Density = 2.211780 g / cm^3
# Si number density = 22.168259 Si / 1000 Ang^3
#
#
#
# Elastic Constant Matrix: (Units=GPa)
#
#
# Indices 1 2 3 4 5 6 
#
# 1 143.6677 33.2264 24.9151 11.2502 0.9879 -8.2975
# 2 33.2264 75.8630 28.7626 21.8366 -1.7167 0.2579
# 3 24.9151 28.7626 93.3971 26.8761 6.9050 2.5592
# 4 11.2502 21.8366 26.8761 37.0639 -8.3309 -2.4291
# 5 0.9879 -1.7167 6.9050 -8.3309 32.3390 6.2661
# 6 -8.2975 0.2579 2.5592 -2.4291 6.2661 34.5889
#
#
#
# Elastic Compliance Matrix: (Units=1/GPa)
#
#
# Indices 1 2 3 4 5 6 
#
# 1 0.008011 -0.003148 -0.001314 0.000418 -0.000440 0.002152
# 2 -0.003148 0.017715 -0.002260 -0.007990 -0.000302 -0.001226
# 3 -0.001314 -0.002260 0.015325 -0.010784 -0.005913 -0.001118
# 4 0.000418 -0.007990 -0.010784 0.042286 0.012435 0.001675
# 5 -0.000440 -0.000302 -0.005913 0.012435 0.036431 -0.005392
# 6 0.002152 -0.001226 -0.001118 0.001675 -0.005392 0.030614
#
#
# Mechanical properties :
#
#
# Convention : Reuss Voigt Hill
#
# Bulk Modulus (GPa) = 36.22521 54.08178 45.15349
# Shear Modulus (GPa) = 28.89712 35.86661 32.38186
#
# Velocity S-wave (km/s) = 3.61437 4.02671 3.82610
# Velocity P-wave (km/s) = 5.81332 6.78736 6.31913
#
# Compressibility (1/GPa) = 0.02760508
#
# Stress axis : x y z
#
# Youngs Moduli (GPa) = 124.82779 56.45013 65.25362
#
# Poissons Ratio (x) = 0.17770 0.08576
# Poissons Ratio (y) = 0.39296 0.14750
# Poissons Ratio (z) = 0.16406 0.12760
#
# Static dielectric constant tensor:
#      x y z
#    x 4.264680 0.029690 0.266900 
#    y 0.029690 4.921640 0.328550 
#    z 0.266900 0.328550 4.192250 
# 
# 
# High freq. dielectric constant tensor:
#      x y z
#    x 1.878480 -0.010850 0.015280 
#    y -0.010850 1.873110 0.008980 
#    z 0.015280 0.008980 1.872930 
# 
# From -- ./inp_files/271465.got.cif
#   From: 2010.06.25/outbox.cif.g09.slc.cpg/sg2_136_cif.got.tgz:271465.got - 2010.06.27 13:26:56.
