data_PCOD8005354
_publ_section_title
;
Structure prediction by ZEFSAII (Michael W. Deem and Ramdas Pophale) SiO2 
 PCOD8005354
Probable space group: P -1
;
_chemical_formula_sum "Si O2"
_cell_formula_units_Z 16
_cell_length_a 9.161592
_cell_length_b 9.540612
_cell_length_c 15.231557
_cell_angle_alpha 143.139695
_cell_angle_beta 65.163757
_cell_angle_gamma 108.266400
_cell_volume 724.140178
_symmetry_space_group_name_H-M "P -1"
_symmetry_group_IT_number 2
_symmetry_cell_setting 'triclinic'
loop_
_space_group_symop_operation_xyz
x,y,z
-x,-y,-z
loop_
_atom_site_type_symbol
_atom_site_label
_atom_site_fract_x
_atom_site_fract_y
_atom_site_fract_z
Si Si1 0.820186 0.256008 0.704880
Si Si2 0.066287 0.499931 0.885177
Si Si3 0.443158 0.855915 0.571002
Si Si4 0.430218 0.926223 0.194101
Si Si5 0.252603 0.048673 0.570947
Si Si6 0.163474 0.917355 0.965968
Si Si7 0.615858 0.656793 0.870933
Si Si8 0.522909 0.342295 0.281511
O O1 0.735394 0.137557 0.750038
O O2 0.700334 0.412329 0.752546
O O3 0.949256 0.421581 0.796975
O O4 0.880218 0.060317 0.517208
O O5 0.212710 0.309923 0.745944
O O6 0.116584 0.763908 0.985686
O O7 0.000000 0.500000 0.000000
O O8 0.587763 0.952234 0.526857
O O9 0.482214 0.591638 0.461439
O O10 0.431002 0.015542 0.740939
O O11 0.280227 0.887894 0.570732
O O12 0.399080 0.157493 0.258044
O O13 0.498859 0.716011 0.011849
O O14 0.291062 0.750963 0.794238
O O15 0.256676 0.146142 0.084476
O O16 0.000000 0.000000 0.000000
O O17 0.503599 0.626667 0.800273
#
# Coordination Sequence:
#
# PCOD8005354 Si02
#       8
#     2   2   2   2   2   2   2   2
#     4  11  23  42  64  93 129 172 210 265 322 383
#     4  12  27  40  68  91 131 170 217 267 317 387
#     4  10  20  38  67  94 125 166 212 271 312 378
#     4  10  23  35  63  99 129 153 220 263 318 370
#     4  10  22  42  63  94 127 169 214 259 326 382
#     4  11  23  42  62  93 130 168 212 253 329 379
#     4  11  23  41  67  92 130 174 210 269 314 386
#     4  11  22  41  67  93 130 172 211 267 318 386
#
# _framework density 22.095171000000001
#
# number of rings (size 3 to 8) (size 9 to 14) (size 15 to 20)
#    0.000    1.250    3.750    2.625    5.250    0.000 
#    0.000    0.000    0.000    1.500    0.000    0.000 
#    0.000    0.000    0.000    0.000    0.000    0.000 
#
# Total GULP energy -198275.989691 kJ/mol
# GULP energy per Si atom -12392.249356 kJ/mol
# Density = 2.204488 g / cm^3
# Si number density = 22.095171 Si / 1000 Ang^3
#
#
#
# Elastic Constant Matrix: (Units=GPa)
#
#
# Indices 1 2 3 4 5 6 
#
# 1 59.9369 -1.3645 -8.2060 0.1087 -2.3310 -14.0584
# 2 -1.3645 104.6654 9.8678 7.8783 -11.0287 -3.1713
# 3 -8.2060 9.8678 57.1217 1.1607 9.3795 -7.5949
# 4 0.1087 7.8783 1.1607 37.2937 -8.1436 1.6568
# 5 -2.3310 -11.0287 9.3795 -8.1436 25.6980 4.2731
# 6 -14.0584 -3.1713 -7.5949 1.6568 4.2731 34.0409
#
#
#
# Elastic Compliance Matrix: (Units=1/GPa)
#
#
# Indices 1 2 3 4 5 6 
#
# 1 0.019371 0.000027 0.004291 -0.000962 -0.001634 0.009212
# 2 0.000027 0.010416 -0.002652 -0.000981 0.005165 -0.000211
# 3 0.004291 -0.002652 0.021442 -0.002817 -0.010764 0.007797
# 4 -0.000962 -0.000981 -0.002817 0.029586 0.010541 -0.003880
# 5 -0.001634 0.005165 -0.010764 0.010541 0.049807 -0.009361
# 6 0.009212 -0.000211 0.007797 -0.003880 -0.009361 0.036265
#
#
# Mechanical properties :
#
#
# Convention : Reuss Voigt Hill
#
# Bulk Modulus (GPa) = 18.32755 24.70209 21.51482
# Shear Modulus (GPa) = 27.51146 34.16831 30.83989
#
# Velocity S-wave (km/s) = 3.53247 3.93672 3.74006
# Velocity P-wave (km/s) = 4.99506 5.64515 5.33003
#
# Compressibility (1/GPa) = 0.05456268
#
# Stress axis : x y z
#
# Youngs Moduli (GPa) = 51.62321 96.00362 46.63660
#
# Poissons Ratio (x) = -0.00263 -0.20010
# Poissons Ratio (y) = -0.00141 0.12366
# Poissons Ratio (z) = -0.22150 0.25456
#
# Static dielectric constant tensor:
#      x y z
#    x 3.971720 -0.188830 0.200860 
#    y -0.188830 4.183500 0.137290 
#    z 0.200860 0.137290 4.114180 
# 
# 
# High freq. dielectric constant tensor:
#      x y z
#    x 1.853260 -0.014560 0.014630 
#    y -0.014560 1.879900 0.013910 
#    z 0.014630 0.013910 1.872340 
# 
# From -- ./inp_files/184161.got.cif
#   From: 2010.06.25/outbox.cif.g09.slc.cpg/sg2_93_cif.got.tgz:184161.got - 2010.06.27 13:26:56.
