data_PCOD8005362
_publ_section_title
;
Structure prediction by ZEFSAII (Michael W. Deem and Ramdas Pophale) SiO2 
 PCOD8005362
Probable space group: P -1
;
_chemical_formula_sum "Si O2"
_cell_formula_units_Z 16
_cell_length_a 11.330241
_cell_length_b 13.091975
_cell_length_c 14.072222
_cell_angle_alpha 61.515494
_cell_angle_beta 137.765399
_cell_angle_gamma 147.751335
_cell_volume 680.766661
_symmetry_space_group_name_H-M "P -1"
_symmetry_group_IT_number 2
_symmetry_cell_setting 'triclinic'
loop_
_space_group_symop_operation_xyz
x,y,z
-x,-y,-z
loop_
_atom_site_type_symbol
_atom_site_label
_atom_site_fract_x
_atom_site_fract_y
_atom_site_fract_z
Si Si1 0.781160 0.714653 0.364182
Si Si2 0.232163 0.545942 0.490342
Si Si3 0.566159 0.504153 0.929426
Si Si4 0.489982 0.134521 0.635827
Si Si5 0.465297 0.198950 0.996704
Si Si6 0.370327 0.705670 0.147800
Si Si7 0.799352 0.859178 0.830562
Si Si8 0.530196 0.138438 0.254330
O O1 0.746592 0.579491 0.467639
O O2 0.737994 0.656829 0.252181
O O3 0.506954 0.650560 0.264518
O O4 0.123649 0.962826 0.472033
O O5 0.283915 0.651932 0.380132
O O6 0.495719 0.723849 0.645532
O O7 0.875085 0.368754 0.397986
O O8 0.694793 0.441598 0.030178
O O9 0.816150 0.735337 0.933349
O O10 0.500000 0.500000 0.000000
O O11 0.547700 0.174521 0.764690
O O12 0.564135 0.042800 0.687725
O O13 0.472254 0.148842 0.917411
O O14 0.568791 0.161307 0.152185
O O15 0.113599 0.056570 0.870299
O O16 0.000000 0.500000 0.000000
O O17 0.750792 0.924552 0.859410
#
# Coordination Sequence:
#
# PCOD8005362 Si02
#       8
#     2   2   2   2   2   2   2   2
#     4   9  22  42  66  99 129 167 228 260 327 398
#     4  10  22  41  64  93 135 173 214 268 321 388
#     4  10  20  38  67  96 129 170 211 267 323 384
#     4  11  24  44  67  95 134 179 219 271 323 386
#     4  11  24  43  64  98 131 169 224 273 328 391
#     4  11  24  45  72  98 129 171 224 278 333 383
#     4  11  23  41  66  98 132 176 217 262 331 398
#     4  11  24  39  62 100 135 167 221 262 327 395
#
# _framework density 23.502911999999998
#
# number of rings (size 3 to 8) (size 9 to 14) (size 15 to 20)
#    0.000    1.500    1.250    3.375    0.000    6.500 
#    0.000    7.500    0.000    0.000    0.000    0.000 
#    0.000    0.000    0.000    0.000    0.000    0.000 
#
# Total GULP energy -198334.769773 kJ/mol
# GULP energy per Si atom -12395.923111 kJ/mol
# Density = 2.344942 g / cm^3
# Si number density = 23.502912 Si / 1000 Ang^3
#
#
#
# Elastic Constant Matrix: (Units=GPa)
#
#
# Indices 1 2 3 4 5 6 
#
# 1 77.9548 32.3959 18.9828 12.3265 -4.1329 10.0358
# 2 32.3959 111.9465 26.0999 -9.0277 7.1713 1.8482
# 3 18.9828 26.0999 79.8753 1.9629 5.1808 -1.7125
# 4 12.3265 -9.0277 1.9629 38.4823 -1.6710 -2.8755
# 5 -4.1329 7.1713 5.1808 -1.6710 53.5894 -3.9254
# 6 10.0358 1.8482 -1.7125 -2.8755 -3.9254 28.8113
#
#
#
# Elastic Compliance Matrix: (Units=1/GPa)
#
#
# Indices 1 2 3 4 5 6 
#
# 1 0.017600 -0.005056 -0.002598 -0.007104 0.001591 -0.006453
# 2 -0.005056 0.011417 -0.002520 0.004447 -0.001453 0.001125
# 3 -0.002598 -0.002520 0.014079 -0.000397 -0.001111 0.001712
# 4 -0.007104 0.004447 -0.000397 0.029719 0.000200 0.005159
# 5 0.001591 -0.001453 -0.001111 0.000200 0.019246 0.002115
# 6 -0.006453 0.001125 0.001712 0.005159 0.002115 0.037789
#
#
# Mechanical properties :
#
#
# Convention : Reuss Voigt Hill
#
# Bulk Modulus (GPa) = 43.95857 47.19263 45.57560
# Shear Modulus (GPa) = 31.68979 36.99645 34.34312
#
# Velocity S-wave (km/s) = 3.67595 3.97182 3.82675
# Velocity P-wave (km/s) = 6.06308 6.41537 6.24171
#
# Compressibility (1/GPa) = 0.02274869
#
# Stress axis : x y z
#
# Youngs Moduli (GPa) = 56.81812 87.59188 71.02884
#
# Poissons Ratio (x) = 0.44285 0.18451
# Poissons Ratio (y) = 0.28727 0.17898
# Poissons Ratio (z) = 0.14759 0.22072
#
# Static dielectric constant tensor:
#      x y z
#    x 4.062460 -0.053650 -0.169700 
#    y -0.053650 4.304560 -0.054250 
#    z -0.169700 -0.054250 4.413170 
# 
# 
# High freq. dielectric constant tensor:
#      x y z
#    x 1.903680 -0.005340 -0.009470 
#    y -0.005340 1.931350 -0.002720 
#    z -0.009470 -0.002720 1.953900 
# 
# From -- ./inp_files/522372.got.cif
#   From: 2010.06.25/outbox.cif.g09.slc.cpg/sg2_262_cif.got.tgz:522372.got - 2010.06.27 13:26:56.
