data_PCOD8005201
_publ_section_title
;
Structure prediction by ZEFSAII (Michael W. Deem and Ramdas Pophale) SiO2 
 PCOD8005201
Probable space group: P -1
;
_chemical_formula_sum "Si O2"
_cell_formula_units_Z 16
_cell_length_a 12.826367
_cell_length_b 10.881021
_cell_length_c 10.190690
_cell_angle_alpha 35.655086
_cell_angle_beta 56.758438
_cell_angle_gamma 68.806551
_cell_volume 683.036568
_symmetry_space_group_name_H-M "P -1"
_symmetry_group_IT_number 2
_symmetry_cell_setting 'triclinic'
loop_
_space_group_symop_operation_xyz
x,y,z
-x,-y,-z
loop_
_atom_site_type_symbol
_atom_site_label
_atom_site_fract_x
_atom_site_fract_y
_atom_site_fract_z
Si Si1 0.130726 0.642839 0.743084
Si Si2 0.750469 0.904611 0.227125
Si Si3 0.319160 0.431496 0.924382
Si Si4 0.595916 0.463997 0.720386
Si Si5 0.300733 0.676098 0.976322
Si Si6 0.078557 0.321108 0.524169
Si Si7 0.893265 0.942952 0.510769
Si Si8 0.178744 0.752226 0.324257
O O1 0.246325 0.512107 0.781125
O O2 0.122582 0.744578 0.516039
O O3 0.156616 0.832362 0.669043
O O4 0.000000 0.500000 0.000000
O O5 0.626897 0.721460 0.463618
O O6 0.867569 0.788375 0.292056
O O7 0.719681 0.078913 0.203416
O O8 0.780707 0.009322 0.971185
O O9 0.455931 0.382910 0.827601
O O10 0.346498 0.623034 0.847010
O O11 0.230818 0.222556 0.220019
O O12 0.595616 0.381231 0.942251
O O13 0.700848 0.364537 0.654053
O O14 0.168877 0.523784 0.229120
O O15 0.051702 0.131551 0.597189
O O16 0.932706 0.372207 0.591157
O O17 0.000000 0.000000 0.500000
#
# Coordination Sequence:
#
# PCOD8005201 Si02
#       8
#     2   2   2   2   2   2   2   2
#     4  12  24  41  66  95 120 159 211 264 314 371
#     4  10  22  39  62  92 126 169 209 249 319 376
#     4  11  23  41  66  93 128 164 208 262 310 368
#     4  10  24  41  61  92 130 172 206 249 311 375
#     4   9  20  40  64  96 124 155 214 265 309 364
#     4  10  20  38  65  93 123 160 206 267 316 363
#     4  11  21  41  67  95 120 157 210 266 321 357
#     4  11  24  40  60  91 133 164 208 258 306 383
#
# _framework density 23.424807999999999
#
# number of rings (size 3 to 8) (size 9 to 14) (size 15 to 20)
#    0.000    1.500    2.500    2.250    0.000   10.500 
#    0.000    1.250    0.000    0.000    0.000    0.000 
#    0.000    0.000    0.000    0.000    0.000    0.000 
#
# Total GULP energy -198291.846280 kJ/mol
# GULP energy per Si atom -12393.240393 kJ/mol
# Density = 2.337149 g / cm^3
# Si number density = 23.424808 Si / 1000 Ang^3
#
#
#
# Elastic Constant Matrix: (Units=GPa)
#
#
# Indices 1 2 3 4 5 6 
#
# 1 133.6125 22.4552 40.9991 9.9976 -16.3620 -31.6925
# 2 22.4552 54.7713 20.9894 9.0775 -1.6340 -11.3106
# 3 40.9991 20.9894 102.6074 -4.5511 0.8482 -12.4314
# 4 9.9976 9.0775 -4.5511 32.3682 0.7523 5.7949
# 5 -16.3620 -1.6340 0.8482 0.7523 35.9384 5.0112
# 6 -31.6925 -11.3106 -12.4314 5.7949 5.0112 39.2124
#
#
#
# Elastic Compliance Matrix: (Units=1/GPa)
#
#
# Indices 1 2 3 4 5 6 
#
# 1 0.011677 -0.000543 -0.003828 -0.005586 0.004336 0.008339
# 2 -0.000543 0.022539 -0.004025 -0.007782 0.000211 0.005909
# 3 -0.003828 -0.004025 0.012216 0.004209 -0.002202 -0.000723
# 4 -0.005586 -0.007782 0.004209 0.037355 -0.002293 -0.010653
# 5 0.004336 0.000211 -0.002202 -0.002293 0.029997 -0.000627
# 6 0.008339 0.005909 -0.000723 -0.010653 -0.000627 0.035372
#
#
# Mechanical properties :
#
#
# Convention : Reuss Voigt Hill
#
# Bulk Modulus (GPa) = 33.73726 51.09762 42.41744
# Shear Modulus (GPa) = 28.43698 35.27363 31.85530
#
# Velocity S-wave (km/s) = 3.48798 3.88470 3.69168
# Velocity P-wave (km/s) = 5.53670 6.47936 6.02649
#
# Compressibility (1/GPa) = 0.02964082
#
# Stress axis : x y z
#
# Youngs Moduli (GPa) = 85.63625 44.36741 81.85914
#
# Poissons Ratio (x) = 0.02410 0.31337
# Poissons Ratio (y) = 0.04651 0.32944
# Poissons Ratio (z) = 0.32783 0.17856
#
# Static dielectric constant tensor:
#      x y z
#    x 4.276170 -0.055540 0.091570 
#    y -0.055540 4.542850 -0.382010 
#    z 0.091570 -0.382010 4.239170 
# 
# 
# High freq. dielectric constant tensor:
#      x y z
#    x 1.929560 -0.010960 0.003090 
#    y -0.010960 1.926210 -0.013890 
#    z 0.003090 -0.013890 1.922240 
# 
# From -- ./inp_files/427214.got.cif
#   From: 2010.06.25/outbox.cif.g09.slc.cpg/sg2_214_cif.got.tgz:427214.got - 2010.06.27 13:26:56.
