data_PCOD8005612
_publ_section_title
;
Structure prediction by ZEFSAII (Michael W. Deem and Ramdas Pophale) SiO2 
 PCOD8005612
Probable space group: P -1
;
_chemical_formula_sum "Si O2"
_cell_formula_units_Z 16
_cell_length_a 16.925711
_cell_length_b 11.706564
_cell_length_c 13.653127
_cell_angle_alpha 53.845458
_cell_angle_beta 126.126394
_cell_angle_gamma 158.802488
_cell_volume 782.539087
_symmetry_space_group_name_H-M "P -1"
_symmetry_group_IT_number 2
_symmetry_cell_setting 'triclinic'
loop_
_space_group_symop_operation_xyz
x,y,z
-x,-y,-z
loop_
_atom_site_type_symbol
_atom_site_label
_atom_site_fract_x
_atom_site_fract_y
_atom_site_fract_z
Si Si1 0.489370 0.032818 0.366528
Si Si2 0.543003 0.842604 0.035155
Si Si3 0.657627 0.300789 0.853863
Si Si4 0.221843 0.707627 0.717527
Si Si5 0.799177 0.653717 0.309172
Si Si6 0.857328 0.705608 0.107019
Si Si7 0.964363 0.649030 0.592861
Si Si8 0.889008 0.064707 0.244448
O O1 0.682692 0.204607 0.363204
O O2 0.550750 0.279048 0.289223
O O3 0.500000 0.000000 0.500000
O O4 0.247913 0.677860 0.332059
O O5 0.361689 0.630590 0.096145
O O6 0.728853 0.968120 0.125694
O O7 0.402673 0.616309 0.950439
O O8 0.684227 0.168625 0.960058
O O9 0.866975 0.623222 0.781617
O O10 0.423876 0.021351 0.772498
O O11 0.095449 0.402654 0.821018
O O12 0.061009 0.631042 0.627613
O O13 0.914924 0.821220 0.203118
O O14 0.923233 0.701039 0.446119
O O15 0.779415 0.771232 0.295166
O O16 0.000000 0.000000 0.000000
O O17 0.113482 0.915947 0.649781
#
# Coordination Sequence:
#
# PCOD8005612 Si02
#       8
#     2   2   2   2   2   2   2   2
#     4   9  20  39  61  87 123 164 206 253 301 369
#     4  10  22  38  63  91 122 164 214 258 308 372
#     4  10  20  39  60  93 124 156 211 264 307 366
#     4  10  20  39  67  92 122 164 215 256 304 380
#     4  10  24  41  60  94 133 164 206 264 312 379
#     4  10  22  42  63  91 131 167 206 264 318 370
#     4  11  22  41  68  93 125 170 212 255 315 376
#     4  12  22  39  65  94 126 166 206 262 322 366
#
# _framework density 20.446262999999998
#
# number of rings (size 3 to 8) (size 9 to 14) (size 15 to 20)
#    0.000    1.750    2.500    1.500    0.000    6.000 
#    2.250    4.375    0.000    0.000    0.000    0.000 
#    0.000    0.000    0.000    0.000    0.000    0.000 
#
# Total GULP energy -198217.825922 kJ/mol
# GULP energy per Si atom -12388.614120 kJ/mol
# Density = 2.039973 g / cm^3
# Si number density = 20.446263 Si / 1000 Ang^3
#
#
#
# Elastic Constant Matrix: (Units=GPa)
#
#
# Indices 1 2 3 4 5 6 
#
# 1 97.4997 41.9845 40.1734 -8.4808 3.3698 -13.5620
# 2 41.9845 57.4651 26.2578 -7.3281 0.8842 -12.8174
# 3 40.1734 26.2578 107.6168 -1.8958 0.1702 -4.1535
# 4 -8.4808 -7.3281 -1.8958 33.8285 1.6056 -4.8069
# 5 3.3698 0.8842 0.1702 1.6056 35.6286 3.0754
# 6 -13.5620 -12.8174 -4.1535 -4.8069 3.0754 32.0245
#
#
#
# Elastic Compliance Matrix: (Units=1/GPa)
#
#
# Indices 1 2 3 4 5 6 
#
# 1 0.016531 -0.009287 -0.003730 0.002479 -0.001715 0.003337
# 2 -0.009287 0.027827 -0.002947 0.004644 -0.000662 0.007583
# 3 -0.003730 -0.002947 0.011323 -0.001182 0.000556 -0.001522
# 4 0.002479 0.004644 -0.001182 0.032355 -0.002480 0.007850
# 5 -0.001715 -0.000662 0.000556 -0.002480 0.028704 -0.004048
# 6 0.003337 0.007583 -0.001522 0.007850 -0.004048 0.037044
#
#
# Mechanical properties :
#
#
# Convention : Reuss Voigt Hill
#
# Bulk Modulus (GPa) = 42.09882 53.26812 47.68347
# Shear Modulus (GPa) = 25.82212 30.57405 28.19808
#
# Velocity S-wave (km/s) = 3.55762 3.87115 3.71769
# Velocity P-wave (km/s) = 6.12456 6.78899 6.46532
#
# Compressibility (1/GPa) = 0.02375364
#
# Stress axis : x y z
#
# Youngs Moduli (GPa) = 60.49058 35.93580 88.31252
#
# Poissons Ratio (x) = 0.33373 0.32942
# Poissons Ratio (y) = 0.56176 0.26029
# Poissons Ratio (z) = 0.22564 0.10592
#
# Static dielectric constant tensor:
#      x y z
#    x 3.684200 0.306270 -0.191290 
#    y 0.306270 7.874810 -0.825830 
#    z -0.191290 -0.825830 3.808860 
# 
# 
# High freq. dielectric constant tensor:
#      x y z
#    x 1.792920 -0.022970 -0.014120 
#    y -0.022970 1.798360 0.002430 
#    z -0.014120 0.002430 1.803100 
# 
# From -- ./inp_files/471634.got.cif
#   From: 2010.06.25/outbox.cif.g09.slc.cpg/sg2_236_cif.got.tgz:471634.got - 2010.06.27 13:26:56.
