data_PCOD8005445
_publ_section_title
;
Structure prediction by ZEFSAII (Michael W. Deem and Ramdas Pophale) SiO2 
 PCOD8005445
Probable space group: P -1
;
_chemical_formula_sum "Si O2"
_cell_formula_units_Z 16
_cell_length_a 12.570826
_cell_length_b 9.884001
_cell_length_c 10.520334
_cell_angle_alpha 135.248670
_cell_angle_beta 118.400701
_cell_angle_gamma 83.079463
_cell_volume 758.050354
_symmetry_space_group_name_H-M "P -1"
_symmetry_group_IT_number 2
_symmetry_cell_setting 'triclinic'
loop_
_space_group_symop_operation_xyz
x,y,z
-x,-y,-z
loop_
_atom_site_type_symbol
_atom_site_label
_atom_site_fract_x
_atom_site_fract_y
_atom_site_fract_z
Si Si1 0.051335 0.063976 0.275022
Si Si2 0.373384 0.455527 0.054653
Si Si3 0.106374 0.326700 0.231860
Si Si4 0.874559 0.238723 0.454716
Si Si5 0.470923 0.773521 0.123291
Si Si6 0.631335 0.044919 0.028978
Si Si7 0.637938 0.605836 0.709937
Si Si8 0.242697 0.055085 0.585065
O O1 0.966105 0.133885 0.372602
O O2 0.097518 0.230474 0.301576
O O3 0.175275 0.047550 0.406395
O O4 0.972760 0.840325 0.026451
O O5 0.389322 0.664523 0.127590
O O6 0.356222 0.498020 0.220388
O O7 0.503524 0.398936 0.068275
O O8 0.250910 0.264228 0.805128
O O9 0.052537 0.515366 0.328134
O O10 0.255932 0.424237 0.342133
O O11 0.835950 0.141662 0.507318
O O12 0.747863 0.210711 0.279310
O O13 0.383326 0.877943 0.068980
O O14 0.610716 0.940596 0.353122
O O15 0.669324 0.845347 0.908630
O O16 0.500000 0.000000 0.000000
O O17 0.500000 0.500000 0.500000
#
# Coordination Sequence:
#
# PCOD8005445 Si02
#       8
#     2   2   2   2   2   2   2   2
#     4  11  25  47  66  94 135 174 222 269 322 396
#     4   9  19  38  57  99 127 167 221 253 334 384
#     4  11  27  44  65  99 133 170 225 271 327 391
#     4  12  23  42  71  96 126 177 221 267 330 388
#     4   9  20  34  65  97 124 170 219 265 320 398
#     4  12  19  39  64  97 130 164 218 262 324 392
#     4  12  24  38  66  97 135 173 211 279 331 383
#     4  10  20  38  70  91 129 170 218 269 322 383
#
# _framework density 21.106776
#
# number of rings (size 3 to 8) (size 9 to 14) (size 15 to 20)
#    0.750    0.500    5.000    1.500    3.500    0.500 
#    0.000    1.875    0.000    0.000    0.000    0.000 
#    0.000    0.000    0.000    0.000    0.000    0.000 
#
# Total GULP energy -198411.400799 kJ/mol
# GULP energy per Si atom -12400.712550 kJ/mol
# Density = 2.105874 g / cm^3
# Si number density = 21.106776 Si / 1000 Ang^3
#
#
#
# Elastic Constant Matrix: (Units=GPa)
#
#
# Indices 1 2 3 4 5 6 
#
# 1 33.0246 24.3614 9.7239 3.4269 3.0608 4.7728
# 2 24.3614 161.7033 52.7926 -11.6338 -3.7621 20.4766
# 3 9.7239 52.7926 90.7776 -1.3121 5.8351 3.4276
# 4 3.4269 -11.6338 -1.3121 32.7598 -9.2454 1.9284
# 5 3.0608 -3.7621 5.8351 -9.2454 23.0295 1.1604
# 6 4.7728 20.4766 3.4276 1.9284 1.1604 31.2014
#
#
#
# Elastic Compliance Matrix: (Units=1/GPa)
#
#
# Indices 1 2 3 4 5 6 
#
# 1 0.036803 -0.006425 0.000300 -0.008771 -0.009510 -0.000550
# 2 -0.006425 0.010264 -0.005403 0.006344 0.006739 -0.005802
# 3 0.000300 -0.005403 0.014375 -0.003196 -0.005966 0.002341
# 4 -0.008771 0.006344 -0.003196 0.039278 0.019063 -0.005607
# 5 -0.009510 0.006739 -0.005966 0.019063 0.055231 -0.005545
# 6 -0.000550 -0.005802 0.002341 -0.005607 -0.005545 0.036238
#
#
# Mechanical properties :
#
#
# Convention : Reuss Voigt Hill
#
# Bulk Modulus (GPa) = 26.05204 51.02902 38.54053
# Shear Modulus (GPa) = 21.92582 30.64000 26.28291
#
# Velocity S-wave (km/s) = 3.22655 3.81421 3.53262
# Velocity P-wave (km/s) = 5.12353 6.60505 5.91089
#
# Compressibility (1/GPa) = 0.03838471
#
# Stress axis : x y z
#
# Youngs Moduli (GPa) = 27.17171 97.42584 69.56447
#
# Poissons Ratio (x) = 0.62596 -0.02084
# Poissons Ratio (y) = 0.17458 0.37589
# Poissons Ratio (z) = -0.00814 0.52643
#
# Static dielectric constant tensor:
#      x y z
#    x 3.385470 0.183320 0.275660 
#    y 0.183320 3.988280 -0.095970 
#    z 0.275660 -0.095970 3.559660 
# 
# 
# High freq. dielectric constant tensor:
#      x y z
#    x 1.805770 0.013570 0.004750 
#    y 0.013570 1.838260 -0.002830 
#    z 0.004750 -0.002830 1.818500 
# 
# From -- ./inp_files/299570.got.cif
#   From: 2010.06.25/outbox.cif.g09.slc.cpg/sg2_150_cif.got.tgz:299570.got - 2010.06.27 13:26:56.
