data_PCOD8005254
_publ_section_title
;
Structure prediction by ZEFSAII (Michael W. Deem and Ramdas Pophale) SiO2 
 PCOD8005254
Probable space group: P -1
;
_chemical_formula_sum "Si O2"
_cell_formula_units_Z 14
_cell_length_a 12.242073
_cell_length_b 12.024013
_cell_length_c 10.290278
_cell_angle_alpha 77.188456
_cell_angle_beta 46.735634
_cell_angle_gamma 114.969775
_cell_volume 632.909358
_symmetry_space_group_name_H-M "P -1"
_symmetry_group_IT_number 2
_symmetry_cell_setting 'triclinic'
loop_
_space_group_symop_operation_xyz
x,y,z
-x,-y,-z
loop_
_atom_site_type_symbol
_atom_site_label
_atom_site_fract_x
_atom_site_fract_y
_atom_site_fract_z
Si Si1 0.271006 0.708559 0.953789
Si Si2 0.329243 0.869882 0.512527
Si Si3 0.844533 0.801624 0.571869
Si Si4 0.206444 0.457114 0.891460
Si Si5 0.552729 0.587242 0.135373
Si Si6 0.688240 0.385363 0.500491
Si Si7 0.265554 0.020565 0.342840
O O1 0.302964 0.614494 0.868789
O O2 0.424986 0.905120 0.697982
O O3 0.423313 0.783184 0.948760
O O4 0.982546 0.560965 0.260563
O O5 0.421653 0.807073 0.393542
O O6 0.179338 0.850831 0.527816
O O7 0.098236 0.709932 0.845359
O O8 0.712053 0.645470 0.609632
O O9 0.139158 0.942086 0.321641
O O10 0.844911 0.935861 0.500820
O O11 0.694756 0.695847 0.857564
O O12 0.272413 0.374365 0.916425
O O13 0.341344 0.553218 0.617862
O O14 0.480622 0.665125 0.234569
#
# Coordination Sequence:
#
# PCOD8005254 Si02
#       7
#     2   2   2   2   2   2   2
#     4   9  19  39  61  86 115 149 193 232 286 344
#     4   9  19  39  61  86 115 149 193 232 286 344
#     4  10  20  38  66  80 106 162 195 237 286 333
#     4  11  20  38  62  84 116 159 193 227 279 352
#     4  11  21  39  57  87 116 150 197 236 286 341
#     4  11  24  35  57  92 123 146 185 242 293 335
#     4   9  18  38  64  83 109 148 208 235 271 353
#
# _framework density 22.120069999999998
#
# number of rings (size 3 to 8) (size 9 to 14) (size 15 to 20)
#    0.857    1.143    2.857    2.143    0.000    2.286 
#    5.143    4.286    0.000    5.143    0.000    0.000 
#    0.000    0.000    0.000    0.000    0.000    0.000 
#
# Total GULP energy -173434.669244 kJ/mol
# GULP energy per Si atom -12388.190660 kJ/mol
# Density = 2.206972 g / cm^3
# Si number density = 22.120070 Si / 1000 Ang^3
#
#
#
# Elastic Constant Matrix: (Units=GPa)
#
#
# Indices 1 2 3 4 5 6 
#
# 1 49.5512 -0.0123 19.9074 8.3823 -4.7232 -0.4830
# 2 -0.0123 75.4703 29.8832 -3.4443 1.6563 -11.6878
# 3 19.9074 29.8832 52.6829 -1.6770 -17.0201 2.4398
# 4 8.3823 -3.4443 -1.6770 33.7521 4.7434 -5.6512
# 5 -4.7232 1.6563 -17.0201 4.7434 27.2618 -15.6905
# 6 -0.4830 -11.6878 2.4398 -5.6512 -15.6905 32.7150
#
#
#
# Elastic Compliance Matrix: (Units=1/GPa)
#
#
# Indices 1 2 3 4 5 6 
#
# 1 0.026834 0.005756 -0.014704 -0.006195 -0.003282 0.000905
# 2 0.005756 0.021034 -0.016916 0.001905 -0.008127 0.005292
# 3 -0.014704 -0.016916 0.042769 0.000856 0.027182 0.003735
# 4 -0.006195 0.001905 0.000856 0.032668 -0.003852 0.004321
# 5 -0.003282 -0.008127 0.027182 -0.003852 0.070444 0.028141
# 6 0.000905 0.005292 0.003735 0.004321 0.028141 0.046436
#
#
# Mechanical properties :
#
#
# Convention : Reuss Voigt Hill
#
# Bulk Modulus (GPa) = 25.70140 30.80679 28.25409
# Shear Modulus (GPa) = 16.39969 27.27418 21.83694
#
# Velocity S-wave (km/s) = 2.72581 3.51523 3.14538
# Velocity P-wave (km/s) = 4.64230 5.51662 5.09824
#
# Compressibility (1/GPa) = 0.03890839
#
# Stress axis : x y z
#
# Youngs Moduli (GPa) = 37.26623 47.54134 23.38123
#
# Poissons Ratio (x) = -0.27366 0.34380
# Poissons Ratio (y) = -0.21451 0.39553
# Poissons Ratio (z) = 0.54797 0.80423
#
# Static dielectric constant tensor:
#      x y z
#    x 4.087430 -0.089220 -0.270100 
#    y -0.089220 3.946400 -0.417260 
#    z -0.270100 -0.417260 3.639570 
# 
# 
# High freq. dielectric constant tensor:
#      x y z
#    x 1.879890 -0.015610 -0.023710 
#    y -0.015610 1.864190 -0.033960 
#    z -0.023710 -0.033960 1.837980 
# 
# From -- ./inp_files/427957.got.cif
#   From: 2010.06.25/outbox.cif.g09.slc.cpg/sg2_214_cif.got.tgz:427957.got - 2010.06.27 13:26:56.
