data_PCOD8005355
_publ_section_title
;
Structure prediction by ZEFSAII (Michael W. Deem and Ramdas Pophale) SiO2 
 PCOD8005355
Probable space group: P -1
;
_chemical_formula_sum "Si O2"
_cell_formula_units_Z 16
_cell_length_a 19.778108
_cell_length_b 8.877601
_cell_length_c 9.250232
_cell_angle_alpha 97.119072
_cell_angle_beta 59.718000
_cell_angle_gamma 142.160748
_cell_volume 736.078827
_symmetry_space_group_name_H-M "P -1"
_symmetry_group_IT_number 2
_symmetry_cell_setting 'triclinic'
loop_
_space_group_symop_operation_xyz
x,y,z
-x,-y,-z
loop_
_atom_site_type_symbol
_atom_site_label
_atom_site_fract_x
_atom_site_fract_y
_atom_site_fract_z
Si Si1 0.130331 0.143317 0.285806
Si Si2 0.598842 0.465402 0.777976
Si Si3 0.756623 0.213184 0.445729
Si Si4 0.156543 0.839423 0.889478
Si Si5 0.639638 0.316185 0.451482
Si Si6 0.145297 0.176182 0.936158
Si Si7 0.082728 0.722053 0.257995
Si Si8 0.330612 0.068278 0.221200
O O1 0.286087 0.432706 0.229909
O O2 0.088443 0.902529 0.319500
O O3 0.142028 0.213614 0.114108
O O4 0.000000 0.000000 0.500000
O O5 0.592365 0.370194 0.619719
O O6 0.644058 0.715145 0.736098
O O7 0.440937 0.194980 0.993414
O O8 0.721484 0.046917 0.326158
O O9 0.748152 0.374545 0.424632
O O10 0.914826 0.410950 0.357740
O O11 0.642646 0.990897 0.672144
O O12 0.150395 0.006232 0.877143
O O13 0.196735 0.887135 0.020100
O O14 0.000000 0.500000 0.000000
O O15 0.717038 0.516853 0.252916
O O16 0.500000 0.000000 0.500000
O O17 0.000000 0.000000 0.000000
O O18 0.160552 0.757431 0.309433
#
# Coordination Sequence:
#
# PCOD8005355 Si02
#       8
#     2   2   2   2   2   2   2   2
#     4  10  20  38  67  94 125 168 218 276 330 394
#     4  10  23  45  63  91 132 168 225 275 339 404
#     4  11  22  40  62  93 133 167 223 273 328 395
#     4   9  19  37  65  95 130 162 216 281 329 396
#     4  12  28  45  62  96 142 183 229 274 333 407
#     4  11  22  42  69  99 134 181 225 275 339 395
#     4   9  19  37  61  97 121 158 213 274 331 391
#     4  10  22  40  69  92 123 172 218 277 340 397
#
# _framework density 21.736802000000001
#
# number of rings (size 3 to 8) (size 9 to 14) (size 15 to 20)
#    0.000    1.750    0.000    4.875    3.500    1.500 
#    2.250    1.250    0.000    0.000    0.000    0.000 
#    0.000    0.000    0.000    0.000    0.000    0.000 
#
# Total GULP energy -198254.447532 kJ/mol
# GULP energy per Si atom -12390.902971 kJ/mol
# Density = 2.168733 g / cm^3
# Si number density = 21.736802 Si / 1000 Ang^3
#
#
#
# Elastic Constant Matrix: (Units=GPa)
#
#
# Indices 1 2 3 4 5 6 
#
# 1 95.5832 29.2506 55.9789 5.7838 20.3374 -2.9738
# 2 29.2506 85.4232 44.9424 5.7910 -2.3830 -1.6386
# 3 55.9789 44.9424 153.5463 23.2013 9.6157 -10.7661
# 4 5.7838 5.7910 23.2013 35.5638 -5.6075 -0.4703
# 5 20.3374 -2.3830 9.6157 -5.6075 33.4293 -6.1115
# 6 -2.9738 -1.6386 -10.7661 -0.4703 -6.1115 30.3408
#
#
#
# Elastic Compliance Matrix: (Units=1/GPa)
#
#
# Indices 1 2 3 4 5 6 
#
# 1 0.015961 -0.003473 -0.004254 -0.000736 -0.009224 -0.002002
# 2 -0.003473 0.014784 -0.003499 0.001133 0.004385 0.000117
# 3 -0.004254 -0.003499 0.010172 -0.005499 -0.001013 0.002714
# 4 -0.000736 0.001133 -0.005499 0.032846 0.007635 0.000085
# 5 -0.009224 0.004385 -0.001013 0.007635 0.038668 0.006880
# 6 -0.002002 0.000117 0.002714 0.000085 0.006880 0.035119
#
#
# Mechanical properties :
#
#
# Convention : Reuss Voigt Hill
#
# Bulk Modulus (GPa) = 54.15338 66.09960 60.12649
# Shear Modulus (GPa) = 28.38372 33.49217 30.93794
#
# Velocity S-wave (km/s) = 3.61749 3.92957 3.77675
# Velocity P-wave (km/s) = 6.51273 7.14589 6.83664
#
# Compressibility (1/GPa) = 0.01846607
#
# Stress axis : x y z
#
# Youngs Moduli (GPa) = 62.65235 67.64017 98.30678
#
# Poissons Ratio (x) = 0.23492 0.41820
# Poissons Ratio (y) = 0.21760 0.34393
# Poissons Ratio (z) = 0.26652 0.23664
#
# Static dielectric constant tensor:
#      x y z
#    x 3.251430 -0.165350 0.172990 
#    y -0.165350 3.865240 0.258350 
#    z 0.172990 0.258350 4.471120 
# 
# 
# High freq. dielectric constant tensor:
#      x y z
#    x 1.849700 0.005870 0.008610 
#    y 0.005870 1.846570 0.014080 
#    z 0.008610 0.014080 1.872560 
# 
# From -- ./inp_files/329156.got.cif
#   From: 2010.06.25/outbox.cif.g09.slc.cpg/sg2_165_cif.got.tgz:329156.got - 2010.06.27 13:26:56.
