data_PCOD8005961
_publ_section_title
;
Structure prediction by ZEFSAII (Michael W. Deem and Ramdas Pophale) SiO2 
 PCOD8005961
Probable space group: P -1
;
_chemical_formula_sum "Si O2"
_cell_formula_units_Z 14
_cell_length_a 6.640497
_cell_length_b 6.177142
_cell_length_c 18.114107
_cell_angle_alpha 115.643539
_cell_angle_beta 96.855829
_cell_angle_gamma 108.081255
_cell_volume 608.224385
_symmetry_space_group_name_H-M "P -1"
_symmetry_group_IT_number 2
_symmetry_cell_setting 'triclinic'
loop_
_space_group_symop_operation_xyz
x,y,z
-x,-y,-z
loop_
_atom_site_type_symbol
_atom_site_label
_atom_site_fract_x
_atom_site_fract_y
_atom_site_fract_z
Si Si1 0.097123 0.721093 0.938567
Si Si2 0.959240 0.640231 0.316006
Si Si3 0.867475 0.798934 0.187188
Si Si4 0.663402 0.109952 0.161677
Si Si5 0.395508 0.074464 0.435628
Si Si6 0.205592 0.471728 0.544248
Si Si7 0.801512 0.915905 0.872823
O O1 0.289887 0.937265 0.928651
O O2 0.131170 0.456846 0.889611
O O3 0.133497 0.809511 0.038317
O O4 0.860548 0.713151 0.896724
O O5 0.885352 0.349301 0.237528
O O6 0.845191 0.619935 0.387148
O O7 0.882206 0.803869 0.277097
O O8 0.227011 0.794469 0.353880
O O9 0.074109 0.035545 0.192929
O O10 0.645014 0.848387 0.166342
O O11 0.458404 0.192876 0.173636
O O12 0.253271 0.242650 0.473233
O O13 0.585446 0.245433 0.411078
O O14 0.500000 0.000000 0.500000
O O15 0.000000 0.500000 0.500000
#
# Coordination Sequence:
#
# PCOD8005961 Si02
#       7
#     2   2   2   2   2   2   2
#     4   9  20  40  61  90 129 168 217 273 310 376
#     4  11  25  43  64  95 140 163 211 271 322 384
#     4  10  23  39  58  93 131 167 212 264 324 376
#     4  10  23  39  60  95 127 169 216 262 321 384
#     4  11  25  45  70  98 124 170 216 263 322 384
#     4  11  25  45  70  98 126 166 221 261 318 391
#     4  10  20  39  64  89 127 175 216 261 321 380
#
# _framework density 23.01782
#
# number of rings (size 3 to 8) (size 9 to 14) (size 15 to 20)
#    0.000    1.714    1.429    1.286    4.000    2.857 
#    5.143    0.000    0.000    0.000    0.000    0.000 
#    0.000    0.000    0.000    0.000    0.000    0.000 
#
# Total GULP energy -173452.829514 kJ/mol
# GULP energy per Si atom -12389.487822 kJ/mol
# Density = 2.296543 g / cm^3
# Si number density = 23.017820 Si / 1000 Ang^3
#
#
#
# Elastic Constant Matrix: (Units=GPa)
#
#
# Indices 1 2 3 4 5 6 
#
# 1 114.3671 53.1919 34.7594 -8.3095 11.3972 -6.6527
# 2 53.1919 111.2427 46.8166 -17.8956 15.1136 -1.9553
# 3 34.7594 46.8166 89.7335 -13.0459 7.6555 10.1560
# 4 -8.3095 -17.8956 -13.0459 47.0812 7.3950 -5.7507
# 5 11.3972 15.1136 7.6555 7.3950 29.6954 -10.6229
# 6 -6.6527 -1.9553 10.1560 -5.7507 -10.6229 50.6622
#
#
#
# Elastic Compliance Matrix: (Units=1/GPa)
#
#
# Indices 1 2 3 4 5 6 
#
# 1 0.011718 -0.004442 -0.002294 0.000113 -0.001098 0.001610
# 2 -0.004442 0.014585 -0.004831 0.004312 -0.005440 0.000297
# 3 -0.002294 -0.004831 0.015499 0.001977 -0.002546 -0.003904
# 4 0.000113 0.004312 0.001977 0.024905 -0.008665 0.000795
# 5 -0.001098 -0.005440 -0.002546 -0.008665 0.042577 0.008100
# 6 0.001610 0.000297 -0.003904 0.000795 0.008100 0.022533
#
#
# Mechanical properties :
#
#
# Convention : Reuss Voigt Hill
#
# Bulk Modulus (GPa) = 53.56669 64.98656 59.27663
# Shear Modulus (GPa) = 31.02248 37.52610 34.27429
#
# Velocity S-wave (km/s) = 3.67517 4.04209 3.86299
# Velocity P-wave (km/s) = 6.42896 7.07666 6.76057
#
# Compressibility (1/GPa) = 0.01866832
#
# Stress axis : x y z
#
# Youngs Moduli (GPa) = 85.33718 68.56562 64.51823
#
# Poissons Ratio (x) = 0.30459 0.14798
# Poissons Ratio (y) = 0.37909 0.31169
# Poissons Ratio (z) = 0.19573 0.33124
#
# Static dielectric constant tensor:
#      x y z
#    x 4.188690 0.038740 -0.007600 
#    y 0.038740 4.509540 -0.271740 
#    z -0.007600 -0.271740 4.130310 
# 
# 
# High freq. dielectric constant tensor:
#      x y z
#    x 1.907450 -0.008380 -0.003620 
#    y -0.008380 1.919770 -0.019210 
#    z -0.003620 -0.019210 1.891860 
# 
# From -- ./inp_files/7870.got.cif
#   From: 2010.06.25/outbox.cif.g09.slc.cpg/sg2_4_cif.got.tgz:7870.got - 2010.06.27 13:26:56.
