data_PCOD8005809
_publ_section_title
;
Structure prediction by ZEFSAII (Michael W. Deem and Ramdas Pophale) SiO2 
 PCOD8005809
Probable space group: P -1
;
_chemical_formula_sum "Si O2"
_cell_formula_units_Z 16
_cell_length_a 22.147198
_cell_length_b 21.504116
_cell_length_c 9.997877
_cell_angle_alpha 45.263731
_cell_angle_beta 34.762898
_cell_angle_gamma 19.010747
_cell_volume 813.481632
_symmetry_space_group_name_H-M "P -1"
_symmetry_group_IT_number 2
_symmetry_cell_setting 'triclinic'
loop_
_space_group_symop_operation_xyz
x,y,z
-x,-y,-z
loop_
_atom_site_type_symbol
_atom_site_label
_atom_site_fract_x
_atom_site_fract_y
_atom_site_fract_z
Si Si1 0.396846 0.349392 0.188318
Si Si2 0.280153 0.470621 0.918710
Si Si3 0.814831 0.929833 0.450962
Si Si4 0.645237 0.331641 0.387264
Si Si5 0.351469 0.580561 0.020093
Si Si6 0.974982 0.630912 0.725029
Si Si7 0.263978 0.374141 0.843242
Si Si8 0.905970 0.894901 0.038615
O O1 0.421236 0.430147 0.074825
O O2 0.199090 0.445188 0.493630
O O3 0.660943 0.102212 0.087412
O O4 0.302149 0.414651 0.110491
O O5 0.554780 0.300760 0.628518
O O6 0.194406 0.460361 0.986934
O O7 0.072733 0.702873 0.939650
O O8 0.838112 0.898741 0.296059
O O9 0.053174 0.808768 0.249654
O O10 0.817580 0.834479 0.664750
O O11 0.557452 0.172321 0.584986
O O12 0.500000 0.500000 0.500000
O O13 0.570002 0.412402 0.250703
O O14 0.941873 0.128246 0.175943
O O15 0.500000 0.500000 0.000000
O O16 0.095614 0.552055 0.772201
O O17 0.785455 0.691983 0.975458
#
# Coordination Sequence:
#
# PCOD8005809 Si02
#       8
#     2   2   2   2   2   2   2   2
#     4  11  21  40  62  84 119 167 192 239 307 354
#     4  11  23  40  58  90 123 152 199 253 289 347
#     4  10  20  41  63  87 120 160 194 247 297 357
#     4   9  18  38  55  82 123 153 187 243 288 338
#     4  10  21  36  62  91 121 159 198 238 290 356
#     4  10  22  42  64  86 120 155 199 252 304 352
#     4  11  24  39  65  92 114 154 205 254 298 347
#     4  10  20  39  63  83 123 163 193 234 300 359
#
# _framework density 19.668545000000002
#
# number of rings (size 3 to 8) (size 9 to 14) (size 15 to 20)
#    0.000    1.750    6.250    0.375    3.500    3.000 
#    2.250    3.125    0.000    0.000    0.000    0.000 
#    0.000    0.000    0.000    0.000    0.000    0.000 
#
# Total GULP energy -198373.912945 kJ/mol
# GULP energy per Si atom -12398.369559 kJ/mol
# Density = 1.962378 g / cm^3
# Si number density = 19.668545 Si / 1000 Ang^3
#
#
#
# Elastic Constant Matrix: (Units=GPa)
#
#
# Indices 1 2 3 4 5 6 
#
# 1 126.1454 30.7254 28.9298 4.4696 19.1546 -18.5238
# 2 30.7254 67.9126 7.3851 13.2612 0.7727 -15.3296
# 3 28.9298 7.3851 70.9720 -0.9971 11.2835 -11.6231
# 4 4.4696 13.2612 -0.9971 30.7756 -3.6078 1.1995
# 5 19.1546 0.7727 11.2835 -3.6078 22.8573 -1.5517
# 6 -18.5238 -15.3296 -11.6231 1.1995 -1.5517 21.7172
#
#
#
# Elastic Compliance Matrix: (Units=1/GPa)
#
#
# Indices 1 2 3 4 5 6 
#
# 1 0.011333 -0.003203 -0.002050 -0.001522 -0.008223 0.005805
# 2 -0.003203 0.020704 0.000996 -0.008814 0.000982 0.012972
# 3 -0.002050 0.000996 0.017075 -0.000618 -0.006322 0.007676
# 4 -0.001522 -0.008814 -0.000618 0.037702 0.007190 -0.009420
# 5 -0.008223 0.000982 -0.006322 0.007190 0.054442 -0.006211
# 6 0.005805 0.012972 0.007676 -0.009420 -0.006211 0.064339
#
#
# Mechanical properties :
#
#
# Convention : Reuss Voigt Hill
#
# Bulk Modulus (GPa) = 24.63187 44.34563 34.48875
# Shear Modulus (GPa) = 21.96442 28.26934 25.11688
#
# Velocity S-wave (km/s) = 3.34537 3.79527 3.57740
# Velocity P-wave (km/s) = 5.24144 6.46536 5.88530
#
# Compressibility (1/GPa) = 0.04059782
#
# Stress axis : x y z
#
# Youngs Moduli (GPa) = 88.24152 48.30035 58.56388
#
# Poissons Ratio (x) = 0.15471 0.12003
# Poissons Ratio (y) = 0.28265 -0.05832
# Poissons Ratio (z) = 0.18085 -0.04810
#
# Static dielectric constant tensor:
#      x y z
#    x 3.378000 -0.187880 0.042000 
#    y -0.187880 3.480240 0.064170 
#    z 0.042000 0.064170 3.754980 
# 
# 
# High freq. dielectric constant tensor:
#      x y z
#    x 1.751180 -0.016050 0.007400 
#    y -0.016050 1.754920 0.000590 
#    z 0.007400 0.000590 1.778810 
# 
# From -- ./inp_files/217430.got.cif
#   From: 2010.06.25/outbox.cif.g09.slc.cpg/sg2_109_cif.got.tgz:217430.got - 2010.06.27 13:26:56.
