data_PCOD8005682
_publ_section_title
;
Structure prediction by ZEFSAII (Michael W. Deem and Ramdas Pophale) SiO2 
 PCOD8005682
Probable space group: P -1
;
_chemical_formula_sum "Si O2"
_cell_formula_units_Z 14
_cell_length_a 24.038077
_cell_length_b 11.843114
_cell_length_c 8.826725
_cell_angle_alpha 136.752348
_cell_angle_beta 149.136681
_cell_angle_gamma 31.178335
_cell_volume 667.184007
_symmetry_space_group_name_H-M "P -1"
_symmetry_group_IT_number 2
_symmetry_cell_setting 'triclinic'
loop_
_space_group_symop_operation_xyz
x,y,z
-x,-y,-z
loop_
_atom_site_type_symbol
_atom_site_label
_atom_site_fract_x
_atom_site_fract_y
_atom_site_fract_z
Si Si1 0.297688 0.104403 0.062580
Si Si2 0.004535 0.542375 0.877956
Si Si3 0.646455 0.319714 0.255956
Si Si4 0.106699 0.765852 0.444177
Si Si5 0.581807 0.551491 0.641309
Si Si6 0.748225 0.583437 0.291856
Si Si7 0.454140 0.977483 0.607122
O O1 0.394093 0.141686 0.236405
O O2 0.332400 0.064156 0.282735
O O3 0.133575 0.323684 0.876608
O O4 0.329933 0.895197 0.862623
O O5 0.858140 0.620409 0.534892
O O6 0.021999 0.724004 0.092621
O O7 0.000000 0.500000 0.000000
O O8 0.779113 0.248161 0.398422
O O9 0.647087 0.407863 0.503689
O O10 0.500000 0.500000 0.000000
O O11 0.189414 0.582495 0.586335
O O12 0.000000 0.000000 0.500000
O O13 0.500000 0.500000 0.500000
O O14 0.467607 0.805790 0.577893
O O15 0.716309 0.494590 0.990783
O O16 0.596505 0.815557 0.211262
#
# Coordination Sequence:
#
# PCOD8005682 Si02
#       7
#     2   2   2   2   2   2   2
#     4  11  21  39  67  98 123 170 231 274 319 390
#     4  10  20  39  61  91 131 168 220 262 321 402
#     4  12  23  39  66  97 131 171 225 280 325 385
#     4  11  23  41  68 101 130 174 227 279 327 388
#     4  12  26  42  64 103 141 173 218 281 343 387
#     4  11  24  42  65  97 135 178 221 266 339 402
#     4  11  22  40  68  93 131 171 224 273 326 397
#
# _framework density 20.983716999999999
#
# number of rings (size 3 to 8) (size 9 to 14) (size 15 to 20)
#    0.000    0.857    4.286    5.571    0.000    0.000 
#    0.000    5.714    0.000    1.714    0.000    0.000 
#    0.000    0.000    0.000    0.000    0.000    0.000 
#
# Total GULP energy -173632.773066 kJ/mol
# GULP energy per Si atom -12402.340933 kJ/mol
# Density = 2.093596 g / cm^3
# Si number density = 20.983717 Si / 1000 Ang^3
#
#
#
# Elastic Constant Matrix: (Units=GPa)
#
#
# Indices 1 2 3 4 5 6 
#
# 1 100.1790 50.5635 47.5605 -3.8200 9.3562 -5.4039
# 2 50.5635 134.2499 32.8796 21.6559 3.7900 -12.1683
# 3 47.5605 32.8796 147.6103 13.5037 1.9765 -11.2329
# 4 -3.8200 21.6559 13.5037 32.1231 -8.0307 5.6039
# 5 9.3562 3.7900 1.9765 -8.0307 34.8677 4.0392
# 6 -5.4039 -12.1683 -11.2329 5.6039 4.0392 40.7633
#
#
#
# Elastic Compliance Matrix: (Units=1/GPa)
#
#
# Indices 1 2 3 4 5 6 
#
# 1 0.015545 -0.006187 -0.004496 0.007964 -0.001177 -0.002003
# 2 -0.006187 0.011774 0.000707 -0.010416 -0.002589 0.004578
# 3 -0.004496 0.000707 0.008797 -0.005452 -0.000959 0.002883
# 4 0.007964 -0.010416 -0.005452 0.046111 0.011199 -0.011005
# 5 -0.001177 -0.002589 -0.000959 0.011199 0.032602 -0.005963
# 6 -0.002003 0.004578 0.002883 -0.011005 -0.005963 0.028531
#
#
# Mechanical properties :
#
#
# Convention : Reuss Voigt Hill
#
# Bulk Modulus (GPa) = 61.86589 71.56071 66.71330
# Shear Modulus (GPa) = 29.63860 38.28653 33.96257
#
# Velocity S-wave (km/s) = 3.76234 4.27615 4.02745
# Velocity P-wave (km/s) = 6.95848 7.65229 7.31362
#
# Compressibility (1/GPa) = 0.01616399
#
# Stress axis : x y z
#
# Youngs Moduli (GPa) = 64.33032 84.93190 113.67855
#
# Poissons Ratio (x) = 0.52545 0.51107
# Poissons Ratio (y) = 0.39799 -0.08033
# Poissons Ratio (z) = 0.28921 -0.06002
#
# Static dielectric constant tensor:
#      x y z
#    x 3.778860 0.003230 0.277300 
#    y 0.003230 3.960540 0.229660 
#    z 0.277300 0.229660 4.358650 
# 
# 
# High freq. dielectric constant tensor:
#      x y z
#    x 1.814810 -0.011460 0.015960 
#    y -0.011460 1.825990 0.017930 
#    z 0.015960 0.017930 1.826940 
# 
# From -- ./inp_files/177724.got.cif
#   From: 2010.06.25/outbox.cif.g09.slc.cpg/sg2_89_cif.got.tgz:177724.got - 2010.06.27 13:26:56.
