data_PCOD8005171
_publ_section_title
;
Structure prediction by ZEFSAII (Michael W. Deem and Ramdas Pophale) SiO2 
 PCOD8005171
Probable space group: P -1
;
_chemical_formula_sum "Si O2"
_cell_formula_units_Z 16
_cell_length_a 16.441581
_cell_length_b 18.549498
_cell_length_c 9.122285
_cell_angle_alpha 27.362260
_cell_angle_beta 36.928630
_cell_angle_gamma 36.492364
_cell_volume 722.407775
_symmetry_space_group_name_H-M "P -1"
_symmetry_group_IT_number 2
_symmetry_cell_setting 'triclinic'
loop_
_space_group_symop_operation_xyz
x,y,z
-x,-y,-z
loop_
_atom_site_type_symbol
_atom_site_label
_atom_site_fract_x
_atom_site_fract_y
_atom_site_fract_z
Si Si1 0.343355 0.349040 0.786165
Si Si2 0.085003 0.711788 0.777282
Si Si3 0.644936 0.636364 0.583075
Si Si4 0.115454 0.338280 0.343694
Si Si5 0.816477 0.822691 0.161738
Si Si6 0.321767 0.738429 0.840954
Si Si7 0.327483 0.816319 0.373374
Si Si8 0.135524 0.708330 0.395285
O O1 0.334582 0.289417 0.739406
O O2 0.508760 0.297680 0.688987
O O3 0.271288 0.548507 0.537541
O O4 0.258596 0.266806 0.166444
O O5 0.230503 0.714710 0.635937
O O6 0.068401 0.796993 0.484551
O O7 0.088993 0.522985 0.106957
O O8 0.949791 0.818793 0.874784
O O9 0.741800 0.689199 0.464914
O O10 0.477772 0.710274 0.737388
O O11 0.694947 0.436795 0.866892
O O12 0.129401 0.214443 0.682783
O O13 0.979284 0.349694 0.420907
O O14 0.702408 0.008301 0.981467
O O15 0.298101 0.851879 0.525668
O O16 0.199954 0.819857 0.994694
#
# Coordination Sequence:
#
# PCOD8005171 Si02
#       8
#     2   2   2   2   2   2   2   2
#     4   9  20  38  60  88 116 145 191 246 291 336
#     4  11  22  39  61  85 116 154 197 242 284 337
#     4   9  18  36  61  86 113 149 193 239 283 337
#     4  11  22  38  64  87 113 152 198 246 283 336
#     4  12  24  38  58  87 123 158 192 230 287 354
#     4   9  18  36  61  86 113 146 192 241 286 338
#     4  11  24  39  57  87 125 156 185 234 295 352
#     4  10  20  38  65  90 110 145 201 251 286 330
#
# _framework density 22.148154999999999
#
# number of rings (size 3 to 8) (size 9 to 14) (size 15 to 20)
#    0.000    1.750    0.000    6.750    0.000    5.500 
#    0.000    3.750    0.000    0.000    0.000    0.000 
#    0.000    0.000    0.000    0.000    0.000    0.000 
#
# Total GULP energy -198399.897981 kJ/mol
# GULP energy per Si atom -12399.993624 kJ/mol
# Density = 2.209774 g / cm^3
# Si number density = 22.148155 Si / 1000 Ang^3
#
#
#
# Elastic Constant Matrix: (Units=GPa)
#
#
# Indices 1 2 3 4 5 6 
#
# 1 92.6005 38.3362 24.8575 14.0504 5.0751 -16.9168
# 2 38.3362 62.7568 36.9283 28.6628 2.6593 -11.5428
# 3 24.8575 36.9283 71.8916 27.1956 15.0800 -1.9577
# 4 14.0504 28.6628 27.1956 39.5369 -2.2197 8.1051
# 5 5.0751 2.6593 15.0800 -2.2197 38.3084 11.7659
# 6 -16.9168 -11.5428 -1.9577 8.1051 11.7659 26.0135
#
#
#
# Elastic Compliance Matrix: (Units=1/GPa)
#
#
# Indices 1 2 3 4 5 6 
#
# 1 0.016329 -0.005238 0.000913 -0.005679 -0.006504 0.013075
# 2 -0.005238 0.043514 -0.004211 -0.034000 -0.012402 0.031788
# 3 0.000913 -0.004211 0.026813 -0.019461 -0.015796 0.013951
# 4 -0.005679 -0.034000 -0.019461 0.079636 0.033942 -0.060409
# 5 -0.006504 -0.012402 -0.015796 0.033942 0.049489 -0.043881
# 6 0.013075 0.031788 0.013951 -0.060409 -0.043881 0.100768
#
#
# Mechanical properties :
#
#
# Convention : Reuss Voigt Hill
#
# Bulk Modulus (GPa) = 14.37134 47.49922 30.93528
# Shear Modulus (GPa) = 14.01287 29.24689 21.62988
#
# Velocity S-wave (km/s) = 2.51806 3.63783 3.12845
# Velocity P-wave (km/s) = 3.86742 6.25602 5.20071
#
# Compressibility (1/GPa) = 0.06958292
#
# Stress axis : x y z
#
# Youngs Moduli (GPa) = 61.23993 22.98131 37.29599
#
# Poissons Ratio (x) = 0.12038 -0.03406
# Poissons Ratio (y) = 0.32078 0.15707
# Poissons Ratio (z) = -0.05593 0.09678
#
# Static dielectric constant tensor:
#      x y z
#    x 4.030270 0.040270 0.260390 
#    y 0.040270 3.900530 0.560120 
#    z 0.260390 0.560120 4.053290 
# 
# 
# High freq. dielectric constant tensor:
#      x y z
#    x 1.875970 -0.010720 0.008640 
#    y -0.010720 1.853140 0.033090 
#    z 0.008640 0.033090 1.866270 
# 
# From -- ./inp_files/260773.got.cif
#   From: 2010.06.25/outbox.cif.g09.slc.cpg/sg2_131_cif.got.tgz:260773.got - 2010.06.27 13:26:56.
