data_PCOD8005117
_publ_section_title
;
Structure prediction by ZEFSAII (Michael W. Deem and Ramdas Pophale) SiO2 
 PCOD8005117
Probable space group: P -1
;
_chemical_formula_sum "Si O2"
_cell_formula_units_Z 16
_cell_length_a 8.223220
_cell_length_b 23.495853
_cell_length_c 5.424851
_cell_angle_alpha 82.550087
_cell_angle_beta 120.473026
_cell_angle_gamma 130.242677
_cell_volume 657.590762
_symmetry_space_group_name_H-M "P -1"
_symmetry_group_IT_number 2
_symmetry_cell_setting 'triclinic'
loop_
_space_group_symop_operation_xyz
x,y,z
-x,-y,-z
loop_
_atom_site_type_symbol
_atom_site_label
_atom_site_fract_x
_atom_site_fract_y
_atom_site_fract_z
Si Si1 0.370817 0.121733 0.813303
Si Si2 0.756702 0.415131 0.633882
Si Si3 0.828520 0.016052 0.601980
Si Si4 0.630109 0.752734 0.383881
Si Si5 0.380355 0.912002 0.649784
Si Si6 0.712522 0.507945 0.899063
Si Si7 0.080635 0.221171 0.909404
Si Si8 0.344866 0.385075 0.050074
O O1 0.469790 0.202205 0.732141
O O2 0.134909 0.083212 0.848636
O O3 0.246831 0.059015 0.537340
O O4 0.608626 0.137094 0.113842
O O5 0.618948 0.340147 0.747703
O O6 0.572973 0.386135 0.276087
O O7 0.039686 0.451489 0.751606
O O8 0.775676 0.483218 0.724602
O O9 0.747495 0.056109 0.356252
O O10 0.673534 0.987758 0.755698
O O11 0.778982 0.770436 0.236754
O O12 0.808673 0.782156 0.748737
O O13 0.217742 0.857550 0.313664
O O14 0.434945 0.434299 0.840518
O O15 0.699083 0.574062 0.798994
O O16 0.092579 0.293663 0.883297
#
# Coordination Sequence:
#
# PCOD8005117 Si02
#       8
#     2   2   2   2   2   2   2   2
#     4  11  24  43  70  98 134 176 229 272 343 397
#     4  10  21  40  63  91 132 170 223 272 339 386
#     4  10  24  42  66 102 134 172 222 288 328 406
#     4  11  25  46  69  97 142 180 222 282 340 398
#     4  11  24  43  70  98 134 176 229 272 343 397
#     4  10  20  38  64  96 120 174 224 276 326 404
#     4  11  25  46  69  97 142 180 222 282 340 398
#     4  10  21  40  63  91 132 170 223 272 339 386
#
# _framework density 24.331240999999999
#
# number of rings (size 3 to 8) (size 9 to 14) (size 15 to 20)
#    0.000    1.500    2.500    1.500    3.500    5.000 
#    4.500    1.250    0.000    0.000    0.000    0.000 
#    0.000    0.000    0.000    0.000    0.000    0.000 
#
# Total GULP energy -198239.360252 kJ/mol
# GULP energy per Si atom -12389.960016 kJ/mol
# Density = 2.427586 g / cm^3
# Si number density = 24.331241 Si / 1000 Ang^3
#
#
#
# Elastic Constant Matrix: (Units=GPa)
#
#
# Indices 1 2 3 4 5 6 
#
# 1 67.7197 39.5608 13.4659 -10.6616 11.5938 -13.0598
# 2 39.5608 127.4556 16.8807 0.4780 -0.1912 -40.3861
# 3 13.4659 16.8807 73.3469 -14.8323 3.2149 -12.2595
# 4 -10.6616 0.4780 -14.8323 29.7443 -2.2532 10.1434
# 5 11.5938 -0.1912 3.2149 -2.2532 34.9574 -4.5575
# 6 -13.0598 -40.3861 -12.2595 10.1434 -4.5575 42.4370
#
#
#
# Elastic Compliance Matrix: (Units=1/GPa)
#
#
# Indices 1 2 3 4 5 6 
#
# 1 0.021148 -0.007666 -0.000806 0.008033 -0.006944 -0.003686
# 2 -0.007666 0.014785 -0.001529 -0.008093 0.004020 0.013636
# 3 -0.000806 -0.001529 0.015795 0.007201 -0.000589 0.001076
# 4 0.008033 -0.008093 0.007201 0.044860 -0.002320 -0.014122
# 5 -0.006944 0.004020 -0.000589 -0.002320 0.031548 0.005461
# 6 -0.003686 0.013636 0.001076 -0.014122 0.005461 0.039679
#
#
# Mechanical properties :
#
#
# Convention : Reuss Voigt Hill
#
# Bulk Modulus (GPa) = 31.51859 45.37075 38.44467
# Shear Modulus (GPa) = 25.20265 34.66874 29.93569
#
# Velocity S-wave (km/s) = 3.22190 3.77883 3.51143
# Velocity P-wave (km/s) = 5.17908 6.14223 5.68111
#
# Compressibility (1/GPa) = 0.03172731
#
# Stress axis : x y z
#
# Youngs Moduli (GPa) = 47.28604 67.63719 63.30947
#
# Poissons Ratio (x) = 0.51849 0.05100
# Poissons Ratio (y) = 0.36248 0.09680
# Poissons Ratio (z) = 0.03809 0.10342
#
# Static dielectric constant tensor:
#      x y z
#    x 4.504550 -0.194260 0.420450 
#    y -0.194260 4.840540 0.148080 
#    z 0.420450 0.148080 4.189920 
# 
# 
# High freq. dielectric constant tensor:
#      x y z
#    x 1.959910 -0.015220 0.014050 
#    y -0.015220 1.982290 0.002210 
#    z 0.014050 0.002210 1.939470 
# 
# From -- ./inp_files/54887.got.cif
#   From: 2010.06.25/outbox.cif.g09.slc.cpg/sg2_28_cif.got.tgz:54887.got - 2010.06.27 13:26:56.
