data_PCOD8005757
_publ_section_title
;
Structure prediction by ZEFSAII (Michael W. Deem and Ramdas Pophale) SiO2 
 PCOD8005757
Probable space group: P -1
;
_chemical_formula_sum "Si O2"
_cell_formula_units_Z 16
_cell_length_a 11.843397
_cell_length_b 8.939544
_cell_length_c 11.106906
_cell_angle_alpha 79.402752
_cell_angle_beta 54.448996
_cell_angle_gamma 54.676228
_cell_volume 759.787599
_symmetry_space_group_name_H-M "P -1"
_symmetry_group_IT_number 2
_symmetry_cell_setting 'triclinic'
loop_
_space_group_symop_operation_xyz
x,y,z
-x,-y,-z
loop_
_atom_site_type_symbol
_atom_site_label
_atom_site_fract_x
_atom_site_fract_y
_atom_site_fract_z
Si Si1 0.465309 0.969073 0.833431
Si Si2 0.236555 0.234942 0.148572
Si Si3 0.679770 0.387473 0.525613
Si Si4 0.766500 0.002042 0.219986
Si Si5 0.306669 0.977619 0.474441
Si Si6 0.299059 0.628842 0.753933
Si Si7 0.020948 0.166662 0.454754
Si Si8 0.934094 0.426788 0.952155
O O1 0.623924 0.795201 0.835919
O O2 0.532633 0.053337 0.687945
O O3 0.367481 0.909366 0.821038
O O4 0.328709 0.131191 0.983488
O O5 0.134325 0.152708 0.272800
O O6 0.108427 0.456782 0.162903
O O7 0.495728 0.555195 0.667640
O O8 0.713224 0.433366 0.364245
O O9 0.827095 0.356390 0.529478
O O10 0.684016 0.204333 0.536724
O O11 0.678431 0.996146 0.397707
O O12 0.929902 0.793634 0.121911
O O13 0.819738 0.143526 0.189689
O O14 0.120684 0.160390 0.513209
O O15 0.240264 0.538464 0.896574
O O16 0.000000 0.000000 0.500000
O O17 0.000000 0.500000 0.000000
#
# Coordination Sequence:
#
# PCOD8005757 Si02
#       8
#     2   2   2   2   2   2   2   2
#     4  10  20  39  62  91 123 160 200 256 305 362
#     4  10  21  38  63  93 120 158 214 249 298 367
#     4   9  18  35  63  86 117 163 209 246 296 366
#     4  11  23  40  61  93 125 167 198 255 309 363
#     4   9  19  37  61  91 123 156 205 251 303 362
#     4  10  22  39  59  90 125 159 207 253 302 362
#     4   9  18  37  62  92 120 162 203 251 302 363
#     4  12  23  40  64  90 123 162 205 254 304 364
#
# _framework density 21.058517999999999
#
# number of rings (size 3 to 8) (size 9 to 14) (size 15 to 20)
#    0.000    2.000    1.250    2.250    0.000    1.000 
#   11.250    1.875    0.000    0.000    0.000    0.000 
#    0.000    0.000    0.000    0.000    0.000    0.000 
#
# Total GULP energy -198278.709389 kJ/mol
# GULP energy per Si atom -12392.419337 kJ/mol
# Density = 2.101059 g / cm^3
# Si number density = 21.058518 Si / 1000 Ang^3
#
#
#
# Elastic Constant Matrix: (Units=GPa)
#
#
# Indices 1 2 3 4 5 6 
#
# 1 90.8633 35.5529 35.2645 -0.6970 6.1502 -20.4850
# 2 35.5529 87.4406 43.8695 -1.1852 -3.4584 -16.2842
# 3 35.2645 43.8695 108.3366 -17.8610 -1.4172 3.7872
# 4 -0.6970 -1.1852 -17.8610 37.0578 -1.4395 1.6437
# 5 6.1502 -3.4584 -1.4172 -1.4395 28.3459 -1.4522
# 6 -20.4850 -16.2842 3.7872 1.6437 -1.4522 28.1906
#
#
#
# Elastic Compliance Matrix: (Units=1/GPa)
#
#
# Indices 1 2 3 4 5 6 
#
# 1 0.016898 -0.002004 -0.005673 -0.003153 -0.003746 0.011874
# 2 -0.002004 0.018002 -0.007531 -0.003447 0.002607 0.010290
# 3 -0.005673 -0.007531 0.015809 0.007796 0.000935 -0.011003
# 4 -0.003153 -0.003447 0.007796 0.030958 0.001865 -0.007038
# 5 -0.003746 0.002607 0.000935 0.001865 0.036573 0.000433
# 6 0.011874 0.010290 -0.011003 -0.007038 0.000433 0.051956
#
#
# Mechanical properties :
#
#
# Convention : Reuss Voigt Hill
#
# Bulk Modulus (GPa) = 49.27866 57.33492 53.30679
# Shear Modulus (GPa) = 24.11077 30.18242 27.14659
#
# Velocity S-wave (km/s) = 3.38737 3.78995 3.59430
# Velocity P-wave (km/s) = 6.22500 6.81449 6.52640
#
# Compressibility (1/GPa) = 0.02029276
#
# Stress axis : x y z
#
# Youngs Moduli (GPa) = 59.17978 55.54815 63.25534
#
# Poissons Ratio (x) = 0.11132 0.35883
# Poissons Ratio (y) = 0.11860 0.47640
# Poissons Ratio (z) = 0.33571 0.41836
#
# Static dielectric constant tensor:
#      x y z
#    x 4.036730 -0.485060 -0.038260 
#    y -0.485060 3.844980 -0.142860 
#    z -0.038260 -0.142860 3.884100 
# 
# 
# High freq. dielectric constant tensor:
#      x y z
#    x 1.820440 -0.025560 -0.009160 
#    y -0.025560 1.812330 -0.014070 
#    z -0.009160 -0.014070 1.826000 
# 
# From -- ./inp_files/417057.got.cif
#   From: 2010.06.25/outbox.cif.g09.slc.cpg/sg2_209_cif.got.tgz:417057.got - 2010.06.27 13:26:56.
