data_PCOD8005756
_publ_section_title
;
Structure prediction by ZEFSAII (Michael W. Deem and Ramdas Pophale) SiO2 
 PCOD8005756
Probable space group: P -1
;
_chemical_formula_sum "Si O2"
_cell_formula_units_Z 16
_cell_length_a 10.425689
_cell_length_b 11.972969
_cell_length_c 8.658905
_cell_angle_alpha 52.024247
_cell_angle_beta 82.655839
_cell_angle_gamma 63.731842
_cell_volume 747.892293
_symmetry_space_group_name_H-M "P -1"
_symmetry_group_IT_number 2
_symmetry_cell_setting 'triclinic'
loop_
_space_group_symop_operation_xyz
x,y,z
-x,-y,-z
loop_
_atom_site_type_symbol
_atom_site_label
_atom_site_fract_x
_atom_site_fract_y
_atom_site_fract_z
Si Si1 0.953609 0.936671 0.294313
Si Si2 0.225233 0.640958 0.557169
Si Si3 0.440483 0.100042 0.766437
Si Si4 0.370728 0.865664 0.794929
Si Si5 0.459472 0.701262 0.606608
Si Si6 0.146319 0.383365 0.677368
Si Si7 0.980127 0.821479 0.045765
Si Si8 0.310242 0.643615 0.204847
O O1 0.058924 0.773662 0.502835
O O2 0.922813 0.903159 0.152075
O O3 0.798130 0.028325 0.323943
O O4 0.043488 0.040601 0.190987
O O5 0.327900 0.652164 0.664461
O O6 0.215355 0.476388 0.686054
O O7 0.299799 0.668697 0.368944
O O8 0.549979 0.167009 0.630538
O O9 0.277714 0.250671 0.669374
O O10 0.438896 0.977941 0.743065
O O11 0.500000 0.000000 0.000000
O O12 0.463603 0.764190 0.722787
O O13 0.383601 0.745786 0.034458
O O14 0.607767 0.540974 0.694312
O O15 0.000000 0.500000 0.500000
O O16 0.102700 0.282444 0.892741
O O17 0.149973 0.699746 0.118568
#
# Coordination Sequence:
#
# PCOD8005756 Si02
#       8
#     2   2   2   2   2   2   2   2
#     4   9  18  35  59  89 116 156 204 250 306 358
#     4  11  22  36  64  89 123 155 214 262 295 355
#     4  12  26  41  65  95 126 161 213 262 305 366
#     4  11  23  41  64  87 129 166 201 247 319 380
#     4  12  25  40  58  92 131 168 196 250 320 378
#     4  12  20  38  63  94 120 156 208 268 306 348
#     4   9  17  32  62  88 113 150 209 262 291 353
#     4  10  20  39  62  91 117 162 213 252 300 366
#
# _framework density 21.393453999999998
#
# number of rings (size 3 to 8) (size 9 to 14) (size 15 to 20)
#    0.000    1.250    5.000    2.625    3.500    0.500 
#    0.000    0.000    0.000    3.000    0.000    0.000 
#    0.000    0.000    0.000    0.000    0.000    0.000 
#
# Total GULP energy -198281.537072 kJ/mol
# GULP energy per Si atom -12392.596067 kJ/mol
# Density = 2.134476 g / cm^3
# Si number density = 21.393454 Si / 1000 Ang^3
#
#
#
# Elastic Constant Matrix: (Units=GPa)
#
#
# Indices 1 2 3 4 5 6 
#
# 1 75.4776 23.1360 17.8729 -10.8281 -21.2765 28.1012
# 2 23.1360 82.3888 25.6121 -22.3313 9.0788 11.9595
# 3 17.8729 25.6121 51.4285 -17.7735 -16.9693 11.7082
# 4 -10.8281 -22.3313 -17.7735 24.5240 7.2694 -5.6259
# 5 -21.2765 9.0788 -16.9693 7.2694 33.8804 -15.3414
# 6 28.1012 11.9595 11.7082 -5.6259 -15.3414 40.4272
#
#
#
# Elastic Compliance Matrix: (Units=1/GPa)
#
#
# Indices 1 2 3 4 5 6 
#
# 1 0.021697 -0.007142 0.001713 -0.001479 0.012708 -0.008848
# 2 -0.007142 0.025699 -0.010278 0.018299 -0.023111 -0.005885
# 3 0.001713 -0.010278 0.033562 0.010324 0.018730 0.000674
# 4 -0.001479 0.018299 0.010324 0.068392 -0.017346 -0.004441
# 5 0.012708 -0.023111 0.018730 -0.017346 0.063198 0.014148
# 6 -0.008848 -0.005885 0.000674 -0.004441 0.014148 0.037183
#
#
# Mechanical properties :
#
#
# Convention : Reuss Voigt Hill
#
# Bulk Modulus (GPa) = 20.18401 38.05964 29.12182
# Shear Modulus (GPa) = 16.79767 29.27793 23.03780
#
# Velocity S-wave (km/s) = 2.80514 3.70340 3.28512
# Velocity P-wave (km/s) = 4.46620 6.00964 5.29447
#
# Compressibility (1/GPa) = 0.04954416
#
# Stress axis : x y z
#
# Youngs Moduli (GPa) = 46.08923 38.91174 29.79525
#
# Poissons Ratio (x) = 0.27791 -0.05104
# Poissons Ratio (y) = 0.32918 0.30624
# Poissons Ratio (z) = -0.07895 0.39994
#
# Static dielectric constant tensor:
#      x y z
#    x 3.873960 -0.071420 -0.349130 
#    y -0.071420 3.842180 -0.452970 
#    z -0.349130 -0.452970 3.988280 
# 
# 
# High freq. dielectric constant tensor:
#      x y z
#    x 1.839140 -0.008250 -0.020470 
#    y -0.008250 1.835320 -0.040920 
#    z -0.020470 -0.040920 1.814920 
# 
# From -- ./inp_files/261603.got.cif
#   From: 2010.06.25/outbox.cif.g09.slc.cpg/sg2_131_cif.got.tgz:261603.got - 2010.06.27 13:26:56.
