data_PCOD8005252
_publ_section_title
;
Structure prediction by ZEFSAII (Michael W. Deem and Ramdas Pophale) SiO2 
 PCOD8005252
Probable space group: P -1
;
_chemical_formula_sum "Si O2"
_cell_formula_units_Z 14
_cell_length_a 13.158981
_cell_length_b 23.045859
_cell_length_c 9.149709
_cell_angle_alpha 143.971819
_cell_angle_beta 145.853699
_cell_angle_gamma 23.495608
_cell_volume 605.405029
_symmetry_space_group_name_H-M "P -1"
_symmetry_group_IT_number 2
_symmetry_cell_setting 'triclinic'
loop_
_space_group_symop_operation_xyz
x,y,z
-x,-y,-z
loop_
_atom_site_type_symbol
_atom_site_label
_atom_site_fract_x
_atom_site_fract_y
_atom_site_fract_z
Si Si1 0.577060 0.303169 0.488974
Si Si2 0.847446 0.866086 0.203359
Si Si3 0.215274 0.137382 0.362059
Si Si4 0.349544 0.569052 0.615833
Si Si5 0.596813 0.068925 0.065650
Si Si6 0.590018 0.607402 0.225059
Si Si7 0.839774 0.695978 0.614794
O O1 0.333498 0.464347 0.449308
O O2 0.505689 0.216597 0.216503
O O3 0.632307 0.309239 0.738168
O O4 0.854134 0.221941 0.567128
O O5 0.718720 0.012486 0.260575
O O6 0.661971 0.903519 0.195365
O O7 0.838112 0.777813 0.904221
O O8 0.222623 0.235482 0.479427
O O9 0.950175 0.256579 0.396341
O O10 0.500000 0.000000 0.500000
O O11 0.178820 0.060039 0.048992
O O12 0.500000 0.500000 0.500000
O O13 0.535994 0.553253 0.920808
O O14 0.601607 0.712762 0.389724
O O15 0.866172 0.475676 0.377538
#
# Coordination Sequence:
#
# PCOD8005252 Si02
#       7
#     2   2   2   2   2   2   2
#     4  12  22  42  75 104 139 185 241 300 357 425
#     4  10  20  38  66 104 142 169 230 294 359 420
#     4  11  26  48  67  98 153 196 234 295 371 436
#     4  12  28  47  69 105 145 194 244 301 357 435
#     4  10  23  41  66 105 139 182 232 290 367 424
#     4  11  21  41  74 108 140 177 248 305 360 417
#     4  10  20  40  71 107 136 187 234 304 361 423
#
# _framework density 23.125012999999999
#
# number of rings (size 3 to 8) (size 9 to 14) (size 15 to 20)
#    0.000    1.143    4.286    2.571    2.000    1.143 
#    0.000    2.857    0.000    0.000    0.000    0.000 
#    0.000    0.000    0.000    0.000    0.000    0.000 
#
# Total GULP energy -173463.167597 kJ/mol
# GULP energy per Si atom -12390.226257 kJ/mol
# Density = 2.307238 g / cm^3
# Si number density = 23.125013 Si / 1000 Ang^3
#
#
#
# Elastic Constant Matrix: (Units=GPa)
#
#
# Indices 1 2 3 4 5 6 
#
# 1 120.5306 57.8040 49.3208 15.0777 -7.8157 -6.4512
# 2 57.8040 129.2019 44.0814 0.8124 6.2597 1.7191
# 3 49.3208 44.0814 67.7496 16.9179 4.6606 9.8723
# 4 15.0777 0.8124 16.9179 38.4300 -0.6408 4.3045
# 5 -7.8157 6.2597 4.6606 -0.6408 32.6980 9.4499
# 6 -6.4512 1.7191 9.8723 4.3045 9.4499 42.9401
#
#
#
# Elastic Compliance Matrix: (Units=1/GPa)
#
#
# Indices 1 2 3 4 5 6 
#
# 1 0.014165 -0.003827 -0.008052 -0.002245 0.004232 0.003426
# 2 -0.003827 0.011381 -0.005399 0.003556 -0.002362 0.000374
# 3 -0.008052 -0.005399 0.027223 -0.008125 -0.003278 -0.005716
# 4 -0.002245 0.003556 -0.008125 0.030638 0.001097 -0.001924
# 5 0.004232 -0.002362 -0.003278 0.001097 0.034321 -0.006179
# 6 0.003426 0.000374 -0.005716 -0.001924 -0.006179 0.026655
#
#
# Mechanical properties :
#
#
# Convention : Reuss Voigt Hill
#
# Bulk Modulus (GPa) = 54.90691 68.87717 61.89204
# Shear Modulus (GPa) = 27.02540 33.89868 30.46204
#
# Velocity S-wave (km/s) = 3.42228 3.83285 3.63337
# Velocity P-wave (km/s) = 6.27783 7.03114 6.66514
#
# Compressibility (1/GPa) = 0.01821264
#
# Stress axis : x y z
#
# Youngs Moduli (GPa) = 70.59409 87.86405 36.73411
#
# Poissons Ratio (x) = 0.33624 0.29579
# Poissons Ratio (y) = 0.27015 0.19834
# Poissons Ratio (z) = 0.56843 0.47442
#
# Static dielectric constant tensor:
#      x y z
#    x 4.456080 -0.171650 0.077940 
#    y -0.171650 4.508500 0.337490 
#    z 0.077940 0.337490 3.734310 
# 
# 
# High freq. dielectric constant tensor:
#      x y z
#    x 1.920200 -0.008080 0.006460 
#    y -0.008080 1.925200 0.026510 
#    z 0.006460 0.026510 1.874600 
# 
# From -- ./inp_files/281295.got.cif
#   From: 2010.06.25/outbox.cif.g09.slc.cpg/sg2_141_cif.got.tgz:281295.got - 2010.06.27 13:26:56.
