data_PCOD8005890
_publ_section_title
;
Structure prediction by ZEFSAII (Michael W. Deem and Ramdas Pophale) SiO2 
 PCOD8005890
Probable space group: P -1
;
_chemical_formula_sum "Si O2"
_cell_formula_units_Z 16
_cell_length_a 12.600491
_cell_length_b 18.926291
_cell_length_c 8.912871
_cell_angle_alpha 62.291697
_cell_angle_beta 131.543976
_cell_angle_gamma 149.315079
_cell_volume 780.337413
_symmetry_space_group_name_H-M "P -1"
_symmetry_group_IT_number 2
_symmetry_cell_setting 'triclinic'
loop_
_space_group_symop_operation_xyz
x,y,z
-x,-y,-z
loop_
_atom_site_type_symbol
_atom_site_label
_atom_site_fract_x
_atom_site_fract_y
_atom_site_fract_z
Si Si1 0.386329 0.178718 0.104768
Si Si2 0.221396 0.382749 0.413138
Si Si3 0.226358 0.374904 0.781913
Si Si4 0.859734 0.502576 0.277241
Si Si5 0.066573 0.612138 0.028714
Si Si6 0.024700 0.126439 0.459909
Si Si7 0.398058 0.163639 0.802446
Si Si8 0.923742 0.075131 0.747511
O O1 0.567290 0.335121 0.177645
O O2 0.339517 0.078882 0.266512
O O3 0.496881 0.198093 0.031220
O O4 0.114482 0.090598 0.913084
O O5 0.500000 0.500000 0.500000
O O6 0.252118 0.397312 0.606529
O O7 0.067048 0.236600 0.344266
O O8 0.073947 0.389027 0.204163
O O9 0.089272 0.389872 0.699263
O O10 0.047354 0.212812 0.804077
O O11 0.500000 0.500000 0.000000
O O12 0.000000 0.500000 0.500000
O O13 0.961430 0.563543 0.145467
O O14 0.376673 0.760853 0.171354
O O15 0.000000 0.500000 0.000000
O O16 0.300884 0.209820 0.643313
O O17 0.867534 0.058591 0.535510
O O18 0.851367 0.007096 0.286970
#
# Coordination Sequence:
#
# PCOD8005890 Si02
#       8
#     2   2   2   2   2   2   2   2
#     4  10  20  39  63  93 126 161 209 261 315 374
#     4  11  24  41  66  95 129 168 212 264 319 376
#     4  11  22  42  66  95 127 166 215 264 313 382
#     4  12  26  41  63  96 129 168 213 260 321 384
#     4  12  24  42  64  91 130 170 211 266 320 374
#     4   9  21  41  63  95 122 162 214 261 315 379
#     4  10  21  39  66  90 127 163 212 262 317 377
#     4   9  20  39  65  91 124 162 207 266 311 371
#
# _framework density 20.50395
#
# number of rings (size 3 to 8) (size 9 to 14) (size 15 to 20)
#    0.000    1.500    2.500    2.250    3.500    2.500 
#    2.250    0.625    0.000    0.000    0.000    0.000 
#    0.000    0.000    0.000    0.000    0.000    0.000 
#
# Total GULP energy -198246.304164 kJ/mol
# GULP energy per Si atom -12390.394010 kJ/mol
# Density = 2.045728 g / cm^3
# Si number density = 20.503950 Si / 1000 Ang^3
#
#
#
# Elastic Constant Matrix: (Units=GPa)
#
#
# Indices 1 2 3 4 5 6 
#
# 1 108.1723 52.0097 26.2259 -10.9873 3.7388 -12.7133
# 2 52.0097 114.9382 27.3399 -17.6951 -0.5012 -3.5073
# 3 26.2259 27.3399 81.8506 -11.8788 8.0168 -3.7308
# 4 -10.9873 -17.6951 -11.8788 30.4852 -3.1997 2.1507
# 5 3.7388 -0.5012 8.0168 -3.1997 31.3300 1.9302
# 6 -12.7133 -3.5073 -3.7308 2.1507 1.9302 40.9967
#
#
#
# Elastic Compliance Matrix: (Units=1/GPa)
#
#
# Indices 1 2 3 4 5 6 
#
# 1 0.012659 -0.005080 -0.002019 0.000462 -0.001234 0.003341
# 2 -0.005080 0.012175 -0.001982 0.004733 0.001856 -0.001050
# 3 -0.002019 -0.001982 0.014342 0.003346 -0.003149 0.000482
# 4 0.000462 0.004733 0.003346 0.037430 0.003065 -0.001255
# 5 -0.001234 0.001856 -0.003149 0.003065 0.033352 -0.002241
# 6 0.003341 -0.001050 0.000482 -0.001255 -0.002241 0.025554
#
#
# Mechanical properties :
#
#
# Convention : Reuss Voigt Hill
#
# Bulk Modulus (GPa) = 47.58685 57.34579 52.46632
# Shear Modulus (GPa) = 31.11790 33.85475 32.48633
#
# Velocity S-wave (km/s) = 3.89993 4.06782 3.98476
# Velocity P-wave (km/s) = 6.59836 7.07756 6.84215
#
# Compressibility (1/GPa) = 0.02101421
#
# Stress axis : x y z
#
# Youngs Moduli (GPa) = 78.99637 82.13392 69.72418
#
# Poissons Ratio (x) = 0.41726 0.14077
# Poissons Ratio (y) = 0.40132 0.13818
# Poissons Ratio (z) = 0.15949 0.16278
#
# Static dielectric constant tensor:
#      x y z
#    x 2.393170 -0.355730 -0.351550 
#    y -0.355730 2.454160 -0.504870 
#    z -0.351550 -0.504870 3.719240 
# 
# 
# High freq. dielectric constant tensor:
#      x y z
#    x 1.804210 -0.007750 -0.007750 
#    y -0.007750 1.810960 -0.004200 
#    z -0.007750 -0.004200 1.793400 
# 
# From -- ./inp_files/224090.got.cif
#   From: 2010.06.25/outbox.cif.g09.slc.cpg/sg2_113_cif.got.tgz:224090.got - 2010.06.27 13:26:56.
