data_PCOD8005857
_publ_section_title
;
Structure prediction by ZEFSAII (Michael W. Deem and Ramdas Pophale) SiO2 
 PCOD8005857
Probable space group: P -1
;
_chemical_formula_sum "Si O2"
_cell_formula_units_Z 16
_cell_length_a 8.665379
_cell_length_b 8.895287
_cell_length_c 12.413175
_cell_angle_alpha 83.899039
_cell_angle_beta 88.902247
_cell_angle_gamma 120.202420
_cell_volume 819.310343
_symmetry_space_group_name_H-M "P -1"
_symmetry_group_IT_number 2
_symmetry_cell_setting 'triclinic'
loop_
_space_group_symop_operation_xyz
x,y,z
-x,-y,-z
loop_
_atom_site_type_symbol
_atom_site_label
_atom_site_fract_x
_atom_site_fract_y
_atom_site_fract_z
Si Si1 0.794062 0.467419 0.777334
Si Si2 0.669199 0.676805 0.442619
Si Si3 0.808492 0.978228 0.009999
Si Si4 0.031854 0.356799 0.456316
Si Si5 0.664201 0.006763 0.438185
Si Si6 0.404946 0.170712 0.759104
Si Si7 0.299204 0.366339 0.039154
Si Si8 0.992259 0.361017 0.927654
O O1 0.847418 0.569714 0.657210
O O2 0.609653 0.283266 0.786043
O O3 0.773400 0.592832 0.854526
O O4 0.949681 0.423020 0.810148
O O5 0.500000 0.500000 0.500000
O O6 0.855879 0.684462 0.456627
O O7 0.647515 0.699479 0.312890
O O8 0.680330 0.842389 0.493654
O O9 0.701386 0.818169 0.938829
O O10 0.724692 0.923185 0.133132
O O11 0.823876 0.162746 0.965446
O O12 0.000000 0.000000 0.000000
O O13 0.000000 0.500000 0.500000
O O14 0.844393 0.186869 0.445159
O O15 0.500000 0.000000 0.500000
O O16 0.621809 0.982796 0.312036
O O17 0.500000 0.500000 0.000000
O O18 0.179507 0.363185 0.937455
O O19 0.000000 0.500000 0.000000
#
# Coordination Sequence:
#
# PCOD8005857 Si02
#       8
#     2   2   2   2   2   2   2   2
#     4  11  22  42  62  91 129 169 211 259 325 374
#     4  10  21  41  68  96 129 167 215 264 327 380
#     4  10  21  39  62  92 125 166 209 258 314 377
#     4  12  24  42  68  94 131 170 212 273 320 388
#     4  10  23  42  64  94 130 164 215 266 323 387
#     4  10  22  38  69  87 130 167 214 263 323 382
#     4  10  20  39  63  90 124 162 211 260 309 376
#     4   9  22  38  62  89 130 163 212 259 311 377
#
# _framework density 19.52862
#
# number of rings (size 3 to 8) (size 9 to 14) (size 15 to 20)
#    0.750    1.000    2.500    1.875    5.250    2.500 
#    0.000    2.500    0.000    0.000    0.000    0.000 
#    0.000    0.000    0.000    0.000    0.000    0.000 
#
# Total GULP energy -198212.140716 kJ/mol
# GULP energy per Si atom -12388.258795 kJ/mol
# Density = 1.948417 g / cm^3
# Si number density = 19.528620 Si / 1000 Ang^3
#
#
#
# Elastic Constant Matrix: (Units=GPa)
#
#
# Indices 1 2 3 4 5 6 
#
# 1 103.7245 40.1758 35.6361 6.2124 -2.3716 2.6510
# 2 40.1758 159.6027 26.5280 16.8454 -9.4060 0.5731
# 3 35.6361 26.5280 80.5466 4.8164 -8.9018 -1.7403
# 4 6.2124 16.8454 4.8164 35.5073 1.0964 -1.2874
# 5 -2.3716 -9.4060 -8.9018 1.0964 38.5995 -0.9086
# 6 2.6510 0.5731 -1.7403 -1.2874 -0.9086 39.4408
#
#
#
# Elastic Compliance Matrix: (Units=1/GPa)
#
#
# Indices 1 2 3 4 5 6 
#
# 1 0.012184 -0.002286 -0.004736 -0.000414 -0.000913 -0.001029
# 2 -0.002286 0.007430 -0.001090 -0.003026 0.001503 -0.000067
# 3 -0.004736 -0.001090 0.015272 -0.000781 0.003012 0.001052
# 4 -0.000414 -0.003026 -0.000781 0.029867 -0.001768 0.000971
# 5 -0.000913 0.001503 0.003012 -0.001768 0.026979 0.000736
# 6 -0.001029 -0.000067 0.001052 0.000971 0.000736 0.025520
#
#
# Mechanical properties :
#
#
# Convention : Reuss Voigt Hill
#
# Bulk Modulus (GPa) = 53.58595 60.95042 57.26818
# Shear Modulus (GPa) = 35.79171 38.81179 37.30175
#
# Velocity S-wave (km/s) = 4.28575 4.46290 4.37522
# Velocity P-wave (km/s) = 7.21037 7.60494 7.41028
#
# Compressibility (1/GPa) = 0.01866161
#
# Stress axis : x y z
#
# Youngs Moduli (GPa) = 82.07655 134.58099 65.48015
#
# Poissons Ratio (x) = 0.30768 0.31011
# Poissons Ratio (y) = 0.18765 0.07138
# Poissons Ratio (z) = 0.38871 0.14671
#
# Static dielectric constant tensor:
#      x y z
#    x 3.651080 -0.084580 0.204470 
#    y -0.084580 3.988460 -0.041680 
#    z 0.204470 -0.041680 3.447460 
# 
# 
# High freq. dielectric constant tensor:
#      x y z
#    x 1.760510 0.006180 0.000540 
#    y 0.006180 1.781500 0.010020 
#    z 0.000540 0.010020 1.742530 
# 
# From -- ./inp_files/379196.got.cif
#   From: 2010.06.25/outbox.cif.g09.slc.cpg/sg2_190_cif.got.tgz:379196.got - 2010.06.27 13:26:56.
