data_PCOD8005565
_publ_section_title
;
Structure prediction by ZEFSAII (Michael W. Deem and Ramdas Pophale) SiO2 
 PCOD8005565
Probable space group: P -1
;
_chemical_formula_sum "Si O2"
_cell_formula_units_Z 16
_cell_length_a 16.292968
_cell_length_b 8.759052
_cell_length_c 15.583655
_cell_angle_alpha 106.862039
_cell_angle_beta 153.567282
_cell_angle_gamma 90.342080
_cell_volume 740.543844
_symmetry_space_group_name_H-M "P -1"
_symmetry_group_IT_number 2
_symmetry_cell_setting 'triclinic'
loop_
_space_group_symop_operation_xyz
x,y,z
-x,-y,-z
loop_
_atom_site_type_symbol
_atom_site_label
_atom_site_fract_x
_atom_site_fract_y
_atom_site_fract_z
Si Si1 0.099622 0.675104 0.868983
Si Si2 0.027598 0.829393 0.515790
Si Si3 0.839052 0.225965 0.541842
Si Si4 0.170920 0.214057 0.946307
Si Si5 0.979492 0.936170 0.873558
Si Si6 0.515427 0.675584 0.294851
Si Si7 0.778726 0.586883 0.406388
Si Si8 0.569127 0.877225 0.948107
O O1 0.910726 0.437459 0.680013
O O2 0.025773 0.698239 0.708320
O O3 0.058583 0.794705 0.917781
O O4 0.366398 0.750695 0.137532
O O5 0.000645 0.717476 0.384315
O O6 0.831515 0.654746 0.368087
O O7 0.000000 0.000000 0.500000
O O8 0.291479 0.947305 0.820649
O O9 0.563324 0.073977 0.234056
O O10 0.903737 0.125434 0.655401
O O11 0.344186 0.457371 0.145977
O O12 0.240144 0.117322 0.926948
O O13 0.162391 0.139067 0.021382
O O14 0.713802 0.826075 0.574714
O O15 0.000000 0.000000 0.000000
O O16 0.634682 0.658109 0.321233
O O17 0.625199 0.343041 0.226394
#
# Coordination Sequence:
#
# PCOD8005565 Si02
#       8
#     2   2   2   2   2   2   2   2
#     4   9  20  41  62  87 119 155 203 238 294 365
#     4  12  23  37  54  89 126 156 210 253 281 337
#     4  10  22  40  60  87 121 162 206 245 293 347
#     4  10  21  42  62  87 121 156 199 243 295 365
#     4  11  24  41  65  95 120 147 192 247 303 367
#     4   9  20  41  64  87 120 163 192 240 305 348
#     4   9  21  39  58  84 123 163 201 246 291 338
#     4  10  20  39  60  84 117 163 205 245 294 335
#
# _framework density 21.605743
#
# number of rings (size 3 to 8) (size 9 to 14) (size 15 to 20)
#    0.000    2.000    1.250    2.625    0.000    5.500 
#    2.250    2.500    0.000    0.000    0.000    0.000 
#    0.000    0.000    0.000    0.000    0.000    0.000 
#
# Total GULP energy -198386.278748 kJ/mol
# GULP energy per Si atom -12399.142422 kJ/mol
# Density = 2.155657 g / cm^3
# Si number density = 21.605743 Si / 1000 Ang^3
#
#
#
# Elastic Constant Matrix: (Units=GPa)
#
#
# Indices 1 2 3 4 5 6 
#
# 1 83.2612 47.4720 17.0992 6.2443 -13.0332 1.9622
# 2 47.4720 96.7227 28.2405 -12.5394 6.0741 -5.8175
# 3 17.0992 28.2405 91.6230 -17.8907 8.1188 -4.4164
# 4 6.2443 -12.5394 -17.8907 35.3238 -10.2604 7.2908
# 5 -13.0332 6.0741 8.1188 -10.2604 25.0809 -1.5277
# 6 1.9622 -5.8175 -4.4164 7.2908 -1.5277 28.5325
#
#
#
# Elastic Compliance Matrix: (Units=1/GPa)
#
#
# Indices 1 2 3 4 5 6 
#
# 1 0.021396 -0.011284 -0.002722 -0.005069 0.012523 -0.002228
# 2 -0.011284 0.017580 -0.001604 0.004723 -0.007518 0.002503
# 3 -0.002722 -0.001604 0.013313 0.005730 -0.002973 0.000298
# 4 -0.005069 0.004723 0.005730 0.037982 0.009479 -0.006999
# 5 0.012523 -0.007518 -0.002973 0.009479 0.052891 -0.002445
# 6 -0.002228 0.002503 0.000298 -0.006999 -0.002445 0.037415
#
#
# Mechanical properties :
#
#
# Convention : Reuss Voigt Hill
#
# Bulk Modulus (GPa) = 47.46088 50.80337 49.13213
# Shear Modulus (GPa) = 22.84981 29.70711 26.27846
#
# Velocity S-wave (km/s) = 3.25557 3.71207 3.49129
# Velocity P-wave (km/s) = 6.01217 6.47592 6.24835
#
# Compressibility (1/GPa) = 0.02106998
#
# Stress axis : x y z
#
# Youngs Moduli (GPa) = 46.73766 56.88168 75.11355
#
# Poissons Ratio (x) = 0.64186 0.20445
# Poissons Ratio (y) = 0.52739 0.12047
# Poissons Ratio (z) = 0.12721 0.09123
#
# Static dielectric constant tensor:
#      x y z
#    x 3.467220 -0.108920 0.103140 
#    y -0.108920 4.110920 -0.229210 
#    z 0.103140 -0.229210 4.053470 
# 
# 
# High freq. dielectric constant tensor:
#      x y z
#    x 1.807080 -0.007450 0.011190 
#    y -0.007450 1.863680 -0.008630 
#    z 0.011190 -0.008630 1.854370 
# 
# From -- ./inp_files/337603.got.cif
#   From: 2010.06.25/outbox.cif.g09.slc.cpg/sg2_169_cif.got.tgz:337603.got - 2010.06.27 13:26:56.
