data_PCOD8005075
_publ_section_title
;
Structure prediction by ZEFSAII (Michael W. Deem and Ramdas Pophale) SiO2 
 PCOD8005075
Probable space group: P -1
;
_chemical_formula_sum "Si O2"
_cell_formula_units_Z 14
_cell_length_a 9.038730
_cell_length_b 5.483780
_cell_length_c 21.292489
_cell_angle_alpha 58.116445
_cell_angle_beta 133.747824
_cell_angle_gamma 128.678903
_cell_volume 586.483863
_symmetry_space_group_name_H-M "P -1"
_symmetry_group_IT_number 2
_symmetry_cell_setting 'triclinic'
loop_
_space_group_symop_operation_xyz
x,y,z
-x,-y,-z
loop_
_atom_site_type_symbol
_atom_site_label
_atom_site_fract_x
_atom_site_fract_y
_atom_site_fract_z
Si Si1 0.167368 0.322737 0.680695
Si Si2 0.468679 0.872995 0.152477
Si Si3 0.508493 0.121909 0.382927
Si Si4 0.715664 0.823365 0.571344
Si Si5 0.690239 0.624921 0.933430
Si Si6 0.065515 0.629513 0.279101
Si Si7 0.046331 0.709738 0.122342
O O1 0.301599 0.097912 0.749764
O O2 0.147461 0.398220 0.738036
O O3 0.303613 0.640257 0.639542
O O4 0.916892 0.165545 0.600373
O O5 0.443985 0.693762 0.102728
O O6 0.253389 0.647712 0.162412
O O7 0.472350 0.225310 0.102530
O O8 0.594479 0.855496 0.467157
O O9 0.276185 0.975892 0.295301
O O10 0.468363 0.289424 0.410871
O O11 0.836147 0.594795 0.628909
O O12 0.879355 0.907353 0.908270
O O13 0.819927 0.531084 0.039325
O O14 0.987524 0.551007 0.195155
#
# Coordination Sequence:
#
# PCOD8005075 Si02
#       7
#     2   2   2   2   2   2   2
#     4  11  24  38  64  95 133 170 220 269 333 394
#     4  10  20  38  64  92 129 170 220 266 328 388
#     4  10  22  43  64  89 130 174 218 267 336 390
#     4  10  23  41  63  94 128 170 220 274 325 400
#     4   9  20  37  67  94 124 178 222 266 329 394
#     4  11  23  39  63  99 126 169 218 276 326 398
#     4   9  20  36  63  91 130 168 221 269 328 391
#
# _framework density 23.871075999999999
#
# number of rings (size 3 to 8) (size 9 to 14) (size 15 to 20)
#    0.857    1.143    0.000    3.000    2.000    2.857 
#    0.000    1.429    0.000    0.000    0.000    0.000 
#    0.000    0.000    0.000    0.000    0.000    0.000 
#
# Total GULP energy -173520.554958 kJ/mol
# GULP energy per Si atom -12394.325354 kJ/mol
# Density = 2.381674 g / cm^3
# Si number density = 23.871076 Si / 1000 Ang^3
#
#
#
# Elastic Constant Matrix: (Units=GPa)
#
#
# Indices 1 2 3 4 5 6 
#
# 1 128.6664 29.8476 61.9163 -9.0701 -0.2151 -1.7760
# 2 29.8476 45.6734 0.9960 2.9784 -15.3525 -8.5502
# 3 61.9163 0.9960 124.5957 3.9450 -1.5217 0.7535
# 4 -9.0701 2.9784 3.9450 26.4351 -8.9742 1.2070
# 5 -0.2151 -15.3525 -1.5217 -8.9742 30.7207 -4.9001
# 6 -1.7760 -8.5502 0.7535 1.2070 -4.9001 37.0036
#
#
#
# Elastic Compliance Matrix: (Units=1/GPa)
#
#
# Indices 1 2 3 4 5 6 
#
# 1 0.014358 -0.011746 -0.007268 0.005806 -0.004866 -0.002711
# 2 -0.011746 0.038550 0.005801 -0.002815 0.020405 0.011020
# 3 -0.007268 0.005801 0.011745 -0.004136 0.002414 0.001207
# 4 0.005806 -0.002815 -0.004136 0.044647 0.011435 -0.000230
# 5 -0.004866 0.020405 0.002414 0.011435 0.047832 0.010393
# 6 -0.002711 0.011020 0.001207 -0.000230 0.010393 0.030800
#
#
# Mechanical properties :
#
#
# Convention : Reuss Voigt Hill
#
# Bulk Modulus (GPa) = 26.16081 53.82838 39.99459
# Shear Modulus (GPa) = 22.01664 32.57694 27.29679
#
# Velocity S-wave (km/s) = 3.04026 3.69820 3.38525
# Velocity P-wave (km/s) = 4.82776 6.39016 5.66310
#
# Compressibility (1/GPa) = 0.03822512
#
# Stress axis : x y z
#
# Youngs Moduli (GPa) = 69.64670 25.94048 85.14622
#
# Poissons Ratio (x) = 0.30470 0.61885
# Poissons Ratio (y) = 0.81809 -0.49391
# Poissons Ratio (z) = 0.50620 -0.15047
#
# Static dielectric constant tensor:
#      x y z
#    x 4.119200 -0.043420 0.202220 
#    y -0.043420 3.939920 0.200740 
#    z 0.202220 0.200740 4.286210 
# 
# 
# High freq. dielectric constant tensor:
#      x y z
#    x 1.938760 -0.001880 0.016420 
#    y -0.001880 1.924170 0.011500 
#    z 0.016420 0.011500 1.949690 
# 
# From -- ./inp_files/585135.got.cif
#   From: 2010.06.25/outbox.cif.g09.slc.cpg/sg2_293_cif.got.tgz:585135.got - 2010.06.27 13:26:56.
