data_PCOD8005304
_publ_section_title
;
Structure prediction by ZEFSAII (Michael W. Deem and Ramdas Pophale) SiO2 
 PCOD8005304
Probable space group: P -1
;
_chemical_formula_sum "Si O2"
_cell_formula_units_Z 16
_cell_length_a 15.087776
_cell_length_b 8.677014
_cell_length_c 9.318801
_cell_angle_alpha 107.701633
_cell_angle_beta 132.052917
_cell_angle_gamma 99.887075
_cell_volume 731.452297
_symmetry_space_group_name_H-M "P -1"
_symmetry_group_IT_number 2
_symmetry_cell_setting 'triclinic'
loop_
_space_group_symop_operation_xyz
x,y,z
-x,-y,-z
loop_
_atom_site_type_symbol
_atom_site_label
_atom_site_fract_x
_atom_site_fract_y
_atom_site_fract_z
Si Si1 0.263428 0.000468 0.035255
Si Si2 0.772344 0.034659 0.695915
Si Si3 0.577162 0.590923 0.382765
Si Si4 0.879366 0.345962 0.422778
Si Si5 0.302935 0.402758 0.189492
Si Si6 0.457871 0.962003 0.714520
Si Si7 0.396038 0.695487 0.839901
Si Si8 0.004320 0.346352 0.862424
O O1 0.267526 0.191676 0.056412
O O2 0.421361 0.047183 0.241969
O O3 0.185171 0.909851 0.075761
O O4 0.188528 0.861254 0.781845
O O5 0.673553 0.110392 0.555237
O O6 0.916825 0.140660 0.790328
O O7 0.687886 0.807477 0.520322
O O8 0.423296 0.550212 0.249390
O O9 0.638834 0.534104 0.568354
O O10 0.560832 0.456381 0.193925
O O11 0.768100 0.412409 0.327893
O O12 0.932160 0.331123 0.630023
O O13 0.000000 0.500000 0.500000
O O14 0.163899 0.409217 0.022507
O O15 0.412183 0.827337 0.762637
O O16 0.509668 0.176333 0.887417
O O17 0.000000 0.500000 0.000000
#
# Coordination Sequence:
#
# PCOD8005304 Si02
#       8
#     2   2   2   2   2   2   2   2
#     4  10  22  41  65  92 132 166 215 267 323 376
#     4  11  24  39  66 101 126 166 219 269 319 385
#     4  10  22  41  65  96 132 167 217 271 320 374
#     4  11  24  42  64  93 129 174 216 262 326 384
#     4  10  23  40  64  94 129 175 210 266 325 382
#     4  10  20  38  66  95 122 171 215 263 318 374
#     4  10  20  39  66  90 130 169 214 264 321 373
#     4  12  26  43  66  95 131 170 218 264 324 397
#
# _framework density 21.874289999999998
#
# number of rings (size 3 to 8) (size 9 to 14) (size 15 to 20)
#    0.000    1.500    2.500    1.875    0.000    7.000 
#    0.000    0.000    0.000    0.000    0.000    0.000 
#    0.000    0.000    0.000    0.000    0.000    0.000 
#
# Total GULP energy -198424.374296 kJ/mol
# GULP energy per Si atom -12401.523393 kJ/mol
# Density = 2.182450 g / cm^3
# Si number density = 21.874290 Si / 1000 Ang^3
#
#
#
# Elastic Constant Matrix: (Units=GPa)
#
#
# Indices 1 2 3 4 5 6 
#
# 1 122.5309 36.8776 47.1147 21.2248 6.0876 3.6515
# 2 36.8776 55.4868 22.3719 15.7026 -3.7404 9.2687
# 3 47.1147 22.3719 99.4992 -1.2645 -0.4136 -4.4925
# 4 21.2248 15.7026 -1.2645 28.3293 6.4513 -0.4102
# 5 6.0876 -3.7404 -0.4136 6.4513 38.3213 5.9664
# 6 3.6515 9.2687 -4.4925 -0.4102 5.9664 45.4644
#
#
#
# Elastic Compliance Matrix: (Units=1/GPa)
#
#
# Indices 1 2 3 4 5 6 
#
# 1 0.012784 -0.004386 -0.005188 -0.007106 -0.001234 -0.000547
# 2 -0.004386 0.028623 -0.004830 -0.014483 0.006967 -0.007005
# 3 -0.005188 -0.004830 0.013818 0.007504 -0.001228 0.002996
# 4 -0.007106 -0.014483 0.007504 0.051299 -0.009776 0.006011
# 5 -0.001234 0.006967 -0.001228 -0.009776 0.029444 -0.005395
# 6 -0.000547 -0.007005 0.002996 0.006011 -0.005395 0.024526
#
#
# Mechanical properties :
#
#
# Convention : Reuss Voigt Hill
#
# Bulk Modulus (GPa) = 37.85258 54.47170 46.16214
# Shear Modulus (GPa) = 25.23869 33.83318 29.53593
#
# Velocity S-wave (km/s) = 3.40046 3.93709 3.67857
# Velocity P-wave (km/s) = 5.72360 6.75454 6.26033
#
# Compressibility (1/GPa) = 0.02641828
#
# Stress axis : x y z
#
# Youngs Moduli (GPa) = 78.22030 34.93634 72.36728
#
# Poissons Ratio (x) = 0.15323 0.37542
# Poissons Ratio (y) = 0.34307 0.34956
# Poissons Ratio (z) = 0.40578 0.16876
#
# Static dielectric constant tensor:
#      x y z
#    x 4.301430 0.175560 0.091720 
#    y 0.175560 3.778780 0.152910 
#    z 0.091720 0.152910 4.248120 
# 
# 
# High freq. dielectric constant tensor:
#      x y z
#    x 1.868090 0.009940 -0.003530 
#    y 0.009940 1.849690 0.010290 
#    z -0.003530 0.010290 1.863590 
# 
# From -- ./inp_files/207658.got.cif
#   From: 2010.06.25/outbox.cif.g09.slc.cpg/sg2_104_cif.got.tgz:207658.got - 2010.06.27 13:26:56.
