data_PCOD8005415
_publ_section_title
;
Structure prediction by ZEFSAII (Michael W. Deem and Ramdas Pophale) SiO2 
 PCOD8005415
Probable space group: P -1
;
_chemical_formula_sum "Si O2"
_cell_formula_units_Z 14
_cell_length_a 9.092535
_cell_length_b 17.684029
_cell_length_c 11.318597
_cell_angle_alpha 151.302652
_cell_angle_beta 84.614381
_cell_angle_gamma 76.555515
_cell_volume 654.737795
_symmetry_space_group_name_H-M "P -1"
_symmetry_group_IT_number 2
_symmetry_cell_setting 'triclinic'
loop_
_space_group_symop_operation_xyz
x,y,z
-x,-y,-z
loop_
_atom_site_type_symbol
_atom_site_label
_atom_site_fract_x
_atom_site_fract_y
_atom_site_fract_z
Si Si1 0.064024 0.246600 0.608997
Si Si2 0.593244 0.973290 0.103716
Si Si3 0.785680 0.554563 0.222342
Si Si4 0.646888 0.496321 0.635168
Si Si5 0.603031 0.622690 0.550400
Si Si6 0.464541 0.937616 0.294876
Si Si7 0.042254 0.146072 0.227431
O O1 0.059310 0.413208 0.762562
O O2 0.086095 0.104718 0.308500
O O3 0.244501 0.116595 0.508246
O O4 0.857926 0.374214 0.872478
O O5 0.622825 0.894461 0.128977
O O6 0.436280 0.224779 0.470108
O O7 0.520453 0.863835 0.888491
O O8 0.790674 0.895843 0.924084
O O9 0.790772 0.479772 0.251597
O O10 0.685482 0.508381 0.511788
O O11 0.567532 0.372505 0.479426
O O12 0.844287 0.381185 0.536840
O O13 0.493369 0.729107 0.020983
O O14 0.500000 0.000000 0.500000
O O15 0.000000 0.000000 0.000000
#
# Coordination Sequence:
#
# PCOD8005415 Si02
#       7
#     2   2   2   2   2   2   2
#     4  10  24  41  66  95 127 172 216 261 323 379
#     4  10  22  39  70  92 129 173 218 258 323 383
#     4  10  20  38  69  89 125 168 218 256 323 374
#     4  10  25  38  66  96 131 165 218 267 323 373
#     4  10  20  41  65  92 129 175 213 263 323 377
#     4  10  24  43  67  92 133 170 214 265 326 380
#     4  12  26  42  66 101 130 165 220 269 315 387
#
# _framework density 21.382607
#
# number of rings (size 3 to 8) (size 9 to 14) (size 15 to 20)
#    0.000    1.714    1.429    1.286   18.000    3.429 
#    2.571    2.143    0.000    0.000    0.000    0.000 
#    0.000    0.000    0.000    0.000    0.000    0.000 
#
# Total GULP energy -173455.570343 kJ/mol
# GULP energy per Si atom -12389.683596 kJ/mol
# Density = 2.133394 g / cm^3
# Si number density = 21.382607 Si / 1000 Ang^3
#
#
#
# Elastic Constant Matrix: (Units=GPa)
#
#
# Indices 1 2 3 4 5 6 
#
# 1 112.9089 63.8283 68.5885 -12.7972 8.7088 -2.8864
# 2 63.8283 103.4579 68.4732 -29.1959 -2.9882 -5.9345
# 3 68.5885 68.4732 133.9052 -26.9954 -1.9362 3.2323
# 4 -12.7972 -29.1959 -26.9954 46.5510 -0.7444 1.0054
# 5 8.7088 -2.9882 -1.9362 -0.7444 34.6984 0.5952
# 6 -2.8864 -5.9345 3.2323 1.0054 0.5952 38.6505
#
#
#
# Elastic Compliance Matrix: (Units=1/GPa)
#
#
# Indices 1 2 3 4 5 6 
#
# 1 0.016465 -0.007784 -0.005249 -0.003496 -0.005182 0.000644
# 2 -0.007784 0.020001 -0.004706 0.007675 0.003533 0.002629
# 3 -0.005249 -0.004706 0.013334 0.003417 0.001770 -0.002346
# 4 -0.003496 0.007675 0.003417 0.027356 0.002318 -0.000116
# 5 -0.005182 0.003533 0.001770 0.002318 0.030582 -0.000524
# 6 0.000644 0.002629 -0.002346 -0.000116 -0.000524 0.026532
#
#
# Mechanical properties :
#
#
# Convention : Reuss Voigt Hill
#
# Bulk Modulus (GPa) = 69.81361 83.56134 76.68748
# Shear Modulus (GPa) = 28.64977 33.93879 31.29428
#
# Velocity S-wave (km/s) = 3.66439 3.98831 3.82977
# Velocity P-wave (km/s) = 7.11507 7.76999 7.44973
#
# Compressibility (1/GPa) = 0.01432385
#
# Stress axis : x y z
#
# Youngs Moduli (GPa) = 60.73409 49.99684 74.99601
#
# Poissons Ratio (x) = 0.38915 0.39364
# Poissons Ratio (y) = 0.47273 0.35293
# Poissons Ratio (z) = 0.31879 0.23528
#
# Static dielectric constant tensor:
#      x y z
#    x 3.884810 0.077840 0.067360 
#    y 0.077840 4.596950 -0.290270 
#    z 0.067360 -0.290270 4.147670 
# 
# 
# High freq. dielectric constant tensor:
#      x y z
#    x 1.810920 0.009060 0.005450 
#    y 0.009060 1.847520 -0.011830 
#    z 0.005450 -0.011830 1.846700 
# 
# From -- ./inp_files/294788.got.cif
#   From: 2010.06.25/outbox.cif.g09.slc.cpg/sg2_148_cif.got.tgz:294788.got - 2010.06.27 13:26:56.
