data_PCOD8005744
_publ_section_title
;
Structure prediction by ZEFSAII (Michael W. Deem and Ramdas Pophale) SiO2 
 PCOD8005744
Probable space group: P -1
;
_chemical_formula_sum "Si O2"
_cell_formula_units_Z 16
_cell_length_a 8.860598
_cell_length_b 24.814290
_cell_length_c 25.343570
_cell_angle_alpha 11.241081
_cell_angle_beta 139.704747
_cell_angle_gamma 141.307270
_cell_volume 678.878985
_symmetry_space_group_name_H-M "P -1"
_symmetry_group_IT_number 2
_symmetry_cell_setting 'triclinic'
loop_
_space_group_symop_operation_xyz
x,y,z
-x,-y,-z
loop_
_atom_site_type_symbol
_atom_site_label
_atom_site_fract_x
_atom_site_fract_y
_atom_site_fract_z
Si Si1 0.142650 0.774337 0.742710
Si Si2 0.493608 0.099035 0.715473
Si Si3 0.156539 0.646326 0.351904
Si Si4 0.973250 0.060946 0.830753
Si Si5 0.813113 0.468421 0.789906
Si Si6 0.645843 0.090228 0.556299
Si Si7 0.077883 0.284457 0.957499
Si Si8 0.322309 0.701139 0.748701
O O1 0.154125 0.728833 0.726983
O O2 0.421368 0.908674 0.705807
O O3 0.000000 0.000000 0.500000
O O4 0.000000 0.500000 0.000000
O O5 0.583379 0.190514 0.711502
O O6 0.305183 0.273503 0.480824
O O7 0.714048 0.129723 0.704080
O O8 0.343335 0.774228 0.981961
O O9 0.000000 0.500000 0.500000
O O10 0.164143 0.377363 0.573780
O O11 0.036241 0.879395 0.070416
O O12 0.976465 0.876383 0.957499
O O13 0.826011 0.352185 0.844675
O O14 0.103278 0.544777 0.802097
O O15 0.707325 0.420233 0.274214
O O16 0.563774 0.047022 0.511132
O O17 0.860576 0.942157 0.766507
O O18 0.500000 0.500000 0.000000
#
# Coordination Sequence:
#
# PCOD8005744 Si02
#       8
#     2   2   2   2   2   2   2   2
#     4  11  24  40  62  95 127 158 208 274 322 367
#     4  11  22  39  62  92 124 161 208 263 316 369
#     4  10  20  39  62  89 123 168 211 250 312 396
#     4  11  22  39  65  91 122 168 211 257 315 384
#     4  11  23  40  62  92 125 161 208 266 311 368
#     4  10  22  42  64  87 126 175 211 255 319 398
#     4  11  23  41  62  93 127 165 215 263 315 381
#     4   9  22  44  66  87 123 176 215 244 315 399
#
# _framework density 23.568266999999999
#
# number of rings (size 3 to 8) (size 9 to 14) (size 15 to 20)
#    0.000    1.500    0.000    6.750    0.000    6.000 
#    0.000   14.375    0.000    0.000    0.000    0.000 
#    0.000    0.000    0.000    0.000    0.000    0.000 
#
# Total GULP energy -198222.714129 kJ/mol
# GULP energy per Si atom -12388.919633 kJ/mol
# Density = 2.351462 g / cm^3
# Si number density = 23.568267 Si / 1000 Ang^3
#
#
#
# Elastic Constant Matrix: (Units=GPa)
#
#
# Indices 1 2 3 4 5 6 
#
# 1 88.3553 20.0288 15.2744 -11.0601 4.5252 -4.8960
# 2 20.0288 111.5979 -92.7122 -13.2669 -36.4667 7.5144
# 3 15.2744 -92.7122 402.3125 53.5199 63.8240 -11.2680
# 4 -11.0601 -13.2669 53.5199 49.4669 18.9576 0.0713
# 5 4.5252 -36.4667 63.8240 18.9576 57.7660 -12.5354
# 6 -4.8960 7.5144 -11.2680 0.0713 -12.5354 36.2088
#
#
#
# Elastic Compliance Matrix: (Units=1/GPa)
#
#
# Indices 1 2 3 4 5 6 
#
# 1 0.013411 -0.004326 -0.001583 0.004853 -0.003401 0.001031
# 2 -0.004326 0.013908 0.002606 -0.002781 0.007110 -0.000193
# 3 -0.001583 0.002606 0.003792 -0.003234 -0.001369 -0.000042
# 4 0.004853 -0.002781 -0.003234 0.027136 -0.008035 -0.002608
# 5 -0.003401 0.007110 -0.001369 -0.008035 0.027795 0.007277
# 6 0.001031 -0.000193 -0.000042 -0.002608 0.007277 0.030308
#
#
# Mechanical properties :
#
#
# Convention : Reuss Voigt Hill
#
# Bulk Modulus (GPa) = 40.80933 54.16085 47.48509
# Shear Modulus (GPa) = 38.13115 72.66665 55.39890
#
# Velocity S-wave (km/s) = 4.02668 5.55872 4.85353
# Velocity P-wave (km/s) = 6.24274 8.01433 7.18336
#
# Compressibility (1/GPa) = 0.02450420
#
# Stress axis : x y z
#
# Youngs Moduli (GPa) = 74.56443 71.90170 263.68322
#
# Poissons Ratio (x) = 0.31106 0.41749
# Poissons Ratio (y) = 0.32258 -0.68712
# Poissons Ratio (z) = 0.11806 -0.18737
#
# Static dielectric constant tensor:
#      x y z
#    x 4.262370 -0.190030 -0.026460 
#    y -0.190030 5.138470 -0.582150 
#    z -0.026460 -0.582150 4.589800 
# 
# 
# High freq. dielectric constant tensor:
#      x y z
#    x 1.925720 -0.002810 0.005600 
#    y -0.002810 1.942950 -0.023040 
#    z 0.005600 -0.023040 1.955820 
# 
# From -- ./inp_files/617683.got.cif
#   From: 2010.06.25/outbox.cif.g09.slc.cpg/sg2_309_cif.got.tgz:617683.got - 2010.06.27 13:26:56.
