data_PCOD8005101
_publ_section_title
;
Structure prediction by ZEFSAII (Michael W. Deem and Ramdas Pophale) SiO2 
 PCOD8005101
Probable space group: P -1
;
_chemical_formula_sum "Si O2"
_cell_formula_units_Z 16
_cell_length_a 8.645927
_cell_length_b 9.570139
_cell_length_c 11.046620
_cell_angle_alpha 84.449397
_cell_angle_beta 82.939610
_cell_angle_gamma 128.481951
_cell_volume 692.204433
_symmetry_space_group_name_H-M "P -1"
_symmetry_group_IT_number 2
_symmetry_cell_setting 'triclinic'
loop_
_space_group_symop_operation_xyz
x,y,z
-x,-y,-z
loop_
_atom_site_type_symbol
_atom_site_label
_atom_site_fract_x
_atom_site_fract_y
_atom_site_fract_z
Si Si1 0.665256 0.377128 0.673546
Si Si2 0.614001 0.443166 0.925958
Si Si3 0.267612 0.162847 0.594863
Si Si4 0.603730 0.148100 0.083157
Si Si5 0.002567 0.208899 0.080151
Si Si6 0.245433 0.885314 0.288633
Si Si7 0.974959 0.794916 0.550178
Si Si8 0.073212 0.155087 0.829123
O O1 0.534615 0.354853 0.806121
O O2 0.506744 0.265638 0.584287
O O3 0.769860 0.291234 0.703896
O O4 0.859228 0.584445 0.605353
O O5 0.840017 0.630531 0.855559
O O6 0.500000 0.500000 0.000000
O O7 0.620588 0.317953 0.027285
O O8 0.206009 0.199707 0.469830
O O9 0.224019 0.258673 0.692100
O O10 0.112018 0.936892 0.637105
O O11 0.822682 0.213507 0.083323
O O12 0.480355 0.066027 0.229678
O O13 0.500000 0.000000 0.000000
O O14 0.929133 0.013366 0.138370
O O15 0.135470 0.268496 0.936908
O O16 0.140733 0.899775 0.182581
O O17 0.148218 0.879627 0.423453
#
# Coordination Sequence:
#
# PCOD8005101 Si02
#       8
#     2   2   2   2   2   2   2   2
#     4  12  23  43  67  96 132 173 220 278 337 390
#     4  12  26  40  65 103 135 170 225 275 329 404
#     4  10  22  41  66  92 128 171 219 278 335 393
#     4  12  23  43  65  96 135 176 218 267 337 396
#     4  11  22  38  66  95 134 175 219 270 329 402
#     4  11  23  41  65  93 133 173 220 273 325 400
#     4  10  24  44  65  95 126 171 229 273 327 399
#     4  10  20  38  64  94 130 177 213 265 342 391
#
# _framework density 23.114559
#
# number of rings (size 3 to 8) (size 9 to 14) (size 15 to 20)
#    0.000    1.000    2.500    4.125    1.750    2.500 
#    0.000    3.750    0.000    0.000    0.000    0.000 
#    0.000    0.000    0.000    0.000    0.000    0.000 
#
# Total GULP energy -198224.175595 kJ/mol
# GULP energy per Si atom -12389.010975 kJ/mol
# Density = 2.306195 g / cm^3
# Si number density = 23.114559 Si / 1000 Ang^3
#
#
#
# Elastic Constant Matrix: (Units=GPa)
#
#
# Indices 1 2 3 4 5 6 
#
# 1 115.4067 53.4395 29.6599 3.6656 13.6514 -17.9568
# 2 53.4395 104.6046 11.5692 -10.8377 11.7165 4.7072
# 3 29.6599 11.5692 61.8918 3.8205 -6.4511 2.5015
# 4 3.6656 -10.8377 3.8205 39.9967 0.2838 6.6439
# 5 13.6514 11.7165 -6.4511 0.2838 30.9752 -1.8181
# 6 -17.9568 4.7072 2.5015 6.6439 -1.8181 40.6621
#
#
#
# Elastic Compliance Matrix: (Units=1/GPa)
#
#
# Indices 1 2 3 4 5 6 
#
# 1 0.016185 -0.007795 -0.006918 -0.004388 -0.005059 0.008966
# 2 -0.007795 0.014599 0.000662 0.005654 -0.002365 -0.006203
# 3 -0.006918 0.000662 0.020249 -0.000506 0.006786 -0.003991
# 4 -0.004388 0.005654 -0.000506 0.028190 -0.000992 -0.007212
# 5 -0.005059 -0.002365 0.006786 -0.000992 0.036797 -0.000571
# 6 0.008966 -0.006203 -0.003991 -0.007212 -0.000571 0.030669
#
#
# Mechanical properties :
#
#
# Convention : Reuss Voigt Hill
#
# Bulk Modulus (GPa) = 43.61060 52.36004 47.98532
# Shear Modulus (GPa) = 27.40714 34.80911 31.10812
#
# Velocity S-wave (km/s) = 3.44715 3.88485 3.67253
# Velocity P-wave (km/s) = 5.89507 6.54403 6.22801
#
# Compressibility (1/GPa) = 0.02293020
#
# Stress axis : x y z
#
# Youngs Moduli (GPa) = 61.78379 68.49967 49.38581
#
# Poissons Ratio (x) = 0.53396 0.34166
# Poissons Ratio (y) = 0.48161 -0.03269
# Poissons Ratio (z) = 0.42743 -0.04534
#
# Static dielectric constant tensor:
#      x y z
#    x 5.638940 1.606990 1.494390 
#    y 1.606990 6.031420 1.778380 
#    z 1.494390 1.778380 5.819550 
# 
# 
# High freq. dielectric constant tensor:
#      x y z
#    x 1.922320 -0.004470 0.002150 
#    y -0.004470 1.905780 0.003320 
#    z 0.002150 0.003320 1.914560 
# 
# From -- ./inp_files/245852.got.cif
#   From: 2010.06.25/outbox.cif.g09.slc.cpg/sg2_123_cif.got.tgz:245852.got - 2010.06.27 13:26:56.
