data_PCOD8005280
_publ_section_title
;
Structure prediction by ZEFSAII (Michael W. Deem and Ramdas Pophale) SiO2 
 PCOD8005280
Probable space group: P -1
;
_chemical_formula_sum "Si O2"
_cell_formula_units_Z 14
_cell_length_a 5.033509
_cell_length_b 10.559413
_cell_length_c 24.339497
_cell_angle_alpha 37.108135
_cell_angle_beta 105.218507
_cell_angle_gamma 116.285305
_cell_volume 689.893788
_symmetry_space_group_name_H-M "P -1"
_symmetry_group_IT_number 2
_symmetry_cell_setting 'triclinic'
loop_
_space_group_symop_operation_xyz
x,y,z
-x,-y,-z
loop_
_atom_site_type_symbol
_atom_site_label
_atom_site_fract_x
_atom_site_fract_y
_atom_site_fract_z
Si Si1 0.769293 0.063963 0.431048
Si Si2 0.272091 0.469102 0.187502
Si Si3 0.110698 0.035308 0.652139
Si Si4 0.203968 0.690556 0.507988
Si Si5 0.068114 0.255370 0.898366
Si Si6 0.427129 0.606610 0.376667
Si Si7 0.165998 0.553148 0.268613
O O1 0.777628 0.995483 0.391317
O O2 0.865065 0.335864 0.347737
O O3 0.420941 0.903920 0.485162
O O4 0.000000 0.000000 0.500000
O O5 0.316784 0.464434 0.257874
O O6 0.094985 0.208868 0.247390
O O7 0.090851 0.628923 0.108874
O O8 0.583467 0.582515 0.133730
O O9 0.401522 0.154575 0.665583
O O10 0.921091 0.196034 0.586122
O O11 0.411305 0.564208 0.540144
O O12 0.923572 0.507586 0.587843
O O13 0.944681 0.257361 0.828376
O O14 0.000000 0.000000 0.000000
O O15 0.418896 0.653596 0.294630
#
# Coordination Sequence:
#
# PCOD8005280 Si02
#       7
#     2   2   2   2   2   2   2
#     4  11  21  39  55  83 114 156 194 245 276 336
#     4   9  22  37  62  85 115 142 189 232 296 341
#     4  11  24  39  57  81 118 159 199 235 285 339
#     4  12  24  38  54  81 114 162 203 237 281 326
#     4  10  20  38  66  92 111 141 187 243 292 347
#     4  12  26  36  57  80 119 158 200 241 279 336
#     4   9  22  38  56  87 114 147 196 232 297 331
#
# _framework density 20.292977
#
# number of rings (size 3 to 8) (size 9 to 14) (size 15 to 20)
#    0.857    0.571    2.857    2.143    4.000    2.286 
#    0.000    0.000    0.000    1.714    0.000    0.000 
#    0.000    0.000    0.000    0.000    0.000    0.000 
#
# Total GULP energy -173469.010584 kJ/mol
# GULP energy per Si atom -12390.643613 kJ/mol
# Density = 2.024679 g / cm^3
# Si number density = 20.292977 Si / 1000 Ang^3
#
#
#
# Elastic Constant Matrix: (Units=GPa)
#
#
# Indices 1 2 3 4 5 6 
#
# 1 78.0535 27.8129 19.7215 -1.3831 11.5871 29.4100
# 2 27.8129 142.4947 49.2238 -0.2268 -3.9622 31.4303
# 3 19.7215 49.2238 133.6362 -15.6536 7.2505 20.2288
# 4 -1.3831 -0.2268 -15.6536 15.6914 4.5806 0.1383
# 5 11.5871 -3.9622 7.2505 4.5806 21.7418 -7.6192
# 6 29.4100 31.4303 20.2288 0.1383 -7.6192 27.0656
#
#
#
# Elastic Compliance Matrix: (Units=1/GPa)
#
#
# Indices 1 2 3 4 5 6 
#
# 1 0.060515 0.003854 0.015586 0.046246 -0.083505 -0.105625
# 2 0.003854 0.010275 -0.001408 0.000910 -0.005753 -0.016692
# 3 0.015586 -0.001408 0.016252 0.027422 -0.032650 -0.036780
# 4 0.046246 0.000910 0.027422 0.123592 -0.094357 -0.098998
# 5 -0.083505 -0.005753 -0.032650 -0.094357 0.180925 0.173235
# 6 -0.105625 -0.016692 -0.036780 -0.098998 0.173235 0.247868
#
#
# Mechanical properties :
#
#
# Convention : Reuss Voigt Hill
#
# Bulk Modulus (GPa) = 8.12303 60.85564 34.48934
# Shear Modulus (GPa) = 7.75917 30.06148 18.91032
#
# Velocity S-wave (km/s) = 1.95752 3.85304 3.05596
# Velocity P-wave (km/s) = 3.02005 7.06032 5.42996
#
# Compressibility (1/GPa) = 0.12310680
#
# Stress axis : x y z
#
# Youngs Moduli (GPa) = 16.52481 97.32150 61.52915
#
# Poissons Ratio (x) = -0.37506 -0.95902
# Poissons Ratio (y) = -0.06368 0.08664
# Poissons Ratio (z) = -0.25756 0.13705
#
# Static dielectric constant tensor:
#      x y z
#    x 3.720760 0.245530 -0.006750 
#    y 0.245530 3.755370 -0.124810 
#    z -0.006750 -0.124810 3.574780 
# 
# 
# High freq. dielectric constant tensor:
#      x y z
#    x 1.799910 0.020010 0.007660 
#    y 0.020010 1.781580 -0.013140 
#    z 0.007660 -0.013140 1.756610 
# 
# From -- ./inp_files/615367.got.cif
#   From: 2010.06.25/outbox.cif.g09.slc.cpg/sg2_308_cif.got.tgz:615367.got - 2010.06.27 13:26:56.
