data_PCOD8005893
_publ_section_title
;
Structure prediction by ZEFSAII (Michael W. Deem and Ramdas Pophale) SiO2 
 PCOD8005893
Probable space group: P -1
;
_chemical_formula_sum "Si O2"
_cell_formula_units_Z 12
_cell_length_a 8.658266
_cell_length_b 21.980411
_cell_length_c 17.131700
_cell_angle_alpha 163.248970
_cell_angle_beta 28.894533
_cell_angle_gamma 150.106857
_cell_volume 444.377973
_symmetry_space_group_name_H-M "P -1"
_symmetry_group_IT_number 2
_symmetry_cell_setting 'triclinic'
loop_
_space_group_symop_operation_xyz
x,y,z
-x,-y,-z
loop_
_atom_site_type_symbol
_atom_site_label
_atom_site_fract_x
_atom_site_fract_y
_atom_site_fract_z
Si Si1 0.255265 0.751458 0.821141
Si Si2 0.766273 0.991031 0.269532
Si Si3 0.882417 0.223736 0.781788
Si Si4 0.542186 0.032257 0.842204
Si Si5 0.990085 0.276124 0.376153
Si Si6 0.895273 0.714034 0.400446
O O1 0.585473 0.711660 0.588795
O O2 0.039370 0.531255 0.677894
O O3 0.331096 0.922745 0.069588
O O4 0.048937 0.851870 0.972205
O O5 0.429809 0.826591 0.198995
O O6 0.834829 0.173916 0.398881
O O7 0.786029 0.123993 0.505739
O O8 0.838434 0.073449 0.695004
O O9 0.161717 0.203422 0.564444
O O10 0.965971 0.474726 0.075071
O O11 0.273971 0.807281 0.677313
O O12 0.339732 0.214870 0.128672
#
# Coordination Sequence:
#
# PCOD8005893 Si02
#       6
#     2   2   2   2   2   2
#     4  12  23  39  71  99 124 163 224 271 311 375
#     4  11  24  41  67  98 127 168 218 267 316 382
#     4  10  23  42  64  92 134 175 208 257 335 385
#     4  10  20  39  63  93 126 171 212 261 316 381
#     4  10  21  39  63  95 130 165 211 267 320 372
#     4  11  22  39  65  96 129 171 213 262 322 391
#
# _framework density 27.004038999999999
#
# number of rings (size 3 to 8) (size 9 to 14) (size 15 to 20)
#    0.000    1.333    3.333    2.500    0.000    2.000 
#    0.000    0.833    0.000   23.000    0.000    0.000 
#    0.000    0.000    0.000    0.000    0.000    0.000 
#
# Total GULP energy -148783.356141 kJ/mol
# GULP energy per Si atom -12398.613012 kJ/mol
# Density = 2.694258 g / cm^3
# Si number density = 27.004039 Si / 1000 Ang^3
#
#
#
# Elastic Constant Matrix: (Units=GPa)
#
#
# Indices 1 2 3 4 5 6 
#
# 1 129.3489 35.4912 24.6417 3.3714 16.5888 7.9867
# 2 35.4912 56.5467 25.5286 15.5861 -1.7749 9.4082
# 3 24.6417 25.5286 92.3918 -2.4659 29.9073 7.8091
# 4 3.3714 15.5861 -2.4659 62.6782 -11.6292 9.6890
# 5 16.5888 -1.7749 29.9073 -11.6292 30.6531 0.2336
# 6 7.9867 9.4082 7.8091 9.6890 0.2336 52.3859
#
#
#
# Elastic Compliance Matrix: (Units=1/GPa)
#
#
# Indices 1 2 3 4 5 6 
#
# 1 0.010521 -0.007656 0.001953 -0.000002 -0.008039 -0.000484
# 2 -0.007656 0.029303 -0.010800 -0.004289 0.014763 -0.001758
# 3 0.001953 -0.010800 0.020428 -0.000469 -0.021781 -0.001220
# 4 -0.000002 -0.004289 -0.000469 0.018779 0.007355 -0.002666
# 5 -0.008039 0.014763 -0.021781 0.007355 0.061869 0.000185
# 6 -0.000484 -0.001758 -0.001220 -0.002666 0.000185 0.020153
#
#
# Mechanical properties :
#
#
# Convention : Reuss Voigt Hill
#
# Bulk Modulus (GPa) = 36.70264 49.95673 43.32968
# Shear Modulus (GPa) = 24.61348 41.98514 33.29931
#
# Velocity S-wave (km/s) = 3.02234 3.94734 3.51540
# Velocity P-wave (km/s) = 5.07941 6.27018 5.70594
#
# Compressibility (1/GPa) = 0.02724600
#
# Stress axis : x y z
#
# Youngs Moduli (GPa) = 95.05115 34.12577 48.95260
#
# Poissons Ratio (x) = 0.26127 -0.09558
# Poissons Ratio (y) = 0.72771 0.52866
# Poissons Ratio (z) = -0.18559 0.36854
#
# Static dielectric constant tensor:
#      x y z
#    x 5.272240 0.180570 0.180060 
#    y 0.180570 5.161980 0.008700 
#    z 0.180060 0.008700 5.261480 
# 
# 
# High freq. dielectric constant tensor:
#      x y z
#    x 2.103590 -0.014310 0.003680 
#    y -0.014310 2.102000 -0.001240 
#    z 0.003680 -0.001240 2.112190 
# 
# From -- ./inp_files/563317.got.cif
#   From: 2010.06.25/outbox.cif.g09.slc.cpg/sg2_282_cif.got.tgz:563317.got - 2010.06.27 13:26:56.
