data_PCOD8005645
_publ_section_title
;
Structure prediction by ZEFSAII (Michael W. Deem and Ramdas Pophale) SiO2 
 PCOD8005645
Probable space group: P -1
;
_chemical_formula_sum "Si O2"
_cell_formula_units_Z 16
_cell_length_a 10.055071
_cell_length_b 11.354125
_cell_length_c 8.765720
_cell_angle_alpha 52.342324
_cell_angle_beta 82.895768
_cell_angle_gamma 75.295842
_cell_volume 765.678371
_symmetry_space_group_name_H-M "P -1"
_symmetry_group_IT_number 2
_symmetry_cell_setting 'triclinic'
loop_
_space_group_symop_operation_xyz
x,y,z
-x,-y,-z
loop_
_atom_site_type_symbol
_atom_site_label
_atom_site_fract_x
_atom_site_fract_y
_atom_site_fract_z
Si Si1 0.771268 0.383010 0.058026
Si Si2 0.610911 0.881955 0.980047
Si Si3 0.616705 0.275770 0.907844
Si Si4 0.040723 0.828597 0.571487
Si Si5 0.801174 0.601536 0.329723
Si Si6 0.290762 0.848112 0.324384
Si Si7 0.093205 0.416528 0.333389
Si Si8 0.596294 0.445234 0.320870
O O1 0.649168 0.457566 0.131331
O O2 0.896033 0.277728 0.213286
O O3 0.717945 0.269670 0.039641
O O4 0.820236 0.518849 0.858002
O O5 0.685980 0.982135 0.779169
O O6 0.520600 0.783528 0.978452
O O7 0.730416 0.772958 0.148652
O O8 0.500000 0.000000 0.000000
O O9 0.702825 0.179187 0.836625
O O10 0.557333 0.451560 0.724302
O O11 0.920264 0.753377 0.581594
O O12 0.144728 0.827907 0.418244
O O13 0.000000 0.000000 0.500000
O O14 0.823276 0.601419 0.507228
O O15 0.700278 0.491915 0.391209
O O16 0.945911 0.536120 0.275287
O O17 0.409972 0.727013 0.493825
#
# Coordination Sequence:
#
# PCOD8005645 Si02
#       8
#     2   2   2   2   2   2   2   2
#     4  11  23  38  62  92 127 160 204 250 316 369
#     4   9  21  38  61  91 124 157 203 259 312 360
#     4  10  21  38  63  90 120 162 209 256 301 366
#     4  11  26  42  58  89 131 164 203 252 313 372
#     4  10  21  39  66  91 122 158 218 256 299 366
#     4  10  20  39  61  87 120 164 207 247 306 365
#     4  11  23  41  64  92 123 164 214 255 302 371
#     4  10  20  39  61  93 125 156 204 257 309 365
#
# _framework density 20.896502000000002
#
# number of rings (size 3 to 8) (size 9 to 14) (size 15 to 20)
#    0.000    1.750    2.500    1.875    3.500    5.000 
#    0.000    3.750    0.000    0.000    0.000    0.000 
#    0.000    0.000    0.000    0.000    0.000    0.000 
#
# Total GULP energy -198343.893915 kJ/mol
# GULP energy per Si atom -12396.493370 kJ/mol
# Density = 2.084894 g / cm^3
# Si number density = 20.896502 Si / 1000 Ang^3
#
#
#
# Elastic Constant Matrix: (Units=GPa)
#
#
# Indices 1 2 3 4 5 6 
#
# 1 56.9238 28.0714 41.4306 5.5087 1.8391 17.5522
# 2 28.0714 107.9510 49.9478 -1.9192 -1.3559 9.4105
# 3 41.4306 49.9478 127.8051 -10.3902 -15.4640 19.2773
# 4 5.5087 -1.9192 -10.3902 38.4460 1.7349 9.7326
# 5 1.8391 -1.3559 -15.4640 1.7349 25.8682 -6.6835
# 6 17.5522 9.4105 19.2773 9.7326 -6.6835 29.8179
#
#
#
# Elastic Compliance Matrix: (Units=1/GPa)
#
#
# Indices 1 2 3 4 5 6 
#
# 1 0.029219 -0.003064 -0.007829 -0.002849 -0.009949 -0.012471
# 2 -0.003064 0.011788 -0.003818 -0.000003 -0.001384 0.000243
# 3 -0.007829 -0.003818 0.013604 0.005025 0.007385 -0.002967
# 4 -0.002849 -0.000003 0.005025 0.030934 -0.001998 -0.012115
# 5 -0.009949 -0.001384 0.007385 -0.001998 0.047132 0.012735
# 6 -0.012471 0.000243 -0.002967 -0.012115 0.012735 0.049528
#
#
# Mechanical properties :
#
#
# Convention : Reuss Voigt Hill
#
# Bulk Modulus (GPa) = 39.69922 59.06441 49.38181
# Shear Modulus (GPa) = 22.72485 30.37508 26.54996
#
# Velocity S-wave (km/s) = 3.30130 3.81674 3.56834
# Velocity P-wave (km/s) = 5.79402 6.91013 6.37654
#
# Compressibility (1/GPa) = 0.02518941
#
# Stress axis : x y z
#
# Youngs Moduli (GPa) = 34.22424 84.83048 73.50798
#
# Poissons Ratio (x) = 0.25994 0.57548
# Poissons Ratio (y) = 0.10487 0.28065
# Poissons Ratio (z) = 0.26793 0.32388
#
# Static dielectric constant tensor:
#      x y z
#    x 3.888160 0.070240 -0.102930 
#    y 0.070240 4.092950 -0.340900 
#    z -0.102930 -0.340900 4.005000 
# 
# 
# High freq. dielectric constant tensor:
#      x y z
#    x 1.810960 0.001560 -0.008650 
#    y 0.001560 1.818980 -0.007030 
#    z -0.008650 -0.007030 1.818570 
# 
# From -- ./inp_files/184100.got.cif
#   From: 2010.06.25/outbox.cif.g09.slc.cpg/sg2_93_cif.got.tgz:184100.got - 2010.06.27 13:26:56.
