data_PCOD8005778
_publ_section_title
;
Structure prediction by ZEFSAII (Michael W. Deem and Ramdas Pophale) SiO2 
 PCOD8005778
Probable space group: P -1
;
_chemical_formula_sum "Si O2"
_cell_formula_units_Z 12
_cell_length_a 12.546277
_cell_length_b 8.044995
_cell_length_c 11.812928
_cell_angle_alpha 140.849592
_cell_angle_beta 39.686044
_cell_angle_gamma 121.493513
_cell_volume 472.465464
_symmetry_space_group_name_H-M "P -1"
_symmetry_group_IT_number 2
_symmetry_cell_setting 'triclinic'
loop_
_space_group_symop_operation_xyz
x,y,z
-x,-y,-z
loop_
_atom_site_type_symbol
_atom_site_label
_atom_site_fract_x
_atom_site_fract_y
_atom_site_fract_z
Si Si1 0.589017 0.564896 0.700687
Si Si2 0.957115 0.515196 0.888659
Si Si3 0.515651 0.990166 0.816926
Si Si4 0.145224 0.853772 0.053493
Si Si5 0.382638 0.165698 0.591388
Si Si6 0.053274 0.762465 0.742036
O O1 0.641181 0.793913 0.696678
O O2 0.446705 0.448528 0.684655
O O3 0.744490 0.330547 0.486560
O O4 0.508093 0.706619 0.956899
O O5 0.914903 0.231946 0.817574
O O6 0.981440 0.514428 0.731324
O O7 0.813037 0.773714 0.179424
O O8 0.124725 0.597289 0.854837
O O9 0.598126 0.985097 0.623764
O O10 0.336608 0.891838 0.910386
O O11 0.033301 0.141268 0.256428
O O12 0.500000 0.000000 0.500000
O O13 0.000000 0.000000 0.000000
#
# Coordination Sequence:
#
# PCOD8005778 Si02
#       6
#     2   2   2   2   2   2
#     4  11  25  45  66  99 134 178 223 271 337 404
#     4  10  21  35  65  99 127 165 227 274 328 396
#     4  11  25  44  69  94 136 181 220 271 337 403
#     4  10  20  39  62  93 126 175 216 267 334 384
#     4  12  23  41  71  99 133 175 221 282 335 394
#     4  10  21  40  64  94 131 170 224 270 329 396
#
# _framework density 25.398682000000001
#
# number of rings (size 3 to 8) (size 9 to 14) (size 15 to 20)
#    0.000    1.333    1.667    5.500    7.000    1.333 
#    0.000    2.500    0.000    0.000    0.000    0.000 
#    0.000    0.000    0.000    0.000    0.000    0.000 
#
# Total GULP energy -148714.741832 kJ/mol
# GULP energy per Si atom -12392.895153 kJ/mol
# Density = 2.534087 g / cm^3
# Si number density = 25.398682 Si / 1000 Ang^3
#
#
#
# Elastic Constant Matrix: (Units=GPa)
#
#
# Indices 1 2 3 4 5 6 
#
# 1 65.1900 5.9116 32.2708 1.6302 2.1014 -22.8964
# 2 5.9116 55.0415 -5.4951 -10.4730 5.7193 -19.1806
# 3 32.2708 -5.4951 88.1168 10.0388 16.8134 3.3100
# 4 1.6302 -10.4730 10.0388 36.5744 -9.2876 -4.4141
# 5 2.1014 5.7193 16.8134 -9.2876 40.9693 -0.4966
# 6 -22.8964 -19.1806 3.3100 -4.4141 -0.4966 38.9537
#
#
#
# Elastic Compliance Matrix: (Units=1/GPa)
#
#
# Indices 1 2 3 4 5 6 
#
# 1 0.027916 0.003533 -0.012497 0.006890 0.005009 0.020055
# 2 0.003533 0.024829 -0.001149 0.008877 -0.000977 0.015393
# 3 -0.012497 -0.001149 0.018952 -0.008550 -0.009043 -0.010606
# 4 0.006890 0.008877 -0.008550 0.036146 0.010273 0.013374
# 5 0.005009 -0.000977 -0.009043 0.010273 0.030386 0.004783
# 6 0.020055 0.015393 -0.010606 0.013374 0.004783 0.047517
#
#
# Mechanical properties :
#
#
# Convention : Reuss Voigt Hill
#
# Bulk Modulus (GPa) = 19.42850 30.41364 24.92107
# Shear Modulus (GPa) = 22.40876 35.01021 28.70948
#
# Velocity S-wave (km/s) = 2.97354 3.71674 3.36572
# Velocity P-wave (km/s) = 4.41082 5.51538 4.99373
#
# Compressibility (1/GPa) = 0.05147077
#
# Stress axis : x y z
#
# Youngs Moduli (GPa) = 35.82208 40.27587 52.76577
#
# Poissons Ratio (x) = -0.14230 0.65942
# Poissons Ratio (y) = -0.12657 0.06062
# Poissons Ratio (z) = 0.44767 0.04627
#
# Static dielectric constant tensor:
#      x y z
#    x 4.841120 -0.494830 -0.141790 
#    y -0.494830 5.487220 0.070010 
#    z -0.141790 0.070010 4.317210 
# 
# 
# High freq. dielectric constant tensor:
#      x y z
#    x 2.004510 -0.027530 -0.029040 
#    y -0.027530 2.023680 0.000000 
#    z -0.029040 0.000000 1.991870 
# 
# From -- ./inp_files/180518.got.cif
#   From: 2010.06.25/outbox.cif.g09.slc.cpg/sg2_91_cif.got.tgz:180518.got - 2010.06.27 13:26:56.
