data_PCOD8005357
_publ_section_title
;
Structure prediction by ZEFSAII (Michael W. Deem and Ramdas Pophale) SiO2 
 PCOD8005357
Probable space group: P -1
;
_chemical_formula_sum "Si O2"
_cell_formula_units_Z 16
_cell_length_a 11.459895
_cell_length_b 15.523773
_cell_length_c 14.850324
_cell_angle_alpha 38.138228
_cell_angle_beta 34.909400
_cell_angle_gamma 62.414846
_cell_volume 800.479581
_symmetry_space_group_name_H-M "P -1"
_symmetry_group_IT_number 2
_symmetry_cell_setting 'triclinic'
loop_
_space_group_symop_operation_xyz
x,y,z
-x,-y,-z
loop_
_atom_site_type_symbol
_atom_site_label
_atom_site_fract_x
_atom_site_fract_y
_atom_site_fract_z
Si Si1 0.824376 0.665968 0.413301
Si Si2 0.293812 0.539646 0.603585
Si Si3 0.644834 0.111500 0.053675
Si Si4 0.466744 0.746767 0.492709
Si Si5 0.771207 0.240574 0.185690
Si Si6 0.737506 0.639847 0.692338
Si Si7 0.383836 0.115686 0.384042
Si Si8 0.789158 0.352328 0.608135
O O1 0.691873 0.723832 0.381882
O O2 0.699261 0.633895 0.614960
O O3 0.806495 0.501052 0.529639
O O4 0.097759 0.806928 0.130280
O O5 0.500000 0.500000 0.500000
O O6 0.291996 0.616515 0.637245
O O7 0.340284 0.667485 0.388846
O O8 0.039924 0.377671 0.881308
O O9 0.470452 0.133735 0.211853
O O10 0.556873 0.923694 0.249480
O O11 0.645770 0.189716 0.892659
O O12 0.322985 0.716261 0.700892
O O13 0.608684 0.223721 0.217850
O O14 0.765223 0.071802 0.339021
O O15 0.790722 0.813328 0.555177
O O16 0.949637 0.612860 0.607363
O O17 0.500000 0.500000 0.000000
#
# Coordination Sequence:
#
# PCOD8005357 Si02
#       8
#     2   2   2   2   2   2   2   2
#     4  11  20  37  61  93 123 160 202 254 311 361
#     4  12  25  42  63  86 124 173 209 245 293 372
#     4  10  22  39  61  93 127 152 201 263 311 362
#     4  11  23  40  63  88 123 167 206 248 302 362
#     4  10  22  41  62  94 125 156 210 253 301 365
#     4  11  20  34  61  95 125 156 197 256 320 361
#     4  10  20  38  67  95 122 156 196 266 316 351
#     4  11  24  40  59  90 127 162 205 252 309 367
#
# _framework density 19.988018
#
# number of rings (size 3 to 8) (size 9 to 14) (size 15 to 20)
#    0.000    1.250    2.500    5.250    0.000    2.500 
#    0.000    0.000    0.000    3.000    0.000    0.000 
#    0.000    0.000    0.000    0.000    0.000    0.000 
#
# Total GULP energy -198446.482390 kJ/mol
# GULP energy per Si atom -12402.905149 kJ/mol
# Density = 1.994252 g / cm^3
# Si number density = 19.988018 Si / 1000 Ang^3
#
#
#
# Elastic Constant Matrix: (Units=GPa)
#
#
# Indices 1 2 3 4 5 6 
#
# 1 111.7614 37.7989 28.4515 -1.8312 10.7653 -10.0198
# 2 37.7989 133.6787 31.0739 2.1935 2.9139 -18.1671
# 3 28.4515 31.0739 76.7297 -0.8223 10.4960 -9.4173
# 4 -1.8312 2.1935 -0.8223 23.3224 5.7487 -2.2889
# 5 10.7653 2.9139 10.4960 5.7487 24.5053 -4.5577
# 6 -10.0198 -18.1671 -9.4173 -2.2889 -4.5577 32.7239
#
#
#
# Elastic Compliance Matrix: (Units=1/GPa)
#
#
# Indices 1 2 3 4 5 6 
#
# 1 0.010827 -0.002320 -0.002427 0.001996 -0.003733 0.000949
# 2 -0.002320 0.009268 -0.002722 -0.001290 0.002102 0.003855
# 3 -0.002427 -0.002722 0.016047 0.002200 -0.005678 0.001727
# 4 0.001996 -0.001290 0.002200 0.046437 -0.012173 0.002081
# 5 -0.003733 0.002102 -0.005678 -0.012173 0.048278 0.004262
# 6 0.000949 0.003855 0.001727 0.002081 0.004262 0.034225
#
#
# Mechanical properties :
#
#
# Convention : Reuss Voigt Hill
#
# Bulk Modulus (GPa) = 47.15580 57.42426 52.29003
# Shear Modulus (GPa) = 26.72522 31.10000 28.91261
#
# Velocity S-wave (km/s) = 3.66055 3.94881 3.80741
# Velocity P-wave (km/s) = 6.44278 7.04148 6.74878
#
# Compressibility (1/GPa) = 0.02120630
#
# Stress axis : x y z
#
# Youngs Moduli (GPa) = 92.35849 107.89340 62.31634
#
# Poissons Ratio (x) = 0.25030 0.15123
# Poissons Ratio (y) = 0.21426 0.16960
# Poissons Ratio (z) = 0.22414 0.29364
#
# Static dielectric constant tensor:
#      x y z
#    x 3.861230 0.059280 0.311280 
#    y 0.059280 4.069080 0.137180 
#    z 0.311280 0.137180 3.579510 
# 
# 
# High freq. dielectric constant tensor:
#      x y z
#    x 1.771220 -0.003890 0.021460 
#    y -0.003890 1.801030 0.006290 
#    z 0.021460 0.006290 1.773010 
# 
# From -- ./inp_files/206339.got.cif
#   From: 2010.06.25/outbox.cif.g09.slc.cpg/sg2_104_cif.got.tgz:206339.got - 2010.06.27 13:26:56.
