data_PCOD8005290
_publ_section_title
;
Structure prediction by ZEFSAII (Michael W. Deem and Ramdas Pophale) SiO2 
 PCOD8005290
Probable space group: P -1
;
_chemical_formula_sum "Si O2"
_cell_formula_units_Z 14
_cell_length_a 9.744974
_cell_length_b 18.058833
_cell_length_c 8.930504
_cell_angle_alpha 66.876101
_cell_angle_beta 30.220553
_cell_angle_gamma 67.828566
_cell_volume 725.027635
_symmetry_space_group_name_H-M "P -1"
_symmetry_group_IT_number 2
_symmetry_cell_setting 'triclinic'
loop_
_space_group_symop_operation_xyz
x,y,z
-x,-y,-z
loop_
_atom_site_type_symbol
_atom_site_label
_atom_site_fract_x
_atom_site_fract_y
_atom_site_fract_z
Si Si1 0.213915 0.603476 0.162029
Si Si2 0.066861 0.955192 0.819422
Si Si3 0.748820 0.575318 0.834595
Si Si4 0.666609 0.197184 0.412869
Si Si5 0.501800 0.045110 0.807028
Si Si6 0.266794 0.442292 0.801803
Si Si7 0.879867 0.699720 0.154511
O O1 0.259026 0.521162 0.090777
O O2 0.042563 0.595892 0.481876
O O3 0.063289 0.671900 0.146807
O O4 0.515011 0.623852 0.915311
O O5 0.205813 0.863452 0.791301
O O6 0.282916 0.001239 0.476857
O O7 0.796936 0.949832 0.982734
O O8 0.000000 0.000000 0.000000
O O9 0.701844 0.600092 0.031788
O O10 0.596146 0.137300 0.664910
O O11 0.383822 0.243852 0.586903
O O12 0.904489 0.255465 0.188014
O O13 0.500000 0.000000 0.000000
O O14 0.500000 0.500000 0.500000
O O15 0.250980 0.372416 0.750346
O O16 0.000000 0.500000 0.000000
#
# Coordination Sequence:
#
# PCOD8005290 Si02
#       7
#     2   2   2   2   2   2   2
#     4  10  21  35  62  77 112 154 194 251 308 346
#     4  10  20  38  66  93 121 154 204 252 293 362
#     4  10  21  38  54  86 109 143 208 258 288 351
#     4  10  22  37  63  91 124 156 206 241 315 368
#     4  10  20  38  67  94 123 159 204 245 297 376
#     4  12  24  38  60  89 113 158 214 256 297 354
#     4  12  22  39  61  86 122 165 200 256 311 362
#
# _framework density 19.309608000000001
#
# number of rings (size 3 to 8) (size 9 to 14) (size 15 to 20)
#    0.857    0.571    2.857    3.429    4.000    0.000 
#    0.000    0.000   12.571    0.000    0.000    0.000 
#    0.000    0.000    0.000    0.000    0.000    0.000 
#
# Total GULP energy -173439.394043 kJ/mol
# GULP energy per Si atom -12388.528146 kJ/mol
# Density = 1.926566 g / cm^3
# Si number density = 19.309608 Si / 1000 Ang^3
#
#
#
# Elastic Constant Matrix: (Units=GPa)
#
#
# Indices 1 2 3 4 5 6 
#
# 1 100.2554 52.0642 48.8270 11.4936 -1.5426 -11.8211
# 2 52.0642 94.9235 44.5033 7.5288 -5.9197 -14.5420
# 3 48.8270 44.5033 121.4309 17.2379 -17.4180 -14.0054
# 4 11.4936 7.5288 17.2379 29.7693 -1.7241 0.6665
# 5 -1.5426 -5.9197 -17.4180 -1.7241 37.5365 3.4126
# 6 -11.8211 -14.5420 -14.0054 0.6665 3.4126 13.5802
#
#
#
# Elastic Compliance Matrix: (Units=1/GPa)
#
#
# Indices 1 2 3 4 5 6 
#
# 1 0.015695 -0.006280 -0.003516 -0.002670 -0.002469 0.004063
# 2 -0.006280 0.016649 -0.002281 -0.000666 0.000374 0.009948
# 3 -0.003516 -0.002281 0.012651 -0.005279 0.004518 0.006668
# 4 -0.002670 -0.000666 -0.005279 0.038081 0.000026 -0.010357
# 5 -0.002469 0.000374 0.004518 0.000026 0.029096 -0.004402
# 6 0.004063 0.009948 0.006668 -0.010357 -0.004402 0.096317
#
#
# Mechanical properties :
#
#
# Convention : Reuss Voigt Hill
#
# Bulk Modulus (GPa) = 47.98124 67.48875 57.73500
# Shear Modulus (GPa) = 20.86895 27.59157 24.23026
#
# Velocity S-wave (km/s) = 3.29105 3.78419 3.54620
# Velocity P-wave (km/s) = 6.27245 7.35664 6.83607
#
# Compressibility (1/GPa) = 0.02084148
#
# Stress axis : x y z
#
# Youngs Moduli (GPa) = 63.71306 60.06434 79.04297
#
# Poissons Ratio (x) = 0.37721 0.27792
# Poissons Ratio (y) = 0.40012 0.18029
# Poissons Ratio (z) = 0.22402 0.13700
#
# Static dielectric constant tensor:
#      x y z
#    x 2.745430 -0.190230 -0.196450 
#    y -0.190230 3.331040 0.006000 
#    z -0.196450 0.006000 3.882730 
# 
# 
# High freq. dielectric constant tensor:
#      x y z
#    x 1.728930 -0.015920 -0.019040 
#    y -0.015920 1.724190 0.004450 
#    z -0.019040 0.004450 1.782290 
# 
# From -- ./inp_files/214968.got.cif
#   From: 2010.06.25/outbox.cif.g09.slc.cpg/sg2_108_cif.got.tgz:214968.got - 2010.06.27 13:26:56.
