data_PCOD8005431
_publ_section_title
;
Structure prediction by ZEFSAII (Michael W. Deem and Ramdas Pophale) SiO2 
 PCOD8005431
Probable space group: P -1
;
_chemical_formula_sum "Si O2"
_cell_formula_units_Z 16
_cell_length_a 14.049408
_cell_length_b 8.924209
_cell_length_c 13.972054
_cell_angle_alpha 140.483957
_cell_angle_beta 136.334780
_cell_angle_gamma 61.556372
_cell_volume 756.170951
_symmetry_space_group_name_H-M "P -1"
_symmetry_group_IT_number 2
_symmetry_cell_setting 'triclinic'
loop_
_space_group_symop_operation_xyz
x,y,z
-x,-y,-z
loop_
_atom_site_type_symbol
_atom_site_label
_atom_site_fract_x
_atom_site_fract_y
_atom_site_fract_z
Si Si1 0.220381 0.973317 0.939256
Si Si2 0.531962 0.782409 0.644845
Si Si3 0.812199 0.567331 0.361654
Si Si4 0.298026 0.994308 0.492737
Si Si5 0.284985 0.937696 0.244527
Si Si6 0.895771 0.507036 0.181754
Si Si7 0.015468 0.263822 0.834112
Si Si8 0.959961 0.799938 0.765343
O O1 0.239187 0.711644 0.785282
O O2 0.124340 0.933493 0.945694
O O3 0.143004 0.136884 0.896435
O O4 0.376384 0.109745 0.144661
O O5 0.500000 0.500000 0.500000
O O6 0.388110 0.888069 0.586790
O O7 0.614444 0.863490 0.646379
O O8 0.870394 0.618848 0.321372
O O9 0.930518 0.671584 0.577527
O O10 0.682715 0.714189 0.348291
O O11 0.348386 0.917413 0.387122
O O12 0.132821 0.910547 0.350756
O O13 0.135574 0.013140 0.189137
O O14 0.249593 0.673678 0.042375
O O15 0.944173 0.695372 0.227013
O O16 0.034767 0.385251 0.235796
O O17 0.000000 0.500000 0.000000
#
# Coordination Sequence:
#
# PCOD8005431 Si02
#       8
#     2   2   2   2   2   2   2   2
#     4  11  21  42  66  92 130 171 214 269 321 383
#     4  12  27  41  66  96 133 171 220 269 329 385
#     4  10  22  44  67  98 129 173 218 268 326 394
#     4  11  25  44  63  96 137 171 215 268 325 391
#     4  11  21  41  66  93 124 177 219 267 319 393
#     4  11  21  35  68  99 128 168 219 264 333 376
#     4  12  23  38  66 101 136 162 217 282 316 371
#     4  10  20  38  69  98 122 163 226 267 322 380
#
# _framework density 21.159237999999998
#
# number of rings (size 3 to 8) (size 9 to 14) (size 15 to 20)
#    0.000    1.000    6.250    3.000    3.500    1.000 
#    0.000    0.000    0.000    3.750    0.000    0.000 
#    0.000    0.000    0.000    0.000    0.000    0.000 
#
# Total GULP energy -198210.135439 kJ/mol
# GULP energy per Si atom -12388.133465 kJ/mol
# Density = 2.111108 g / cm^3
# Si number density = 21.159238 Si / 1000 Ang^3
#
#
#
# Elastic Constant Matrix: (Units=GPa)
#
#
# Indices 1 2 3 4 5 6 
#
# 1 63.9148 29.0760 40.5814 -0.9760 -10.8243 20.7135
# 2 29.0760 171.5764 57.7135 -9.9000 -0.1215 3.7769
# 3 40.5814 57.7135 108.2069 -0.7712 -2.6247 -1.9276
# 4 -0.9760 -9.9000 -0.7712 36.8248 -0.4831 1.4320
# 5 -10.8243 -0.1215 -2.6247 -0.4831 31.6631 -0.1906
# 6 20.7135 3.7769 -1.9276 1.4320 -0.1906 40.3212
#
#
#
# Elastic Compliance Matrix: (Units=1/GPa)
#
#
# Indices 1 2 3 4 5 6 
#
# 1 0.029358 -0.001036 -0.010506 0.001001 0.009084 -0.015479
# 2 -0.001036 0.007302 -0.003514 0.001869 -0.000591 -0.000389
# 3 -0.010506 -0.003514 0.015106 -0.001189 -0.002332 0.006480
# 4 0.001001 0.001869 -0.001189 0.027736 0.000663 -0.001728
# 5 0.009084 -0.000591 -0.002332 0.000663 0.034475 -0.004583
# 6 -0.015479 -0.000389 0.006480 -0.001728 -0.004583 0.033139
#
#
# Mechanical properties :
#
#
# Convention : Reuss Voigt Hill
#
# Bulk Modulus (GPa) = 46.18088 66.49330 56.33709
# Shear Modulus (GPa) = 27.10836 36.18362 31.64599
#
# Velocity S-wave (km/s) = 3.58321 4.13978 3.87151
# Velocity P-wave (km/s) = 6.24436 7.37182 6.83139
#
# Compressibility (1/GPa) = 0.02165398
#
# Stress axis : x y z
#
# Youngs Moduli (GPa) = 34.06240 136.95090 66.19826
#
# Poissons Ratio (x) = 0.14193 0.69547
# Poissons Ratio (y) = 0.03530 0.23261
# Poissons Ratio (z) = 0.35785 0.48122
#
# Static dielectric constant tensor:
#      x y z
#    x 3.602170 0.051920 -0.191720 
#    y 0.051920 4.211570 -0.055620 
#    z -0.191720 -0.055620 3.937980 
# 
# 
# High freq. dielectric constant tensor:
#      x y z
#    x 1.798580 0.004880 -0.014530 
#    y 0.004880 1.852130 -0.007550 
#    z -0.014530 -0.007550 1.827380 
# 
# From -- ./inp_files/529184.got.cif
#   From: 2010.06.25/outbox.cif.g09.slc.cpg/sg2_265_cif.got.tgz:529184.got - 2010.06.27 13:26:56.
