data_PCOD8005634
_publ_section_title
;
Structure prediction by ZEFSAII (Michael W. Deem and Ramdas Pophale) SiO2 
 PCOD8005634
Probable space group: P -1
;
_chemical_formula_sum "Si O2"
_cell_formula_units_Z 16
_cell_length_a 16.316575
_cell_length_b 9.063630
_cell_length_c 14.308592
_cell_angle_alpha 67.761355
_cell_angle_beta 25.570673
_cell_angle_gamma 77.853915
_cell_volume 798.671911
_symmetry_space_group_name_H-M "P -1"
_symmetry_group_IT_number 2
_symmetry_cell_setting 'triclinic'
loop_
_space_group_symop_operation_xyz
x,y,z
-x,-y,-z
loop_
_atom_site_type_symbol
_atom_site_label
_atom_site_fract_x
_atom_site_fract_y
_atom_site_fract_z
Si Si1 0.459316 0.248774 0.451399
Si Si2 0.690175 0.596972 0.039623
Si Si3 0.918157 0.876427 0.027924
Si Si4 0.561153 0.398577 0.879344
Si Si5 0.999654 0.471354 0.374790
Si Si6 0.309547 0.093968 0.917831
Si Si7 0.212404 0.765975 0.204727
Si Si8 0.335781 0.891980 0.571504
O O1 0.547116 0.415443 0.261589
O O2 0.274246 0.271271 0.697468
O O3 0.621870 0.217873 0.361595
O O4 0.387650 0.089383 0.494202
O O5 0.603210 0.651429 0.020978
O O6 0.705473 0.730465 0.072956
O O7 0.914935 0.590418 0.791340
O O8 0.834353 0.967161 0.009599
O O9 0.095124 0.812986 0.820206
O O10 0.000000 0.000000 0.000000
O O11 0.781609 0.497451 0.581354
O O12 0.586132 0.234163 0.945954
O O13 0.500000 0.500000 0.000000
O O14 0.981061 0.325894 0.508098
O O15 0.173374 0.646687 0.181480
O O16 0.540065 0.119487 0.646430
O O17 0.233820 0.955655 0.110269
#
# Coordination Sequence:
#
# PCOD8005634 Si02
#       8
#     2   2   2   2   2   2   2   2
#     4   9  20  37  63  84 115 149 196 246 286 341
#     4  12  23  37  57  91 123 159 186 237 297 351
#     4   9  20  41  60  88 108 150 200 239 290 345
#     4  10  20  39  61  85 115 152 205 236 286 338
#     4   9  20  38  59  85 116 151 204 238 281 331
#     4  11  24  37  58  89 124 152 192 237 300 345
#     4   9  19  41  60  84 117 155 197 248 275 339
#     4   9  19  39  60  86 112 148 199 246 285 344
#
# _framework density 20.033259000000001
#
# number of rings (size 3 to 8) (size 9 to 14) (size 15 to 20)
#    0.750    1.500    1.250    1.500    0.000    7.000 
#    2.250    1.250    0.000    0.000    0.000    0.000 
#    0.000    0.000    0.000    0.000    0.000    0.000 
#
# Total GULP energy -198212.134418 kJ/mol
# GULP energy per Si atom -12388.258401 kJ/mol
# Density = 1.998766 g / cm^3
# Si number density = 20.033259 Si / 1000 Ang^3
#
#
#
# Elastic Constant Matrix: (Units=GPa)
#
#
# Indices 1 2 3 4 5 6 
#
# 1 70.4261 23.7649 24.9366 -2.7491 -2.9629 -8.0993
# 2 23.7649 86.5207 54.9970 10.9532 6.8739 -2.2769
# 3 24.9366 54.9970 123.6328 30.2646 -4.9617 -10.2861
# 4 -2.7491 10.9532 30.2646 25.9678 -9.0293 1.7457
# 5 -2.9629 6.8739 -4.9617 -9.0293 25.7647 5.7402
# 6 -8.0993 -2.2769 -10.2861 1.7457 5.7402 20.2601
#
#
#
# Elastic Compliance Matrix: (Units=1/GPa)
#
#
# Indices 1 2 3 4 5 6 
#
# 1 0.017762 -0.004097 -0.003684 0.009552 0.005224 0.002467
# 2 -0.004097 0.017946 -0.006942 -0.002364 -0.007225 -0.000895
# 3 -0.003684 -0.006942 0.017407 -0.019888 -0.004310 0.009520
# 4 0.009552 -0.002364 -0.019888 0.075202 0.028986 -0.021236
# 5 0.005224 -0.007225 -0.004310 0.028986 0.054894 -0.018962
# 6 0.002467 -0.000895 0.009520 -0.021236 -0.018962 0.062279
#
#
# Mechanical properties :
#
#
# Convention : Reuss Voigt Hill
#
# Bulk Modulus (GPa) = 42.24801 54.21962 48.23381
# Shear Modulus (GPa) = 17.67868 26.19060 21.93464
#
# Velocity S-wave (km/s) = 2.97386 3.61966 3.31253
# Velocity P-wave (km/s) = 5.73816 6.67778 6.22572
#
# Compressibility (1/GPa) = 0.02366975
#
# Stress axis : x y z
#
# Youngs Moduli (GPa) = 56.29870 55.72293 57.44734
#
# Poissons Ratio (x) = 0.22828 0.21162
# Poissons Ratio (y) = 0.23064 0.39883
# Poissons Ratio (z) = 0.20739 0.38686
#
# Static dielectric constant tensor:
#      x y z
#    x 3.557820 -0.124510 -0.090400 
#    y -0.124510 3.336930 0.354030 
#    z -0.090400 0.354030 3.851310 
# 
# 
# High freq. dielectric constant tensor:
#      x y z
#    x 1.769100 -0.010480 0.004250 
#    y -0.010480 1.749700 0.022450 
#    z 0.004250 0.022450 1.787800 
# 
# From -- ./inp_files/536611.got.cif
#   From: 2010.06.25/outbox.cif.g09.slc.cpg/sg2_269_cif.got.tgz:536611.got - 2010.06.27 13:26:56.
