data_PCOD8005479
_publ_section_title
;
Structure prediction by ZEFSAII (Michael W. Deem and Ramdas Pophale) SiO2 
 PCOD8005479
Probable space group: P -1
;
_chemical_formula_sum "Si O2"
_cell_formula_units_Z 16
_cell_length_a 9.003304
_cell_length_b 17.533780
_cell_length_c 17.492812
_cell_angle_alpha 157.464540
_cell_angle_beta 65.567817
_cell_angle_gamma 99.993805
_cell_volume 772.648733
_symmetry_space_group_name_H-M "P -1"
_symmetry_group_IT_number 2
_symmetry_cell_setting 'triclinic'
loop_
_space_group_symop_operation_xyz
x,y,z
-x,-y,-z
loop_
_atom_site_type_symbol
_atom_site_label
_atom_site_fract_x
_atom_site_fract_y
_atom_site_fract_z
Si Si1 0.584322 0.048935 0.643714
Si Si2 0.515933 0.474963 0.814712
Si Si3 0.656253 0.042213 0.969775
Si Si4 0.395323 0.420312 0.261991
Si Si5 0.756428 0.972759 0.374232
Si Si6 0.001600 0.505679 0.414259
Si Si7 0.138128 0.491122 0.896774
Si Si8 0.810822 0.253602 0.242962
O O1 0.710830 0.035754 0.531915
O O2 0.384544 0.085530 0.689860
O O3 0.728563 0.794229 0.428021
O O4 0.502580 0.287182 0.932457
O O5 0.542904 0.461854 0.705053
O O6 0.712665 0.218966 0.571902
O O7 0.306120 0.517727 0.921085
O O8 0.874072 0.786663 0.673042
O O9 0.500000 0.000000 0.000000
O O10 0.589260 0.154136 0.002580
O O11 0.670109 0.221331 0.189191
O O12 0.317092 0.583599 0.506372
O O13 0.232386 0.382592 0.225026
O O14 0.990652 0.719990 0.081317
O O15 0.901821 0.371968 0.282734
O O16 0.000000 0.500000 0.500000
O O17 0.000000 0.500000 0.000000
O O18 0.000000 0.000000 0.000000
#
# Coordination Sequence:
#
# PCOD8005479 Si02
#       8
#     2   2   2   2   2   2   2   2
#     4   9  19  38  63  89 117 161 203 244 294 365
#     4  11  23  39  58  93 129 156 197 259 311 348
#     4  12  21  39  65  87 113 155 211 244 294 370
#     4  11  24  40  58  90 126 153 201 259 302 352
#     4   9  19  38  63  88 118 159 209 239 291 369
#     4  10  20  39  57  86 114 151 203 246 288 368
#     4   9  20  39  61  88 122 157 207 245 288 371
#     4  11  20  40  66  85 111 159 205 244 299 357
#
# _framework density 20.707985000000001
#
# number of rings (size 3 to 8) (size 9 to 14) (size 15 to 20)
#    0.000    1.750    5.000    1.500    0.000    4.000 
#    9.000    0.000    0.000    0.000    0.000    0.000 
#    0.000    0.000    0.000    0.000    0.000    0.000 
#
# Total GULP energy -198264.967511 kJ/mol
# GULP energy per Si atom -12391.560469 kJ/mol
# Density = 2.066085 g / cm^3
# Si number density = 20.707985 Si / 1000 Ang^3
#
#
#
# Elastic Constant Matrix: (Units=GPa)
#
#
# Indices 1 2 3 4 5 6 
#
# 1 107.7378 32.4520 53.8304 9.0145 -1.1037 -0.4656
# 2 32.4520 78.2340 46.2111 21.1484 -8.1072 -9.9588
# 3 53.8304 46.2111 132.1484 42.2099 -8.8476 -16.9474
# 4 9.0145 21.1484 42.2099 30.3924 -10.5869 -10.7627
# 5 -1.1037 -8.1072 -8.8476 -10.5869 43.8177 16.4664
# 6 -0.4656 -9.9588 -16.9474 -10.7627 16.4664 25.9534
#
#
#
# Elastic Compliance Matrix: (Units=1/GPa)
#
#
# Indices 1 2 3 4 5 6 
#
# 1 0.013165 -0.003758 -0.006735 0.007318 0.001326 -0.003410
# 2 -0.003758 0.017893 -0.001934 -0.007828 0.000097 0.002228
# 3 -0.006735 -0.001934 0.018247 -0.021742 -0.003757 0.004419
# 4 0.007318 -0.007828 -0.021742 0.072037 0.009112 0.007022
# 5 0.001326 0.000097 -0.003757 0.009112 0.031245 -0.018437
# 6 -0.003410 0.002228 0.004419 0.007022 -0.018437 0.056820
#
#
# Mechanical properties :
#
#
# Convention : Reuss Voigt Hill
#
# Bulk Modulus (GPa) = 40.89563 64.78967 52.84265
# Shear Modulus (GPa) = 20.62629 32.40782 26.51705
#
# Velocity S-wave (km/s) = 3.15946 3.96029 3.58232
# Velocity P-wave (km/s) = 5.75336 7.22960 6.53331
#
# Compressibility (1/GPa) = 0.02445249
#
# Stress axis : x y z
#
# Youngs Moduli (GPa) = 75.95788 55.88843 54.80401
#
# Poissons Ratio (x) = 0.21002 0.36909
# Poissons Ratio (y) = 0.28543 0.10598
# Poissons Ratio (z) = 0.51155 0.10807
#
# Static dielectric constant tensor:
#      x y z
#    x 4.050830 0.229030 -0.029720 
#    y 0.229030 3.034090 0.128000 
#    z -0.029720 0.128000 3.681200 
# 
# 
# High freq. dielectric constant tensor:
#      x y z
#    x 1.815300 0.004220 -0.015610 
#    y 0.004220 1.779960 0.035550 
#    z -0.015610 0.035550 1.813640 
# 
# From -- ./inp_files/561955.got.cif
#   From: 2010.06.25/outbox.cif.g09.slc.cpg/sg2_281_cif.got.tgz:561955.got - 2010.06.27 13:26:56.
