data_PCOD8005388
_publ_section_title
;
Structure prediction by ZEFSAII (Michael W. Deem and Ramdas Pophale) SiO2 
 PCOD8005388
Probable space group: P -1
;
_chemical_formula_sum "Si O2"
_cell_formula_units_Z 16
_cell_length_a 9.495834
_cell_length_b 9.741206
_cell_length_c 11.684112
_cell_angle_alpha 60.686725
_cell_angle_beta 58.514903
_cell_angle_gamma 72.943652
_cell_volume 802.628743
_symmetry_space_group_name_H-M "P -1"
_symmetry_group_IT_number 2
_symmetry_cell_setting 'triclinic'
loop_
_space_group_symop_operation_xyz
x,y,z
-x,-y,-z
loop_
_atom_site_type_symbol
_atom_site_label
_atom_site_fract_x
_atom_site_fract_y
_atom_site_fract_z
Si Si1 0.264955 0.638428 0.592613
Si Si2 0.069026 0.430943 0.344620
Si Si3 0.656456 0.571107 0.964421
Si Si4 0.638617 0.867046 0.015581
Si Si5 0.866703 0.365565 0.110548
Si Si6 0.013511 0.041354 0.110399
Si Si7 0.113917 0.268711 0.623883
Si Si8 0.404257 0.298212 0.661952
O O1 0.179789 0.701266 0.718897
O O2 0.367722 0.476566 0.645082
O O3 0.405283 0.746532 0.437691
O O4 0.115429 0.628664 0.570829
O O5 0.191047 0.407603 0.195507
O O6 0.149667 0.329329 0.455821
O O7 0.037535 0.618156 0.307055
O O8 0.500000 0.500000 0.000000
O O9 0.619369 0.735651 0.978843
O O10 0.703080 0.438543 0.091506
O O11 0.630018 0.806196 0.172632
O O12 0.810834 0.949638 0.906230
O O13 0.500000 0.000000 0.000000
O O14 0.929371 0.215322 0.074466
O O15 0.000000 0.500000 0.000000
O O16 0.931674 0.912504 0.277518
O O17 0.000000 0.000000 0.000000
O O18 0.284673 0.269691 0.618983
#
# Coordination Sequence:
#
# PCOD8005388 Si02
#       8
#     2   2   2   2   2   2   2   2
#     4  10  20  38  68  92 124 177 221 268 322 393
#     4  10  22  42  66  96 132 176 221 268 331 399
#     4  12  27  42  70  98 132 175 227 278 328 393
#     4  12  27  44  63 100 139 171 220 281 335 390
#     4  12  22  45  70  94 129 178 230 270 327 400
#     4  12  24  43  71  97 130 177 224 274 332 395
#     4  10  23  40  66  99 134 171 220 270 331 400
#     4  10  21  41  64  95 130 172 220 265 331 391
#
# _framework density 19.934495999999999
#
# number of rings (size 3 to 8) (size 9 to 14) (size 15 to 20)
#    0.000    1.000    5.000    0.750    7.000    1.000 
#    2.250    1.875    0.000    0.000    0.000    0.000 
#    0.000    0.000    0.000    0.000    0.000    0.000 
#
# Total GULP energy -198318.654500 kJ/mol
# GULP energy per Si atom -12394.915906 kJ/mol
# Density = 1.988912 g / cm^3
# Si number density = 19.934496 Si / 1000 Ang^3
#
#
#
# Elastic Constant Matrix: (Units=GPa)
#
#
# Indices 1 2 3 4 5 6 
#
# 1 127.2173 42.6665 24.1474 -0.5906 -3.0496 6.4284
# 2 42.6665 126.4307 23.2565 -0.4557 0.8774 4.8445
# 3 24.1474 23.2565 82.5553 5.7397 -0.4412 5.4798
# 4 -0.5906 -0.4557 5.7397 33.1112 0.3128 0.1987
# 5 -3.0496 0.8774 -0.4412 0.3128 39.2177 -0.8911
# 6 6.4284 4.8445 5.4798 0.1987 -0.8911 29.6759
#
#
#
# Elastic Compliance Matrix: (Units=1/GPa)
#
#
# Indices 1 2 3 4 5 6 
#
# 1 0.009208 -0.002720 -0.001876 0.000452 0.000725 -0.001185
# 2 -0.002720 0.009183 -0.001781 0.000395 -0.000454 -0.000597
# 3 -0.001876 -0.001781 0.013447 -0.002379 0.000024 -0.001769
# 4 0.000452 0.000395 -0.002379 0.030629 -0.000243 0.000064
# 5 0.000725 -0.000454 0.000024 -0.000243 0.025583 0.000682
# 6 -0.001185 -0.000597 -0.001769 0.000064 0.000682 0.034398
#
#
# Mechanical properties :
#
#
# Convention : Reuss Voigt Hill
#
# Bulk Modulus (GPa) = 52.40499 57.37156 54.88828
# Shear Modulus (GPa) = 35.31969 36.80984 36.06476
#
# Velocity S-wave (km/s) = 4.21383 4.30180 4.25804
# Velocity P-wave (km/s) = 7.07254 7.31550 7.19504
#
# Compressibility (1/GPa) = 0.01908215
#
# Stress axis : x y z
#
# Youngs Moduli (GPa) = 108.59612 108.90091 74.36849
#
# Poissons Ratio (x) = 0.29626 0.13951
# Poissons Ratio (y) = 0.29543 0.13247
# Poissons Ratio (z) = 0.20372 0.19399
#
# Static dielectric constant tensor:
#      x y z
#    x 4.430010 -0.062850 0.144390 
#    y -0.062850 3.664480 0.037730 
#    z 0.144390 0.037730 3.767180 
# 
# 
# High freq. dielectric constant tensor:
#      x y z
#    x 1.792220 0.000750 0.005280 
#    y 0.000750 1.765660 0.004300 
#    z 0.005280 0.004300 1.780500 
# 
# From -- ./inp_files/190268.got.cif
#   From: 2010.06.25/outbox.cif.g09.slc.cpg/sg2_96_cif.got.tgz:190268.got - 2010.06.27 13:26:56.
