data_PCOD8005116
_publ_section_title
;
Structure prediction by ZEFSAII (Michael W. Deem and Ramdas Pophale) SiO2 
 PCOD8005116
Probable space group: P -1
;
_chemical_formula_sum "Si O2"
_cell_formula_units_Z 16
_cell_length_a 16.587271
_cell_length_b 12.648987
_cell_length_c 16.822115
_cell_angle_alpha 35.557950
_cell_angle_beta 34.249087
_cell_angle_gamma 25.845421
_cell_volume 830.359716
_symmetry_space_group_name_H-M "P -1"
_symmetry_group_IT_number 2
_symmetry_cell_setting 'triclinic'
loop_
_space_group_symop_operation_xyz
x,y,z
-x,-y,-z
loop_
_atom_site_type_symbol
_atom_site_label
_atom_site_fract_x
_atom_site_fract_y
_atom_site_fract_z
Si Si1 0.516994 0.780560 0.834567
Si Si2 0.180512 0.232092 0.317697
Si Si3 0.112512 0.729569 0.669953
Si Si4 0.229205 0.358035 0.681776
Si Si5 0.652496 0.399185 0.822063
Si Si6 0.293951 0.863863 0.329372
Si Si7 0.899066 0.013779 0.341669
Si Si8 0.495196 0.592271 0.658837
O O1 0.700860 0.715075 0.767820
O O2 0.603511 0.607014 0.793140
O O3 0.348733 0.067028 0.766825
O O4 0.418396 0.729306 0.007233
O O5 0.116655 0.132695 0.491920
O O6 0.980921 0.490863 0.283124
O O7 0.323673 0.022361 0.259363
O O8 0.190212 0.463462 0.740068
O O9 0.245850 0.753881 0.499597
O O10 0.132775 0.760417 0.727750
O O11 0.881528 0.956988 0.700018
O O12 0.349611 0.400971 0.507459
O O13 0.532926 0.540865 0.752393
O O14 0.888903 0.183405 0.752127
O O15 0.480334 0.626698 0.270945
O O16 0.730058 0.140460 0.334723
#
# Coordination Sequence:
#
# PCOD8005116 Si02
#       8
#     2   2   2   2   2   2   2   2
#     4  11  26  44  63  80 121 171 195 242 313 356
#     4  10  20  38  64  96 120 152 202 251 291 352
#     4   8  15  30  58  91 126 149 186 247 299 348
#     4  10  20  38  64  96 120 152 202 251 291 352
#     4  11  26  46  57  84 127 159 201 250 297 360
#     4   8  15  30  58  91 126 149 186 247 299 348
#     4  11  20  36  65  95 119 158 199 245 298 352
#     4  11  20  36  65  95 119 158 199 245 298 352
#
# _framework density 19.268757999999998
#
# number of rings (size 3 to 8) (size 9 to 14) (size 15 to 20)
#    0.000    2.000    3.750    1.500    1.750    4.500 
#    0.000    3.750    0.000    0.000    0.000    0.000 
#    0.000    0.000    0.000    0.000    0.000    0.000 
#
# Total GULP energy -198295.398397 kJ/mol
# GULP energy per Si atom -12393.462400 kJ/mol
# Density = 1.922490 g / cm^3
# Si number density = 19.268758 Si / 1000 Ang^3
#
#
#
# Elastic Constant Matrix: (Units=GPa)
#
#
# Indices 1 2 3 4 5 6 
#
# 1 112.5502 79.7975 47.5542 -19.9716 -17.6001 -4.5590
# 2 79.7975 104.1003 44.1252 -17.7742 -20.0893 -8.3882
# 3 47.5542 44.1252 54.1013 -20.8330 -20.2557 7.6656
# 4 -19.9716 -17.7742 -20.8330 -5.1332 -28.3410 -7.6084
# 5 -17.6001 -20.0893 -20.2557 -28.3410 -7.8130 -10.6036
# 6 -4.5590 -8.3882 7.6656 -7.6084 -10.6036 31.7268
#
#
#
# Elastic Compliance Matrix: (Units=1/GPa)
#
#
# Indices 1 2 3 4 5 6 
#
# 1 0.021933 -0.012885 -0.008963 0.001683 -0.001571 0.001789
# 2 -0.012885 0.023761 -0.010210 -0.004065 0.000761 0.006177
# 3 -0.008963 -0.010210 0.032988 -0.003242 -0.006904 -0.015042
# 4 0.001683 -0.004065 -0.003242 0.015773 -0.032482 -0.007123
# 5 -0.001571 0.000761 -0.006904 -0.032482 0.012148 -0.002086
# 6 0.001789 0.006177 -0.015042 -0.007123 -0.002086 0.034638
#
#
# Mechanical properties :
#
#
# Convention : Reuss Voigt Hill
#
# Bulk Modulus (GPa) = 68.65457 68.18951 68.42204
# Shear Modulus (GPa) = 23.78549 10.37446 17.07998
#
# Velocity S-wave (km/s) = 3.51722 2.32288 2.98049
# Velocity P-wave (km/s) = 7.22508 6.53145 6.88700
#
# Compressibility (1/GPa) = 0.01456567
#
# Stress axis : x y z
#
# Youngs Moduli (GPa) = 45.59394 42.08574 30.31442
#
# Poissons Ratio (x) = 0.54227 0.27172
# Poissons Ratio (y) = 0.58747 0.30950
# Poissons Ratio (z) = 0.40867 0.42968
#
# Static dielectric constant tensor:
#      x y z
#    x 3.701000 0.158740 0.010020 
#    y 0.158740 3.668890 -0.018920 
#    z 0.010020 -0.018920 3.157210 
# 
# 
# High freq. dielectric constant tensor:
#      x y z
#    x 1.760350 0.000030 0.003270 
#    y 0.000030 1.760260 -0.000630 
#    z 0.003270 -0.000630 1.706450 
# 
# From -- ./inp_files/424994.got.cif
#   From: 2010.06.25/outbox.cif.g09.slc.cpg/sg2_213_cif.got.tgz:424994.got - 2010.06.27 13:26:56.
