data_PCOD8005745
_publ_section_title
;
Structure prediction by ZEFSAII (Michael W. Deem and Ramdas Pophale) SiO2 
 PCOD8005745
Probable space group: P -1
;
_chemical_formula_sum "Si O2"
_cell_formula_units_Z 14
_cell_length_a 11.270065
_cell_length_b 8.821373
_cell_length_c 16.938284
_cell_angle_alpha 132.323956
_cell_angle_beta 43.284053
_cell_angle_gamma 101.164316
_cell_volume 692.325641
_symmetry_space_group_name_H-M "P -1"
_symmetry_group_IT_number 2
_symmetry_cell_setting 'triclinic'
loop_
_space_group_symop_operation_xyz
x,y,z
-x,-y,-z
loop_
_atom_site_type_symbol
_atom_site_label
_atom_site_fract_x
_atom_site_fract_y
_atom_site_fract_z
Si Si1 0.350297 0.133793 0.029591
Si Si2 0.707276 0.134380 0.773259
Si Si3 0.324682 0.665849 0.710054
Si Si4 0.476392 0.608708 0.794477
Si Si5 0.904262 0.405746 0.573293
Si Si6 0.342666 0.460170 0.951431
Si Si7 0.107943 0.224262 0.024037
O O1 0.201757 0.394816 0.236357
O O2 0.561603 0.099346 0.887554
O O3 0.204289 0.148814 0.036964
O O4 0.427496 0.873423 0.945874
O O5 0.586800 0.242716 0.785180
O O6 0.752381 0.319811 0.859338
O O7 0.928657 0.861969 0.559494
O O8 0.500000 0.500000 0.500000
O O9 0.434162 0.613963 0.724241
O O10 0.199771 0.956334 0.842859
O O11 0.149940 0.604867 0.783557
O O12 0.727862 0.392241 0.608394
O O13 0.342006 0.547741 0.893427
O O14 0.000000 0.500000 0.500000
O O15 0.188337 0.370216 0.990251
#
# Coordination Sequence:
#
# PCOD8005745 Si02
#       7
#     2   2   2   2   2   2   2
#     4  10  20  39  62  89 125 161 204 245 294 364
#     4  10  21  39  57  90 134 166 192 239 302 372
#     4  10  23  45  66  85 114 157 215 259 295 356
#     4  11  22  39  62  93 128 160 203 256 298 358
#     4  12  22  33  62  95 123 165 204 242 299 360
#     4  10  21  41  60  89 133 160 194 250 310 365
#     4   9  22  42  66  86 112 166 201 248 315 356
#
# _framework density 20.221696000000001
#
# number of rings (size 3 to 8) (size 9 to 14) (size 15 to 20)
#    0.000    1.714    2.857    1.286    2.000    1.143 
#    5.143    0.714    0.000    0.000    0.000    0.000 
#    0.000    0.000    0.000    0.000    0.000    0.000 
#
# Total GULP energy -173536.377957 kJ/mol
# GULP energy per Si atom -12395.455568 kJ/mol
# Density = 2.017567 g / cm^3
# Si number density = 20.221696 Si / 1000 Ang^3
#
#
#
# Elastic Constant Matrix: (Units=GPa)
#
#
# Indices 1 2 3 4 5 6 
#
# 1 -9.2715 41.0980 44.9863 -5.1915 22.1450 39.3117
# 2 41.0980 126.8252 45.2975 -4.0764 -1.1253 5.8306
# 3 44.9863 45.2975 137.2418 6.2804 -7.7062 1.9016
# 4 -5.1915 -4.0764 6.2804 33.3074 -2.5427 -4.9431
# 5 22.1450 -1.1253 -7.7062 -2.5427 15.9346 -15.6645
# 6 39.3117 5.8306 1.9016 -4.9431 -15.6645 26.3953
#
#
#
# Elastic Compliance Matrix: (Units=1/GPa)
#
#
# Indices 1 2 3 4 5 6 
#
# 1 -0.002027 -0.000245 0.001416 0.002816 0.017695 0.013999
# 2 -0.000245 0.009266 -0.003192 0.000840 -0.004051 -0.003698
# 3 0.001416 -0.003192 0.007889 -0.002481 -0.002807 -0.004102
# 4 0.002816 0.000840 -0.002481 0.032018 0.004372 0.004390
# 5 0.017695 -0.004051 -0.002807 0.004372 0.031671 -0.005643
# 6 0.013999 -0.003698 -0.004102 0.004390 -0.005643 0.015621
#
#
# Mechanical properties :
#
#
# Convention : Reuss Voigt Hill
#
# Bulk Modulus (GPa) = 90.21583 57.50658 73.86121
# Shear Modulus (GPa) = 48.93515 23.35504 36.14509
#
# Velocity S-wave (km/s) = 4.92462 3.40214 4.23240
# Velocity P-wave (km/s) = 8.77759 6.62816 7.77749
#
# Compressibility (1/GPa) = 0.01108453
#
# Stress axis : x y z
#
# Youngs Moduli (GPa) = -493.41473 107.92612 126.76359
#
# Poissons Ratio (x) = 0.02645 -0.17950
# Poissons Ratio (y) = -0.12093 0.40469
# Poissons Ratio (z) = 0.69868 0.34455
#
# Static dielectric constant tensor:
#      x y z
#    x 3.684990 0.079260 -0.094560 
#    y 0.079260 3.803620 0.173990 
#    z -0.094560 0.173990 3.603720 
# 
# 
# High freq. dielectric constant tensor:
#      x y z
#    x 1.785110 0.001800 -0.010700 
#    y 0.001800 1.798180 0.000940 
#    z -0.010700 0.000940 1.781720 
# 
# From -- ./inp_files/65569.got.cif
#   From: 2010.06.25/outbox.cif.g09.slc.cpg/sg2_33_cif.got.tgz:65569.got - 2010.06.27 13:26:56.
