data_PCOD8005328
_publ_section_title
;
Structure prediction by ZEFSAII (Michael W. Deem and Ramdas Pophale) SiO2 
 PCOD8005328
Probable space group: P -1
;
_chemical_formula_sum "Si O2"
_cell_formula_units_Z 16
_cell_length_a 11.677976
_cell_length_b 11.065870
_cell_length_c 8.844657
_cell_angle_alpha 127.903518
_cell_angle_beta 55.827743
_cell_angle_gamma 93.488874
_cell_volume 671.731257
_symmetry_space_group_name_H-M "P -1"
_symmetry_group_IT_number 2
_symmetry_cell_setting 'triclinic'
loop_
_space_group_symop_operation_xyz
x,y,z
-x,-y,-z
loop_
_atom_site_type_symbol
_atom_site_label
_atom_site_fract_x
_atom_site_fract_y
_atom_site_fract_z
Si Si1 0.289556 0.391374 0.190144
Si Si2 0.152383 0.183253 0.292277
Si Si3 0.591425 0.809755 0.354622
Si Si4 0.839911 0.211222 0.442209
Si Si5 0.161591 0.348617 0.713248
Si Si6 0.698139 0.146881 0.222553
Si Si7 0.590624 0.363143 0.958239
Si Si8 0.331476 0.565196 0.732776
O O1 0.166454 0.335846 0.310342
O O2 0.210461 0.593577 0.415636
O O3 0.331501 0.328200 0.938701
O O4 0.457433 0.317435 0.094659
O O5 0.139437 0.225432 0.511581
O O6 0.013313 0.139449 0.314499
O O7 0.298404 0.013752 0.997566
O O8 0.738596 0.780740 0.327891
O O9 0.473180 0.761787 0.505209
O O10 0.500000 0.000000 0.500000
O O11 0.821685 0.101451 0.232781
O O12 0.728036 0.203273 0.652974
O O13 0.255202 0.443949 0.642518
O O14 0.000000 0.500000 0.000000
O O15 0.750458 0.253045 0.148263
O O16 0.500000 0.500000 0.000000
O O17 0.672959 0.424326 0.073402
O O18 0.500000 0.500000 0.500000
#
# Coordination Sequence:
#
# PCOD8005328 Si02
#       8
#     2   2   2   2   2   2   2   2
#     4  11  22  40  74 102 132 191 248 294 348 435
#     4  12  26  45  66 105 145 187 233 302 374 430
#     4  12  25  47  74 109 150 192 239 305 373 432
#     4  11  23  44  69  99 141 187 247 294 358 431
#     4  12  27  50  76 108 147 190 244 304 367 435
#     4  12  26  45  69 105 146 190 242 303 366 432
#     4  10  20  38  67 100 130 173 238 296 347 415
#     4  12  23  43  73 104 140 190 246 299 351 434
#
# _framework density 23.819050000000001
#
# number of rings (size 3 to 8) (size 9 to 14) (size 15 to 20)
#    0.000    0.500    3.750    6.750    0.000    2.500 
#    2.250    1.250    0.000    0.000    0.000    0.000 
#    0.000    0.000    0.000    0.000    0.000    0.000 
#
# Total GULP energy -198251.393883 kJ/mol
# GULP energy per Si atom -12390.712118 kJ/mol
# Density = 2.376484 g / cm^3
# Si number density = 23.819050 Si / 1000 Ang^3
#
#
#
# Elastic Constant Matrix: (Units=GPa)
#
#
# Indices 1 2 3 4 5 6 
#
# 1 137.7614 10.2194 44.9157 -6.6922 11.2242 -9.6708
# 2 10.2194 67.1362 8.7225 2.3928 -2.6042 -7.5902
# 3 44.9157 8.7225 108.1607 -3.1255 25.3864 -10.1659
# 4 -6.6922 2.3928 -3.1255 27.9223 5.7273 1.3662
# 5 11.2242 -2.6042 25.3864 5.7273 51.1313 -4.8763
# 6 -9.6708 -7.5902 -10.1659 1.3662 -4.8763 30.5758
#
#
#
# Elastic Compliance Matrix: (Units=1/GPa)
#
#
# Indices 1 2 3 4 5 6 
#
# 1 0.008583 -0.000819 -0.003232 0.001784 -0.000398 0.001294
# 2 -0.000819 0.015756 -0.001157 -0.002303 0.002169 0.003716
# 3 -0.003232 -0.001157 0.012169 0.001709 -0.005411 0.001797
# 4 0.001784 -0.002303 0.001709 0.037920 -0.005801 -0.002059
# 5 -0.000398 0.002169 -0.005411 -0.005801 0.023339 0.002595
# 6 0.001294 0.003716 0.001797 -0.002059 0.002595 0.035141
#
#
# Mechanical properties :
#
#
# Convention : Reuss Voigt Hill
#
# Bulk Modulus (GPa) = 38.32411 48.97483 43.64947
# Shear Modulus (GPa) = 32.88974 38.53927 35.71451
#
# Velocity S-wave (km/s) = 3.71997 4.02680 3.87642
# Velocity P-wave (km/s) = 5.88009 6.49816 6.19683
#
# Compressibility (1/GPa) = 0.02609323
#
# Stress axis : x y z
#
# Youngs Moduli (GPa) = 116.50544 63.46590 82.17421
#
# Poissons Ratio (x) = 0.05200 0.26557
# Poissons Ratio (y) = 0.09547 0.09505
# Poissons Ratio (z) = 0.37652 0.07341
#
# Static dielectric constant tensor:
#      x y z
#    x 4.121960 0.938650 -0.719200 
#    y 0.938650 1.365420 0.827120 
#    z -0.719200 0.827120 3.654460 
# 
# 
# High freq. dielectric constant tensor:
#      x y z
#    x 1.950740 0.009630 0.009090 
#    y 0.009630 1.922720 -0.013350 
#    z 0.009090 -0.013350 1.953810 
# 
# From -- ./inp_files/263322.got.cif
#   From: 2010.06.25/outbox.cif.g09.slc.cpg/sg2_132_cif.got.tgz:263322.got - 2010.06.27 13:26:56.
