data_PCOD8005419
_publ_section_title
;
Structure prediction by ZEFSAII (Michael W. Deem and Ramdas Pophale) SiO2 
 PCOD8005419
Probable space group: P -1
;
_chemical_formula_sum "Si O2"
_cell_formula_units_Z 14
_cell_length_a 8.619378
_cell_length_b 8.203978
_cell_length_c 14.709459
_cell_angle_alpha 96.548000
_cell_angle_beta 49.881872
_cell_angle_gamma 69.876869
_cell_volume 660.202743
_symmetry_space_group_name_H-M "P -1"
_symmetry_group_IT_number 2
_symmetry_cell_setting 'triclinic'
loop_
_space_group_symop_operation_xyz
x,y,z
-x,-y,-z
loop_
_atom_site_type_symbol
_atom_site_label
_atom_site_fract_x
_atom_site_fract_y
_atom_site_fract_z
Si Si1 0.021377 0.219064 0.930444
Si Si2 0.239560 0.438223 0.825449
Si Si3 0.914406 0.910601 0.602014
Si Si4 0.564517 0.270002 0.861606
Si Si5 0.524274 0.820203 0.727984
Si Si6 0.413056 0.532012 0.432373
Si Si7 0.510218 0.327531 0.082531
O O1 0.086395 0.345668 0.847777
O O2 0.244821 0.998174 0.844707
O O3 0.928260 0.331114 0.070684
O O4 0.801979 0.218300 0.967752
O O5 0.370143 0.314220 0.860265
O O6 0.432649 0.400068 0.674687
O O7 0.707383 0.884187 0.635732
O O8 0.132058 0.703303 0.543606
O O9 0.808523 0.059287 0.736626
O O10 0.000000 0.000000 0.500000
O O11 0.624360 0.437217 0.845951
O O12 0.456191 0.267883 0.001413
O O13 0.552816 0.662293 0.635050
O O14 0.590290 0.735367 0.800427
O O15 0.500000 0.500000 0.500000
#
# Coordination Sequence:
#
# PCOD8005419 Si02
#       7
#     2   2   2   2   2   2   2
#     4  10  20  38  69  92 127 164 201 272 328 375
#     4  10  20  44  63  92 129 165 209 261 326 382
#     4  12  24  46  69  86 134 182 213 256 314 390
#     4  10  20  41  64  93 126 168 215 254 321 384
#     4  12  23  43  65  95 127 168 213 271 326 368
#     4  12  27  45  62  96 131 170 221 266 309 382
#     4  10  22  38  65 100 129 156 212 273 320 377
#
# _framework density 21.205606
#
# number of rings (size 3 to 8) (size 9 to 14) (size 15 to 20)
#    0.000    1.143    5.714    0.857    2.000    0.571 
#   12.857    1.429    0.000    0.000    0.000    0.000 
#    0.000    0.000    0.000    0.000    0.000    0.000 
#
# Total GULP energy -173576.401061 kJ/mol
# GULP energy per Si atom -12398.314361 kJ/mol
# Density = 2.115734 g / cm^3
# Si number density = 21.205606 Si / 1000 Ang^3
#
#
#
# Elastic Constant Matrix: (Units=GPa)
#
#
# Indices 1 2 3 4 5 6 
#
# 1 81.8690 38.3187 48.5532 -12.0793 7.6716 -5.0319
# 2 38.3187 90.7441 53.6396 15.4244 10.7927 -1.7026
# 3 48.5532 53.6396 119.2395 17.3232 7.7630 -1.3249
# 4 -12.0793 15.4244 17.3232 56.7523 -2.5008 -9.8341
# 5 7.6716 10.7927 7.7630 -2.5008 36.3960 -4.2060
# 6 -5.0319 -1.7026 -1.3249 -9.8341 -4.2060 28.9739
#
#
#
# Elastic Compliance Matrix: (Units=1/GPa)
#
#
# Indices 1 2 3 4 5 6 
#
# 1 0.021094 -0.006227 -0.007109 0.009442 0.000284 0.006218
# 2 -0.006227 0.017521 -0.004359 -0.005366 -0.003622 -0.002598
# 3 -0.007109 -0.004359 0.014011 -0.005113 -0.000862 -0.002711
# 4 0.009442 -0.005366 -0.005113 0.024525 0.003524 0.009926
# 5 0.000284 -0.003622 -0.000862 0.003524 0.029526 0.005279
# 6 0.006218 -0.002598 -0.002711 0.009926 0.005279 0.039453
#
#
# Mechanical properties :
#
#
# Convention : Reuss Voigt Hill
#
# Bulk Modulus (GPa) = 58.02380 63.65285 60.83832
# Shear Modulus (GPa) = 26.70005 34.51385 30.60695
#
# Velocity S-wave (km/s) = 3.55223 4.03871 3.80326
# Velocity P-wave (km/s) = 6.65179 7.19933 6.93097
#
# Compressibility (1/GPa) = 0.01723431
#
# Stress axis : x y z
#
# Youngs Moduli (GPa) = 47.40625 57.07548 71.37176
#
# Poissons Ratio (x) = 0.35542 0.50740
# Poissons Ratio (y) = 0.29521 0.31113
# Poissons Ratio (z) = 0.33702 0.24881
#
# Static dielectric constant tensor:
#      x y z
#    x 3.781900 0.044190 -0.099130 
#    y 0.044190 3.937410 0.133970 
#    z -0.099130 0.133970 4.102870 
# 
# 
# High freq. dielectric constant tensor:
#      x y z
#    x 1.814040 0.007470 -0.009410 
#    y 0.007470 1.836530 0.013320 
#    z -0.009410 0.013320 1.835080 
# 
# From -- ./inp_files/402645.got.cif
#   From: 2010.06.25/outbox.cif.g09.slc.cpg/sg2_202_cif.got.tgz:402645.got - 2010.06.27 13:26:56.
