data_PCOD8005811
_publ_section_title
;
Structure prediction by ZEFSAII (Michael W. Deem and Ramdas Pophale) SiO2 
 PCOD8005811
Probable space group: P -1
;
_chemical_formula_sum "Si O2"
_cell_formula_units_Z 14
_cell_length_a 7.966157
_cell_length_b 10.491952
_cell_length_c 17.681066
_cell_angle_alpha 52.800451
_cell_angle_beta 133.955326
_cell_angle_gamma 137.951835
_cell_volume 700.218004
_symmetry_space_group_name_H-M "P -1"
_symmetry_group_IT_number 2
_symmetry_cell_setting 'triclinic'
loop_
_space_group_symop_operation_xyz
x,y,z
-x,-y,-z
loop_
_atom_site_type_symbol
_atom_site_label
_atom_site_fract_x
_atom_site_fract_y
_atom_site_fract_z
Si Si1 0.019519 0.992855 0.130999
Si Si2 0.406603 0.904147 0.195952
Si Si3 0.860312 0.292987 0.494450
Si Si4 0.729340 0.937043 0.656558
Si Si5 0.985895 0.325950 0.967407
Si Si6 0.907322 0.918905 0.416834
Si Si7 0.611953 0.243701 0.024485
O O1 0.203068 0.920670 0.182228
O O2 0.689001 0.823541 0.080633
O O3 0.097689 0.053640 0.220550
O O4 0.091667 0.183749 0.039280
O O5 0.223826 0.715615 0.152705
O O6 0.597088 0.865550 0.321945
O O7 0.587613 0.095998 0.132345
O O8 0.597059 0.245671 0.376087
O O9 0.000000 0.500000 0.500000
O O10 0.081836 0.271450 0.522269
O O11 0.738123 0.135172 0.581293
O O12 0.877608 0.918144 0.635166
O O13 0.249771 0.546618 0.969286
O O14 0.814864 0.260411 0.015827
O O15 0.000000 0.000000 0.500000
#
# Coordination Sequence:
#
# PCOD8005811 Si02
#       7
#     2   2   2   2   2   2   2
#     4  11  21  36  61  86 119 159 191 238 294 352
#     4  11  22  36  57  86 122 154 193 241 296 346
#     4   9  20  39  61  83 114 154 198 242 291 350
#     4   9  20  38  62  83 117 152 198 241 294 349
#     4  10  21  38  59  86 116 154 198 245 283 352
#     4  10  20  39  63  84 119 154 196 246 296 345
#     4  10  21  38  60  84 118 155 199 239 295 341
#
# _framework density 19.993773999999998
#
# number of rings (size 3 to 8) (size 9 to 14) (size 15 to 20)
#    0.857    1.143    0.000    6.000    0.000    3.429 
#    5.143    2.143    0.000    0.000    0.000    0.000 
#    0.000    0.000    0.000    0.000    0.000    0.000 
#
# Total GULP energy -173534.316840 kJ/mol
# GULP energy per Si atom -12395.308346 kJ/mol
# Density = 1.994827 g / cm^3
# Si number density = 19.993774 Si / 1000 Ang^3
#
#
#
# Elastic Constant Matrix: (Units=GPa)
#
#
# Indices 1 2 3 4 5 6 
#
# 1 87.9742 37.9559 36.8320 11.0287 7.3862 -12.2163
# 2 37.9559 149.0225 59.5661 34.2563 8.8091 -17.4942
# 3 36.8320 59.5661 133.8663 39.6954 2.6901 -3.7688
# 4 11.0287 34.2563 39.6954 24.0583 -0.1885 -0.6385
# 5 7.3862 8.8091 2.6901 -0.1885 39.3729 1.8581
# 6 -12.2163 -17.4942 -3.7688 -0.6385 1.8581 26.3130
#
#
#
# Elastic Compliance Matrix: (Units=1/GPa)
#
#
# Indices 1 2 3 4 5 6 
#
# 1 0.014316 -0.002044 -0.003516 0.002264 -0.002213 0.004995
# 2 -0.002044 0.011772 0.000418 -0.016357 -0.002675 0.006729
# 3 -0.003516 0.000418 0.015607 -0.024730 -0.000634 0.000326
# 4 0.002264 -0.016357 -0.024730 0.104369 0.005955 -0.011254
# 5 -0.002213 -0.002675 -0.000634 0.005955 0.026702 -0.004638
# 6 0.004995 0.006729 0.000326 -0.011254 -0.004638 0.044898
#
#
# Mechanical properties :
#
#
# Convention : Reuss Voigt Hill
#
# Bulk Modulus (GPa) = 31.83618 71.06348 51.44983
# Shear Modulus (GPa) = 20.97143 33.71612 27.34378
#
# Velocity S-wave (km/s) = 3.24218 4.11095 3.70214
# Velocity P-wave (km/s) = 5.47479 7.62582 6.63801
#
# Compressibility (1/GPa) = 0.03141081
#
# Stress axis : x y z
#
# Youngs Moduli (GPa) = 69.84953 84.94592 64.07558
#
# Poissons Ratio (x) = 0.17366 0.22526
# Poissons Ratio (y) = 0.14280 -0.02676
# Poissons Ratio (z) = 0.24556 -0.03548
#
# Static dielectric constant tensor:
#      x y z
#    x 3.626200 -0.040960 0.135060 
#    y -0.040960 3.484890 0.222970 
#    z 0.135060 0.222970 3.660660 
# 
# 
# High freq. dielectric constant tensor:
#      x y z
#    x 1.782470 -0.008010 0.008090 
#    y -0.008010 1.757680 0.022290 
#    z 0.008090 0.022290 1.781490 
# 
# From -- ./inp_files/557943.got.cif
#   From: 2010.06.25/outbox.cif.g09.slc.cpg/sg2_279_cif.got.tgz:557943.got - 2010.06.27 13:26:56.
