data_PCOD8005244
_publ_section_title
;
Structure prediction by ZEFSAII (Michael W. Deem and Ramdas Pophale) SiO2 
 PCOD8005244
Probable space group: P -1
;
_chemical_formula_sum "Si O2"
_cell_formula_units_Z 16
_cell_length_a 11.997474
_cell_length_b 8.240557
_cell_length_c 9.198505
_cell_angle_alpha 130.276470
_cell_angle_beta 89.290917
_cell_angle_gamma 90.381039
_cell_volume 693.771730
_symmetry_space_group_name_H-M "P -1"
_symmetry_group_IT_number 2
_symmetry_cell_setting 'triclinic'
loop_
_space_group_symop_operation_xyz
x,y,z
-x,-y,-z
loop_
_atom_site_type_symbol
_atom_site_label
_atom_site_fract_x
_atom_site_fract_y
_atom_site_fract_z
Si Si1 0.687385 0.285075 0.645055
Si Si2 0.264535 0.180197 0.586134
Si Si3 0.149254 0.681584 0.597295
Si Si4 0.233992 0.934285 0.000460
Si Si5 0.471279 0.324739 0.518207
Si Si6 0.312660 0.285106 0.971343
Si Si7 0.907628 0.791516 0.626386
Si Si8 0.465768 0.909044 0.099675
O O1 0.749968 0.260469 0.476543
O O2 0.558922 0.347480 0.659152
O O3 0.693127 0.058293 0.592431
O O4 0.733162 0.478018 0.855012
O O5 0.346532 0.347914 0.599144
O O6 0.259577 0.222196 0.781679
O O7 0.141519 0.200439 0.531671
O O8 0.182369 0.741065 0.796511
O O9 0.123678 0.434319 0.434184
O O10 0.040674 0.818470 0.631309
O O11 0.271138 0.122653 0.001029
O O12 0.336462 0.840037 0.041889
O O13 0.141784 0.022868 0.164164
O O14 0.500000 0.500000 0.500000
O O15 0.483970 0.090767 0.321287
O O16 0.448988 0.278798 0.962609
O O17 0.500000 0.000000 0.000000
#
# Coordination Sequence:
#
# PCOD8005244 Si02
#       8
#     2   2   2   2   2   2   2   2
#     4  12  24  44  67  96 143 182 217 280 339 394
#     4  12  26  45  66 102 140 173 226 279 342 402
#     4  11  24  45  74  99 130 182 233 280 334 395
#     4  11  20  44  70  99 134 177 228 279 335 394
#     4  12  23  42  68  98 139 179 216 279 335 402
#     4  11  24  42  66 101 140 181 218 274 338 407
#     4  11  25  44  73 102 132 175 237 282 329 404
#     4  10  20  38  65  99 135 175 224 266 330 410
#
# _framework density 23.062339999999999
#
# number of rings (size 3 to 8) (size 9 to 14) (size 15 to 20)
#    0.000    0.750    5.000    3.750    0.000    3.000 
#    2.250    0.625    0.000    0.000    0.000    0.000 
#    0.000    0.000    0.000    0.000    0.000    0.000 
#
# Total GULP energy -198373.920288 kJ/mol
# GULP energy per Si atom -12398.370018 kJ/mol
# Density = 2.300985 g / cm^3
# Si number density = 23.062340 Si / 1000 Ang^3
#
#
#
# Elastic Constant Matrix: (Units=GPa)
#
#
# Indices 1 2 3 4 5 6 
#
# 1 74.6549 1.1042 31.6428 -2.1768 11.5823 -23.8854
# 2 1.1042 48.5660 10.4613 -7.2937 6.1261 -6.8910
# 3 31.6428 10.4613 133.6561 1.5578 0.6003 -10.5310
# 4 -2.1768 -7.2937 1.5578 30.2817 -1.7436 4.5961
# 5 11.5823 6.1261 0.6003 -1.7436 29.9901 -2.2164
# 6 -23.8854 -6.8910 -10.5310 4.5961 -2.2164 33.9179
#
#
#
# Elastic Compliance Matrix: (Units=1/GPa)
#
#
# Indices 1 2 3 4 5 6 
#
# 1 0.020485 0.003241 -0.004018 0.000002 -0.007506 0.013346
# 2 0.003241 0.023127 -0.002192 0.004808 -0.005260 0.005305
# 3 -0.004018 -0.002192 0.008582 -0.001106 0.001738 -0.000347
# 4 0.000002 0.004808 -0.001106 0.034896 0.000769 -0.004043
# 5 -0.007506 -0.005260 0.001738 0.000769 0.037069 -0.003497
# 6 0.013346 0.005305 -0.000347 -0.004043 -0.003497 0.040170
#
#
# Mechanical properties :
#
#
# Convention : Reuss Voigt Hill
#
# Bulk Modulus (GPa) = 21.61899 38.14371 29.88135
# Shear Modulus (GPa) = 26.92693 33.08254 30.00473
#
# Velocity S-wave (km/s) = 3.42068 3.79157 3.61089
# Velocity P-wave (km/s) = 4.99959 5.97857 5.51086
#
# Compressibility (1/GPa) = 0.04625564
#
# Stress axis : x y z
#
# Youngs Moduli (GPa) = 48.81718 43.23896 116.51655
#
# Poissons Ratio (x) = -0.14012 0.46818
# Poissons Ratio (y) = -0.15819 0.25538
# Poissons Ratio (z) = 0.19615 0.09477
#
# Static dielectric constant tensor:
#      x y z
#    x 4.365550 -0.289980 0.093470 
#    y -0.289980 4.112410 -0.028250 
#    z 0.093470 -0.028250 4.296270 
# 
# 
# High freq. dielectric constant tensor:
#      x y z
#    x 1.898360 -0.009230 0.001610 
#    y -0.009230 1.897370 0.000370 
#    z 0.001610 0.000370 1.926710 
# 
# From -- ./inp_files/246069.got.cif
#   From: 2010.06.25/outbox.cif.g09.slc.cpg/sg2_124_cif.got.tgz:246069.got - 2010.06.27 13:26:56.
