data_PCOD8005363
_publ_section_title
;
Structure prediction by ZEFSAII (Michael W. Deem and Ramdas Pophale) SiO2 
 PCOD8005363
Probable space group: P -1
;
_chemical_formula_sum "Si O2"
_cell_formula_units_Z 14
_cell_length_a 12.451762
_cell_length_b 9.677763
_cell_length_c 5.164726
_cell_angle_alpha 87.645059
_cell_angle_beta 98.708961
_cell_angle_gamma 77.419389
_cell_volume 598.657526
_symmetry_space_group_name_H-M "P -1"
_symmetry_group_IT_number 2
_symmetry_cell_setting 'triclinic'
loop_
_space_group_symop_operation_xyz
x,y,z
-x,-y,-z
loop_
_atom_site_type_symbol
_atom_site_label
_atom_site_fract_x
_atom_site_fract_y
_atom_site_fract_z
Si Si1 0.927158 0.488522 0.723679
Si Si2 0.126293 0.781915 0.067750
Si Si3 0.559639 0.622295 0.082999
Si Si4 0.343712 0.855984 0.062280
Si Si5 0.937242 0.930684 0.687209
Si Si6 0.699715 0.959024 0.465981
Si Si7 0.316559 0.337169 0.389598
O O1 0.885424 0.338841 0.721040
O O2 0.816827 0.613192 0.666183
O O3 0.000000 0.500000 0.500000
O O4 0.000000 0.500000 0.000000
O O5 0.252624 0.755975 0.000842
O O6 0.108132 0.946226 0.131510
O O7 0.023852 0.787902 0.828898
O O8 0.467007 0.765363 0.074968
O O9 0.629654 0.579920 0.377043
O O10 0.500000 0.500000 0.000000
O O11 0.642849 0.639611 0.883620
O O12 0.337848 0.917609 0.346049
O O13 0.326181 0.981072 0.835739
O O14 0.831462 0.885960 0.529297
O O15 0.000000 0.000000 0.500000
O O16 0.641656 0.829187 0.507389
#
# Coordination Sequence:
#
# PCOD8005363 Si02
#       7
#     2   2   2   2   2   2   2
#     4  12  28  45  69 102 142 186 227 280 348 425
#     4  10  23  39  64  97 134 176 232 278 340 406
#     4  12  27  48  73  98 137 186 239 286 347 409
#     4  11  24  43  70 100 131 181 233 290 335 414
#     4  10  20  38  67  96 133 179 217 285 339 409
#     4  11  24  41  69 103 139 173 232 281 358 408
#     4  12  27  47  71 102 142 183 226 297 346 410
#
# _framework density 23.385657999999999
#
# number of rings (size 3 to 8) (size 9 to 14) (size 15 to 20)
#    0.000    0.857    1.429    4.714    4.000    5.714 
#    0.000    0.000    0.000    0.000    0.000    0.000 
#    0.000    0.000    0.000    0.000    0.000    0.000 
#
# Total GULP energy -173561.886136 kJ/mol
# GULP energy per Si atom -12397.277581 kJ/mol
# Density = 2.333243 g / cm^3
# Si number density = 23.385658 Si / 1000 Ang^3
#
#
#
# Elastic Constant Matrix: (Units=GPa)
#
#
# Indices 1 2 3 4 5 6 
#
# 1 133.2091 28.3591 45.2220 1.2823 -5.4521 -21.1085
# 2 28.3591 72.1289 13.7563 -14.1920 -3.3288 8.2728
# 3 45.2220 13.7563 114.5144 -1.7736 -2.4699 -11.1799
# 4 1.2823 -14.1920 -1.7736 37.4760 6.8501 -2.2784
# 5 -5.4521 -3.3288 -2.4699 6.8501 52.1832 -2.7393
# 6 -21.1085 8.2728 -11.1799 -2.2784 -2.7393 33.2990
#
#
#
# Elastic Compliance Matrix: (Units=1/GPa)
#
#
# Indices 1 2 3 4 5 6 
#
# 1 0.010717 -0.004803 -0.002982 -0.002145 0.001319 0.006948
# 2 -0.004803 0.018052 -0.000909 0.006625 -0.000653 -0.007435
# 3 -0.002982 -0.000909 0.010203 0.000320 0.000166 0.001797
# 4 -0.002145 0.006625 0.000320 0.029900 -0.003772 -0.001163
# 5 0.001319 -0.000653 0.000166 -0.003772 0.019890 0.002432
# 6 0.006948 -0.007435 0.001797 -0.001163 0.002432 0.037006
#
#
# Mechanical properties :
#
#
# Convention : Reuss Voigt Hill
#
# Bulk Modulus (GPa) = 46.32985 54.94747 50.63866
# Shear Modulus (GPa) = 33.25529 40.09264 36.67397
#
# Velocity S-wave (km/s) = 3.77508 4.14504 3.96438
# Velocity P-wave (km/s) = 6.23345 6.81584 6.53114
#
# Compressibility (1/GPa) = 0.02158435
#
# Stress axis : x y z
#
# Youngs Moduli (GPa) = 93.30619 55.39516 98.00839
#
# Poissons Ratio (x) = 0.26608 0.29224
# Poissons Ratio (y) = 0.44817 0.08910
# Poissons Ratio (z) = 0.27822 0.05036
#
# Static dielectric constant tensor:
#      x y z
#    x 4.560650 0.192230 0.134290 
#    y 0.192230 3.651610 -0.103360 
#    z 0.134290 -0.103360 4.250390 
# 
# 
# High freq. dielectric constant tensor:
#      x y z
#    x 1.947520 0.002280 0.003410 
#    y 0.002280 1.917640 -0.010060 
#    z 0.003410 -0.010060 1.926990 
# 
# From -- ./inp_files/60463.got.cif
#   From: 2010.06.25/outbox.cif.g09.slc.cpg/sg2_31_cif.got.tgz:60463.got - 2010.06.27 13:26:56.
