data_PCOD8005420
_publ_section_title
;
Structure prediction by ZEFSAII (Michael W. Deem and Ramdas Pophale) SiO2 
 PCOD8005420
Probable space group: P -1
;
_chemical_formula_sum "Si O2"
_cell_formula_units_Z 16
_cell_length_a 16.971454
_cell_length_b 11.147041
_cell_length_c 22.862709
_cell_angle_alpha 30.731170
_cell_angle_beta 157.826878
_cell_angle_gamma 147.937298
_cell_volume 803.908977
_symmetry_space_group_name_H-M "P -1"
_symmetry_group_IT_number 2
_symmetry_cell_setting 'triclinic'
loop_
_space_group_symop_operation_xyz
x,y,z
-x,-y,-z
loop_
_atom_site_type_symbol
_atom_site_label
_atom_site_fract_x
_atom_site_fract_y
_atom_site_fract_z
Si Si1 0.237582 0.210813 0.921336
Si Si2 0.574425 0.028674 0.442313
Si Si3 0.095829 0.039999 0.463450
Si Si4 0.392005 0.718341 0.763254
Si Si5 0.684930 0.734629 0.364277
Si Si6 0.690421 0.615429 0.625519
Si Si7 0.214663 0.763992 0.385890
Si Si8 0.211660 0.698721 0.082690
O O1 0.340061 0.426049 0.855489
O O2 0.034433 0.271732 0.787915
O O3 0.401147 0.171151 0.100223
O O4 0.161887 0.959858 0.938552
O O5 0.559598 0.199855 0.305013
O O6 0.762310 0.164572 0.559311
O O7 0.612327 0.771926 0.556343
O O8 0.352878 0.974841 0.350021
O O9 0.192043 0.811445 0.611270
O O10 0.842825 0.947199 0.344958
O O11 0.242327 0.208349 0.542805
O O12 0.108322 0.207867 0.344530
O O13 0.715142 0.479687 0.472380
O O14 0.432019 0.724048 0.185790
O O15 0.500000 0.500000 0.500000
O O16 0.755315 0.387443 0.793044
O O17 0.000000 0.500000 0.000000
#
# Coordination Sequence:
#
# PCOD8005420 Si02
#       8
#     2   2   2   2   2   2   2   2
#     4  11  23  39  62  93 127 163 199 261 326 364
#     4  10  22  38  63  90 123 161 211 254 300 379
#     4  10  20  38  69  93 117 158 225 262 296 366
#     4  10  21  41  62  95 124 159 209 261 317 366
#     4  11  21  40  64  93 120 166 208 259 303 373
#     4  11  19  40  66  93 116 165 219 257 299 371
#     4  11  22  39  62  92 124 162 205 250 315 371
#     4  12  24  40  62  91 131 167 200 254 322 377
#
# _framework density 19.902750000000001
#
# number of rings (size 3 to 8) (size 9 to 14) (size 15 to 20)
#    0.000    1.250    5.000    1.500    1.750    1.000 
#    2.250    1.875    0.000    0.000    0.000    0.000 
#    0.000    0.000    0.000    0.000    0.000    0.000 
#
# Total GULP energy -198363.944083 kJ/mol
# GULP energy per Si atom -12397.746505 kJ/mol
# Density = 1.985745 g / cm^3
# Si number density = 19.902750 Si / 1000 Ang^3
#
#
#
# Elastic Constant Matrix: (Units=GPa)
#
#
# Indices 1 2 3 4 5 6 
#
# 1 103.9668 39.7753 30.5495 0.6260 -2.3535 4.0749
# 2 39.7753 117.9829 33.9053 -1.2870 2.3677 -8.7272
# 3 30.5495 33.9053 62.1174 4.0876 8.1912 7.0027
# 4 0.6260 -1.2870 4.0876 39.0429 7.1555 9.7173
# 5 -2.3535 2.3677 8.1912 7.1555 32.3618 1.6288
# 6 4.0749 -8.7272 7.0027 9.7173 1.6288 34.3170
#
#
#
# Elastic Compliance Matrix: (Units=1/GPa)
#
#
# Indices 1 2 3 4 5 6 
#
# 1 0.012188 -0.002956 -0.004531 0.000113 0.002296 -0.001415
# 2 -0.002956 0.011280 -0.005192 -0.000126 0.000085 0.004311
# 3 -0.004531 -0.005192 0.022447 -0.000215 -0.005330 -0.005049
# 4 0.000113 -0.000126 -0.000215 0.028656 -0.005870 -0.007837
# 5 0.002296 0.000085 -0.005330 -0.005870 0.033663 0.000901
# 6 -0.001415 0.004311 -0.005049 -0.007837 0.000901 0.033611
#
#
# Mechanical properties :
#
#
# Convention : Reuss Voigt Hill
#
# Bulk Modulus (GPa) = 48.64658 54.72527 51.68592
# Shear Modulus (GPa) = 28.72652 33.13346 30.92999
#
# Velocity S-wave (km/s) = 3.80326 4.08458 3.94643
# Velocity P-wave (km/s) = 6.61676 7.05699 6.84042
#
# Compressibility (1/GPa) = 0.02055643
#
# Stress axis : x y z
#
# Youngs Moduli (GPa) = 82.05092 88.65021 44.54948
#
# Poissons Ratio (x) = 0.26207 0.20185
# Poissons Ratio (y) = 0.24256 0.23130
# Poissons Ratio (z) = 0.37176 0.46028
#
# Static dielectric constant tensor:
#      x y z
#    x 3.810100 0.167100 0.078390 
#    y 0.167100 3.795460 0.117520 
#    z 0.078390 0.117520 3.288700 
# 
# 
# High freq. dielectric constant tensor:
#      x y z
#    x 1.770560 0.008780 0.006100 
#    y 0.008780 1.799220 0.000020 
#    z 0.006100 0.000020 1.757210 
# 
# From -- ./inp_files/436324.got.cif
#   From: 2010.06.25/outbox.cif.g09.slc.cpg/sg2_219_cif.got.tgz:436324.got - 2010.06.27 13:26:56.
