data_PCOD8005067
_publ_section_title
;
Structure prediction by ZEFSAII (Michael W. Deem and Ramdas Pophale) SiO2 
 PCOD8005067
Probable space group: P -1
;
_chemical_formula_sum "Si O2"
_cell_formula_units_Z 16
_cell_length_a 13.590515
_cell_length_b 16.128688
_cell_length_c 7.611915
_cell_angle_alpha 115.982627
_cell_angle_beta 84.325793
_cell_angle_gamma 148.486934
_cell_volume 636.131125
_symmetry_space_group_name_H-M "P -1"
_symmetry_group_IT_number 2
_symmetry_cell_setting 'triclinic'
loop_
_space_group_symop_operation_xyz
x,y,z
-x,-y,-z
loop_
_atom_site_type_symbol
_atom_site_label
_atom_site_fract_x
_atom_site_fract_y
_atom_site_fract_z
Si Si1 0.441081 0.909111 0.693943
Si Si2 0.975762 0.074152 0.773697
Si Si3 0.172758 0.814027 0.865621
Si Si4 0.912709 0.070583 0.173171
Si Si5 0.396215 0.312414 0.916005
Si Si6 0.668679 0.655085 0.453409
Si Si7 0.811250 0.562781 0.959644
Si Si8 0.258158 0.685478 0.153017
O O1 0.355618 0.782843 0.422745
O O2 0.618138 0.993621 0.850950
O O3 0.575603 0.119118 0.825542
O O4 0.219148 0.755513 0.705702
O O5 0.164164 0.162900 0.737303
O O6 0.999991 0.197104 0.796117
O O7 0.728066 0.814433 0.557912
O O8 0.020981 0.123618 0.021178
O O9 0.920407 0.600915 0.808057
O O10 0.163118 0.887323 0.792033
O O11 0.678437 0.820527 0.039632
O O12 0.103351 0.214577 0.425358
O O13 0.550583 0.523286 0.171548
O O14 0.561746 0.401874 0.824450
O O15 0.500000 0.500000 0.500000
O O16 0.758612 0.439014 0.998913
O O17 0.000000 0.500000 0.000000
#
# Coordination Sequence:
#
# PCOD8005067 Si02
#       8
#     2   2   2   2   2   2   2   2
#     4  10  23  46  74  90 135 173 217 280 337 390
#     4  10  21  40  60  88 131 168 219 275 312 390
#     4  10  22  45  64 102 130 172 222 276 324 395
#     4  10  20  38  64  91 132 163 224 270 318 398
#     4  11  21  39  62  90 129 181 211 268 334 381
#     4  11  19  37  64  90 123 179 220 265 327 382
#     4  11  24  41  61  95 135 166 220 274 324 397
#     4  11  23  46  70  98 130 172 215 273 342 403
#
# _framework density 25.152047
#
# number of rings (size 3 to 8) (size 9 to 14) (size 15 to 20)
#    0.000    1.500    3.750    1.875    0.000    2.000 
#   13.500    0.000    0.000    0.000    0.000    0.000 
#    0.000    0.000    0.000    0.000    0.000    0.000 
#
# Total GULP energy -198209.235849 kJ/mol
# GULP energy per Si atom -12388.077241 kJ/mol
# Density = 2.509480 g / cm^3
# Si number density = 25.152047 Si / 1000 Ang^3
#
#
#
# Elastic Constant Matrix: (Units=GPa)
#
#
# Indices 1 2 3 4 5 6 
#
# 1 137.4819 43.1860 32.5611 20.2738 -2.0777 -7.5355
# 2 43.1860 118.7067 16.7483 23.9186 -17.6380 10.4704
# 3 32.5611 16.7483 101.3903 9.5987 17.2915 -10.6476
# 4 20.2738 23.9186 9.5987 39.3346 -10.0273 -15.2062
# 5 -2.0777 -17.6380 17.2915 -10.0273 28.2914 6.0506
# 6 -7.5355 10.4704 -10.6476 -15.2062 6.0506 65.4534
#
#
#
# Elastic Compliance Matrix: (Units=1/GPa)
#
#
# Indices 1 2 3 4 5 6 
#
# 1 0.008970 -0.002652 -0.002010 -0.002477 -0.000778 0.000626
# 2 -0.002652 0.012478 -0.002626 -0.005284 0.008327 -0.004726
# 3 -0.002010 -0.002626 0.013434 -0.002466 -0.011482 0.002863
# 4 -0.002477 -0.005284 -0.002466 0.035780 0.009080 0.007632
# 5 -0.000778 0.008327 -0.011482 0.009080 0.051997 -0.005987
# 6 0.000626 -0.004726 0.002863 0.007632 -0.005987 0.018898
#
#
# Mechanical properties :
#
#
# Convention : Reuss Voigt Hill
#
# Bulk Modulus (GPa) = 49.24134 60.28554 54.76344
# Shear Modulus (GPa) = 30.69320 44.28813 37.49066
#
# Velocity S-wave (km/s) = 3.49708 4.20076 3.86497
# Velocity P-wave (km/s) = 5.99383 6.89558 6.46046
#
# Compressibility (1/GPa) = 0.02030814
#
# Stress axis : x y z
#
# Youngs Moduli (GPa) = 111.47679 80.13933 74.43594
#
# Poissons Ratio (x) = 0.21251 0.14961
# Poissons Ratio (y) = 0.29560 0.19546
# Poissons Ratio (z) = 0.22406 0.21044
#
# Static dielectric constant tensor:
#      x y z
#    x 4.774120 -0.296880 -0.210850 
#    y -0.296880 5.223370 0.305860 
#    z -0.210850 0.305860 4.328050 
# 
# 
# High freq. dielectric constant tensor:
#      x y z
#    x 2.004710 -0.007660 -0.001290 
#    y -0.007660 2.037140 0.013270 
#    z -0.001290 0.013270 1.970500 
# 
# From -- ./inp_files/317797.got.cif
#   From: 2010.06.25/outbox.cif.g09.slc.cpg/sg2_159_cif.got.tgz:317797.got - 2010.06.27 13:26:56.
