data_PCOD8005898
_publ_section_title
;
Structure prediction by ZEFSAII (Michael W. Deem and Ramdas Pophale) SiO2 
 PCOD8005898
Probable space group: P -1
;
_chemical_formula_sum "Si O2"
_cell_formula_units_Z 16
_cell_length_a 17.400215
_cell_length_b 8.830787
_cell_length_c 8.845929
_cell_angle_alpha 86.755260
_cell_angle_beta 33.063633
_cell_angle_gamma 88.060553
_cell_volume 740.143643
_symmetry_space_group_name_H-M "P -1"
_symmetry_group_IT_number 2
_symmetry_cell_setting 'triclinic'
loop_
_space_group_symop_operation_xyz
x,y,z
-x,-y,-z
loop_
_atom_site_type_symbol
_atom_site_label
_atom_site_fract_x
_atom_site_fract_y
_atom_site_fract_z
Si Si1 0.702357 0.415067 0.205165
Si Si2 0.838011 0.882384 0.855162
Si Si3 0.767045 0.305423 0.598042
Si Si4 0.540031 0.674573 0.932802
Si Si5 0.589445 0.677204 0.192870
Si Si6 0.216341 0.400148 0.646592
Si Si7 0.012354 0.144328 0.075475
Si Si8 0.116698 0.777152 0.283765
O O1 0.644468 0.510060 0.152861
O O2 0.574088 0.310943 0.489031
O O3 0.760064 0.531951 0.229448
O O4 0.829825 0.306075 0.951767
O O5 0.946000 0.786531 0.576679
O O6 0.821176 0.051991 0.811824
O O7 0.684486 0.803346 0.114239
O O8 0.894239 0.893445 0.931691
O O9 0.795644 0.467843 0.464052
O O10 0.822160 0.323230 0.676411
O O11 0.605761 0.240903 0.862226
O O12 0.852819 0.177207 0.379360
O O13 0.654453 0.707774 0.610392
O O14 0.500000 0.500000 0.000000
O O15 0.603921 0.711480 0.989550
O O16 0.076929 0.293798 0.877915
O O17 0.000000 0.000000 0.000000
#
# Coordination Sequence:
#
# PCOD8005898 Si02
#       8
#     2   2   2   2   2   2   2   2
#     4  11  22  38  67  99 125 165 219 266 317 369
#     4  10  24  46  63  93 132 171 220 250 330 379
#     4  10  22  43  64  97 128 164 217 261 318 381
#     4  10  20  39  63  93 132 164 204 263 321 372
#     4  11  22  40  67  95 132 167 210 270 313 381
#     4  11  22  42  66  99 127 162 219 265 318 381
#     4  11  25  44  67  93 132 170 210 270 319 381
#     4  10  24  43  65  90 135 173 210 267 308 389
#
# _framework density 21.617424
#
# number of rings (size 3 to 8) (size 9 to 14) (size 15 to 20)
#    0.000    1.500    3.750    1.875    3.500    4.000 
#    4.500    2.500    0.000    0.000    0.000    0.000 
#    0.000    0.000    0.000    0.000    0.000    0.000 
#
# Total GULP energy -198379.879444 kJ/mol
# GULP energy per Si atom -12398.742465 kJ/mol
# Density = 2.156822 g / cm^3
# Si number density = 21.617424 Si / 1000 Ang^3
#
#
#
# Elastic Constant Matrix: (Units=GPa)
#
#
# Indices 1 2 3 4 5 6 
#
# 1 85.9646 45.6664 55.2262 14.4687 -3.2968 11.7677
# 2 45.6664 75.0764 45.5429 7.5618 0.6972 14.3284
# 3 55.2262 45.5429 112.6901 25.8708 10.8399 24.9469
# 4 14.4687 7.5618 25.8708 31.4916 4.6668 2.0232
# 5 -3.2968 0.6972 10.8399 4.6668 28.5337 -3.8074
# 6 11.7677 14.3284 24.9469 2.0232 -3.8074 35.3463
#
#
#
# Elastic Compliance Matrix: (Units=1/GPa)
#
#
# Indices 1 2 3 4 5 6 
#
# 1 0.021481 -0.008766 -0.007551 -0.002666 0.006343 0.002567
# 2 -0.008766 0.021572 -0.004295 0.002682 -0.000751 -0.003029
# 3 -0.007551 -0.004295 0.019455 -0.009687 -0.007878 -0.009770
# 4 -0.002666 0.002682 -0.009687 0.040445 -0.002772 0.004023
# 5 0.006343 -0.000751 -0.007878 -0.002772 0.040345 0.008257
# 6 0.002567 -0.003029 -0.009770 0.004023 0.008257 0.036219
#
#
# Mechanical properties :
#
#
# Convention : Reuss Voigt Hill
#
# Bulk Modulus (GPa) = 46.98399 62.95579 54.96989
# Shear Modulus (GPa) = 21.94558 27.56070 24.75314
#
# Velocity S-wave (km/s) = 3.18965 3.57449 3.38754
# Velocity P-wave (km/s) = 5.94530 6.79867 6.38626
#
# Compressibility (1/GPa) = 0.02128384
#
# Stress axis : x y z
#
# Youngs Moduli (GPa) = 46.55321 46.35569 51.40174
#
# Poissons Ratio (x) = 0.40635 0.38813
# Poissons Ratio (y) = 0.40808 0.22078
# Poissons Ratio (z) = 0.35152 0.19911
#
# Static dielectric constant tensor:
#      x y z
#    x 3.609540 -0.227730 -0.143750 
#    y -0.227730 3.627060 0.227380 
#    z -0.143750 0.227380 5.061670 
# 
# 
# High freq. dielectric constant tensor:
#      x y z
#    x 1.846740 -0.005940 0.002590 
#    y -0.005940 1.821410 0.004550 
#    z 0.002590 0.004550 1.866130 
# 
# From -- ./inp_files/328981.got.cif
#   From: 2010.06.25/outbox.cif.g09.slc.cpg/sg2_165_cif.got.tgz:328981.got - 2010.06.27 13:26:56.
