data_PCOD8005718
_publ_section_title
;
Structure prediction by ZEFSAII (Michael W. Deem and Ramdas Pophale) SiO2 
 PCOD8005718
Probable space group: P -1
;
_chemical_formula_sum "Si O2"
_cell_formula_units_Z 10
_cell_length_a 14.815759
_cell_length_b 11.882273
_cell_length_c 14.446663
_cell_angle_alpha 148.469435
_cell_angle_beta 19.047630
_cell_angle_gamma 149.660278
_cell_volume 408.810324
_symmetry_space_group_name_H-M "P -1"
_symmetry_group_IT_number 2
_symmetry_cell_setting 'triclinic'
loop_
_space_group_symop_operation_xyz
x,y,z
-x,-y,-z
loop_
_atom_site_type_symbol
_atom_site_label
_atom_site_fract_x
_atom_site_fract_y
_atom_site_fract_z
Si Si1 0.194544 0.227041 0.651493
Si Si2 0.703284 0.871637 0.118141
Si Si3 0.780741 0.362261 0.442165
Si Si4 0.130128 0.790333 0.507825
Si Si5 0.176673 0.526478 0.725255
O O1 0.098528 0.277308 0.676104
O O2 0.544885 0.303528 0.371546
O O3 0.065287 0.959394 0.613857
O O4 0.085965 0.372578 0.934859
O O5 0.533660 0.702717 0.246694
O O6 0.471178 0.875096 0.265026
O O7 0.859543 0.130378 0.186636
O O8 0.949672 0.784827 0.773616
O O9 0.032519 0.537686 0.383020
O O10 0.758079 0.486997 0.455664
#
# Coordination Sequence:
#
# PCOD8005718 Si02
#       5
#     2   2   2   2   2
#     4  10  20  39  62  86 124 155 201 257 300 353
#     4  11  26  42  60  95 129 159 203 258 301 363
#     4  11  24  41  67  90 125 167 205 246 312 367
#     4  12  23  42  65  92 125 162 205 255 303 363
#     4  10  21  39  61  88 120 162 198 251 308 355
#
# _framework density 24.461221999999999
#
# number of rings (size 3 to 8) (size 9 to 14) (size 15 to 20)
#    0.000    1.200    4.000    1.200    0.000    8.800 
#    0.000    0.000    0.000    9.600    0.000    0.000 
#    0.000    0.000    0.000    0.000    0.000    0.000 
#
# Total GULP energy -124024.085024 kJ/mol
# GULP energy per Si atom -12402.408502 kJ/mol
# Density = 2.440555 g / cm^3
# Si number density = 24.461222 Si / 1000 Ang^3
#
#
#
# Elastic Constant Matrix: (Units=GPa)
#
#
# Indices 1 2 3 4 5 6 
#
# 1 126.5361 64.8678 7.8552 19.1128 20.0102 -21.0054
# 2 64.8678 137.0676 28.0889 21.2580 12.7439 -7.5512
# 3 7.8552 28.0889 57.1565 1.0438 -7.0440 4.0875
# 4 19.1128 21.2580 1.0438 26.7698 -3.9253 6.3088
# 5 20.0102 12.7439 -7.0440 -3.9253 22.1865 -3.9989
# 6 -21.0054 -7.5512 4.0875 6.3088 -3.9989 56.6719
#
#
#
# Elastic Compliance Matrix: (Units=1/GPa)
#
#
# Indices 1 2 3 4 5 6 
#
# 1 0.014085 -0.003149 -0.002109 -0.010540 -0.012484 0.005246
# 2 -0.003149 0.012212 -0.006432 -0.008617 -0.007497 0.001354
# 3 -0.002109 -0.006432 0.022716 0.008508 0.013728 -0.003256
# 4 -0.010540 -0.008617 0.008508 0.057551 0.025487 -0.010277
# 5 -0.012484 -0.007497 0.013728 0.025487 0.068675 -0.004607
# 6 0.005246 0.001354 -0.003256 -0.010277 -0.004607 0.020824
#
#
# Mechanical properties :
#
#
# Convention : Reuss Voigt Hill
#
# Bulk Modulus (GPa) = 39.01366 58.04266 48.52816
# Shear Modulus (GPa) = 21.93091 35.78886 28.85989
#
# Velocity S-wave (km/s) = 2.99751 3.82918 3.43858
# Velocity P-wave (km/s) = 5.28809 6.58256 5.97051
#
# Compressibility (1/GPa) = 0.02563205
#
# Stress axis : x y z
#
# Youngs Moduli (GPa) = 70.99603 81.88482 44.02194
#
# Poissons Ratio (x) = 0.25788 0.09285
# Poissons Ratio (y) = 0.22359 0.28316
# Poissons Ratio (z) = 0.14975 0.52670
#
# Static dielectric constant tensor:
#      x y z
#    x 4.602640 -0.433840 0.012960 
#    y -0.433840 4.437470 -0.110700 
#    z 0.012960 -0.110700 4.134040 
# 
# 
# High freq. dielectric constant tensor:
#      x y z
#    x 1.978150 -0.031090 -0.010270 
#    y -0.031090 1.965660 -0.009130 
#    z -0.010270 -0.009130 1.969040 
# 
# From -- ./inp_files/9124.got.cif
#   From: 2010.06.25/outbox.cif.g09.slc.cpg/sg2_5_cif.got.tgz:9124.got - 2010.06.27 13:26:56.
