data_PCOD8005465
_publ_section_title
;
Structure prediction by ZEFSAII (Michael W. Deem and Ramdas Pophale) SiO2 
 PCOD8005465
Probable space group: P -1
;
_chemical_formula_sum "Si O2"
_cell_formula_units_Z 16
_cell_length_a 12.833760
_cell_length_b 14.123106
_cell_length_c 10.650443
_cell_angle_alpha 147.750327
_cell_angle_beta 124.035577
_cell_angle_gamma 75.477525
_cell_volume 737.578438
_symmetry_space_group_name_H-M "P -1"
_symmetry_group_IT_number 2
_symmetry_cell_setting 'triclinic'
loop_
_space_group_symop_operation_xyz
x,y,z
-x,-y,-z
loop_
_atom_site_type_symbol
_atom_site_label
_atom_site_fract_x
_atom_site_fract_y
_atom_site_fract_z
Si Si1 0.576295 0.886147 0.581171
Si Si2 0.306705 0.635325 0.279946
Si Si3 0.910415 0.114216 0.064253
Si Si4 0.134843 0.924564 0.276755
Si Si5 0.537751 0.823442 0.211008
Si Si6 0.612922 0.639051 0.835873
Si Si7 0.833471 0.107499 0.470693
Si Si8 0.940253 0.725118 0.412776
O O1 0.471006 0.748745 0.466521
O O2 0.520634 0.751307 0.263669
O O3 0.575113 0.099771 0.808763
O O4 0.741557 0.949689 0.794315
O O5 0.295021 0.468683 0.185528
O O6 0.270886 0.795879 0.500806
O O7 0.184988 0.510957 0.952095
O O8 0.978542 0.277058 0.406105
O O9 0.929022 0.215883 0.050135
O O10 0.000000 0.000000 0.000000
O O11 0.067755 0.831611 0.264340
O O12 0.300646 0.977965 0.470312
O O13 0.133032 0.132682 0.476662
O O14 0.522385 0.651512 0.909044
O O15 0.500000 0.500000 0.500000
O O16 0.728920 0.862673 0.111988
O O17 0.944287 0.197074 0.533283
#
# Coordination Sequence:
#
# PCOD8005465 Si02
#       8
#     2   2   2   2   2   2   2   2
#     4  10  20  38  74  92 128 177 215 273 340 382
#     4  12  24  41  69  98 129 179 226 268 333 404
#     4   9  21  39  64  99 132 168 218 277 332 393
#     4   9  17  40  65  87 129 172 219 271 327 384
#     4   9  18  41  64  95 127 171 217 274 330 393
#     4  11  25  42  62  98 136 167 226 278 328 395
#     4  11  23  43  67  92 136 180 219 277 331 393
#     4  11  22  40  65  97 135 179 223 266 335 403
#
# _framework density 21.692608
#
# number of rings (size 3 to 8) (size 9 to 14) (size 15 to 20)
#    0.000    1.750    5.000    0.750    1.750    2.000 
#    0.000    0.625    0.000    0.000    0.000    0.000 
#    0.000    0.000    0.000    0.000    0.000    0.000 
#
# Total GULP energy -198260.210434 kJ/mol
# GULP energy per Si atom -12391.263152 kJ/mol
# Density = 2.164323 g / cm^3
# Si number density = 21.692608 Si / 1000 Ang^3
#
#
#
# Elastic Constant Matrix: (Units=GPa)
#
#
# Indices 1 2 3 4 5 6 
#
# 1 95.8645 32.3641 36.7328 -10.0508 7.7136 -11.0912
# 2 32.3641 82.9305 56.3157 -19.9590 -11.2286 -8.1708
# 3 36.7328 56.3157 101.0689 -22.3746 1.2226 0.0160
# 4 -10.0508 -19.9590 -22.3746 41.0613 3.6421 -8.5177
# 5 7.7136 -11.2286 1.2226 3.6421 29.7533 -8.0051
# 6 -11.0912 -8.1708 0.0160 -8.5177 -8.0051 30.8136
#
#
#
# Elastic Compliance Matrix: (Units=1/GPa)
#
#
# Indices 1 2 3 4 5 6 
#
# 1 0.013405 -0.003288 -0.002723 0.001225 -0.003869 0.003288
# 2 -0.003288 0.025863 -0.011979 0.006318 0.013256 0.010871
# 3 -0.002723 -0.011979 0.018302 0.003010 -0.006271 -0.004963
# 4 0.001225 0.006318 0.003010 0.031577 0.001070 0.011121
# 5 -0.003869 0.013256 -0.006271 0.001070 0.043430 0.013704
# 6 0.003288 0.010871 -0.004963 0.011121 0.013704 0.043156
#
#
# Mechanical properties :
#
#
# Convention : Reuss Voigt Hill
#
# Bulk Modulus (GPa) = 46.31738 58.96547 52.64143
# Shear Modulus (GPa) = 22.84073 30.62238 26.73156
#
# Velocity S-wave (km/s) = 3.24840 3.76127 3.51421
# Velocity P-wave (km/s) = 5.95546 6.79001 6.38638
#
# Compressibility (1/GPa) = 0.02159017
#
# Stress axis : x y z
#
# Youngs Moduli (GPa) = 74.60091 38.66588 54.64016
#
# Poissons Ratio (x) = 0.12712 0.14876
# Poissons Ratio (y) = 0.24526 0.65454
# Poissons Ratio (z) = 0.20310 0.46318
#
# Static dielectric constant tensor:
#      x y z
#    x 4.211120 0.129910 -0.305550 
#    y 0.129910 4.146860 -0.445320 
#    z -0.305550 -0.445320 3.871620 
# 
# 
# High freq. dielectric constant tensor:
#      x y z
#    x 1.865510 -0.004530 -0.013090 
#    y -0.004530 1.851320 -0.016520 
#    z -0.013090 -0.016520 1.818070 
# 
# From -- ./inp_files/455278.got.cif
#   From: 2010.06.25/outbox.cif.g09.slc.cpg/sg2_228_cif.got.tgz:455278.got - 2010.06.27 13:26:56.
