data_PCOD8005888
_publ_section_title
;
Structure prediction by ZEFSAII (Michael W. Deem and Ramdas Pophale) SiO2 
 PCOD8005888
Probable space group: P -1
;
_chemical_formula_sum "Si O2"
_cell_formula_units_Z 14
_cell_length_a 7.022842
_cell_length_b 13.009206
_cell_length_c 15.481508
_cell_angle_alpha 58.645616
_cell_angle_beta 85.078988
_cell_angle_gamma 42.393998
_cell_volume 696.383651
_symmetry_space_group_name_H-M "P -1"
_symmetry_group_IT_number 2
_symmetry_cell_setting 'triclinic'
loop_
_space_group_symop_operation_xyz
x,y,z
-x,-y,-z
loop_
_atom_site_type_symbol
_atom_site_label
_atom_site_fract_x
_atom_site_fract_y
_atom_site_fract_z
Si Si1 0.748997 0.953730 0.260608
Si Si2 0.462540 0.540042 0.847581
Si Si3 0.744968 0.905504 0.662273
Si Si4 0.233563 0.554275 0.294623
Si Si5 0.354554 0.380066 0.042512
Si Si6 0.770789 0.331924 0.494117
Si Si7 0.206588 0.296196 0.403132
O O1 0.973785 0.763290 0.269095
O O2 0.944053 0.888672 0.370400
O O3 0.438827 0.030795 0.268167
O O4 0.635058 0.133831 0.140263
O O5 0.711521 0.406396 0.815376
O O6 0.624690 0.547199 0.906095
O O7 0.103641 0.773278 0.730011
O O8 0.421027 0.426575 0.935300
O O9 0.767637 0.771130 0.664361
O O10 0.552412 0.103381 0.525795
O O11 0.592440 0.353461 0.414190
O O12 0.099184 0.489376 0.313291
O O13 0.000000 0.500000 0.000000
O O14 0.500000 0.500000 0.500000
O O15 0.918495 0.380179 0.431356
#
# Coordination Sequence:
#
# PCOD8005888 Si02
#       7
#     2   2   2   2   2   2   2
#     4  10  22  41  62  92 129 162 201 257 314 359
#     4  11  24  41  67  91 116 166 218 251 309 365
#     4  10  20  39  63  93 125 164 208 245 306 376
#     4  11  23  39  64  96 127 163 200 250 318 375
#     4  11  24  45  67  86 121 163 214 271 300 356
#     4   9  20  37  58  95 129 158 198 242 307 380
#     4  10  21  37  61  94 134 162 197 254 304 370
#
# _framework density 20.103860999999998
#
# number of rings (size 3 to 8) (size 9 to 14) (size 15 to 20)
#    0.000    1.714    2.857    0.857    2.000    6.286 
#    2.571    0.714    0.000    0.000    0.000    0.000 
#    0.000    0.000    0.000    0.000    0.000    0.000 
#
# Total GULP energy -173566.184021 kJ/mol
# GULP energy per Si atom -12397.584573 kJ/mol
# Density = 2.005810 g / cm^3
# Si number density = 20.103861 Si / 1000 Ang^3
#
#
#
# Elastic Constant Matrix: (Units=GPa)
#
#
# Indices 1 2 3 4 5 6 
#
# 1 115.3790 56.2916 55.6113 1.6356 -8.2052 -6.8588
# 2 56.2916 115.2362 56.7833 12.5410 -17.6890 -10.9922
# 3 55.6113 56.7833 89.9864 5.7676 -9.7988 -3.9261
# 4 1.6356 12.5410 5.7676 32.5423 0.0531 -6.4117
# 5 -8.2052 -17.6890 -9.7988 0.0531 30.8329 -1.6624
# 6 -6.8588 -10.9922 -3.9261 -6.4117 -1.6624 31.8293
#
#
#
# Elastic Compliance Matrix: (Units=1/GPa)
#
#
# Indices 1 2 3 4 5 6 
#
# 1 0.013432 -0.003750 -0.006062 0.002091 -0.000440 0.001250
# 2 -0.003750 0.015241 -0.006261 -0.003955 0.005935 0.003196
# 3 -0.006062 -0.006261 0.018890 -0.000884 0.000731 -0.001278
# 4 0.002091 -0.003955 -0.000884 0.033414 -0.001748 0.005615
# 5 -0.000440 0.005935 0.000731 -0.001748 0.036149 0.003581
# 6 0.001250 0.003196 -0.001278 0.005615 0.003581 0.033951
#
#
# Mechanical properties :
#
#
# Convention : Reuss Voigt Hill
#
# Bulk Modulus (GPa) = 64.85982 73.10822 68.98402
# Shear Modulus (GPa) = 26.54456 29.16859 27.85658
#
# Velocity S-wave (km/s) = 3.63763 3.81319 3.72645
# Velocity P-wave (km/s) = 7.06934 7.47205 7.27348
#
# Compressibility (1/GPa) = 0.01541787
#
# Stress axis : x y z
#
# Youngs Moduli (GPa) = 74.44993 65.61180 52.93814
#
# Poissons Ratio (x) = 0.24606 0.32090
# Poissons Ratio (y) = 0.27920 0.33142
# Poissons Ratio (z) = 0.45130 0.41077
#
# Static dielectric constant tensor:
#      x y z
#    x 3.722590 -0.206760 0.284900 
#    y -0.206760 3.551610 0.108140 
#    z 0.284900 0.108140 4.145300 
# 
# 
# High freq. dielectric constant tensor:
#      x y z
#    x 1.783800 -0.017030 0.002480 
#    y -0.017030 1.775190 0.012460 
#    z 0.002480 0.012460 1.787710 
# 
# From -- ./inp_files/61090.got.cif
#   From: 2010.06.25/outbox.cif.g09.slc.cpg/sg2_31_cif.got.tgz:61090.got - 2010.06.27 13:26:56.
