data_PCOD8005220
_publ_section_title
;
Structure prediction by ZEFSAII (Michael W. Deem and Ramdas Pophale) SiO2 
 PCOD8005220
Probable space group: P -1
;
_chemical_formula_sum "Si O2"
_cell_formula_units_Z 14
_cell_length_a 17.454476
_cell_length_b 8.541439
_cell_length_c 11.956591
_cell_angle_alpha 98.430177
_cell_angle_beta 151.415991
_cell_angle_gamma 102.209579
_cell_volume 586.459032
_symmetry_space_group_name_H-M "P -1"
_symmetry_group_IT_number 2
_symmetry_cell_setting 'triclinic'
loop_
_space_group_symop_operation_xyz
x,y,z
-x,-y,-z
loop_
_atom_site_type_symbol
_atom_site_label
_atom_site_fract_x
_atom_site_fract_y
_atom_site_fract_z
Si Si1 0.558119 0.240925 0.805809
Si Si2 0.271369 0.398442 0.758771
Si Si3 0.134081 0.790282 0.915792
Si Si4 0.524974 0.081731 0.164978
Si Si5 0.100072 0.443368 0.203479
Si Si6 0.809083 0.932563 0.155378
Si Si7 0.550403 0.548910 0.439453
O O1 0.682751 0.451420 0.067835
O O2 0.740540 0.281189 0.966328
O O3 0.403941 0.238612 0.522800
O O4 0.421844 0.020884 0.687358
O O5 0.128508 0.397005 0.486207
O O6 0.500000 0.500000 0.000000
O O7 0.096558 0.129715 0.555842
O O8 0.114666 0.781343 0.024686
O O9 0.252972 0.032176 0.043363
O O10 0.730485 0.352167 0.469422
O O11 0.286237 0.004453 0.873613
O O12 0.500000 0.000000 0.000000
O O13 0.222382 0.391063 0.286932
O O14 0.000000 0.500000 0.000000
O O15 0.667463 0.668699 0.938673
O O16 0.500000 0.500000 0.500000
#
# Coordination Sequence:
#
# PCOD8005220 Si02
#       7
#     2   2   2   2   2   2   2
#     4  11  22  39  66  97 128 172 216 277 325 392
#     4  10  20  38  65  94 132 166 214 268 336 389
#     4   9  20  40  64  91 127 168 216 273 323 394
#     4  10  22  41  69 101 131 172 224 270 332 403
#     4  11  23  42  65  95 131 178 222 274 330 397
#     4   8  22  41  65  91 129 172 211 266 330 391
#     4  11  24  45  63  92 134 173 221 274 325 393
#
# _framework density 23.872083
#
# number of rings (size 3 to 8) (size 9 to 14) (size 15 to 20)
#    0.857    1.143    0.000    3.000    2.000    2.857 
#    5.143    5.714    0.000    0.000    0.000    0.000 
#    0.000    0.000    0.000    0.000    0.000    0.000 
#
# Total GULP energy -173434.689617 kJ/mol
# GULP energy per Si atom -12388.192115 kJ/mol
# Density = 2.381775 g / cm^3
# Si number density = 23.872083 Si / 1000 Ang^3
#
#
#
# Elastic Constant Matrix: (Units=GPa)
#
#
# Indices 1 2 3 4 5 6 
#
# 1 128.9388 25.8075 1.2055 1.2911 31.3396 1.1253
# 2 25.8075 94.2695 1.5209 -9.2234 22.5714 -8.3007
# 3 1.2055 1.5209 40.5433 -5.3242 28.2359 -13.8693
# 4 1.2911 -9.2234 -5.3242 40.9915 -2.1335 6.3864
# 5 31.3396 22.5714 28.2359 -2.1335 36.5833 -2.6263
# 6 1.1253 -8.3007 -13.8693 6.3864 -2.6263 32.8252
#
#
#
# Elastic Compliance Matrix: (Units=1/GPa)
#
#
# Indices 1 2 3 4 5 6 
#
# 1 0.016312 0.006153 0.032473 0.001170 -0.041966 0.011132
# 2 0.006153 0.020858 0.036138 0.004392 -0.044634 0.015907
# 3 0.032473 0.036138 0.164862 0.009897 -0.172334 0.061969
# 4 0.001170 0.004392 0.009897 0.026218 -0.009868 -0.000638
# 5 -0.041966 -0.044634 -0.172334 -0.009868 0.218720 -0.063243
# 6 0.011132 0.015907 0.061969 -0.000638 -0.063243 0.055352
#
#
# Mechanical properties :
#
#
# Convention : Reuss Voigt Hill
#
# Bulk Modulus (GPa) = 2.84447 35.64658 19.24552
# Shear Modulus (GPa) = 10.63873 37.76119 24.19996
#
# Velocity S-wave (km/s) = 2.11335 3.98152 3.18737
# Velocity P-wave (km/s) = 2.67378 6.00844 4.65030
#
# Compressibility (1/GPa) = 0.35155969
#
# Stress axis : x y z
#
# Youngs Moduli (GPa) = 61.30555 47.94406 6.06567
#
# Poissons Ratio (x) = -0.29502 -0.19697
# Poissons Ratio (y) = -0.37723 -0.21920
# Poissons Ratio (z) = -1.99076 -1.73260
#
# Static dielectric constant tensor:
#      x y z
#    x 4.222630 0.358990 0.117600 
#    y 0.358990 5.042370 0.076280 
#    z 0.117600 0.076280 4.155310 
# 
# 
# High freq. dielectric constant tensor:
#      x y z
#    x 1.951900 0.020690 0.001280 
#    y 0.020690 1.974760 -0.012990 
#    z 0.001280 -0.012990 1.926470 
# 
# From -- ./inp_files/461328.got.cif
#   From: 2010.06.25/outbox.cif.g09.slc.cpg/sg2_231_cif.got.tgz:461328.got - 2010.06.27 13:26:56.
