data_PCOD8005105
_publ_section_title
;
Structure prediction by ZEFSAII (Michael W. Deem and Ramdas Pophale) SiO2 
 PCOD8005105
Probable space group: P -1
;
_chemical_formula_sum "Si O2"
_cell_formula_units_Z 16
_cell_length_a 13.884590
_cell_length_b 11.295545
_cell_length_c 10.848002
_cell_angle_alpha 154.349255
_cell_angle_beta 107.104162
_cell_angle_gamma 72.851711
_cell_volume 702.089647
_symmetry_space_group_name_H-M "P -1"
_symmetry_group_IT_number 2
_symmetry_cell_setting 'triclinic'
loop_
_space_group_symop_operation_xyz
x,y,z
-x,-y,-z
loop_
_atom_site_type_symbol
_atom_site_label
_atom_site_fract_x
_atom_site_fract_y
_atom_site_fract_z
Si Si1 0.138354 0.218873 0.123651
Si Si2 0.737400 0.842592 0.131849
Si Si3 0.077756 0.674809 0.953931
Si Si4 0.607968 0.586658 0.322933
Si Si5 0.090617 0.113665 0.564655
Si Si6 0.395943 0.888553 0.315673
Si Si7 0.804222 0.341825 0.262691
Si Si8 0.620008 0.329476 0.639756
O O1 0.135986 0.500007 0.463277
O O2 0.024880 0.175418 0.998109
O O3 0.210768 0.235126 0.050043
O O4 0.179952 0.978057 0.003363
O O5 0.819184 0.826288 0.255138
O O6 0.679053 0.144002 0.383624
O O7 0.652334 0.636262 0.934651
O O8 0.051320 0.397956 0.752713
O O9 0.157588 0.601990 0.807855
O O10 0.126917 0.886344 0.263392
O O11 0.685522 0.443705 0.316734
O O12 0.500681 0.669305 0.425640
O O13 0.659198 0.858059 0.543951
O O14 0.585698 0.382082 0.012594
O O15 0.000000 0.000000 0.500000
O O16 0.340955 0.807155 0.343914
O O17 0.500000 0.000000 0.500000
#
# Coordination Sequence:
#
# PCOD8005105 Si02
#       8
#     2   2   2   2   2   2   2   2
#     4  12  26  49  68  96 136 184 232 280 334 399
#     4  12  26  42  71 100 141 180 224 269 349 413
#     4  12  26  46  75 100 137 174 228 283 354 401
#     4  11  23  42  64 100 139 176 229 277 330 392
#     4  12  26  45  70 108 141 173 216 290 347 411
#     4  10  20  38  64  94 137 178 210 275 343 396
#     4  12  27  46  71  99 132 184 236 282 324 395
#     4  11  23  41  65 102 138 182 220 269 343 416
#
# _framework density 22.789113
#
# number of rings (size 3 to 8) (size 9 to 14) (size 15 to 20)
#    0.000    0.500    1.250    8.625    7.000    0.000 
#    0.000    3.750    0.000    0.000    0.000    0.000 
#    0.000    0.000    0.000    0.000    0.000    0.000 
#
# Total GULP energy -198484.767585 kJ/mol
# GULP energy per Si atom -12405.297974 kJ/mol
# Density = 2.273724 g / cm^3
# Si number density = 22.789113 Si / 1000 Ang^3
#
#
#
# Elastic Constant Matrix: (Units=GPa)
#
#
# Indices 1 2 3 4 5 6 
#
# 1 95.4920 41.0927 16.7812 7.4805 -5.5920 -3.8082
# 2 41.0927 96.2068 26.9407 4.6369 -1.5907 -1.9175
# 3 16.7812 26.9407 106.1721 -0.6177 -9.4540 8.3248
# 4 7.4805 4.6369 -0.6177 42.2911 4.2629 -14.7583
# 5 -5.5920 -1.5907 -9.4540 4.2629 35.4456 1.3843
# 6 -3.8082 -1.9175 8.3248 -14.7583 1.3843 28.4363
#
#
#
# Elastic Compliance Matrix: (Units=1/GPa)
#
#
# Indices 1 2 3 4 5 6 
#
# 1 0.013134 -0.005310 -0.000620 -0.001729 0.001853 0.000595
# 2 -0.005310 0.013438 -0.002735 -0.000135 -0.000986 0.000974
# 3 -0.000620 -0.002735 0.010797 -0.001195 0.002967 -0.004193
# 4 -0.001729 -0.000135 -0.001195 0.029986 -0.004825 0.015907
# 5 0.001853 -0.000986 0.002967 -0.004825 0.030013 -0.004652
# 6 0.000595 0.000974 -0.004193 0.015907 -0.004652 0.045021
#
#
# Mechanical properties :
#
#
# Convention : Reuss Voigt Hill
#
# Bulk Modulus (GPa) = 49.90799 51.94445 50.92622
# Shear Modulus (GPa) = 30.04801 35.43836 32.74319
#
# Velocity S-wave (km/s) = 3.63509 3.94770 3.79461
# Velocity P-wave (km/s) = 6.29015 6.60470 6.44934
#
# Compressibility (1/GPa) = 0.02003687
#
# Stress axis : x y z
#
# Youngs Moduli (GPa) = 76.13854 74.41519 92.62049
#
# Poissons Ratio (x) = 0.39517 0.05743
# Poissons Ratio (y) = 0.40433 0.25336
# Poissons Ratio (z) = 0.04721 0.20356
#
# Static dielectric constant tensor:
#      x y z
#    x 4.062290 0.082780 0.036230 
#    y 0.082780 4.277970 0.241810 
#    z 0.036230 0.241810 4.490770 
# 
# 
# High freq. dielectric constant tensor:
#      x y z
#    x 1.901430 -0.001880 -0.002140 
#    y -0.001880 1.890980 0.006780 
#    z -0.002140 0.006780 1.919370 
# 
# From -- ./inp_files/452711.got.cif
#   From: 2010.06.25/outbox.cif.g09.slc.cpg/sg2_227_cif.got.tgz:452711.got - 2010.06.27 13:26:56.
