data_PCOD8005482
_publ_section_title
;
Structure prediction by ZEFSAII (Michael W. Deem and Ramdas Pophale) SiO2 
 PCOD8005482
Probable space group: P -1
;
_chemical_formula_sum "Si O2"
_cell_formula_units_Z 14
_cell_length_a 15.128667
_cell_length_b 8.573519
_cell_length_c 12.269021
_cell_angle_alpha 83.768572
_cell_angle_beta 150.719416
_cell_angle_gamma 102.905533
_cell_volume 746.131587
_symmetry_space_group_name_H-M "P -1"
_symmetry_group_IT_number 2
_symmetry_cell_setting 'triclinic'
loop_
_space_group_symop_operation_xyz
x,y,z
-x,-y,-z
loop_
_atom_site_type_symbol
_atom_site_label
_atom_site_fract_x
_atom_site_fract_y
_atom_site_fract_z
Si Si1 0.066710 0.430812 0.913352
Si Si2 0.845801 0.229268 0.494772
Si Si3 0.105066 0.185563 0.600969
Si Si4 0.537226 0.429563 0.757038
Si Si5 0.514719 0.640274 0.917390
Si Si6 0.174865 0.351834 0.259704
Si Si7 0.767552 0.849446 0.482910
O O1 0.963924 0.309578 0.719399
O O2 0.934765 0.532972 0.810126
O O3 0.254694 0.557302 0.061893
O O4 0.120842 0.322166 0.077345
O O5 0.667443 0.294308 0.277167
O O6 0.974994 0.277129 0.521560
O O7 0.781788 0.036132 0.461730
O O8 0.140771 0.237208 0.508777
O O9 0.304133 0.211896 0.873712
O O10 0.000000 0.000000 0.500000
O O11 0.539292 0.578192 0.828259
O O12 0.397178 0.440499 0.505352
O O13 0.452426 0.254027 0.739110
O O14 0.500000 0.500000 0.000000
O O15 0.129689 0.180083 0.291457
#
# Coordination Sequence:
#
# PCOD8005482 Si02
#       7
#     2   2   2   2   2   2   2
#     4  11  20  37  66  84 112 158 191 236 289 334
#     4  11  23  38  59  87 117 157 189 234 294 338
#     4  10  22  40  58  86 118 152 188 236 293 341
#     4  10  20  39  57  87 115 150 193 240 284 334
#     4  12  22  39  59  86 117 149 197 243 276 347
#     4   9  21  39  60  87 118 145 199 238 279 344
#     4   9  21  41  54  84 124 145 191 240 285 339
#
# _framework density 18.763446999999999
#
# number of rings (size 3 to 8) (size 9 to 14) (size 15 to 20)
#    0.857    0.857    4.286    0.429    0.000    4.571 
#    5.143    0.000    0.000    2.571    0.000    0.000 
#    0.000    0.000    0.000    0.000    0.000    0.000 
#
# Total GULP energy -173446.259828 kJ/mol
# GULP energy per Si atom -12389.018559 kJ/mol
# Density = 1.872074 g / cm^3
# Si number density = 18.763447 Si / 1000 Ang^3
#
#
#
# Elastic Constant Matrix: (Units=GPa)
#
#
# Indices 1 2 3 4 5 6 
#
# 1 72.8210 30.0632 33.9128 14.4564 -1.9818 7.0549
# 2 30.0632 76.5973 45.3128 1.8520 -4.8749 7.8103
# 3 33.9128 45.3128 124.6758 11.5955 6.1336 1.8715
# 4 14.4564 1.8520 11.5955 24.5668 7.7763 -2.4538
# 5 -1.9818 -4.8749 6.1336 7.7763 29.7627 -0.2544
# 6 7.0549 7.8103 1.8715 -2.4538 -0.2544 26.3758
#
#
#
# Elastic Compliance Matrix: (Units=1/GPa)
#
#
# Indices 1 2 3 4 5 6 
#
# 1 0.020057 -0.005352 -0.002528 -0.011959 0.004065 -0.004674
# 2 -0.005352 0.019118 -0.005887 0.003146 0.003136 -0.003489
# 3 -0.002528 -0.005887 0.011181 -0.002315 -0.002820 0.001383
# 4 -0.011959 0.003146 -0.002315 0.053685 -0.013768 0.007293
# 5 0.004065 0.003136 -0.002820 -0.013768 0.038539 -0.002725
# 6 -0.004674 -0.003489 0.001383 0.007293 -0.002725 0.040751
#
#
# Mechanical properties :
#
#
# Convention : Reuss Voigt Hill
#
# Bulk Modulus (GPa) = 43.81756 54.74126 49.27941
# Shear Modulus (GPa) = 22.88627 27.12808 25.00717
#
# Velocity S-wave (km/s) = 3.49625 3.80648 3.65466
# Velocity P-wave (km/s) = 6.30092 6.96827 6.64298
#
# Compressibility (1/GPa) = 0.02282190
#
# Stress axis : x y z
#
# Youngs Moduli (GPa) = 49.85880 52.30746 89.43503
#
# Poissons Ratio (x) = 0.27995 0.22608
# Poissons Ratio (y) = 0.26685 0.52650
# Poissons Ratio (z) = 0.12604 0.30793
#
# Static dielectric constant tensor:
#      x y z
#    x 3.983640 0.061350 -0.067200 
#    y 0.061350 3.354460 -0.067220 
#    z -0.067200 -0.067220 3.739840 
# 
# 
# High freq. dielectric constant tensor:
#      x y z
#    x 1.743580 0.001750 -0.000640 
#    y 0.001750 1.701370 0.007690 
#    z -0.000640 0.007690 1.736890 
# 
# From -- ./inp_files/447575.got.cif
#   From: 2010.06.25/outbox.cif.g09.slc.cpg/sg2_224_cif.got.tgz:447575.got - 2010.06.27 13:26:56.
