data_PCOD8005672
_publ_section_title
;
Structure prediction by ZEFSAII (Michael W. Deem and Ramdas Pophale) SiO2 
 PCOD8005672
Probable space group: P -1
;
_chemical_formula_sum "Si O2"
_cell_formula_units_Z 16
_cell_length_a 29.764796
_cell_length_b 9.235940
_cell_length_c 11.727807
_cell_angle_alpha 126.755173
_cell_angle_beta 30.901372
_cell_angle_gamma 148.288128
_cell_volume 760.005992
_symmetry_space_group_name_H-M "P -1"
_symmetry_group_IT_number 2
_symmetry_cell_setting 'triclinic'
loop_
_space_group_symop_operation_xyz
x,y,z
-x,-y,-z
loop_
_atom_site_type_symbol
_atom_site_label
_atom_site_fract_x
_atom_site_fract_y
_atom_site_fract_z
Si Si1 0.732750 0.863838 0.487774
Si Si2 0.016891 0.210007 0.488587
Si Si3 0.230211 0.721425 0.621285
Si Si4 0.304345 0.904939 0.128530
Si Si5 0.484610 0.411270 0.360227
Si Si6 0.725606 0.822976 0.842542
Si Si7 0.999548 0.459333 0.827306
Si Si8 0.640936 0.423700 0.650014
O O1 0.623981 0.650384 0.513846
O O2 0.726998 0.668278 0.475341
O O3 0.687801 0.958753 0.710656
O O4 0.906370 0.193716 0.225744
O O5 0.186264 0.536432 0.225609
O O6 0.963031 0.298198 0.714579
O O7 0.000000 0.000000 0.500000
O O8 0.890399 0.001316 0.566369
O O9 0.106638 0.498917 0.683413
O O10 0.252005 0.566050 0.557813
O O11 0.399863 0.072735 0.380608
O O12 0.162741 0.762786 0.870600
O O13 0.262623 0.955934 0.132595
O O14 0.466438 0.081918 0.835979
O O15 0.500000 0.500000 0.500000
O O16 0.650384 0.689809 0.070168
O O17 0.622140 0.524265 0.846028
#
# Coordination Sequence:
#
# PCOD8005672 Si02
#       8
#     2   2   2   2   2   2   2   2
#     4   9  18  38  63  86 114 160 199 246 297 361
#     4  11  23  36  60  93 122 155 199 251 300 355
#     4  10  22  36  59  85 116 163 201 245 293 361
#     4  10  20  39  61  90 125 156 195 251 303 357
#     4  11  21  36  58  82 118 164 197 238 308 355
#     4  11  21  38  62  89 122 159 198 249 304 354
#     4   9  20  41  56  81 126 159 197 240 304 357
#     4  11  20  37  65  93 116 150 211 250 294 352
#
# _framework density 21.052465000000002
#
# number of rings (size 3 to 8) (size 9 to 14) (size 15 to 20)
#    0.000    1.750    2.500    2.625    1.750    1.000 
#    0.000    0.625    0.000    0.000    0.000    0.000 
#    0.000    0.000    0.000    0.000    0.000    0.000 
#
# Total GULP energy -198246.238149 kJ/mol
# GULP energy per Si atom -12390.389884 kJ/mol
# Density = 2.100455 g / cm^3
# Si number density = 21.052465 Si / 1000 Ang^3
#
#
#
# Elastic Constant Matrix: (Units=GPa)
#
#
# Indices 1 2 3 4 5 6 
#
# 1 134.6017 47.3778 43.8245 -11.2954 -1.6668 -27.3293
# 2 47.3778 74.7146 32.1013 -22.8368 -9.8869 -23.5371
# 3 43.8245 32.1013 67.7569 -22.6668 -6.0079 -14.7993
# 4 -11.2954 -22.8368 -22.6668 28.2280 7.7654 5.0462
# 5 -1.6668 -9.8869 -6.0079 7.7654 31.2591 7.5154
# 6 -27.3293 -23.5371 -14.7993 5.0462 7.5154 39.2231
#
#
#
# Elastic Compliance Matrix: (Units=1/GPa)
#
#
# Indices 1 2 3 4 5 6 
#
# 1 0.011518 -0.005286 -0.005820 -0.004452 -0.001936 0.003601
# 2 -0.005286 0.024720 -0.001337 0.014874 0.001557 0.008435
# 3 -0.005820 -0.001337 0.025210 0.016533 -0.000632 0.002649
# 4 -0.004452 0.014874 0.016533 0.060298 -0.008774 0.005986
# 5 -0.001936 0.001557 -0.000632 -0.008774 0.035981 -0.006419
# 6 0.003601 0.008435 0.002649 0.005986 -0.006419 0.034525
#
#
# Mechanical properties :
#
#
# Convention : Reuss Voigt Hill
#
# Bulk Modulus (GPa) = 27.34995 58.18671 42.76833
# Shear Modulus (GPa) = 21.80315 29.99333 25.89824
#
# Velocity S-wave (km/s) = 3.22165 3.77861 3.51119
# Velocity P-wave (km/s) = 5.18250 6.83638 6.06607
#
# Compressibility (1/GPa) = 0.03656314
#
# Stress axis : x y z
#
# Youngs Moduli (GPa) = 86.81706 40.45320 39.66746
#
# Poissons Ratio (x) = 0.21383 0.23087
# Poissons Ratio (y) = 0.45890 0.05302
# Poissons Ratio (z) = 0.50528 0.05407
#
# Static dielectric constant tensor:
#      x y z
#    x 3.927790 0.011990 0.137660 
#    y 0.011990 3.656100 -0.421040 
#    z 0.137660 -0.421040 3.612010 
# 
# 
# High freq. dielectric constant tensor:
#      x y z
#    x 1.834550 0.000730 0.001780 
#    y 0.000730 1.808150 -0.037460 
#    z 0.001780 -0.037460 1.808870 
# 
# From -- ./inp_files/298999.got.cif
#   From: 2010.06.25/outbox.cif.g09.slc.cpg/sg2_150_cif.got.tgz:298999.got - 2010.06.27 13:26:56.
