data_PCOD8005896
_publ_section_title
;
Structure prediction by ZEFSAII (Michael W. Deem and Ramdas Pophale) SiO2 
 PCOD8005896
Probable space group: P -1
;
_chemical_formula_sum "Si O2"
_cell_formula_units_Z 16
_cell_length_a 22.955705
_cell_length_b 7.529017
_cell_length_c 9.969127
_cell_angle_alpha 80.875349
_cell_angle_beta 133.393359
_cell_angle_gamma 134.234112
_cell_volume 706.735090
_symmetry_space_group_name_H-M "P -1"
_symmetry_group_IT_number 2
_symmetry_cell_setting 'triclinic'
loop_
_space_group_symop_operation_xyz
x,y,z
-x,-y,-z
loop_
_atom_site_type_symbol
_atom_site_label
_atom_site_fract_x
_atom_site_fract_y
_atom_site_fract_z
Si Si1 0.021618 0.333964 0.589151
Si Si2 0.630550 0.793491 0.577586
Si Si3 0.562881 0.022503 0.800088
Si Si4 0.783224 0.399529 0.894427
Si Si5 0.517274 0.803658 0.162326
Si Si6 0.739345 0.188286 0.266350
Si Si7 0.741081 0.656843 0.647654
Si Si8 0.750738 0.796124 0.350895
O O1 0.120208 0.444581 0.607656
O O2 0.000000 0.500000 0.500000
O O3 0.093256 0.446994 0.835065
O O4 0.869610 0.957078 0.408658
O O5 0.500000 0.500000 0.500000
O O6 0.561361 0.718968 0.335156
O O7 0.743206 0.840915 0.721097
O O8 0.721350 0.123855 0.740557
O O9 0.659690 0.261154 0.802381
O O10 0.550646 0.164828 0.864691
O O11 0.418178 0.697472 0.550170
O O12 0.636468 0.991859 0.997781
O O13 0.835428 0.664935 0.853583
O O14 0.656886 0.134455 0.264877
O O15 0.404625 0.532496 0.906282
O O16 0.770499 0.044135 0.378710
O O17 0.784600 0.764938 0.549551
#
# Coordination Sequence:
#
# PCOD8005896 Si02
#       8
#     2   2   2   2   2   2   2   2
#     4   9  23  45  70  87 132 180 214 270 330 387
#     4  12  24  37  67 101 134 173 216 268 337 384
#     4  11  21  37  62  98 135 166 210 275 333 373
#     4  11  24  44  63  96 138 174 212 273 329 385
#     4  12  22  36  66 103 129 169 219 271 329 382
#     4  10  20  39  63  93 127 170 219 271 320 379
#     4  12  22  39  64  98 135 169 216 274 322 390
#     4  11  23  40  66  98 129 175 222 266 326 387
#
# _framework density 22.639320000000001
#
# number of rings (size 3 to 8) (size 9 to 14) (size 15 to 20)
#    0.000    1.000    5.000    2.625    3.500    0.500 
#    0.000    3.125    2.750    0.000    0.000    0.000 
#    0.000    0.000    0.000    0.000    0.000    0.000 
#
# Total GULP energy -198250.616448 kJ/mol
# GULP energy per Si atom -12390.663528 kJ/mol
# Density = 2.258779 g / cm^3
# Si number density = 22.639320 Si / 1000 Ang^3
#
#
#
# Elastic Constant Matrix: (Units=GPa)
#
#
# Indices 1 2 3 4 5 6 
#
# 1 98.4776 50.1503 17.8621 8.7017 -10.1266 4.2970
# 2 50.1503 116.5155 44.0772 -25.9174 8.1940 15.9938
# 3 17.8621 44.0772 74.9285 -25.2974 12.9427 2.0781
# 4 8.7017 -25.9174 -25.2974 41.0473 4.1780 12.4761
# 5 -10.1266 8.1940 12.9427 4.1780 22.0871 -1.9648
# 6 4.2970 15.9938 2.0781 12.4761 -1.9648 44.2188
#
#
#
# Elastic Compliance Matrix: (Units=1/GPa)
#
#
# Indices 1 2 3 4 5 6 
#
# 1 0.030531 -0.021333 -0.015266 -0.038945 0.039846 0.018225
# 2 -0.021333 0.028259 0.006881 0.036068 -0.032908 -0.020110
# 3 -0.015266 0.006881 0.031145 0.034595 -0.035575 -0.013810
# 4 -0.038945 0.036068 0.034595 0.096797 -0.073507 -0.041464
# 5 0.039846 -0.032908 -0.035575 -0.073507 0.113661 0.035493
# 6 0.018225 -0.020110 -0.013810 -0.041464 0.035493 0.042042
#
#
# Mechanical properties :
#
#
# Convention : Reuss Voigt Hill
#
# Bulk Modulus (GPa) = 32.78668 57.12231 44.95450
# Shear Modulus (GPa) = 12.13483 33.32610 22.73046
#
# Velocity S-wave (km/s) = 2.31769 3.84089 3.17207
# Velocity P-wave (km/s) = 4.65574 6.70493 5.77200
#
# Compressibility (1/GPa) = 0.03050019
#
# Stress axis : x y z
#
# Youngs Moduli (GPa) = 32.75374 35.38696 32.10772
#
# Poissons Ratio (x) = 0.75490 0.49016
# Poissons Ratio (y) = 0.69873 -0.22095
# Poissons Ratio (z) = 0.50002 -0.24351
#
# Static dielectric constant tensor:
#      x y z
#    x 4.368230 0.197730 0.360090 
#    y 0.197730 4.599700 -0.247480 
#    z 0.360090 -0.247480 4.086480 
# 
# 
# High freq. dielectric constant tensor:
#      x y z
#    x 1.885650 0.017180 0.015400 
#    y 0.017180 1.905710 -0.029400 
#    z 0.015400 -0.029400 1.876290 
# 
# From -- ./inp_files/352208.got.cif
#   From: 2010.06.25/outbox.cif.g09.slc.cpg/sg2_177_cif.got.tgz:352208.got - 2010.06.27 13:26:56.
