data_PCOD8005103
_publ_section_title
;
Structure prediction by ZEFSAII (Michael W. Deem and Ramdas Pophale) SiO2 
 PCOD8005103
Probable space group: P -1
;
_chemical_formula_sum "Si O2"
_cell_formula_units_Z 12
_cell_length_a 8.182295
_cell_length_b 11.521536
_cell_length_c 13.157581
_cell_angle_alpha 33.300293
_cell_angle_beta 129.122893
_cell_angle_gamma 136.065591
_cell_volume 471.130052
_symmetry_space_group_name_H-M "P -1"
_symmetry_group_IT_number 2
_symmetry_cell_setting 'triclinic'
loop_
_space_group_symop_operation_xyz
x,y,z
-x,-y,-z
loop_
_atom_site_type_symbol
_atom_site_label
_atom_site_fract_x
_atom_site_fract_y
_atom_site_fract_z
Si Si1 0.413792 0.619733 0.792906
Si Si2 0.694797 0.286884 0.630795
Si Si3 0.851131 0.703139 0.253464
Si Si4 0.743701 0.193111 0.229640
Si Si5 0.855520 0.681847 0.839289
Si Si6 0.763804 0.124086 0.974746
O O1 0.216690 0.422380 0.791023
O O2 0.301697 0.773285 0.693349
O O3 0.653868 0.772786 0.707505
O O4 0.500000 0.500000 0.000000
O O5 0.694012 0.525841 0.412076
O O6 0.873240 0.231621 0.669293
O O7 0.437190 0.067031 0.686293
O O8 0.782449 0.325117 0.754326
O O9 0.817246 0.936656 0.068901
O O10 0.009397 0.225715 0.283403
O O11 0.719728 0.393124 0.002262
O O12 0.045704 0.764769 0.944045
O O13 0.500000 0.000000 0.000000
#
# Coordination Sequence:
#
# PCOD8005103 Si02
#       6
#     2   2   2   2   2   2
#     4  10  20  39  66  92 134 175 218 279 329 403
#     4  11  23  45  69 100 137 174 230 284 334 410
#     4  11  26  43  68 104 133 178 232 277 343 405
#     4  10  20  38  64  94 133 172 221 273 337 395
#     4  10  21  38  66 101 128 175 230 274 335 411
#     4  12  23  42  72  95 135 182 219 283 341 400
#
# _framework density 25.470675
#
# number of rings (size 3 to 8) (size 9 to 14) (size 15 to 20)
#    0.000    1.333    1.667    5.500    2.333    1.333 
#    0.000    2.500    0.000    0.000    0.000    0.000 
#    0.000    0.000    0.000    0.000    0.000    0.000 
#
# Total GULP energy -148706.311052 kJ/mol
# GULP energy per Si atom -12392.192588 kJ/mol
# Density = 2.541270 g / cm^3
# Si number density = 25.470675 Si / 1000 Ang^3
#
#
#
# Elastic Constant Matrix: (Units=GPa)
#
#
# Indices 1 2 3 4 5 6 
#
# 1 186.7430 15.1801 -14.7367 -9.2914 -7.2232 8.1167
# 2 15.1801 67.9182 0.3545 -7.2489 -1.9082 0.0952
# 3 -14.7367 0.3545 58.7247 1.2587 -22.8677 -6.0543
# 4 -9.2914 -7.2489 1.2587 20.3271 2.8709 -13.7602
# 5 -7.2232 -1.9082 -22.8677 2.8709 21.9419 -9.0551
# 6 8.1167 0.0952 -6.0543 -13.7602 -9.0551 45.0619
#
#
#
# Elastic Compliance Matrix: (Units=1/GPa)
#
#
# Indices 1 2 3 4 5 6 
#
# 1 0.006069 -0.000954 0.004218 0.002248 0.006633 0.001495
# 2 -0.000954 0.015686 0.000460 0.006626 0.001723 0.002570
# 3 0.004218 0.000460 0.037410 0.003055 0.045975 0.014437
# 4 0.002248 0.006626 0.003055 0.066012 0.004556 0.021065
# 5 0.006633 0.001723 0.045975 0.004556 0.106705 0.027812
# 6 0.001495 0.002570 0.014437 0.021065 0.027812 0.035878
#
#
# Mechanical properties :
#
#
# Convention : Reuss Voigt Hill
#
# Bulk Modulus (GPa) = 15.01242 34.99794 25.00518
# Shear Modulus (GPa) = 17.69797 38.30540 28.00168
#
# Velocity S-wave (km/s) = 2.63884 3.88222 3.31927
# Velocity P-wave (km/s) = 3.89762 5.81944 4.95264
#
# Compressibility (1/GPa) = 0.06661150
#
# Stress axis : x y z
#
# Youngs Moduli (GPa) = 164.77745 63.74935 26.73064
#
# Poissons Ratio (x) = 0.06083 -0.11274
# Poissons Ratio (y) = 0.15724 -0.01229
# Poissons Ratio (z) = -0.69498 -0.02930
#
# Static dielectric constant tensor:
#      x y z
#    x 6.034940 0.189320 -0.190600 
#    y 0.189320 4.490350 -0.070260 
#    z -0.190600 -0.070260 4.249730 
# 
# 
# High freq. dielectric constant tensor:
#      x y z
#    x 2.046260 0.015120 -0.019980 
#    y 0.015120 2.005970 -0.004340 
#    z -0.019980 -0.004340 1.978290 
# 
# From -- ./inp_files/306121.got.cif
#   From: 2010.06.25/outbox.cif.g09.slc.cpg/sg2_154_cif.got.tgz:306121.got - 2010.06.27 13:26:56.
