data_PCOD8005699
_publ_section_title
;
Structure prediction by ZEFSAII (Michael W. Deem and Ramdas Pophale) SiO2 
 PCOD8005699
Probable space group: P -1
;
_chemical_formula_sum "Si O2"
_cell_formula_units_Z 12
_cell_length_a 22.074334
_cell_length_b 26.556089
_cell_length_c 26.852912
_cell_angle_alpha 10.873975
_cell_angle_beta 168.223933
_cell_angle_gamma 166.893072
_cell_volume 572.828762
_symmetry_space_group_name_H-M "P -1"
_symmetry_group_IT_number 2
_symmetry_cell_setting 'triclinic'
loop_
_space_group_symop_operation_xyz
x,y,z
-x,-y,-z
loop_
_atom_site_type_symbol
_atom_site_label
_atom_site_fract_x
_atom_site_fract_y
_atom_site_fract_z
Si Si1 0.406928 0.438244 0.191139
Si Si2 0.625422 0.577005 0.932239
Si Si3 0.815355 0.044407 0.918752
Si Si4 0.330763 0.998916 0.312935
Si Si5 0.880686 0.356495 0.927437
Si Si6 0.835241 0.882916 0.429829
O O1 0.280573 0.457535 0.015152
O O2 0.566773 0.197523 0.557056
O O3 0.111637 0.354620 0.070654
O O4 0.649859 0.744240 0.103629
O O5 0.348316 0.719689 0.570142
O O6 0.512586 0.276581 0.159362
O O7 0.930527 0.772657 0.016001
O O8 0.973464 0.988239 0.048012
O O9 0.500000 0.000000 0.500000
O O10 0.982966 0.661572 0.739517
O O11 0.533704 0.271573 0.707204
O O12 0.901713 0.139534 0.196644
O O13 0.000000 0.000000 0.500000
#
# Coordination Sequence:
#
# PCOD8005699 Si02
#       6
#     2   2   2   2   2   2
#     4  12  25  38  59  92 124 156 192 243 307 357
#     4  11  23  40  60  85 118 160 206 251 300 346
#     4  11  23  40  59  85 122 160 203 251 298 346
#     4  10  20  39  62  82 114 160 212 258 287 340
#     4  10  23  40  61  95 125 146 197 246 278 360
#     4  10  21  43  69  89 116 159 195 232 291 349
#
# _framework density 20.948668000000001
#
# number of rings (size 3 to 8) (size 9 to 14) (size 15 to 20)
#    0.000    1.333    0.000    7.500    0.000    6.667 
#    0.000    0.000    0.000    0.000    0.000    0.000 
#    0.000    0.000    0.000    0.000    0.000    0.000 
#
# Total GULP energy -148839.046914 kJ/mol
# GULP energy per Si atom -12403.253910 kJ/mol
# Density = 2.090099 g / cm^3
# Si number density = 20.948668 Si / 1000 Ang^3
#
#
#
# Elastic Constant Matrix: (Units=GPa)
#
#
# Indices 1 2 3 4 5 6 
#
# 1 150.5433 73.8254 55.5886 -0.5588 18.5042 21.8026
# 2 73.8254 106.0924 31.6512 -23.8562 10.3292 28.0627
# 3 55.5886 31.6512 119.0792 -17.4690 15.8102 8.3191
# 4 -0.5588 -23.8562 -17.4690 46.7577 -1.1838 -6.3276
# 5 18.5042 10.3292 15.8102 -1.1838 23.9232 12.7871
# 6 21.8026 28.0627 8.3191 -6.3276 12.7871 49.4076
#
#
#
# Elastic Compliance Matrix: (Units=1/GPa)
#
#
# Indices 1 2 3 4 5 6 
#
# 1 0.012839 -0.008734 -0.004031 -0.005876 -0.003912 0.000234
# 2 -0.008734 0.018809 0.000546 0.008894 0.002094 -0.006324
# 3 -0.004031 0.000546 0.011391 0.004555 -0.005213 0.001483
# 4 -0.005876 0.008894 0.004555 0.027611 -0.001282 0.000643
# 5 -0.003912 0.002094 -0.005213 -0.001282 0.054122 -0.012757
# 6 0.000234 -0.006324 0.001483 0.000643 -0.012757 0.026863
#
#
# Mechanical properties :
#
#
# Convention : Reuss Voigt Hill
#
# Bulk Modulus (GPa) = 53.75832 77.53840 65.64836
# Shear Modulus (GPa) = 27.43115 38.32766 32.87940
#
# Velocity S-wave (km/s) = 3.62255 4.28202 3.96602
# Velocity P-wave (km/s) = 6.57380 7.84484 7.23728
#
# Compressibility (1/GPa) = 0.01860177
#
# Stress axis : x y z
#
# Youngs Moduli (GPa) = 77.88488 53.16538 87.78684
#
# Poissons Ratio (x) = 0.46435 0.35389
# Poissons Ratio (y) = 0.68025 -0.04796
# Poissons Ratio (z) = 0.31397 -0.02904
#
# Static dielectric constant tensor:
#      x y z
#    x 3.844660 -0.041860 0.187510 
#    y -0.041860 3.814960 -0.119460 
#    z 0.187510 -0.119460 4.323520 
# 
# 
# High freq. dielectric constant tensor:
#      x y z
#    x 1.822520 -0.003680 -0.002280 
#    y -0.003680 1.823240 -0.016330 
#    z -0.002280 -0.016330 1.837660 
# 
# From -- ./inp_files/484567.got.cif
#   From: 2010.06.25/outbox.cif.g09.slc.cpg/sg2_243_cif.got.tgz:484567.got - 2010.06.27 13:26:56.
