data_PCOD8005530
_publ_section_title
;
Structure prediction by ZEFSAII (Michael W. Deem and Ramdas Pophale) SiO2 
 PCOD8005530
Probable space group: P -1
;
_chemical_formula_sum "Si O2"
_cell_formula_units_Z 16
_cell_length_a 9.125320
_cell_length_b 10.921830
_cell_length_c 11.576708
_cell_angle_alpha 61.741214
_cell_angle_beta 84.911807
_cell_angle_gamma 52.282383
_cell_volume 769.753902
_symmetry_space_group_name_H-M "P -1"
_symmetry_group_IT_number 2
_symmetry_cell_setting 'triclinic'
loop_
_space_group_symop_operation_xyz
x,y,z
-x,-y,-z
loop_
_atom_site_type_symbol
_atom_site_label
_atom_site_fract_x
_atom_site_fract_y
_atom_site_fract_z
Si Si1 0.794067 0.556018 0.977583
Si Si2 0.299781 0.347123 0.301448
Si Si3 0.773498 0.106745 0.873109
Si Si4 0.036592 0.905345 0.366040
Si Si5 0.102888 0.724153 0.067184
Si Si6 0.304924 0.763441 0.622849
Si Si7 0.996854 0.612064 0.551663
Si Si8 0.648649 0.588222 0.217297
O O1 0.678668 0.703761 0.814307
O O2 0.824907 0.374521 0.019816
O O3 0.678508 0.637672 0.067574
O O4 0.000000 0.500000 0.000000
O O5 0.151044 0.570779 0.223551
O O6 0.507467 0.253553 0.382613
O O7 0.200858 0.282176 0.407518
O O8 0.899561 0.090838 0.767073
O O9 0.781937 0.207693 0.935658
O O10 0.549753 0.224728 0.801823
O O11 0.872509 0.900569 0.997506
O O12 0.204494 0.846414 0.469334
O O13 0.000180 0.763592 0.432771
O O14 0.840085 0.105782 0.322801
O O15 0.371180 0.564941 0.724328
O O16 0.000000 0.500000 0.500000
O O17 0.180060 0.472809 0.683178
#
# Coordination Sequence:
#
# PCOD8005530 Si02
#       8
#     2   2   2   2   2   2   2   2
#     4  10  20  39  59  86 124 161 201 246 301 368
#     4  10  21  40  64  90 120 164 203 249 307 365
#     4  11  21  38  61  97 124 156 202 261 311 356
#     4  10  24  40  62  91 128 158 206 262 298 365
#     4   9  21  37  61  89 128 150 201 260 301 355
#     4  10  22  41  64  93 118 161 214 254 304 356
#     4  11  24  39  62  89 131 165 202 248 312 372
#     4  11  21  38  67  92 118 167 205 249 315 360
#
# _framework density 20.785864
#
# number of rings (size 3 to 8) (size 9 to 14) (size 15 to 20)
#    0.750    1.000    2.500    1.500    1.750    5.500 
#    0.000    3.750    0.000    0.000    0.000    0.000 
#    0.000    0.000    0.000    0.000    0.000    0.000 
#
# Total GULP energy -198319.313550 kJ/mol
# GULP energy per Si atom -12394.957097 kJ/mol
# Density = 2.073855 g / cm^3
# Si number density = 20.785864 Si / 1000 Ang^3
#
#
#
# Elastic Constant Matrix: (Units=GPa)
#
#
# Indices 1 2 3 4 5 6 
#
# 1 116.5195 32.3968 38.1151 7.2429 17.6890 -21.8434
# 2 32.3968 90.5050 36.4140 1.6942 7.1160 -13.5483
# 3 38.1151 36.4140 68.6821 8.9893 6.3311 -9.0930
# 4 7.2429 1.6942 8.9893 31.9067 -3.2969 9.0867
# 5 17.6890 7.1160 6.3311 -3.2969 25.7846 3.3354
# 6 -21.8434 -13.5483 -9.0930 9.0867 3.3354 35.3845
#
#
#
# Elastic Compliance Matrix: (Units=1/GPa)
#
#
# Indices 1 2 3 4 5 6 
#
# 1 0.013944 -0.000919 -0.004296 -0.005690 -0.010224 0.009577
# 2 -0.000919 0.014763 -0.006639 0.000040 -0.002272 0.003584
# 3 -0.004296 -0.006639 0.021556 -0.005430 -0.001451 0.001877
# 4 -0.005690 0.000040 -0.005430 0.040111 0.012472 -0.016369
# 5 -0.010224 -0.002272 -0.001451 0.012472 0.050381 -0.015506
# 6 0.009577 0.003584 0.001877 -0.016369 -0.015506 0.041693
#
#
# Mechanical properties :
#
#
# Convention : Reuss Voigt Hill
#
# Bulk Modulus (GPa) = 37.65485 54.39537 46.02511
# Shear Modulus (GPa) = 23.25495 29.86722 26.56108
#
# Velocity S-wave (km/s) = 3.34846 3.79476 3.57857
# Velocity P-wave (km/s) = 5.75365 6.73992 6.26622
#
# Compressibility (1/GPa) = 0.02655701
#
# Stress axis : x y z
#
# Youngs Moduli (GPa) = 71.71419 67.73493 46.38975
#
# Poissons Ratio (x) = 0.06224 0.19929
# Poissons Ratio (y) = 0.06590 0.30797
# Poissons Ratio (z) = 0.30809 0.44967
#
# Static dielectric constant tensor:
#      x y z
#    x 3.693860 0.015000 0.161240 
#    y 0.015000 3.706530 0.007210 
#    z 0.161240 0.007210 3.736560 
# 
# 
# High freq. dielectric constant tensor:
#      x y z
#    x 1.810340 0.000240 0.015300 
#    y 0.000240 1.801710 0.002690 
#    z 0.015300 0.002690 1.811840 
# 
# From -- ./inp_files/389405.got.cif
#   From: 2010.06.25/outbox.cif.g09.slc.cpg/sg2_195_cif.got.tgz:389405.got - 2010.06.27 13:26:56.
