data_PCOD8005497
_publ_section_title
;
Structure prediction by ZEFSAII (Michael W. Deem and Ramdas Pophale) SiO2 
 PCOD8005497
Probable space group: P -1
;
_chemical_formula_sum "Si O2"
_cell_formula_units_Z 12
_cell_length_a 10.507927
_cell_length_b 12.015658
_cell_length_c 8.986549
_cell_angle_alpha 124.124123
_cell_angle_beta 139.059163
_cell_angle_gamma 63.204230
_cell_volume 614.726001
_symmetry_space_group_name_H-M "P -1"
_symmetry_group_IT_number 2
_symmetry_cell_setting 'triclinic'
loop_
_space_group_symop_operation_xyz
x,y,z
-x,-y,-z
loop_
_atom_site_type_symbol
_atom_site_label
_atom_site_fract_x
_atom_site_fract_y
_atom_site_fract_z
Si Si1 0.284008 0.465331 0.819940
Si Si2 0.199522 0.210906 0.725336
Si Si3 0.097695 0.881418 0.801660
Si Si4 0.207337 0.158082 0.037736
Si Si5 0.957634 0.677711 0.739484
Si Si6 0.488228 0.968955 0.291829
O O1 0.279583 0.354926 0.863746
O O2 0.191615 0.411402 0.546853
O O3 0.166768 0.599485 0.874119
O O4 0.500000 0.500000 0.000000
O O5 0.308612 0.090563 0.636899
O O6 0.972074 0.202392 0.468360
O O7 0.227585 0.187740 0.905485
O O8 0.973968 0.824606 0.787040
O O9 0.327245 0.858269 0.026782
O O10 0.056353 0.040469 0.849799
O O11 0.127641 0.294384 0.150458
O O12 0.420720 0.108495 0.252615
O O13 0.500000 0.000000 0.500000
#
# Coordination Sequence:
#
# PCOD8005497 Si02
#       6
#     2   2   2   2   2   2
#     4  10  22  39  61  78 109 156 199 236 271 338
#     4  11  21  39  57  86 121 149 188 236 291 335
#     4   9  21  36  59  85 116 151 185 230 287 345
#     4  10  22  36  58  90 119 146 184 240 294 338
#     4  10  20  39  58  84 112 148 200 231 275 342
#     4  10  21  34  57  84 117 149 190 225 278 345
#
# _framework density 19.520893000000001
#
# number of rings (size 3 to 8) (size 9 to 14) (size 15 to 20)
#    1.000    1.000    0.000    4.500    2.333    0.667 
#    0.000    0.833    0.000    0.000    0.000    0.000 
#    0.000    0.000    0.000    0.000    0.000    0.000 
#
# Total GULP energy -148686.731639 kJ/mol
# GULP energy per Si atom -12390.560970 kJ/mol
# Density = 1.947646 g / cm^3
# Si number density = 19.520893 Si / 1000 Ang^3
#
#
#
# Elastic Constant Matrix: (Units=GPa)
#
#
# Indices 1 2 3 4 5 6 
#
# 1 114.4780 71.6072 56.2911 -5.6090 -26.4764 -4.4483
# 2 71.6072 110.6908 50.2479 -2.9989 -12.5222 3.4998
# 3 56.2911 50.2479 96.0653 -17.4038 -2.0965 9.2485
# 4 -5.6090 -2.9989 -17.4038 29.2048 6.2639 -3.6764
# 5 -26.4764 -12.5222 -2.0965 6.2639 42.1488 -4.7250
# 6 -4.4483 3.4998 9.2485 -3.6764 -4.7250 26.7685
#
#
#
# Elastic Compliance Matrix: (Units=1/GPa)
#
#
# Indices 1 2 3 4 5 6 
#
# 1 0.022183 -0.008956 -0.009693 -0.003868 0.012474 0.009877
# 2 -0.008956 0.016310 -0.003432 -0.002255 -0.000942 -0.002911
# 3 -0.009693 -0.003432 0.020445 0.010778 -0.008620 -0.008267
# 4 -0.003868 -0.002255 0.010778 0.041574 -0.008731 0.000097
# 5 0.012474 -0.000942 -0.008620 -0.008731 0.033253 0.009845
# 6 0.009877 -0.002911 -0.008267 0.000097 0.009845 0.043987
#
#
# Mechanical properties :
#
#
# Convention : Reuss Voigt Hill
#
# Bulk Modulus (GPa) = 67.68012 75.28074 71.48043
# Shear Modulus (GPa) = 22.04186 29.16361 25.60273
#
# Velocity S-wave (km/s) = 3.36392 3.86938 3.62547
# Velocity P-wave (km/s) = 7.05930 7.65576 7.36358
#
# Compressibility (1/GPa) = 0.01477539
#
# Stress axis : x y z
#
# Youngs Moduli (GPa) = 45.07950 61.31057 48.91140
#
# Poissons Ratio (x) = 0.54911 0.47411
# Poissons Ratio (y) = 0.40374 0.16787
# Poissons Ratio (z) = 0.43697 0.21043
#
# Static dielectric constant tensor:
#      x y z
#    x 3.207420 -0.004860 0.017000 
#    y -0.004860 3.579400 -0.087440 
#    z 0.017000 -0.087440 3.598410 
# 
# 
# High freq. dielectric constant tensor:
#      x y z
#    x 1.737560 0.001120 0.001030 
#    y 0.001120 1.753920 -0.008090 
#    z 0.001030 -0.008090 1.763650 
# 
# From -- ./inp_files/166472.got.cif
#   From: 2010.06.25/outbox.cif.g09.slc.cpg/sg2_84_cif.got.tgz:166472.got - 2010.06.27 13:26:56.
