data_PCOD8005967
_publ_section_title
;
Structure prediction by ZEFSAII (Michael W. Deem and Ramdas Pophale) SiO2 
 PCOD8005967
Probable space group: P -1
;
_chemical_formula_sum "Si O2"
_cell_formula_units_Z 12
_cell_length_a 9.375190
_cell_length_b 17.370885
_cell_length_c 8.610562
_cell_angle_alpha 140.166761
_cell_angle_beta 90.579062
_cell_angle_gamma 59.262622
_cell_volume 555.476674
_symmetry_space_group_name_H-M "P -1"
_symmetry_group_IT_number 2
_symmetry_cell_setting 'triclinic'
loop_
_space_group_symop_operation_xyz
x,y,z
-x,-y,-z
loop_
_atom_site_type_symbol
_atom_site_label
_atom_site_fract_x
_atom_site_fract_y
_atom_site_fract_z
Si Si1 0.793824 0.525898 0.874433
Si Si2 0.964241 0.833382 0.484637
Si Si3 0.815551 0.753247 0.776181
Si Si4 0.420035 0.877875 0.816304
Si Si5 0.387131 0.702110 0.294642
Si Si6 0.766124 0.799606 0.199791
O O1 0.902782 0.373879 0.776308
O O2 0.924955 0.400738 0.524420
O O3 0.516278 0.682882 0.121292
O O4 0.821000 0.651976 0.088674
O O5 0.878482 0.848558 0.338022
O O6 0.116762 0.853408 0.496403
O O7 0.752175 0.007923 0.863255
O O8 0.678504 0.734839 0.660489
O O9 0.854757 0.705244 0.883884
O O10 0.659701 0.974006 0.085899
O O11 0.420867 0.749932 0.531735
O O12 0.500000 0.500000 0.000000
O O13 0.500000 0.000000 0.500000
#
# Coordination Sequence:
#
# PCOD8005967 Si02
#       6
#     2   2   2   2   2   2
#     4  10  23  39  61  90 123 163 200 248 298 362
#     4  10  22  40  64  89 122 162 202 247 304 360
#     4  10  22  37  64  94 120 156 203 259 298 350
#     4  10  20  39  64  90 120 159 208 248 299 357
#     4  10  22  38  63  89 121 164 204 243 299 369
#     4  12  22  39  62  96 122 155 206 254 305 351
#
# _framework density 21.603066999999999
#
# number of rings (size 3 to 8) (size 9 to 14) (size 15 to 20)
#    0.000    1.667    1.667    2.500    9.333    0.000 
#    0.000    4.167    3.667    0.000    0.000    0.000 
#    0.000    0.000    0.000    0.000    0.000    0.000 
#
# Total GULP energy -148688.593008 kJ/mol
# GULP energy per Si atom -12390.716084 kJ/mol
# Density = 2.155390 g / cm^3
# Si number density = 21.603067 Si / 1000 Ang^3
#
#
#
# Elastic Constant Matrix: (Units=GPa)
#
#
# Indices 1 2 3 4 5 6 
#
# 1 158.5485 55.5147 68.0991 -36.5773 -7.7153 -19.3779
# 2 55.5147 66.5757 35.5606 -22.2250 -4.0898 -15.3111
# 3 68.0991 35.5606 104.7857 -21.9112 -4.5886 -7.2713
# 4 -36.5773 -22.2250 -21.9112 23.1596 2.8256 7.5361
# 5 -7.7153 -4.0898 -4.5886 2.8256 50.4140 -9.5185
# 6 -19.3779 -15.3111 -7.2713 7.5361 -9.5185 24.6884
#
#
#
# Elastic Compliance Matrix: (Units=1/GPa)
#
#
# Indices 1 2 3 4 5 6 
#
# 1 0.012358 -0.003552 -0.004276 0.010795 0.001256 0.003426
# 2 -0.003552 0.026466 -0.003091 0.013481 0.002362 0.009511
# 3 -0.004276 -0.003091 0.014122 0.004549 -0.000374 -0.002646
# 4 0.010795 0.013481 0.004549 0.080195 -0.002724 -0.007356
# 5 0.001256 0.002362 -0.000374 -0.002724 0.022581 0.011878
# 6 0.003426 0.009511 -0.002646 -0.007356 0.011878 0.055138
#
#
# Mechanical properties :
#
#
# Convention : Reuss Voigt Hill
#
# Bulk Modulus (GPa) = 32.14518 72.02875 52.08696
# Shear Modulus (GPa) = 20.57054 31.03476 25.80265
#
# Velocity S-wave (km/s) = 3.08913 3.79435 3.45976
# Velocity P-wave (km/s) = 5.25698 7.25330 6.33428
#
# Compressibility (1/GPa) = 0.03110886
#
# Stress axis : x y z
#
# Youngs Moduli (GPa) = 80.92105 37.78433 70.81114
#
# Poissons Ratio (x) = 0.13420 0.30276
# Poissons Ratio (y) = 0.28742 0.21888
# Poissons Ratio (z) = 0.34599 0.11679
#
# Static dielectric constant tensor:
#      x y z
#    x 4.856330 0.184660 -0.525070 
#    y 0.184660 4.054670 -0.329180 
#    z -0.525070 -0.329180 4.372920 
# 
# 
# High freq. dielectric constant tensor:
#      x y z
#    x 1.849000 0.002510 -0.010180 
#    y 0.002510 1.812100 -0.002890 
#    z -0.010180 -0.002890 1.869800 
# 
# From -- ./inp_files/144867.got.cif
#   From: 2010.06.25/outbox.cif.g09.slc.cpg/sg2_73_cif.got.tgz:144867.got - 2010.06.27 13:26:56.
