data_PCOD8005978
_publ_section_title
;
Structure prediction by ZEFSAII (Michael W. Deem and Ramdas Pophale) SiO2 
 PCOD8005978
Probable space group: P -1
;
_chemical_formula_sum "Si O2"
_cell_formula_units_Z 16
_cell_length_a 17.877306
_cell_length_b 20.366884
_cell_length_c 8.574658
_cell_angle_alpha 138.654565
_cell_angle_beta 51.243890
_cell_angle_gamma 158.855568
_cell_volume 706.985724
_symmetry_space_group_name_H-M "P -1"
_symmetry_group_IT_number 2
_symmetry_cell_setting 'triclinic'
loop_
_space_group_symop_operation_xyz
x,y,z
-x,-y,-z
loop_
_atom_site_type_symbol
_atom_site_label
_atom_site_fract_x
_atom_site_fract_y
_atom_site_fract_z
Si Si1 0.206876 0.817118 0.256318
Si Si2 0.994687 0.460991 0.681948
Si Si3 0.145352 0.171140 0.890459
Si Si4 0.593093 0.373357 0.035155
Si Si5 0.069869 0.877001 0.383145
Si Si6 0.501486 0.494723 0.236631
Si Si7 0.676446 0.268987 0.528635
Si Si8 0.258484 0.101395 0.207832
O O1 0.211285 0.937239 0.417228
O O2 0.072084 0.678397 0.345170
O O3 0.454324 0.009661 0.299406
O O4 0.101036 0.657584 0.968930
O O5 0.163317 0.564392 0.529752
O O6 0.782680 0.297679 0.571461
O O7 0.323383 0.362621 0.871106
O O8 0.069508 0.986829 0.647316
O O9 0.260419 0.298105 0.133789
O O10 0.940853 0.052488 0.918550
O O11 0.479324 0.370389 0.130930
O O12 0.418311 0.171999 0.035251
O O13 0.827253 0.608442 0.224456
O O14 0.611646 0.315367 0.764963
O O15 0.167197 0.964594 0.237845
O O16 0.589646 0.662449 0.531839
#
# Coordination Sequence:
#
# PCOD8005978 Si02
#       8
#     2   2   2   2   2   2   2   2
#     4  11  23  45  71  99 128 165 213 264 328 392
#     4  10  24  46  73  96 128 166 210 270 326 390
#     4  10  20  39  65  89 125 174 220 263 322 367
#     4  12  23  40  64  94 133 168 218 262 317 384
#     4  11  22  42  63  94 134 166 212 271 316 377
#     4  10  20  39  64  90 124 173 222 266 311 378
#     4  11  24  45  68 100 130 167 211 267 325 385
#     4  11  23  41  62  90 133 178 210 269 319 366
#
# _framework density 22.631291999999998
#
# number of rings (size 3 to 8) (size 9 to 14) (size 15 to 20)
#    0.000    1.250    3.750    2.625    0.000    2.500 
#    4.500    0.000    0.000    0.000    0.000    0.000 
#    0.000    0.000    0.000    0.000    0.000    0.000 
#
# Total GULP energy -198430.148374 kJ/mol
# GULP energy per Si atom -12401.884273 kJ/mol
# Density = 2.257978 g / cm^3
# Si number density = 22.631292 Si / 1000 Ang^3
#
#
#
# Elastic Constant Matrix: (Units=GPa)
#
#
# Indices 1 2 3 4 5 6 
#
# 1 104.5180 53.2725 29.7035 -2.7088 10.8236 -4.9564
# 2 53.2725 144.8112 45.2095 -6.5733 9.2497 12.3888
# 3 29.7035 45.2095 54.0364 3.1601 21.2005 10.6735
# 4 -2.7088 -6.5733 3.1601 37.2466 1.4993 3.9672
# 5 10.8236 9.2497 21.2005 1.4993 18.1547 4.2260
# 6 -4.9564 12.3888 10.6735 3.9672 4.2260 16.1226
#
#
#
# Elastic Compliance Matrix: (Units=1/GPa)
#
#
# Indices 1 2 3 4 5 6 
#
# 1 0.014210 -0.004420 -0.005453 -0.000475 -0.002649 0.012186
# 2 -0.004420 0.011777 -0.010025 0.002967 0.009738 -0.007055
# 3 -0.005453 -0.010025 0.052194 -0.003032 -0.048856 -0.014975
# 4 -0.000475 0.002967 -0.003032 0.028360 0.001802 -0.007869
# 5 -0.002649 0.009738 -0.048856 0.001802 0.109810 -0.005180
# 6 0.012186 -0.007055 -0.014975 -0.007869 -0.005180 0.084400
#
#
# Mechanical properties :
#
#
# Convention : Reuss Voigt Hill
#
# Bulk Modulus (GPa) = 26.05109 62.19295 44.12202
# Shear Modulus (GPa) = 14.15058 25.98344 20.06701
#
# Velocity S-wave (km/s) = 2.50324 3.39207 2.98097
# Velocity P-wave (km/s) = 4.45994 6.54844 5.60237
#
# Compressibility (1/GPa) = 0.03838611
#
# Stress axis : x y z
#
# Youngs Moduli (GPa) = 70.37127 84.90823 19.15933
#
# Poissons Ratio (x) = 0.37530 0.10448
# Poissons Ratio (y) = 0.31105 0.19206
# Poissons Ratio (z) = 0.38374 0.85117
#
# Static dielectric constant tensor:
#      x y z
#    x 3.983740 -0.042300 0.310270 
#    y -0.042300 4.261610 0.101680 
#    z 0.310270 0.101680 4.156960 
# 
# 
# High freq. dielectric constant tensor:
#      x y z
#    x 1.882920 -0.003350 0.021190 
#    y -0.003350 1.908760 0.008510 
#    z 0.021190 0.008510 1.890040 
# 
# From -- ./inp_files/337814.got.cif
#   From: 2010.06.25/outbox.cif.g09.slc.cpg/sg2_169_cif.got.tgz:337814.got - 2010.06.27 13:26:56.
