data_PCOD8005650
_publ_section_title
;
Structure prediction by ZEFSAII (Michael W. Deem and Ramdas Pophale) SiO2 
 PCOD8005650
Probable space group: P -1
;
_chemical_formula_sum "Si O2"
_cell_formula_units_Z 16
_cell_length_a 14.533776
_cell_length_b 11.200738
_cell_length_c 15.224488
_cell_angle_alpha 46.660130
_cell_angle_beta 139.171460
_cell_angle_gamma 151.956385
_cell_volume 760.420717
_symmetry_space_group_name_H-M "P -1"
_symmetry_group_IT_number 2
_symmetry_cell_setting 'triclinic'
loop_
_space_group_symop_operation_xyz
x,y,z
-x,-y,-z
loop_
_atom_site_type_symbol
_atom_site_label
_atom_site_fract_x
_atom_site_fract_y
_atom_site_fract_z
Si Si1 0.564508 0.562214 0.694982
Si Si2 0.912263 0.382329 0.247892
Si Si3 0.482761 0.857509 0.138436
Si Si4 0.816054 0.226015 0.910618
Si Si5 0.142061 0.284310 0.438810
Si Si6 0.006206 0.132899 0.224146
Si Si7 0.391135 0.649660 0.860972
Si Si8 0.587578 0.562874 0.173341
O O1 0.538567 0.345744 0.807322
O O2 0.394778 0.472501 0.544250
O O3 0.540419 0.628549 0.739156
O O4 0.803358 0.813038 0.704366
O O5 0.826537 0.439971 0.227108
O O6 0.011541 0.562981 0.144012
O O7 0.087064 0.400745 0.397581
O O8 0.711094 0.081878 0.237602
O O9 0.279284 0.712671 0.129066
O O10 0.500000 0.000000 0.000000
O O11 0.609785 0.952054 0.854610
O O12 0.952573 0.229990 0.069836
O O13 0.092954 0.286141 0.300895
O O14 0.000000 0.000000 0.500000
O O15 0.796911 0.831329 0.235462
O O16 0.339100 0.515631 0.799337
O O17 0.433238 0.554946 0.015919
#
# Coordination Sequence:
#
# PCOD8005650 Si02
#       8
#     2   2   2   2   2   2   2   2
#     4  12  23  37  57  84 118 156 194 234 284 345
#     4  11  21  38  58  83 119 155 191 237 290 336
#     4  11  20  32  55  85 116 148 184 234 295 346
#     4  10  21  36  60  91 117 147 190 240 291 349
#     4  12  23  40  58  83 119 160 195 232 281 348
#     4  11  22  37  60  88 118 153 190 235 292 344
#     4   9  21  38  62  89 114 149 190 244 293 339
#     4  10  20  39  61  88 119 146 191 241 293 344
#
# _framework density 21.040984000000002
#
# number of rings (size 3 to 8) (size 9 to 14) (size 15 to 20)
#    0.000    1.250    2.500    5.625    0.000    2.500 
#    0.000    4.375    0.000    1.500    0.000    0.000 
#    0.000    0.000    0.000    0.000    0.000    0.000 
#
# Total GULP energy -198310.334459 kJ/mol
# GULP energy per Si atom -12394.395904 kJ/mol
# Density = 2.099309 g / cm^3
# Si number density = 21.040984 Si / 1000 Ang^3
#
#
#
# Elastic Constant Matrix: (Units=GPa)
#
#
# Indices 1 2 3 4 5 6 
#
# 1 150.3903 35.9871 46.0902 4.5846 10.4621 9.7558
# 2 35.9871 32.9261 11.2400 7.6856 10.3406 9.7764
# 3 46.0902 11.2400 80.1359 11.1360 23.9682 -2.3005
# 4 4.5846 7.6856 11.1360 25.8597 -3.5249 5.3494
# 5 10.4621 10.3406 23.9682 -3.5249 26.7225 8.6572
# 6 9.7558 9.7764 -2.3005 5.3494 8.6572 34.5835
#
#
#
# Elastic Compliance Matrix: (Units=1/GPa)
#
#
# Indices 1 2 3 4 5 6 
#
# 1 0.012599 -0.015137 -0.010532 0.009580 0.013176 -0.004756
# 2 -0.015137 0.058023 0.013782 -0.025083 -0.032452 0.000788
# 3 -0.010532 0.013782 0.031389 -0.023717 -0.037064 0.014110
# 4 0.009580 -0.025083 -0.023717 0.063869 0.041291 -0.017405
# 5 0.013176 -0.032452 -0.037064 0.041291 0.092079 -0.026445
# 6 -0.004756 0.000788 0.014110 -0.017405 -0.026445 0.040285
#
#
# Mechanical properties :
#
#
# Convention : Reuss Voigt Hill
#
# Bulk Modulus (GPa) = 12.78146 50.00965 31.39555
# Shear Modulus (GPa) = 14.36379 28.77547 21.56963
#
# Velocity S-wave (km/s) = 2.61561 3.70211 3.20523
# Velocity P-wave (km/s) = 3.89995 6.48795 5.35271
#
# Compressibility (1/GPa) = 0.07823834
#
# Stress axis : x y z
#
# Youngs Moduli (GPa) = 79.37057 17.23443 31.85782
#
# Poissons Ratio (x) = 0.26088 0.33552
# Poissons Ratio (y) = 1.20145 -0.43907
# Poissons Ratio (z) = 0.83592 -0.23753
#
# Static dielectric constant tensor:
#      x y z
#    x 4.093500 0.159190 0.119750 
#    y 0.159190 3.793360 0.188170 
#    z 0.119750 0.188170 4.005410 
# 
# 
# High freq. dielectric constant tensor:
#      x y z
#    x 1.832110 0.020870 0.015450 
#    y 0.020870 1.811760 0.002180 
#    z 0.015450 0.002180 1.810940 
# 
# From -- ./inp_files/518860.got.cif
#   From: 2010.06.25/outbox.cif.g09.slc.cpg/sg2_260_cif.got.tgz:518860.got - 2010.06.27 13:26:56.
