data_PCOD8005694
_publ_section_title
;
Structure prediction by ZEFSAII (Michael W. Deem and Ramdas Pophale) SiO2 
 PCOD8005694
Probable space group: P -1
;
_chemical_formula_sum "Si O2"
_cell_formula_units_Z 16
_cell_length_a 17.279808
_cell_length_b 9.735484
_cell_length_c 20.011786
_cell_angle_alpha 143.614638
_cell_angle_beta 21.670510
_cell_angle_gamma 142.009266
_cell_volume 725.078718
_symmetry_space_group_name_H-M "P -1"
_symmetry_group_IT_number 2
_symmetry_cell_setting 'triclinic'
loop_
_space_group_symop_operation_xyz
x,y,z
-x,-y,-z
loop_
_atom_site_type_symbol
_atom_site_label
_atom_site_fract_x
_atom_site_fract_y
_atom_site_fract_z
Si Si1 0.384020 0.911651 0.255004
Si Si2 0.960689 0.774777 0.330998
Si Si3 0.355943 0.681468 0.599907
Si Si4 0.248120 0.773324 0.574551
Si Si5 0.802872 0.228739 0.987042
Si Si6 0.560506 0.826034 0.222646
Si Si7 0.172738 0.535878 0.181285
Si Si8 0.199437 0.268685 0.775887
O O1 0.434497 0.836924 0.259312
O O2 0.342397 0.677622 0.151691
O O3 0.171581 0.022798 0.467490
O O4 0.575512 0.094886 0.141209
O O5 0.805467 0.546536 0.334154
O O6 0.080504 0.716297 0.278148
O O7 0.139020 0.869807 0.169680
O O8 0.342389 0.685555 0.531890
O O9 0.604112 0.668052 0.410616
O O10 0.300791 0.914642 0.770827
O O11 0.392978 0.741498 0.382570
O O12 0.016706 0.618876 0.684830
O O13 0.235016 0.046664 0.704564
O O14 0.801454 0.506460 0.088560
O O15 0.978320 0.188696 0.884116
O O16 0.717414 0.640240 0.020403
#
# Coordination Sequence:
#
# PCOD8005694 Si02
#       8
#     2   2   2   2   2   2   2   2
#     4  12  26  47  61  95 136 172 220 264 308 386
#     4  11  25  41  68  95 127 178 208 266 332 370
#     4  10  22  40  68  98 136 155 213 270 331 385
#     4  10  23  42  66  98 130 163 209 274 322 381
#     4  11  25  37  66  93 129 171 211 260 317 390
#     4  11  24  40  70  94 128 176 208 266 333 371
#     4  11  27  43  67  95 129 173 226 260 307 388
#     4  10  20  39  61  96 132 157 203 268 321 379
#
# _framework density 22.066569000000001
#
# number of rings (size 3 to 8) (size 9 to 14) (size 15 to 20)
#    0.000    1.250    1.250    4.500    8.750    4.000 
#    0.000    0.000    0.000    0.000    0.000    0.000 
#    0.000    0.000    0.000    0.000    0.000    0.000 
#
# Total GULP energy -198454.010059 kJ/mol
# GULP energy per Si atom -12403.375629 kJ/mol
# Density = 2.201634 g / cm^3
# Si number density = 22.066569 Si / 1000 Ang^3
#
#
#
# Elastic Constant Matrix: (Units=GPa)
#
#
# Indices 1 2 3 4 5 6 
#
# 1 73.2897 16.0445 23.4441 -8.5995 6.9888 9.9795
# 2 16.0445 42.9637 14.7914 -0.3367 8.0275 7.9182
# 3 23.4441 14.7914 99.8745 7.9765 11.5718 -11.6787
# 4 -8.5995 -0.3367 7.9765 30.7179 -3.3550 1.2746
# 5 6.9888 8.0275 11.5718 -3.3550 32.7805 2.5179
# 6 9.9795 7.9182 -11.6787 1.2746 2.5179 32.5502
#
#
#
# Elastic Compliance Matrix: (Units=1/GPa)
#
#
# Indices 1 2 3 4 5 6 
#
# 1 0.017650 -0.003661 -0.004880 0.006441 0.000017 -0.006525
# 2 -0.003661 0.027881 -0.003545 0.000007 -0.004288 -0.006601
# 3 -0.004880 -0.003545 0.013509 -0.005675 -0.004035 0.007740
# 4 0.006441 0.000007 -0.005675 0.036599 0.004821 -0.005819
# 5 0.000017 -0.004288 -0.004035 0.004821 0.033717 -0.003207
# 6 -0.006525 -0.006601 0.007740 -0.005819 -0.003207 0.037581
#
#
# Mechanical properties :
#
#
# Convention : Reuss Voigt Hill
#
# Bulk Modulus (GPa) = 28.68082 36.07642 32.37862
# Shear Modulus (GPa) = 24.66316 29.99958 27.33137
#
# Velocity S-wave (km/s) = 3.34679 3.69114 3.52317
# Velocity P-wave (km/s) = 5.28775 5.87796 5.59065
#
# Compressibility (1/GPa) = 0.03486651
#
# Stress axis : x y z
#
# Youngs Moduli (GPa) = 56.65840 35.86677 74.02466
#
# Poissons Ratio (x) = 0.13131 0.36125
# Poissons Ratio (y) = 0.20743 0.26244
# Poissons Ratio (z) = 0.27650 0.12716
#
# Static dielectric constant tensor:
#      x y z
#    x 3.740500 0.029500 -0.108790 
#    y 0.029500 3.997700 -0.058870 
#    z -0.108790 -0.058870 4.189670 
# 
# 
# High freq. dielectric constant tensor:
#      x y z
#    x 1.859180 -0.004000 -0.005760 
#    y -0.004000 1.864490 -0.000290 
#    z -0.005760 -0.000290 1.882760 
# 
# From -- ./inp_files/599767.got.cif
#   From: 2010.06.25/outbox.cif.g09.slc.cpg/sg2_300_cif.got.tgz:599767.got - 2010.06.27 13:26:56.
