data_PCOD8005548
_publ_section_title
;
Structure prediction by ZEFSAII (Michael W. Deem and Ramdas Pophale) SiO2 
 PCOD8005548
Probable space group: P -1
;
_chemical_formula_sum "Si O2"
_cell_formula_units_Z 16
_cell_length_a 10.890243
_cell_length_b 6.920861
_cell_length_c 11.171936
_cell_angle_alpha 84.900689
_cell_angle_beta 101.605692
_cell_angle_gamma 114.648438
_cell_volume 749.646766
_symmetry_space_group_name_H-M "P -1"
_symmetry_group_IT_number 2
_symmetry_cell_setting 'triclinic'
loop_
_space_group_symop_operation_xyz
x,y,z
-x,-y,-z
loop_
_atom_site_type_symbol
_atom_site_label
_atom_site_fract_x
_atom_site_fract_y
_atom_site_fract_z
Si Si1 0.683972 0.470686 0.901058
Si Si2 0.595442 0.772296 0.735490
Si Si3 0.923732 0.560963 0.767663
Si Si4 0.184334 0.160054 0.421796
Si Si5 0.118267 0.695165 0.446339
Si Si6 0.292894 0.520625 0.613238
Si Si7 0.515703 0.971448 0.143935
Si Si8 0.223466 0.640988 0.831436
O O1 0.659830 0.679188 0.857553
O O2 0.821874 0.485859 0.862761
O O3 0.544340 0.281288 0.833310
O O4 0.706971 0.444523 0.046794
O O5 0.694444 0.847925 0.636963
O O6 0.452995 0.600263 0.666097
O O7 0.579879 0.963595 0.790306
O O8 0.907986 0.747370 0.676116
O O9 0.891832 0.350301 0.694437
O O10 0.079677 0.645061 0.841507
O O11 0.243366 0.298839 0.544503
O O12 0.100372 0.913569 0.458290
O O13 0.263219 0.698122 0.521018
O O14 0.000000 0.500000 0.500000
O O15 0.208230 0.487704 0.723254
O O16 0.675027 0.115128 0.198922
O O17 0.500000 0.000000 0.000000
#
# Coordination Sequence:
#
# PCOD8005548 Si02
#       8
#     2   2   2   2   2   2   2   2
#     4  10  21  39  64  85 124 161 195 250 294 351
#     4  10  21  40  60  93 120 152 205 240 299 359
#     4  10  21  40  61  90 118 158 203 240 303 355
#     4  10  23  39  64  86 121 160 193 249 301 356
#     4  11  22  41  58  86 120 152 198 248 298 350
#     4  10  22  37  59  90 121 154 201 243 299 355
#     4   9  20  36  58  85 119 157 196 241 295 341
#     4  10  20  39  59  91 124 156 201 248 291 355
#
# _framework density 21.343385000000001
#
# number of rings (size 3 to 8) (size 9 to 14) (size 15 to 20)
#    0.000    2.000    1.250    1.500    0.000    9.000 
#    2.250    3.750    0.000    9.000    0.000    0.000 
#    0.000    0.000    0.000    0.000    0.000    0.000 
#
# Total GULP energy -198304.187807 kJ/mol
# GULP energy per Si atom -12394.011738 kJ/mol
# Density = 2.129481 g / cm^3
# Si number density = 21.343385 Si / 1000 Ang^3
#
#
#
# Elastic Constant Matrix: (Units=GPa)
#
#
# Indices 1 2 3 4 5 6 
#
# 1 63.4758 -3.2378 16.3878 3.2997 5.9392 13.7239
# 2 -3.2378 94.5997 29.7473 7.5048 -3.8285 -0.9145
# 3 16.3878 29.7473 87.3127 9.9137 -0.8919 -2.8277
# 4 3.2997 7.5048 9.9137 24.5144 -5.2489 -6.9250
# 5 5.9392 -3.8285 -0.8919 -5.2489 33.9612 -0.1762
# 6 13.7239 -0.9145 -2.8277 -6.9250 -0.1762 25.0340
#
#
#
# Elastic Compliance Matrix: (Units=1/GPa)
#
#
# Indices 1 2 3 4 5 6 
#
# 1 0.020722 0.002301 -0.004419 -0.006528 -0.004560 -0.013613
# 2 0.002301 0.012235 -0.004346 -0.002794 0.000420 -0.002075
# 3 -0.004419 -0.004346 0.014194 -0.002901 0.000223 0.003066
# 4 -0.006528 -0.002794 -0.002901 0.050391 0.008628 0.017149
# 5 -0.004560 0.000420 0.000223 0.008628 0.031656 0.005150
# 6 -0.013613 -0.002075 0.003066 0.017149 0.005150 0.052459
#
#
# Mechanical properties :
#
#
# Convention : Reuss Voigt Hill
#
# Bulk Modulus (GPa) = 29.22142 36.79809 33.00976
# Shear Modulus (GPa) = 24.27261 30.20132 27.23696
#
# Velocity S-wave (km/s) = 3.37596 3.76576 3.57617
# Velocity P-wave (km/s) = 5.37745 6.01551 5.70540
#
# Compressibility (1/GPa) = 0.03422147
#
# Stress axis : x y z
#
# Youngs Moduli (GPa) = 48.25885 81.73427 70.45162
#
# Poissons Ratio (x) = -0.18804 0.31135
# Poissons Ratio (y) = -0.11103 0.30617
# Poissons Ratio (z) = 0.21327 0.35521
#
# Static dielectric constant tensor:
#      x y z
#    x 4.055810 0.019300 -0.055770 
#    y 0.019300 3.863040 0.148430 
#    z -0.055770 0.148430 3.901320 
# 
# 
# High freq. dielectric constant tensor:
#      x y z
#    x 1.847510 0.001470 -0.008020 
#    y 0.001470 1.818780 0.007800 
#    z -0.008020 0.007800 1.840930 
# 
# From -- ./inp_files/77401.got.cif
#   From: 2010.06.25/outbox.cif.g09.slc.cpg/sg2_39_cif.got.tgz:77401.got - 2010.06.27 13:26:56.
