data_PCOD8005386
_publ_section_title
;
Structure prediction by ZEFSAII (Michael W. Deem and Ramdas Pophale) SiO2 
 PCOD8005386
Probable space group: P -1
;
_chemical_formula_sum "Si O2"
_cell_formula_units_Z 10
_cell_length_a 12.308706
_cell_length_b 14.401171
_cell_length_c 8.656372
_cell_angle_alpha 34.259761
_cell_angle_beta 42.374656
_cell_angle_gamma 29.697817
_cell_volume 426.754054
_symmetry_space_group_name_H-M "P -1"
_symmetry_group_IT_number 2
_symmetry_cell_setting 'triclinic'
loop_
_space_group_symop_operation_xyz
x,y,z
-x,-y,-z
loop_
_atom_site_type_symbol
_atom_site_label
_atom_site_fract_x
_atom_site_fract_y
_atom_site_fract_z
Si Si1 0.037772 0.721160 0.806832
Si Si2 0.305851 0.810962 0.574366
Si Si3 0.162370 0.355533 0.386650
Si Si4 0.330023 0.593918 0.412401
Si Si5 0.336016 0.886186 0.781754
O O1 0.179425 0.735010 0.755911
O O2 0.112599 0.676770 0.609406
O O3 0.055214 0.522903 0.121746
O O4 0.787875 0.963986 0.728987
O O5 0.564890 0.611364 0.535587
O O6 0.272903 0.844878 0.744624
O O7 0.407507 0.247953 0.310726
O O8 0.000000 0.500000 0.500000
O O9 0.176825 0.152596 0.610735
O O10 0.500000 0.500000 0.500000
O O11 0.280743 0.800532 0.096224
#
# Coordination Sequence:
#
# PCOD8005386 Si02
#       5
#     2   2   2   2   2
#     4  10  23  42  66  93 126 164 209 257 315 362
#     4  10  22  39  69  96 122 159 216 260 302 368
#     4  11  26  42  63  89 134 168 201 259 318 371
#     4  10  20  38  68  91 124 159 208 261 304 362
#     4  11  24  42  65  96 123 167 212 252 314 372
#
# _framework density 23.432700000000001
#
# number of rings (size 3 to 8) (size 9 to 14) (size 15 to 20)
#    0.000    1.600    4.000    0.600    8.400    3.200 
#    0.000    2.000    0.000    0.000    0.000    0.000 
#    0.000    0.000    0.000    0.000    0.000    0.000 
#
# Total GULP energy -123971.414646 kJ/mol
# GULP energy per Si atom -12397.141465 kJ/mol
# Density = 2.337937 g / cm^3
# Si number density = 23.432700 Si / 1000 Ang^3
#
#
#
# Elastic Constant Matrix: (Units=GPa)
#
#
# Indices 1 2 3 4 5 6 
#
# 1 71.7740 24.3947 45.2448 -2.5480 19.6745 29.9828
# 2 24.3947 142.9639 96.9008 -18.3264 -2.2316 39.3684
# 3 45.2448 96.9008 216.3085 -28.2785 31.4661 26.8885
# 4 -2.5480 -18.3264 -28.2785 50.0354 1.6143 4.5132
# 5 19.6745 -2.2316 31.4661 1.6143 22.7349 4.0467
# 6 29.9828 39.3684 26.8885 4.5132 4.0467 30.9274
#
#
#
# Elastic Compliance Matrix: (Units=1/GPa)
#
#
# Indices 1 2 3 4 5 6 
#
# 1 0.035240 0.006180 -0.001032 0.007737 -0.022001 -0.039383
# 2 0.006180 0.018981 -0.007585 0.004940 0.011245 -0.025751
# 3 -0.001032 -0.007585 0.010499 0.003319 -0.015157 0.003026
# 4 0.007737 0.004940 0.003319 0.026102 -0.009227 -0.019277
# 5 -0.022001 0.011245 -0.015157 -0.009227 0.083881 0.010563
# 6 -0.039383 -0.025751 0.003026 -0.019277 0.010563 0.102093
#
#
# Mechanical properties :
#
#
# Convention : Reuss Voigt Hill
#
# Bulk Modulus (GPa) = 16.70932 84.90298 50.80615
# Shear Modulus (GPa) = 16.57715 38.37328 27.47521
#
# Velocity S-wave (km/s) = 2.66265 4.05111 3.42792
# Velocity P-wave (km/s) = 4.07421 7.62846 6.11525
#
# Compressibility (1/GPa) = 0.05984683
#
# Stress axis : x y z
#
# Youngs Moduli (GPa) = 28.37667 52.68423 95.24390
#
# Poissons Ratio (x) = -0.32558 0.09829
# Poissons Ratio (y) = -0.17536 0.72239
# Poissons Ratio (z) = 0.02928 0.39959
#
# Static dielectric constant tensor:
#      x y z
#    x 4.281080 0.628560 0.229590 
#    y 0.628560 5.713710 -0.192160 
#    z 0.229590 -0.192160 4.222350 
# 
# 
# High freq. dielectric constant tensor:
#      x y z
#    x 1.911040 0.011310 0.025790 
#    y 0.011310 1.948100 -0.021680 
#    z 0.025790 -0.021680 1.921190 
# 
# From -- ./inp_files/144117.got.cif
#   From: 2010.06.25/outbox.cif.g09.slc.cpg/sg2_73_cif.got.tgz:144117.got - 2010.06.27 13:26:56.
