data_PCOD8005504
_publ_section_title
;
Structure prediction by ZEFSAII (Michael W. Deem and Ramdas Pophale) SiO2 
 PCOD8005504
Probable space group: P -1
;
_chemical_formula_sum "Si O2"
_cell_formula_units_Z 16
_cell_length_a 13.503524
_cell_length_b 9.941293
_cell_length_c 13.075352
_cell_angle_alpha 39.490948
_cell_angle_beta 123.848201
_cell_angle_gamma 135.619520
_cell_volume 780.685703
_symmetry_space_group_name_H-M "P -1"
_symmetry_group_IT_number 2
_symmetry_cell_setting 'triclinic'
loop_
_space_group_symop_operation_xyz
x,y,z
-x,-y,-z
loop_
_atom_site_type_symbol
_atom_site_label
_atom_site_fract_x
_atom_site_fract_y
_atom_site_fract_z
Si Si1 0.133467 0.154031 0.558348
Si Si2 0.306911 0.506373 0.289130
Si Si3 0.359793 0.018801 0.110102
Si Si4 0.787681 0.529162 0.401910
Si Si5 0.019117 0.274995 0.141488
Si Si6 0.085506 0.037479 0.926608
Si Si7 0.386238 0.017111 0.359999
Si Si8 0.502472 0.521269 0.225328
O O1 0.276923 0.318132 0.478129
O O2 0.121788 0.345826 0.515480
O O3 0.000000 0.000000 0.500000
O O4 0.122914 0.943554 0.752050
O O5 0.168001 0.356710 0.227612
O O6 0.442022 0.554006 0.277384
O O7 0.332042 0.767775 0.188566
O O8 0.424473 0.047222 0.243801
O O9 0.216111 0.012153 0.043312
O O10 0.469736 0.256646 0.965282
O O11 0.866989 0.689696 0.252546
O O12 0.760591 0.250104 0.544803
O O13 0.642657 0.525627 0.331816
O O14 0.018635 0.182446 0.081673
O O15 0.000000 0.500000 0.000000
O O16 0.000000 0.000000 0.000000
O O17 0.500000 0.000000 0.500000
O O18 0.385294 0.257458 0.258294
#
# Coordination Sequence:
#
# PCOD8005504 Si02
#       8
#     2   2   2   2   2   2   2   2
#     4   9  19  36  61  82 117 159 191 240 299 346
#     4  11  21  38  60  90 119 157 197 239 296 358
#     4  11  21  40  64  81 123 159 192 246 303 343
#     4   9  19  41  61  82 124 155 194 249 293 347
#     4  10  20  39  58  86 121 152 197 247 292 346
#     4  10  22  39  62  89 115 157 201 242 294 355
#     4  10  21  41  59  84 119 161 194 239 297 349
#     4  10  23  37  60  91 117 156 201 243 291 352
#
# _framework density 20.494803000000001
#
# number of rings (size 3 to 8) (size 9 to 14) (size 15 to 20)
#    0.000    2.000    2.500    0.750    1.750    0.500 
#    2.250    0.625    0.000    0.000    0.000    0.000 
#    0.000    0.000    0.000    0.000    0.000    0.000 
#
# Total GULP energy -198260.203309 kJ/mol
# GULP energy per Si atom -12391.262707 kJ/mol
# Density = 2.044816 g / cm^3
# Si number density = 20.494803 Si / 1000 Ang^3
#
#
#
# Elastic Constant Matrix: (Units=GPa)
#
#
# Indices 1 2 3 4 5 6 
#
# 1 102.5768 36.0813 55.2995 -11.2428 -33.7760 -18.7114
# 2 36.0813 136.9913 66.3695 -14.7217 -12.9721 -26.6841
# 3 55.2995 66.3695 125.0497 -16.7717 -33.6267 -19.7292
# 4 -11.2428 -14.7217 -16.7717 47.2870 -0.6046 2.3380
# 5 -33.7760 -12.9721 -33.6267 -0.6046 31.1034 6.4833
# 6 -18.7114 -26.6841 -19.7292 2.3380 6.4833 25.4517
#
#
#
# Elastic Compliance Matrix: (Units=1/GPa)
#
#
# Indices 1 2 3 4 5 6 
#
# 1 0.017658 -0.000679 -0.001753 0.003238 0.015680 0.006619
# 2 -0.000679 0.011390 -0.005194 0.001097 -0.003280 0.008151
# 3 -0.001753 -0.005194 0.015690 0.003598 0.012567 0.001896
# 4 0.003238 0.001097 0.003598 0.023529 0.007873 0.002153
# 5 0.015680 -0.003280 0.012567 0.007873 0.061236 0.001509
# 6 0.006619 0.008151 0.001896 0.002153 0.001509 0.053589
#
#
# Mechanical properties :
#
#
# Convention : Reuss Voigt Hill
#
# Bulk Modulus (GPa) = 33.91490 75.56873 54.74182
# Shear Modulus (GPa) = 24.01846 34.55959 29.28903
#
# Velocity S-wave (km/s) = 3.42706 4.11087 3.78444
# Velocity P-wave (km/s) = 5.67835 7.71262 6.77230
#
# Compressibility (1/GPa) = 0.02948556
#
# Stress axis : x y z
#
# Youngs Moduli (GPa) = 56.63057 87.79749 63.73585
#
# Poissons Ratio (x) = 0.05966 0.11174
# Poissons Ratio (y) = 0.03848 0.33101
# Poissons Ratio (z) = 0.09928 0.45598
#
# Static dielectric constant tensor:
#      x y z
#    x 3.283780 -0.010510 -0.275700 
#    y -0.010510 4.727880 -0.275380 
#    z -0.275700 -0.275380 4.311770 
# 
# 
# High freq. dielectric constant tensor:
#      x y z
#    x 1.755000 -0.010970 -0.018400 
#    y -0.010970 1.826870 -0.007010 
#    z -0.018400 -0.007010 1.820510 
# 
# From -- ./inp_files/179063.got.cif
#   From: 2010.06.25/outbox.cif.g09.slc.cpg/sg2_90_cif.got.tgz:179063.got - 2010.06.27 13:26:56.
