data_PCOD8005460
_publ_section_title
;
Structure prediction by ZEFSAII (Michael W. Deem and Ramdas Pophale) SiO2 
 PCOD8005460
Probable space group: P -1
;
_chemical_formula_sum "Si O2"
_cell_formula_units_Z 16
_cell_length_a 9.072013
_cell_length_b 14.280002
_cell_length_c 12.217317
_cell_angle_alpha 52.799864
_cell_angle_beta 37.434983
_cell_angle_gamma 55.519620
_cell_volume 754.127383
_symmetry_space_group_name_H-M "P -1"
_symmetry_group_IT_number 2
_symmetry_cell_setting 'triclinic'
loop_
_space_group_symop_operation_xyz
x,y,z
-x,-y,-z
loop_
_atom_site_type_symbol
_atom_site_label
_atom_site_fract_x
_atom_site_fract_y
_atom_site_fract_z
Si Si1 0.672644 0.523165 0.478746
Si Si2 0.693326 0.795169 0.280387
Si Si3 0.207252 0.411136 0.236222
Si Si4 0.516007 0.846360 0.703021
Si Si5 0.852120 0.173678 0.874193
Si Si6 0.585441 0.431950 0.823642
Si Si7 0.731819 0.074486 0.432835
Si Si8 0.763657 0.961829 0.926688
O O1 0.500000 0.500000 0.500000
O O2 0.738612 0.654024 0.337402
O O3 0.546261 0.506914 0.681815
O O4 0.915975 0.424225 0.388221
O O5 0.408567 0.845949 0.442709
O O6 0.866334 0.829000 0.252513
O O7 0.757733 0.851874 0.088598
O O8 0.315581 0.282707 0.311872
O O9 0.253638 0.511046 0.224153
O O10 0.320596 0.429271 0.036864
O O11 0.379021 0.870428 0.653362
O O12 0.691604 0.938906 0.565668
O O13 0.302600 0.855338 0.911035
O O14 0.732701 0.300178 0.802815
O O15 0.851283 0.072628 0.856246
O O16 0.024165 0.079617 0.260761
O O17 0.500000 0.000000 0.000000
#
# Coordination Sequence:
#
# PCOD8005460 Si02
#       8
#     2   2   2   2   2   2   2   2
#     4  12  28  44  66 102 143 184 222 277 350 411
#     4  12  25  46  69  99 135 178 234 280 327 407
#     4  10  22  43  69 100 131 176 234 286 330 395
#     4  10  20  38  72 103 130 169 231 288 326 390
#     4  11  21  44  71  98 135 171 233 280 330 398
#     4  10  23  41  69 100 128 179 233 281 328 397
#     4  11  23  40  68 101 132 176 224 281 337 393
#     4  12  28  44  66 101 143 182 215 276 350 407
#
# _framework density 21.216574000000001
#
# number of rings (size 3 to 8) (size 9 to 14) (size 15 to 20)
#    0.000    1.000    3.750    3.000    5.250    2.000 
#    4.500    0.000    0.000    0.000    0.000    0.000 
#    0.000    0.000    0.000    0.000    0.000    0.000 
#
# Total GULP energy -198481.885666 kJ/mol
# GULP energy per Si atom -12405.117854 kJ/mol
# Density = 2.116828 g / cm^3
# Si number density = 21.216574 Si / 1000 Ang^3
#
#
#
# Elastic Constant Matrix: (Units=GPa)
#
#
# Indices 1 2 3 4 5 6 
#
# 1 80.4946 23.0217 30.0236 -4.7526 -12.5802 -4.7402
# 2 23.0217 101.4941 61.1918 -4.8202 -5.7130 -3.1951
# 3 30.0236 61.1918 100.4954 4.6992 -6.0809 -11.1444
# 4 -4.7526 -4.8202 4.6992 43.9508 -10.5323 -2.7034
# 5 -12.5802 -5.7130 -6.0809 -10.5323 26.9202 4.8049
# 6 -4.7402 -3.1951 -11.1444 -2.7034 4.8049 15.0989
#
#
#
# Elastic Compliance Matrix: (Units=1/GPa)
#
#
# Indices 1 2 3 4 5 6 
#
# 1 0.015518 -0.000431 -0.004088 0.003931 0.007776 -0.000007
# 2 -0.000431 0.016351 -0.010314 0.003296 0.003062 -0.004673
# 3 -0.004088 -0.010314 0.018609 -0.003684 -0.003236 0.010639
# 4 0.003931 0.003296 -0.003684 0.026863 0.012188 0.000143
# 5 0.007776 0.003062 -0.003236 0.012188 0.047661 -0.012284
# 6 -0.000007 -0.004673 0.010639 0.000143 -0.012284 0.077026
#
#
# Mechanical properties :
#
#
# Convention : Reuss Voigt Hill
#
# Bulk Modulus (GPa) = 48.05077 56.77312 52.41194
# Shear Modulus (GPa) = 20.95283 28.41044 24.68163
#
# Velocity S-wave (km/s) = 3.14597 3.66330 3.41445
# Velocity P-wave (km/s) = 5.99108 6.68655 6.34835
#
# Compressibility (1/GPa) = 0.02081132
#
# Stress axis : x y z
#
# Youngs Moduli (GPa) = 64.44066 61.15828 53.73868
#
# Poissons Ratio (x) = 0.02638 0.21966
# Poissons Ratio (y) = 0.02780 0.55428
# Poissons Ratio (z) = 0.26341 0.63080
#
# Static dielectric constant tensor:
#      x y z
#    x -18.064150 -35.482370 10.610950 
#    y -35.482370 -54.125150 17.482180 
#    z 10.610950 17.482180 -1.006410 
# 
# 
# High freq. dielectric constant tensor:
#      x y z
#    x 1.798660 -0.008120 0.000840 
#    y -0.008120 1.846250 -0.000400 
#    z 0.000840 -0.000400 1.855260 
# 
# From -- ./inp_files/398502.got.cif
#   From: 2010.06.25/outbox.cif.g09.slc.cpg/sg2_200_cif.got.tgz:398502.got - 2010.06.27 13:26:56.
