data_PCOD8005892
_publ_section_title
;
Structure prediction by ZEFSAII (Michael W. Deem and Ramdas Pophale) SiO2 
 PCOD8005892
Probable space group: P -1
;
_chemical_formula_sum "Si O2"
_cell_formula_units_Z 12
_cell_length_a 5.214069
_cell_length_b 14.938878
_cell_length_c 9.300230
_cell_angle_alpha 112.253166
_cell_angle_beta 81.614774
_cell_angle_gamma 79.620433
_cell_volume 641.000489
_symmetry_space_group_name_H-M "P -1"
_symmetry_group_IT_number 2
_symmetry_cell_setting 'triclinic'
loop_
_space_group_symop_operation_xyz
x,y,z
-x,-y,-z
loop_
_atom_site_type_symbol
_atom_site_label
_atom_site_fract_x
_atom_site_fract_y
_atom_site_fract_z
Si Si1 0.248115 0.532612 0.436384
Si Si2 0.049308 0.748306 0.970087
Si Si3 0.238841 0.069638 0.383467
Si Si4 0.921770 0.734977 0.663415
Si Si5 0.826021 0.945615 0.288951
Si Si6 0.360015 0.354952 0.144474
O O1 0.500000 0.500000 0.500000
O O2 0.321137 0.475142 0.241495
O O3 0.000000 0.500000 0.500000
O O4 0.149072 0.653384 0.505359
O O5 0.344887 0.694839 0.970424
O O6 0.061038 0.772985 0.813814
O O7 0.856614 0.672384 0.963531
O O8 0.936950 0.849151 0.125857
O O9 0.211016 0.175899 0.377252
O O10 0.190744 0.089191 0.567858
O O11 0.535074 0.001469 0.286445
O O12 0.022993 0.017652 0.301939
O O13 0.686440 0.688070 0.718361
#
# Coordination Sequence:
#
# PCOD8005892 Si02
#       6
#     2   2   2   2   2   2
#     4  10  16  30  49  75 105 129 155 198 251 295
#     4  10  19  32  52  74 102 130 163 201 256 285
#     4  10  22  37  53  70 100 131 179 196 248 295
#     4   9  21  30  55  78  98 129 167 210 236 295
#     4  10  22  38  51  70  99 142 160 210 246 296
#     4   9  18  31  49  80 101 129 157 204 250 295
#
# _framework density 18.720734
#
# number of rings (size 3 to 8) (size 9 to 14) (size 15 to 20)
#    1.000    1.333    1.667    1.000    2.333    1.333 
#    0.000    0.000    0.000    2.000    0.000    0.000 
#    0.000    0.000    0.000    0.000    0.000    0.000 
#
# Total GULP energy -148675.042917 kJ/mol
# GULP energy per Si atom -12389.586910 kJ/mol
# Density = 1.867813 g / cm^3
# Si number density = 18.720734 Si / 1000 Ang^3
#
#
#
# Elastic Constant Matrix: (Units=GPa)
#
#
# Indices 1 2 3 4 5 6 
#
# 1 118.1855 20.0668 27.4716 8.8346 -18.8010 -11.1022
# 2 20.0668 19.0054 64.7758 33.3147 -5.4483 -4.2710
# 3 27.4716 64.7758 96.9967 43.8459 -9.2299 -4.3572
# 4 8.8346 33.3147 43.8459 28.3403 -10.2070 -3.9591
# 5 -18.8010 -5.4483 -9.2299 -10.2070 19.1288 10.4566
# 6 -11.1022 -4.2710 -4.3572 -3.9591 10.4566 17.0650
#
#
#
# Elastic Compliance Matrix: (Units=1/GPa)
#
#
# Indices 1 2 3 4 5 6 
#
# 1 0.011588 0.003518 -0.010378 0.013581 0.014668 -0.000067
# 2 0.003518 -0.035035 0.010487 0.029497 0.018970 -0.008583
# 3 -0.010378 0.010487 0.042611 -0.087646 -0.039089 0.010371
# 4 0.013581 0.029497 -0.087646 0.155098 0.069043 -0.012484
# 5 0.014668 0.018970 -0.039089 0.069043 0.118736 -0.052428
# 6 -0.000067 -0.008583 0.010371 -0.012484 -0.052428 0.088285
#
#
# Mechanical properties :
#
#
# Convention : Reuss Voigt Hill
#
# Bulk Modulus (GPa) = 37.85470 50.97956 44.41713
# Shear Modulus (GPa) = 13.06043 21.03170 17.04607
#
# Velocity S-wave (km/s) = 2.64416 3.35542 3.02080
# Velocity P-wave (km/s) = 5.43937 6.50404 5.99538
#
# Compressibility (1/GPa) = 0.02641680
#
# Stress axis : x y z
#
# Youngs Moduli (GPa) = 86.29592 -28.54264 23.46816
#
# Poissons Ratio (x) = 0.10040 0.24354
# Poissons Ratio (y) = -0.30356 -0.24610
# Poissons Ratio (z) = 0.89554 0.29931
#
# Static dielectric constant tensor:
#      x y z
#    x 3.625780 -0.070970 0.003920 
#    y -0.070970 3.208980 0.438090 
#    z 0.003920 0.438090 3.406600 
# 
# 
# High freq. dielectric constant tensor:
#      x y z
#    x 1.742660 -0.006720 0.000870 
#    y -0.006720 1.691270 0.043280 
#    z 0.000870 0.043280 1.716040 
# 
# From -- ./inp_files/31354.got.cif
#   From: 2010.06.25/outbox.cif.g09.slc.cpg/sg2_16_cif.got.tgz:31354.got - 2010.06.27 13:26:56.
