data_PCOD8005450
_publ_section_title
;
Structure prediction by ZEFSAII (Michael W. Deem and Ramdas Pophale) SiO2 
 PCOD8005450
Probable space group: P -1
;
_chemical_formula_sum "Si O2"
_cell_formula_units_Z 14
_cell_length_a 10.296035
_cell_length_b 16.334185
_cell_length_c 12.189137
_cell_angle_alpha 28.669017
_cell_angle_beta 127.201577
_cell_angle_gamma 138.303132
_cell_volume 645.936205
_symmetry_space_group_name_H-M "P -1"
_symmetry_group_IT_number 2
_symmetry_cell_setting 'triclinic'
loop_
_space_group_symop_operation_xyz
x,y,z
-x,-y,-z
loop_
_atom_site_type_symbol
_atom_site_label
_atom_site_fract_x
_atom_site_fract_y
_atom_site_fract_z
Si Si1 0.065390 0.440503 0.710707
Si Si2 0.649851 0.943182 0.607496
Si Si3 0.450248 0.439248 0.872428
Si Si4 0.688465 0.995397 0.104692
Si Si5 0.074345 0.806230 0.361641
Si Si6 0.769276 0.896824 0.497614
Si Si7 0.709894 0.804233 0.133868
O O1 0.265586 0.456722 0.772477
O O2 0.104193 0.619130 0.605195
O O3 0.000000 0.500000 0.500000
O O4 0.894770 0.212179 0.931423
O O5 0.702369 0.986948 0.454255
O O6 0.500000 0.000000 0.500000
O O7 0.852897 0.075246 0.624846
O O8 0.553112 0.703474 0.866078
O O9 0.659179 0.652817 0.744608
O O10 0.450379 0.353734 0.851226
O O11 0.702220 0.931386 0.308141
O O12 0.633115 0.813458 0.203533
O O13 0.500000 0.000000 0.000000
O O14 0.849337 0.724603 0.321587
O O15 0.190050 0.964271 0.134557
O O16 0.000000 0.000000 0.500000
#
# Coordination Sequence:
#
# PCOD8005450 Si02
#       7
#     2   2   2   2   2   2   2
#     4  12  20  41  72 107 135 181 236 278 345 420
#     4  11  25  45  72  98 136 189 242 277 330 430
#     4  11  24  43  77  98 131 186 240 281 335 425
#     4  12  27  42  66 104 148 179 224 294 356 405
#     4  10  20  38  71 101 128 171 236 286 321 401
#     4  12  27  48  66 101 148 183 224 293 365 409
#     4  10  20  40  66 101 133 169 228 287 340 398
#
# _framework density 21.673966
#
# number of rings (size 3 to 8) (size 9 to 14) (size 15 to 20)
#    0.000    0.857    2.857    5.571    4.000    1.714 
#    2.571    1.429    0.000    0.000    0.000    0.000 
#    0.000    0.000    0.000    0.000    0.000    0.000 
#
# Total GULP energy -173578.537938 kJ/mol
# GULP energy per Si atom -12398.466996 kJ/mol
# Density = 2.162463 g / cm^3
# Si number density = 21.673966 Si / 1000 Ang^3
#
#
#
# Elastic Constant Matrix: (Units=GPa)
#
#
# Indices 1 2 3 4 5 6 
#
# 1 140.3852 64.9843 45.4143 0.9044 6.9855 -16.3378
# 2 64.9843 90.2376 24.0186 0.0539 -7.3570 -9.6426
# 3 45.4143 24.0186 86.9514 -1.7634 10.2701 -6.5441
# 4 0.9044 0.0539 -1.7634 44.3854 -2.9284 -7.9545
# 5 6.9855 -7.3570 10.2701 -2.9284 34.9108 5.5185
# 6 -16.3378 -9.6426 -6.5441 -7.9545 5.5185 49.6271
#
#
#
# Elastic Compliance Matrix: (Units=1/GPa)
#
#
# Indices 1 2 3 4 5 6 
#
# 1 0.012507 -0.008044 -0.003718 -0.000190 -0.003503 0.002423
# 2 -0.008044 0.017712 -0.001360 0.000478 0.005775 0.000049
# 3 -0.003718 -0.001360 0.014356 0.000558 -0.003865 0.000924
# 4 -0.000190 0.000478 0.000558 0.023305 0.001346 0.003690
# 5 -0.003503 0.005775 -0.003865 0.001346 0.032434 -0.003932
# 6 0.002423 0.000049 0.000924 0.003690 -0.003932 0.022108
#
#
# Mechanical properties :
#
#
# Convention : Reuss Voigt Hill
#
# Bulk Modulus (GPa) = 54.55268 65.15650 59.85459
# Shear Modulus (GPa) = 32.30456 37.99514 35.14985
#
# Velocity S-wave (km/s) = 3.86486 4.19146 4.03147
# Velocity P-wave (km/s) = 6.71867 7.31791 7.02468
#
# Compressibility (1/GPa) = 0.01833091
#
# Stress axis : x y z
#
# Youngs Moduli (GPa) = 79.95453 56.45794 69.65846
#
# Poissons Ratio (x) = 0.45414 0.25900
# Poissons Ratio (y) = 0.64314 0.09475
# Poissons Ratio (z) = 0.29729 0.07679
#
# Static dielectric constant tensor:
#      x y z
#    x 4.188520 -0.402230 0.721540 
#    y -0.402230 4.287200 -0.592460 
#    z 0.721540 -0.592460 5.865640 
# 
# 
# High freq. dielectric constant tensor:
#      x y z
#    x 1.845520 -0.015570 0.011940 
#    y -0.015570 1.871310 0.003510 
#    z 0.011940 0.003510 1.847990 
# 
# From -- ./inp_files/279280.got.cif
#   From: 2010.06.25/outbox.cif.g09.slc.cpg/sg2_140_cif.got.tgz:279280.got - 2010.06.27 13:26:56.
