data_PCOD8005905
_publ_section_title
;
Structure prediction by ZEFSAII (Michael W. Deem and Ramdas Pophale) SiO2 
 PCOD8005905
Probable space group: P -1
;
_chemical_formula_sum "Si O2"
_cell_formula_units_Z 16
_cell_length_a 11.783499
_cell_length_b 7.545454
_cell_length_c 9.898936
_cell_angle_alpha 115.622756
_cell_angle_beta 99.926004
_cell_angle_gamma 68.698514
_cell_volume 739.242851
_symmetry_space_group_name_H-M "P -1"
_symmetry_group_IT_number 2
_symmetry_cell_setting 'triclinic'
loop_
_space_group_symop_operation_xyz
x,y,z
-x,-y,-z
loop_
_atom_site_type_symbol
_atom_site_label
_atom_site_fract_x
_atom_site_fract_y
_atom_site_fract_z
Si Si1 0.361410 0.668802 0.153342
Si Si2 0.854422 0.726695 0.445495
Si Si3 0.604940 0.093571 0.520907
Si Si4 0.140719 0.275196 0.858028
Si Si5 0.313715 0.840794 0.713032
Si Si6 0.124822 0.642295 0.171846
Si Si7 0.875020 0.351396 0.514160
Si Si8 0.474802 0.784983 0.964052
O O1 0.414006 0.712842 0.320767
O O2 0.213902 0.748971 0.152821
O O3 0.405446 0.417938 0.057555
O O4 0.401070 0.807244 0.095988
O O5 0.855448 0.632646 0.262817
O O6 0.842841 0.569151 0.503919
O O7 0.980633 0.777832 0.510120
O O8 0.741953 0.934671 0.511560
O O9 0.589328 0.176341 0.392178
O O10 0.500000 0.000000 0.500000
O O11 0.015815 0.216366 0.824652
O O12 0.257920 0.074807 0.833477
O O13 0.143896 0.424863 0.029665
O O14 0.202029 0.772092 0.616932
O O15 0.392967 0.716995 0.812779
O O16 0.165169 0.600977 0.323118
O O17 0.500000 0.000000 0.000000
#
# Coordination Sequence:
#
# PCOD8005905 Si02
#       8
#     2   2   2   2   2   2   2   2
#     4  11  25  43  68  92 126 175 211 265 328 382
#     4   9  22  39  63  90 131 168 209 263 325 380
#     4  11  24  40  63  95 126 165 217 268 318 378
#     4   9  21  38  66  89 128 166 205 266 321 379
#     4  11  23  40  66  93 122 167 211 262 320 384
#     4  10  20  39  63  94 126 163 212 262 321 381
#     4  10  21  39  64  94 126 167 211 266 324 379
#     4  11  26  46  65  92 131 171 217 265 321 388
#
# _framework density 21.643768999999999
#
# number of rings (size 3 to 8) (size 9 to 14) (size 15 to 20)
#    0.000    1.750    1.250    1.500    5.250    7.000 
#    0.000    0.625    0.000    0.000    0.000    0.000 
#    0.000    0.000    0.000    0.000    0.000    0.000 
#
# Total GULP energy -198304.318956 kJ/mol
# GULP energy per Si atom -12394.019935 kJ/mol
# Density = 2.159451 g / cm^3
# Si number density = 21.643769 Si / 1000 Ang^3
#
#
#
# Elastic Constant Matrix: (Units=GPa)
#
#
# Indices 1 2 3 4 5 6 
#
# 1 110.7000 22.6010 36.3874 -5.1885 -13.3723 11.9923
# 2 22.6010 57.3542 23.9086 -10.5190 -11.5210 10.2420
# 3 36.3874 23.9086 108.5770 -1.5923 -8.1440 -3.9345
# 4 -5.1885 -10.5190 -1.5923 24.4967 3.8968 9.7305
# 5 -13.3723 -11.5210 -8.1440 3.8968 40.0483 -4.3955
# 6 11.9923 10.2420 -3.9345 9.7305 -4.3955 22.8907
#
#
#
# Elastic Compliance Matrix: (Units=1/GPa)
#
#
# Indices 1 2 3 4 5 6 
#
# 1 0.011790 -0.000037 -0.004065 0.005496 0.001589 -0.008890
# 2 -0.000037 0.028175 -0.006502 0.019893 0.002455 -0.021690
# 3 -0.004065 -0.006502 0.012362 -0.007172 0.001128 0.010429
# 4 0.005496 0.019893 -0.007172 0.067929 -0.005218 -0.042890
# 5 0.001589 0.002455 0.001128 -0.005218 0.027578 0.005776
# 6 -0.008890 -0.021690 0.010429 -0.042890 0.005776 0.079182
#
#
# Mechanical properties :
#
#
# Convention : Reuss Voigt Hill
#
# Bulk Modulus (GPa) = 32.13507 49.15837 40.64672
# Shear Modulus (GPa) = 19.33517 30.40275 24.86896
#
# Velocity S-wave (km/s) = 2.99212 3.75198 3.39339
# Velocity P-wave (km/s) = 5.17847 6.44450 5.84586
#
# Compressibility (1/GPa) = 0.03111865
#
# Stress axis : x y z
#
# Youngs Moduli (GPa) = 84.81910 35.49211 80.89544
#
# Poissons Ratio (x) = 0.00130 0.32888
# Poissons Ratio (y) = 0.00310 0.52599
# Poissons Ratio (z) = 0.34483 0.23077
#
# Static dielectric constant tensor:
#      x y z
#    x 4.203340 -0.029720 -0.093340 
#    y -0.029720 3.676630 -0.173470 
#    z -0.093340 -0.173470 4.215840 
# 
# 
# High freq. dielectric constant tensor:
#      x y z
#    x 1.868830 -0.004320 -0.003830 
#    y -0.004320 1.818630 -0.002900 
#    z -0.003830 -0.002900 1.866450 
# 
# From -- ./inp_files/245053.got.cif
#   From: 2010.06.25/outbox.cif.g09.slc.cpg/sg2_123_cif.got.tgz:245053.got - 2010.06.27 13:26:56.
