data_PCOD8005975
_publ_section_title
;
Structure prediction by ZEFSAII (Michael W. Deem and Ramdas Pophale) SiO2 
 PCOD8005975
Probable space group: P -1
;
_chemical_formula_sum "Si O2"
_cell_formula_units_Z 16
_cell_length_a 9.139459
_cell_length_b 10.480938
_cell_length_c 9.672480
_cell_angle_alpha 94.597559
_cell_angle_beta 98.512014
_cell_angle_gamma 57.016974
_cell_volume 768.640018
_symmetry_space_group_name_H-M "P -1"
_symmetry_group_IT_number 2
_symmetry_cell_setting 'triclinic'
loop_
_space_group_symop_operation_xyz
x,y,z
-x,-y,-z
loop_
_atom_site_type_symbol
_atom_site_label
_atom_site_fract_x
_atom_site_fract_y
_atom_site_fract_z
Si Si1 0.662167 0.871786 0.196741
Si Si2 0.818892 0.353193 0.285711
Si Si3 0.126239 0.403604 0.328716
Si Si4 0.337142 0.672771 0.478930
Si Si5 0.314507 0.170310 0.109653
Si Si6 0.012437 0.842817 0.962273
Si Si7 0.959940 0.286033 0.757010
Si Si8 0.622274 0.674526 0.387948
O O1 0.605113 0.807731 0.306747
O O2 0.844056 0.860109 0.261065
O O3 0.512403 0.045606 0.168797
O O4 0.691503 0.781467 0.047485
O O5 0.771321 0.269211 0.388458
O O6 0.841210 0.260726 0.141628
O O7 0.662662 0.532955 0.281547
O O8 0.999788 0.344223 0.340690
O O9 0.262290 0.308097 0.217152
O O10 0.019720 0.573187 0.265900
O O11 0.221922 0.394993 0.483547
O O12 0.500000 0.500000 0.500000
O O13 0.197072 0.701255 0.347255
O O14 0.433203 0.756853 0.447754
O O15 0.182856 0.111097 0.105585
O O16 0.080905 0.727946 0.091180
O O17 0.000000 0.000000 0.000000
#
# Coordination Sequence:
#
# PCOD8005975 Si02
#       8
#     2   2   2   2   2   2   2   2
#     4  10  21  40  62  90 125 169 208 253 311 365
#     4  10  20  39  64  90 123 162 206 254 311 367
#     4  11  20  38  67  94 123 158 211 265 307 364
#     4  10  21  39  56  95 131 156 201 258 311 367
#     4   9  23  41  62  93 127 164 209 261 307 372
#     4  10  24  42  63  90 129 165 208 254 316 377
#     4  11  21  39  67  93 121 164 210 258 308 374
#     4  11  21  36  64  93 130 158 208 260 308 371
#
# _framework density 20.815985999999999
#
# number of rings (size 3 to 8) (size 9 to 14) (size 15 to 20)
#    0.000    1.750    3.750    1.125    3.500    2.000 
#    6.750    3.125    0.000    0.000    0.000    0.000 
#    0.000    0.000    0.000    0.000    0.000    0.000 
#
# Total GULP energy -198246.636754 kJ/mol
# GULP energy per Si atom -12390.414797 kJ/mol
# Density = 2.076861 g / cm^3
# Si number density = 20.815986 Si / 1000 Ang^3
#
#
#
# Elastic Constant Matrix: (Units=GPa)
#
#
# Indices 1 2 3 4 5 6 
#
# 1 119.8544 25.0851 57.5207 -13.2505 -18.1803 -13.4135
# 2 25.0851 44.2228 38.0080 -8.6369 1.7937 -4.6128
# 3 57.5207 38.0080 115.4469 -12.7805 -21.0223 -6.2603
# 4 -13.2505 -8.6369 -12.7805 31.4538 -6.3833 4.0253
# 5 -18.1803 1.7937 -21.0223 -6.3833 40.7747 -3.6020
# 6 -13.4135 -4.6128 -6.2603 4.0253 -3.6020 30.6514
#
#
#
# Elastic Compliance Matrix: (Units=1/GPa)
#
#
# Indices 1 2 3 4 5 6 
#
# 1 0.012267 -0.002829 -0.003764 0.003234 0.004538 0.004282
# 2 -0.002829 0.034666 -0.011254 0.002027 -0.008232 0.000447
# 3 -0.003764 -0.011254 0.016023 0.003334 0.007634 0.000391
# 4 0.003234 0.002027 0.003334 0.037024 0.008741 -0.001434
# 5 0.004538 -0.008232 0.007634 0.008741 0.032656 0.004996
# 6 0.004282 0.000447 0.000391 -0.001434 0.004996 0.035421
#
#
# Mechanical properties :
#
#
# Convention : Reuss Voigt Hill
#
# Bulk Modulus (GPa) = 36.68048 57.86128 47.27088
# Shear Modulus (GPa) = 23.49195 31.17001 27.33098
#
# Velocity S-wave (km/s) = 3.36304 3.87383 3.62744
# Velocity P-wave (km/s) = 5.72185 6.91850 6.34844
#
# Compressibility (1/GPa) = 0.02726245
#
# Stress axis : x y z
#
# Youngs Moduli (GPa) = 81.51805 28.84662 62.41106
#
# Poissons Ratio (x) = 0.08161 0.23491
# Poissons Ratio (y) = 0.23063 0.70236
# Poissons Ratio (z) = 0.30683 0.32463
#
# Static dielectric constant tensor:
#      x y z
#    x 4.391470 -0.344990 -0.418380 
#    y -0.344990 3.609740 0.053610 
#    z -0.418380 0.053610 3.993040 
# 
# 
# High freq. dielectric constant tensor:
#      x y z
#    x 1.826480 -0.018430 -0.020240 
#    y -0.018430 1.783360 -0.007540 
#    z -0.020240 -0.007540 1.820860 
# 
# From -- ./inp_files/179196.got.cif
#   From: 2010.06.25/outbox.cif.g09.slc.cpg/sg2_90_cif.got.tgz:179196.got - 2010.06.27 13:26:56.
