data_PCOD8005599
_publ_section_title
;
Structure prediction by ZEFSAII (Michael W. Deem and Ramdas Pophale) SiO2 
 PCOD8005599
Probable space group: P -1
;
_chemical_formula_sum "Si O2"
_cell_formula_units_Z 14
_cell_length_a 15.464459
_cell_length_b 8.984729
_cell_length_c 24.395600
_cell_angle_alpha 35.837904
_cell_angle_beta 16.331661
_cell_angle_gamma 37.517062
_cell_volume 555.679267
_symmetry_space_group_name_H-M "P -1"
_symmetry_group_IT_number 2
_symmetry_cell_setting 'triclinic'
loop_
_space_group_symop_operation_xyz
x,y,z
-x,-y,-z
loop_
_atom_site_type_symbol
_atom_site_label
_atom_site_fract_x
_atom_site_fract_y
_atom_site_fract_z
Si Si1 0.756957 0.299624 0.706515
Si Si2 0.649295 0.493118 0.326758
Si Si3 0.127752 0.843764 0.917555
Si Si4 0.331666 0.655524 0.368967
Si Si5 0.682941 0.435103 0.828854
Si Si6 0.681831 0.120394 0.027229
Si Si7 0.701111 0.091600 0.506514
O O1 0.534977 0.367611 0.768295
O O2 0.590797 0.315645 0.862080
O O3 0.000000 0.500000 0.500000
O O4 0.945135 0.018502 0.665835
O O5 0.509043 0.453511 0.363139
O O6 0.664578 0.233672 0.428118
O O7 0.422221 0.717873 0.426940
O O8 0.000471 0.566995 0.083698
O O9 0.498645 0.845890 0.695552
O O10 0.000000 0.000000 0.000000
O O11 0.999194 0.978795 0.899375
O O12 0.972998 0.606322 0.600044
O O13 0.400403 0.941346 0.260094
O O14 0.390771 0.620938 0.970775
O O15 0.739628 0.194340 0.907013
#
# Coordination Sequence:
#
# PCOD8005599 Si02
#       7
#     2   2   2   2   2   2   2
#     4  10  24  39  62  91 128 165 190 249 322 358
#     4   9  20  36  64  91 114 159 213 247 289 354
#     4   9  19  34  59  89 115 150 201 255 289 346
#     4  10  21  38  63  90 120 157 202 253 298 354
#     4  10  22  39  58  91 121 157 199 248 306 362
#     4  10  21  38  65  89 114 158 210 250 291 354
#     4  10  20  39  60  90 122 159 200 251 300 356
#
# _framework density 25.194389999999999
#
# number of rings (size 3 to 8) (size 9 to 14) (size 15 to 20)
#    0.000    2.286    0.000    1.286   14.000    0.571 
#    5.143    9.286    0.000    8.571    0.000    0.000 
#    0.000    0.000    0.000    0.000    0.000    0.000 
#
# Total GULP energy -173469.065109 kJ/mol
# GULP energy per Si atom -12390.647508 kJ/mol
# Density = 2.513705 g / cm^3
# Si number density = 25.194390 Si / 1000 Ang^3
#
#
#
# Elastic Constant Matrix: (Units=GPa)
#
#
# Indices 1 2 3 4 5 6 
#
# 1 183.1987 14.4891 27.8016 2.7056 24.6992 -20.5932
# 2 14.4891 31.9099 4.1371 -3.0648 11.8633 -0.6350
# 3 27.8016 4.1371 62.4774 -5.0421 8.3459 -3.7379
# 4 2.7056 -3.0648 -5.0421 22.3491 -2.8769 3.5339
# 5 24.6992 11.8633 8.3459 -2.8769 39.8384 -6.6114
# 6 -20.5932 -0.6350 -3.7379 3.5339 -6.6114 15.9402
#
#
#
# Elastic Compliance Matrix: (Units=1/GPa)
#
#
# Indices 1 2 3 4 5 6 
#
# 1 0.007351 -0.002373 -0.002590 -0.003445 -0.002116 0.008681
# 2 -0.002373 0.036560 -0.000008 0.005088 -0.010203 -0.006972
# 3 -0.002590 -0.000008 0.017703 0.004203 -0.001952 -0.000937
# 4 -0.003445 0.005088 0.004203 0.049108 0.001008 -0.013731
# 5 -0.002116 -0.010203 -0.001952 0.001008 0.031465 0.009229
# 6 0.008681 -0.006972 -0.000937 -0.013731 0.009229 0.080324
#
#
# Mechanical properties :
#
#
# Convention : Reuss Voigt Hill
#
# Bulk Modulus (GPa) = 19.35316 41.16017 30.25667
# Shear Modulus (GPa) = 20.02565 31.03609 25.53087
#
# Velocity S-wave (km/s) = 2.82236 3.51360 3.18678
# Velocity P-wave (km/s) = 4.28009 5.73001 5.05728
#
# Compressibility (1/GPa) = 0.05167115
#
# Stress axis : x y z
#
# Youngs Moduli (GPa) = 136.02842 27.35200 56.48820
#
# Poissons Ratio (x) = 0.06492 0.14631
# Poissons Ratio (y) = 0.32286 0.00047
# Poissons Ratio (z) = 0.35232 0.00023
#
# Static dielectric constant tensor:
#      x y z
#    x 5.644710 0.029930 0.156870 
#    y 0.029930 4.413060 -0.074480 
#    z 0.156870 -0.074480 4.825440 
# 
# 
# High freq. dielectric constant tensor:
#      x y z
#    x 2.024410 -0.012850 0.010200 
#    y -0.012850 1.980600 -0.019240 
#    z 0.010200 -0.019240 1.986840 
# 
# From -- ./inp_files/611586.got.cif
#   From: 2010.06.25/outbox.cif.g09.slc.cpg/sg2_306_cif.got.tgz:611586.got - 2010.06.27 13:26:56.
