data_PCOD8005229
_publ_section_title
;
Structure prediction by ZEFSAII (Michael W. Deem and Ramdas Pophale) SiO2 
 PCOD8005229
Probable space group: P -1
;
_chemical_formula_sum "Si O2"
_cell_formula_units_Z 14
_cell_length_a 21.194761
_cell_length_b 12.434877
_cell_length_c 20.251973
_cell_angle_alpha 30.903475
_cell_angle_beta 20.521303
_cell_angle_gamma 19.392008
_cell_volume 606.310946
_symmetry_space_group_name_H-M "P -1"
_symmetry_group_IT_number 2
_symmetry_cell_setting 'triclinic'
loop_
_space_group_symop_operation_xyz
x,y,z
-x,-y,-z
loop_
_atom_site_type_symbol
_atom_site_label
_atom_site_fract_x
_atom_site_fract_y
_atom_site_fract_z
Si Si1 0.160189 0.659434 0.895475
Si Si2 0.304869 0.391447 0.313993
Si Si3 0.255891 0.284710 0.277111
Si Si4 0.764408 0.538737 0.209180
Si Si5 0.365601 0.595843 0.940569
Si Si6 0.326675 0.630959 0.378950
Si Si7 0.776316 0.629890 0.287606
O O1 0.161175 0.705851 0.789809
O O2 0.479040 0.397364 0.749652
O O3 0.072471 0.492451 0.079580
O O4 0.945736 0.014223 0.954679
O O5 0.217283 0.467151 0.283358
O O6 0.418441 0.519412 0.153442
O O7 0.040483 0.562723 0.529019
O O8 0.555601 0.005818 0.286376
O O9 0.474184 0.901903 0.276325
O O10 0.337437 0.369738 0.093063
O O11 0.764889 0.467103 0.323725
O O12 0.000000 0.500000 0.000000
O O13 0.515055 0.522631 0.764671
O O14 0.312082 0.409045 0.539081
O O15 0.000000 0.000000 0.500000
#
# Coordination Sequence:
#
# PCOD8005229 Si02
#       7
#     2   2   2   2   2   2   2
#     4  10  23  44  67  92 122 172 208 259 327 363
#     4   9  20  38  66  97 121 164 209 261 320 366
#     4  10  20  38  65  96 129 157 207 266 316 370
#     4   9  20  39  68  93 121 163 205 261 326 365
#     4  11  24  41  64  93 128 167 211 257 307 380
#     4  12  28  41  60  96 130 171 218 252 306 380
#     4   9  21  44  64  91 129 162 209 262 315 381
#
# _framework density 23.090463
#
# number of rings (size 3 to 8) (size 9 to 14) (size 15 to 20)
#    0.000    2.000    0.000    2.571    6.000    4.571 
#    0.000    0.000    0.000    0.000    0.000    0.000 
#    0.000    0.000    0.000    0.000    0.000    0.000 
#
# Total GULP energy -173473.459179 kJ/mol
# GULP energy per Si atom -12390.961370 kJ/mol
# Density = 2.303791 g / cm^3
# Si number density = 23.090463 Si / 1000 Ang^3
#
#
#
# Elastic Constant Matrix: (Units=GPa)
#
#
# Indices 1 2 3 4 5 6 
#
# 1 50.6814 19.9939 19.9836 10.8860 -10.1659 -5.0493
# 2 19.9939 47.2547 29.1029 10.8645 -1.2142 4.8332
# 3 19.9836 29.1029 128.2287 9.2136 -13.6698 -14.5907
# 4 10.8860 10.8645 9.2136 33.4760 -16.2712 3.9544
# 5 -10.1659 -1.2142 -13.6698 -16.2712 42.8695 4.0431
# 6 -5.0493 4.8332 -14.5907 3.9544 4.0431 23.5867
#
#
#
# Elastic Compliance Matrix: (Units=1/GPa)
#
#
# Indices 1 2 3 4 5 6 
#
# 1 0.026488 -0.010919 -0.000055 -0.004252 0.003589 0.007972
# 2 -0.010919 0.032651 -0.007123 -0.006273 -0.005233 -0.011486
# 3 -0.000055 -0.007123 0.010565 -0.000368 0.002293 0.007652
# 4 -0.004252 -0.006273 -0.000368 0.042095 0.015578 -0.009580
# 5 0.003589 -0.005233 0.002293 0.015578 0.031115 -0.004686
# 6 0.007972 -0.011486 0.007652 -0.009580 -0.004686 0.053600
#
#
# Mechanical properties :
#
#
# Convention : Reuss Voigt Hill
#
# Bulk Modulus (GPa) = 29.84111 40.48064 35.16087
# Shear Modulus (GPa) = 20.50210 30.45874 25.48042
#
# Velocity S-wave (km/s) = 2.98300 3.63589 3.32551
# Velocity P-wave (km/s) = 4.98157 5.93259 5.47776
#
# Compressibility (1/GPa) = 0.03351082
#
# Stress axis : x y z
#
# Youngs Moduli (GPa) = 37.75355 30.62675 94.64948
#
# Poissons Ratio (x) = 0.33442 0.00516
# Poissons Ratio (y) = 0.41223 0.67419
# Poissons Ratio (z) = 0.00206 0.21815
#
# Static dielectric constant tensor:
#      x y z
#    x 4.911030 0.124710 0.017160 
#    y 0.124710 3.687830 0.193970 
#    z 0.017160 0.193970 4.352240 
# 
# 
# High freq. dielectric constant tensor:
#      x y z
#    x 1.908510 0.001950 -0.003260 
#    y 0.001950 1.883150 0.021720 
#    z -0.003260 0.021720 1.930200 
# 
# From -- ./inp_files/185626.got.cif
#   From: 2010.06.25/outbox.cif.g09.slc.cpg/sg2_93_cif.got.tgz:185626.got - 2010.06.27 13:26:56.
