data_PCOD8005295
_publ_section_title
;
Structure prediction by ZEFSAII (Michael W. Deem and Ramdas Pophale) SiO2 
 PCOD8005295
Probable space group: P -1
;
_chemical_formula_sum "Si O2"
_cell_formula_units_Z 14
_cell_length_a 8.013727
_cell_length_b 13.500897
_cell_length_c 9.012424
_cell_angle_alpha 40.691127
_cell_angle_beta 79.910209
_cell_angle_gamma 69.286084
_cell_volume 587.681717
_symmetry_space_group_name_H-M "P -1"
_symmetry_group_IT_number 2
_symmetry_cell_setting 'triclinic'
loop_
_space_group_symop_operation_xyz
x,y,z
-x,-y,-z
loop_
_atom_site_type_symbol
_atom_site_label
_atom_site_fract_x
_atom_site_fract_y
_atom_site_fract_z
Si Si1 0.887672 0.869343 0.091845
Si Si2 0.353270 0.268509 0.552021
Si Si3 0.130794 0.302056 0.979515
Si Si4 0.196151 0.553726 0.479959
Si Si5 0.257507 0.802455 0.372830
Si Si6 0.772565 0.302329 0.198767
Si Si7 0.400312 0.338195 0.131861
O O1 0.765072 0.845541 0.272070
O O2 0.798424 0.850754 0.967855
O O3 0.072075 0.718218 0.233776
O O4 0.885708 0.056398 0.869348
O O5 0.300664 0.430067 0.478014
O O6 0.558052 0.161440 0.680489
O O7 0.330270 0.314382 0.332155
O O8 0.088758 0.468426 0.700561
O O9 0.295960 0.268411 0.107135
O O10 0.944778 0.308424 0.077613
O O11 0.313670 0.624165 0.490642
O O12 0.162918 0.814426 0.535575
O O13 0.620916 0.257803 0.174073
O O14 0.659200 0.471170 0.102778
#
# Coordination Sequence:
#
# PCOD8005295 Si02
#       7
#     2   2   2   2   2   2   2
#     4  11  24  41  61  93 131 164 206 257 320 377
#     4  10  22  41  66  90 121 164 218 258 303 378
#     4  11  22  41  66  91 125 168 211 261 311 373
#     4  11  22  41  64  95 119 167 215 256 309 373
#     4  11  23  40  63  93 131 163 203 262 322 371
#     4  10  21  36  63  95 124 159 214 259 313 371
#     4  10  20  38  66  94 122 160 215 266 307 364
#
# _framework density 23.822417000000002
#
# number of rings (size 3 to 8) (size 9 to 14) (size 15 to 20)
#    0.000    1.429    1.429    5.143    2.000    0.571 
#    5.143    2.857    0.000    0.000    0.000    0.000 
#    0.000    0.000    0.000    0.000    0.000    0.000 
#
# Total GULP energy -173444.151530 kJ/mol
# GULP energy per Si atom -12388.867966 kJ/mol
# Density = 2.376820 g / cm^3
# Si number density = 23.822417 Si / 1000 Ang^3
#
#
#
# Elastic Constant Matrix: (Units=GPa)
#
#
# Indices 1 2 3 4 5 6 
#
# 1 77.8902 1.3324 17.6242 13.3257 2.0141 -8.7471
# 2 1.3324 42.7024 28.1825 7.7871 -0.7862 1.1937
# 3 17.6242 28.1825 123.4220 -4.6790 2.8868 -10.1054
# 4 13.3257 7.7871 -4.6790 30.7383 7.5424 6.7698
# 5 2.0141 -0.7862 2.8868 7.5424 32.9054 -0.3681
# 6 -8.7471 1.1937 -10.1054 6.7698 -0.3681 15.5990
#
#
#
# Elastic Compliance Matrix: (Units=1/GPa)
#
#
# Indices 1 2 3 4 5 6 
#
# 1 0.016720 0.002955 -0.002519 -0.011675 0.002086 0.012634
# 2 0.002955 0.030724 -0.008027 -0.010981 0.003763 -0.001040
# 3 -0.002519 -0.008027 0.010857 0.004299 -0.001927 0.004324
# 4 -0.011675 -0.010981 0.004299 0.049262 -0.011491 -0.024572
# 5 0.002086 0.003763 -0.001927 -0.011491 0.033216 0.005404
# 6 0.012634 -0.001040 0.004324 -0.024572 0.005404 0.084863
#
#
# Mechanical properties :
#
#
# Convention : Reuss Voigt Hill
#
# Bulk Modulus (GPa) = 23.19159 37.58810 30.38984
# Shear Modulus (GPa) = 19.59268 28.97356 24.28312
#
# Velocity S-wave (km/s) = 2.87095 3.49123 3.19617
# Velocity P-wave (km/s) = 4.55479 5.66254 5.13860
#
# Compressibility (1/GPa) = 0.04311909
#
# Stress axis : x y z
#
# Youngs Moduli (GPa) = 59.80744 32.54776 92.10619
#
# Poissons Ratio (x) = -0.09619 0.23205
# Poissons Ratio (y) = -0.17675 0.73934
# Poissons Ratio (z) = 0.15068 0.26126
#
# Static dielectric constant tensor:
#      x y z
#    x 4.494940 0.501740 0.040750 
#    y 0.501740 4.189460 0.150070 
#    z 0.040750 0.150070 4.345840 
# 
# 
# High freq. dielectric constant tensor:
#      x y z
#    x 1.953660 0.018020 0.005530 
#    y 0.018020 1.918560 0.014710 
#    z 0.005530 0.014710 1.957580 
# 
# From -- ./inp_files/198989.got.cif
#   From: 2010.06.25/outbox.cif.g09.slc.cpg/sg2_100_cif.got.tgz:198989.got - 2010.06.27 13:26:56.
