data_PCOD8005732
_publ_section_title
;
Structure prediction by ZEFSAII (Michael W. Deem and Ramdas Pophale) SiO2 
 PCOD8005732
Probable space group: P -1
;
_chemical_formula_sum "Si O2"
_cell_formula_units_Z 16
_cell_length_a 9.077510
_cell_length_b 10.273543
_cell_length_c 18.068267
_cell_angle_alpha 145.401020
_cell_angle_beta 79.551305
_cell_angle_gamma 79.000578
_cell_volume 746.311465
_symmetry_space_group_name_H-M "P -1"
_symmetry_group_IT_number 2
_symmetry_cell_setting 'triclinic'
loop_
_space_group_symop_operation_xyz
x,y,z
-x,-y,-z
loop_
_atom_site_type_symbol
_atom_site_label
_atom_site_fract_x
_atom_site_fract_y
_atom_site_fract_z
Si Si1 0.720474 0.430336 0.147897
Si Si2 0.471276 0.810922 0.739784
Si Si3 0.054035 0.954933 0.175006
Si Si4 0.602140 0.159890 0.833314
Si Si5 0.445703 0.035610 0.407285
Si Si6 0.667699 0.011395 0.007438
Si Si7 0.078437 0.636862 0.759394
Si Si8 0.698432 0.196234 0.396589
O O1 0.556788 0.771130 0.331992
O O2 0.630225 0.261081 0.073258
O O3 0.866256 0.273742 0.129716
O O4 0.831579 0.354785 0.023666
O O5 0.344510 0.894829 0.862887
O O6 0.665369 0.479611 0.569175
O O7 0.366415 0.771631 0.666731
O O8 0.498337 0.057818 0.842256
O O9 0.191064 0.003385 0.227546
O O10 0.931755 0.207269 0.242309
O O11 0.925163 0.962019 0.255011
O O12 0.608952 0.061410 0.703880
O O13 0.500000 0.500000 0.000000
O O14 0.245054 0.296248 0.579673
O O15 0.593253 0.104389 0.412293
O O16 0.500000 0.000000 0.000000
O O17 0.874104 0.710966 0.829621
#
# Coordination Sequence:
#
# PCOD8005732 Si02
#       8
#     2   2   2   2   2   2   2   2
#     4  11  22  41  64  90 132 167 204 258 311 372
#     4  10  20  39  62  87 126 156 209 254 310 364
#     4  11  21  39  65  94 124 161 220 249 315 374
#     4  11  23  41  63  90 128 170 193 262 325 374
#     4  11  24  42  64  92 135 164 205 258 322 367
#     4  11  23  39  64  91 122 167 214 254 299 376
#     4  11  23  40  65  94 119 172 212 254 308 371
#     4  10  21  37  63  96 117 160 208 266 299 363
#
# _framework density 21.438769000000001
#
# number of rings (size 3 to 8) (size 9 to 14) (size 15 to 20)
#    0.000    1.250    1.250    7.875    0.000    3.500 
#    2.250    0.625    0.000    0.000    0.000    0.000 
#    0.000    0.000    0.000    0.000    0.000    0.000 
#
# Total GULP energy -198225.531701 kJ/mol
# GULP energy per Si atom -12389.095731 kJ/mol
# Density = 2.138997 g / cm^3
# Si number density = 21.438769 Si / 1000 Ang^3
#
#
#
# Elastic Constant Matrix: (Units=GPa)
#
#
# Indices 1 2 3 4 5 6 
#
# 1 121.3948 41.1099 61.2775 0.4985 -13.7725 11.7759
# 2 41.1099 72.3743 41.3136 10.1489 -10.6064 4.5994
# 3 61.2775 41.3136 144.4021 10.9856 -20.4979 29.3931
# 4 0.4985 10.1489 10.9856 34.2746 2.8707 -5.9195
# 5 -13.7725 -10.6064 -20.4979 2.8707 38.7779 -4.0278
# 6 11.7759 4.5994 29.3931 -5.9195 -4.0278 29.0107
#
#
#
# Elastic Compliance Matrix: (Units=1/GPa)
#
#
# Indices 1 2 3 4 5 6 
#
# 1 0.011822 -0.004806 -0.003817 0.002490 0.000728 0.000440
# 2 -0.004806 0.019195 -0.003040 -0.004603 0.002421 0.001385
# 3 -0.003817 -0.003040 0.012671 -0.005385 0.003727 -0.011388
# 4 0.002490 -0.004603 -0.005385 0.034616 -0.004579 0.011602
# 5 0.000728 0.002421 0.003727 -0.004579 0.028874 -0.001380
# 6 0.000440 0.001385 -0.011388 0.011602 -0.001380 0.047786
#
#
# Mechanical properties :
#
#
# Convention : Reuss Voigt Hill
#
# Bulk Modulus (GPa) = 49.11458 69.50815 59.31136
# Shear Modulus (GPa) = 27.01558 33.37732 30.19645
#
# Velocity S-wave (km/s) = 3.55368 3.95000 3.75707
# Velocity P-wave (km/s) = 6.30850 7.30037 6.82248
#
# Compressibility (1/GPa) = 0.02036055
#
# Stress axis : x y z
#
# Youngs Moduli (GPa) = 84.58992 52.09734 78.91754
#
# Poissons Ratio (x) = 0.25041 0.30124
# Poissons Ratio (y) = 0.40658 0.23992
# Poissons Ratio (z) = 0.32289 0.15838
#
# Static dielectric constant tensor:
#      x y z
#    x 3.881460 -0.090380 -0.044120 
#    y -0.090380 3.909860 -0.257490 
#    z -0.044120 -0.257490 4.238930 
# 
# 
# High freq. dielectric constant tensor:
#      x y z
#    x 1.836070 -0.005590 -0.001610 
#    y -0.005590 1.831580 -0.015390 
#    z -0.001610 -0.015390 1.850060 
# 
# From -- ./inp_files/256411.got.cif
#   From: 2010.06.25/outbox.cif.g09.slc.cpg/sg2_129_cif.got.tgz:256411.got - 2010.06.27 13:26:56.
