data_PCOD8005195
_publ_section_title
;
Structure prediction by ZEFSAII (Michael W. Deem and Ramdas Pophale) SiO2 
 PCOD8005195
Probable space group: P -1
;
_chemical_formula_sum "Si O2"
_cell_formula_units_Z 16
_cell_length_a 9.282648
_cell_length_b 13.693177
_cell_length_c 10.013339
_cell_angle_alpha 127.275828
_cell_angle_beta 68.189453
_cell_angle_gamma 131.001823
_cell_volume 763.635853
_symmetry_space_group_name_H-M "P -1"
_symmetry_group_IT_number 2
_symmetry_cell_setting 'triclinic'
loop_
_space_group_symop_operation_xyz
x,y,z
-x,-y,-z
loop_
_atom_site_type_symbol
_atom_site_label
_atom_site_fract_x
_atom_site_fract_y
_atom_site_fract_z
Si Si1 0.619938 0.813227 0.526331
Si Si2 0.058455 0.724775 0.647232
Si Si3 0.546931 0.025078 0.159806
Si Si4 0.775042 0.434635 0.664325
Si Si5 0.838877 0.849678 0.723927
Si Si6 0.322813 0.482755 0.977899
Si Si7 0.167254 0.158574 0.770832
Si Si8 0.420399 0.227268 0.995366
O O1 0.579863 0.932493 0.687214
O O2 0.434943 0.660421 0.405316
O O3 0.686609 0.759189 0.583048
O O4 0.780914 0.895270 0.424125
O O5 0.229089 0.844690 0.785227
O O6 0.123684 0.649259 0.459967
O O7 0.887477 0.597900 0.692400
O O8 0.984378 0.803731 0.649558
O O9 0.500000 0.000000 0.000000
O O10 0.492051 0.868149 0.108926
O O11 0.769952 0.459320 0.843633
O O12 0.730944 0.822614 0.876631
O O13 0.958154 0.026023 0.786376
O O14 0.170475 0.305023 0.849931
O O15 0.402651 0.593480 0.911803
O O16 0.500000 0.500000 0.000000
O O17 0.319787 0.197437 0.863781
#
# Coordination Sequence:
#
# PCOD8005195 Si02
#       8
#     2   2   2   2   2   2   2   2
#     4  11  24  41  65  93 135 167 213 268 323 374
#     4  10  23  39  65  95 130 169 221 261 326 380
#     4  11  23  42  65  98 129 166 215 273 317 380
#     4  10  21  42  63  95 129 176 207 274 317 383
#     4  12  24  40  66  99 129 170 218 269 317 385
#     4  10  20  38  65  92 128 165 219 255 323 383
#     4  11  23  41  64  98 129 171 212 269 322 383
#     4  11  22  39  67  95 122 174 222 252 326 386
#
# _framework density 20.952397000000001
#
# number of rings (size 3 to 8) (size 9 to 14) (size 15 to 20)
#    0.000    1.250    5.000    2.250    1.750    2.000 
#    0.000    0.000    0.000    2.250    0.000    0.000 
#    0.000    0.000    0.000    0.000    0.000    0.000 
#
# Total GULP energy -198396.551254 kJ/mol
# GULP energy per Si atom -12399.784453 kJ/mol
# Density = 2.090471 g / cm^3
# Si number density = 20.952397 Si / 1000 Ang^3
#
#
#
# Elastic Constant Matrix: (Units=GPa)
#
#
# Indices 1 2 3 4 5 6 
#
# 1 87.6340 44.1329 44.7619 0.0625 -2.3349 -7.2610
# 2 44.1329 166.9613 57.6501 10.2888 -16.6923 2.6957
# 3 44.7619 57.6501 121.8271 -9.4838 -20.4117 -6.4971
# 4 0.0625 10.2888 -9.4838 34.3043 2.1513 -2.5105
# 5 -2.3349 -16.6923 -20.4117 2.1513 22.7423 -5.8176
# 6 -7.2610 2.6957 -6.4971 -2.5105 -5.8176 25.4278
#
#
#
# Elastic Compliance Matrix: (Units=1/GPa)
#
#
# Indices 1 2 3 4 5 6 
#
# 1 0.015449 -0.002847 -0.004922 -0.000086 -0.004281 0.002468
# 2 -0.002847 0.008245 -0.002713 -0.003563 0.003147 -0.002012
# 3 -0.004922 -0.002713 0.013722 0.004328 0.010759 0.005277
# 4 -0.000086 -0.003563 0.004328 0.031780 -0.000605 0.004458
# 5 -0.004281 0.003147 0.010759 -0.000605 0.059316 0.014704
# 6 0.002468 -0.002012 0.005277 0.004458 0.014704 0.045398
#
#
# Mechanical properties :
#
#
# Convention : Reuss Voigt Hill
#
# Bulk Modulus (GPa) = 60.77987 74.39025 67.58506
# Shear Modulus (GPa) = 24.95533 31.82004 28.38768
#
# Velocity S-wave (km/s) = 3.45490 3.90126 3.68484
# Velocity P-wave (km/s) = 6.70721 7.47493 7.10145
#
# Compressibility (1/GPa) = 0.01645282
#
# Stress axis : x y z
#
# Youngs Moduli (GPa) = 64.72867 121.27958 72.87806
#
# Poissons Ratio (x) = 0.34527 0.35867
# Poissons Ratio (y) = 0.18428 0.19774
# Poissons Ratio (z) = 0.31856 0.32906
#
# Static dielectric constant tensor:
#      x y z
#    x 3.744780 -0.001120 -0.108510 
#    y -0.001120 4.354730 0.222110 
#    z -0.108510 0.222110 3.970380 
# 
# 
# High freq. dielectric constant tensor:
#      x y z
#    x 1.805280 0.004010 -0.014720 
#    y 0.004010 1.831330 0.003480 
#    z -0.014720 0.003480 1.823480 
# 
# From -- ./inp_files/189997.got.cif
#   From: 2010.06.25/outbox.cif.g09.slc.cpg/sg2_95_cif.got.tgz:189997.got - 2010.06.27 13:26:56.
