data_PCOD8005308
_publ_section_title
;
Structure prediction by ZEFSAII (Michael W. Deem and Ramdas Pophale) SiO2 
 PCOD8005308
Probable space group: P -1
;
_chemical_formula_sum "Si O2"
_cell_formula_units_Z 10
_cell_length_a 5.371617
_cell_length_b 14.235933
_cell_length_c 11.158199
_cell_angle_alpha 29.037656
_cell_angle_beta 85.103880
_cell_angle_gamma 85.857533
_cell_volume 412.646294
_symmetry_space_group_name_H-M "P -1"
_symmetry_group_IT_number 2
_symmetry_cell_setting 'triclinic'
loop_
_space_group_symop_operation_xyz
x,y,z
-x,-y,-z
loop_
_atom_site_type_symbol
_atom_site_label
_atom_site_fract_x
_atom_site_fract_y
_atom_site_fract_z
Si Si1 0.829693 0.030130 0.360118
Si Si2 0.049063 0.312981 0.855212
Si Si3 0.243209 0.678607 0.541688
Si Si4 0.776742 0.680915 0.413317
Si Si5 0.445673 0.720667 0.733074
O O1 0.630939 0.189498 0.236789
O O2 0.692721 0.830824 0.551029
O O3 0.000000 0.000000 0.500000
O O4 0.973030 0.115818 0.144491
O O5 0.221778 0.444489 0.789651
O O6 0.202935 0.248351 0.803628
O O7 0.809988 0.445126 0.677975
O O8 0.508346 0.746537 0.399678
O O9 0.235785 0.736772 0.618119
O O10 0.005983 0.776306 0.375240
O O11 0.500000 0.500000 0.000000
#
# Coordination Sequence:
#
# PCOD8005308 Si02
#       5
#     2   2   2   2   2
#     4  11  25  43  65 103 133 177 225 285 334 400
#     4   9  20  37  65  94 137 170 223 275 332 400
#     4  10  20  38  66  95 127 175 223 268 333 397
#     4   9  20  37  68  98 127 180 219 271 338 395
#     4  11  25  43  68  96 138 179 228 276 341 401
#
# _framework density 24.233829
#
# number of rings (size 3 to 8) (size 9 to 14) (size 15 to 20)
#    1.200    0.800    0.000    3.000    2.800    3.200 
#    0.000    2.000    0.000    0.000    0.000    0.000 
#    0.000    0.000    0.000    0.000    0.000    0.000 
#
# Total GULP energy -123939.461885 kJ/mol
# GULP energy per Si atom -12393.946188 kJ/mol
# Density = 2.417867 g / cm^3
# Si number density = 24.233829 Si / 1000 Ang^3
#
#
#
# Elastic Constant Matrix: (Units=GPa)
#
#
# Indices 1 2 3 4 5 6 
#
# 1 99.4722 13.7606 34.1219 -1.5331 -30.2085 12.1930
# 2 13.7606 98.4330 51.4708 7.3933 -21.2255 21.2239
# 3 34.1219 51.4708 158.6349 18.0530 -21.5304 12.3557
# 4 -1.5331 7.3933 18.0530 36.8173 -2.0202 -6.3843
# 5 -30.2085 -21.2255 -21.5304 -2.0202 28.0495 -0.9804
# 6 12.1930 21.2239 12.3557 -6.3843 -0.9804 44.5615
#
#
#
# Elastic Compliance Matrix: (Units=1/GPa)
#
#
# Indices 1 2 3 4 5 6 
#
# 1 0.016736 0.003936 -0.001941 0.000996 0.019398 -0.005346
# 2 0.003936 0.016119 -0.003423 -0.002012 0.013392 -0.007799
# 3 -0.001941 -0.003423 0.008506 -0.003596 0.001566 -0.000678
# 4 0.000996 -0.002012 -0.003596 0.030369 -0.000813 0.006016
# 5 0.019398 0.013392 0.001566 -0.000813 0.067444 -0.010753
# 6 -0.005346 -0.007799 -0.000678 0.006016 -0.010753 0.028432
#
#
# Mechanical properties :
#
#
# Convention : Reuss Voigt Hill
#
# Bulk Modulus (GPa) = 25.96978 61.69409 43.83194
# Shear Modulus (GPa) = 27.27825 39.03146 33.15485
#
# Velocity S-wave (km/s) = 3.35868 4.01761 3.70283
# Velocity P-wave (km/s) = 5.07745 6.85818 6.03387
#
# Compressibility (1/GPa) = 0.03850630
#
# Stress axis : x y z
#
# Youngs Moduli (GPa) = 59.75174 62.03791 117.55749
#
# Poissons Ratio (x) = -0.24419 0.22820
# Poissons Ratio (y) = -0.23519 0.40236
# Poissons Ratio (z) = 0.11599 0.21233
#
# Static dielectric constant tensor:
#      x y z
#    x 4.262690 0.016570 -0.114310 
#    y 0.016570 4.922830 0.132950 
#    z -0.114310 0.132950 3.999390 
# 
# 
# High freq. dielectric constant tensor:
#      x y z
#    x 1.950020 0.003950 -0.011600 
#    y 0.003950 1.973180 0.007310 
#    z -0.011600 0.007310 1.937460 
# 
# From -- ./inp_files/41885.got.cif
#   From: 2010.06.25/outbox.cif.g09.slc.cpg/sg2_21_cif.got.tgz:41885.got - 2010.06.27 13:26:56.
