data_PCOD8005273
_publ_section_title
;
Structure prediction by ZEFSAII (Michael W. Deem and Ramdas Pophale) SiO2 
 PCOD8005273
Probable space group: P -1
;
_chemical_formula_sum "Si O2"
_cell_formula_units_Z 16
_cell_length_a 14.985187
_cell_length_b 11.363249
_cell_length_c 15.226435
_cell_angle_alpha 118.587261
_cell_angle_beta 32.185584
_cell_angle_gamma 139.286922
_cell_volume 795.534903
_symmetry_space_group_name_H-M "P -1"
_symmetry_group_IT_number 2
_symmetry_cell_setting 'triclinic'
loop_
_space_group_symop_operation_xyz
x,y,z
-x,-y,-z
loop_
_atom_site_type_symbol
_atom_site_label
_atom_site_fract_x
_atom_site_fract_y
_atom_site_fract_z
Si Si1 0.258767 0.557215 0.033439
Si Si2 0.720193 0.996055 0.395880
Si Si3 0.300204 0.261192 0.571277
Si Si4 0.776443 0.145461 0.219283
Si Si5 0.250675 0.087207 0.365278
Si Si6 0.373976 0.876580 0.151192
Si Si7 0.720381 0.668361 0.941829
Si Si8 0.780485 0.007450 0.990132
O O1 0.221701 0.647486 0.172894
O O2 0.323468 0.447955 0.976942
O O3 0.984165 0.386767 0.153058
O O4 0.492836 0.734037 0.839359
O O5 0.632769 0.794737 0.422781
O O6 0.509256 0.971814 0.596243
O O7 0.764464 0.028773 0.265711
O O8 0.994839 0.192808 0.283767
O O9 0.500000 0.500000 0.500000
O O10 0.311375 0.185379 0.444566
O O11 0.014549 0.144012 0.776173
O O12 0.867576 0.139736 0.050354
O O13 0.203578 0.897019 0.338469
O O14 0.000000 0.000000 0.500000
O O15 0.565840 0.955951 0.097588
O O16 0.500000 0.000000 0.000000
O O17 0.695095 0.811868 0.029414
O O18 0.500000 0.500000 0.000000
#
# Coordination Sequence:
#
# PCOD8005273 Si02
#       8
#     2   2   2   2   2   2   2   2
#     4  10  21  40  64  90 123 167 210 245 317 366
#     4   9  22  39  63  87 131 152 206 257 310 354
#     4  11  23  38  60  88 124 164 202 249 307 370
#     4  10  21  41  64  91 122 160 203 263 304 369
#     4  11  24  39  59  89 126 161 209 260 301 362
#     4  10  21  39  59  85 120 163 202 250 303 362
#     4  10  20  38  66  90 124 161 202 256 304 365
#     4  11  22  39  65  90 124 161 207 255 311 359
#
# _framework density 20.112252999999999
#
# number of rings (size 3 to 8) (size 9 to 14) (size 15 to 20)
#    0.000    1.750    1.250    3.000    1.750    8.500 
#    0.000    7.500    0.000    0.000    0.000    0.000 
#    0.000    0.000    0.000    0.000    0.000    0.000 
#
# Total GULP energy -198273.499965 kJ/mol
# GULP energy per Si atom -12392.093748 kJ/mol
# Density = 2.006648 g / cm^3
# Si number density = 20.112253 Si / 1000 Ang^3
#
#
#
# Elastic Constant Matrix: (Units=GPa)
#
#
# Indices 1 2 3 4 5 6 
#
# 1 101.7636 66.0165 50.9246 4.0061 -18.7511 -1.8487
# 2 66.0165 143.4966 54.9162 8.1832 -2.9226 9.0635
# 3 50.9246 54.9162 99.7276 7.7636 -8.9546 6.0870
# 4 4.0061 8.1832 7.7636 33.6334 0.8672 1.9505
# 5 -18.7511 -2.9226 -8.9546 0.8672 36.9808 1.2496
# 6 -1.8487 9.0635 6.0870 1.9505 1.2496 38.3273
#
#
#
# Elastic Compliance Matrix: (Units=1/GPa)
#
#
# Indices 1 2 3 4 5 6 
#
# 1 0.017888 -0.006282 -0.005227 0.000248 0.007203 0.002931
# 2 -0.006282 0.011141 -0.002965 -0.001068 -0.002919 -0.002317
# 3 -0.005227 -0.002965 0.014661 -0.001955 0.000772 -0.001805
# 4 0.000248 -0.001068 -0.001955 0.030497 -0.001115 -0.000940
# 5 0.007203 -0.002919 0.000772 -0.001115 0.030677 -0.000028
# 6 0.002931 -0.002317 -0.001805 -0.000940 -0.000028 0.027116
#
#
# Mechanical properties :
#
#
# Convention : Reuss Voigt Hill
#
# Bulk Modulus (GPa) = 67.82710 76.52249 72.17480
# Shear Modulus (GPa) = 30.14928 33.33034 31.73981
#
# Velocity S-wave (km/s) = 3.87596 4.07531 3.97688
# Velocity P-wave (km/s) = 7.33677 7.76366 7.55323
#
# Compressibility (1/GPa) = 0.01474337
#
# Stress axis : x y z
#
# Youngs Moduli (GPa) = 55.90275 89.75589 68.21018
#
# Poissons Ratio (x) = 0.56384 0.35651
# Poissons Ratio (y) = 0.35118 0.20223
# Poissons Ratio (z) = 0.29218 0.26611
#
# Static dielectric constant tensor:
#      x y z
#    x 3.774980 -0.012260 0.023470 
#    y -0.012260 3.869830 -0.085070 
#    z 0.023470 -0.085070 3.537550 
# 
# 
# High freq. dielectric constant tensor:
#      x y z
#    x 1.798440 -0.005740 -0.010010 
#    y -0.005740 1.787780 -0.003030 
#    z -0.010010 -0.003030 1.775680 
# 
# From -- ./inp_files/178996.got.cif
#   From: 2010.06.25/outbox.cif.g09.slc.cpg/sg2_90_cif.got.tgz:178996.got - 2010.06.27 13:26:56.
