data_PCOD8005908
_publ_section_title
;
Structure prediction by ZEFSAII (Michael W. Deem and Ramdas Pophale) SiO2 
 PCOD8005908
Probable space group: P -1
;
_chemical_formula_sum "Si O2"
_cell_formula_units_Z 16
_cell_length_a 8.884011
_cell_length_b 9.856830
_cell_length_c 18.901049
_cell_angle_alpha 38.533463
_cell_angle_beta 114.576566
_cell_angle_gamma 90.000032
_cell_volume 767.655535
_symmetry_space_group_name_H-M "P -1"
_symmetry_group_IT_number 2
_symmetry_cell_setting 'triclinic'
loop_
_space_group_symop_operation_xyz
x,y,z
-x,-y,-z
loop_
_atom_site_type_symbol
_atom_site_label
_atom_site_fract_x
_atom_site_fract_y
_atom_site_fract_z
Si Si1 0.082630 0.657551 0.984144
Si Si2 0.178189 0.922073 0.121291
Si Si3 0.321811 0.785946 0.878710
Si Si4 0.986356 0.344228 0.316349
Si Si5 0.138589 0.002857 0.610890
Si Si6 0.582632 0.890017 0.984144
Si Si7 0.361413 0.335525 0.389112
Si Si8 0.486354 0.206726 0.316348
O O1 0.268793 0.451254 0.152629
O O2 0.154387 0.767881 0.892577
O O3 0.000000 0.500000 0.000000
O O4 0.909920 0.899747 0.898689
O O5 0.299029 0.614565 0.296104
O O6 0.345613 0.945610 0.107424
O O7 0.000000 0.000000 0.000000
O O8 0.200972 0.002876 0.703897
O O9 0.500000 0.500000 0.000000
O O10 0.409922 0.904183 0.898691
O O11 0.009313 0.093115 0.385126
O O12 0.768796 0.590859 0.152630
O O13 0.154247 0.377444 0.303881
O O14 0.025339 0.289584 0.431818
O O15 0.345757 0.789084 0.696122
O O16 0.500000 0.000000 0.000000
O O17 0.509315 0.251507 0.385126
O O18 0.474665 0.085036 0.568184
#
# Coordination Sequence:
#
# PCOD8005908 Si02
#       8
#     2   2   2   2   2   2   2   2
#     4  12  25  40  66  94 128 168 211 260 323 383
#     4  12  23  41  64  96 126 164 217 267 315 377
#     4  12  23  41  64  96 126 164 217 267 315 377
#     4  10  20  39  63  95 125 164 208 258 319 373
#     4  10  22  38  65  93 130 160 211 265 315 378
#     4  12  25  40  66  94 128 168 211 260 323 383
#     4  10  22  38  65  93 130 160 211 265 315 378
#     4  10  20  39  63  95 125 164 208 258 319 373
#
# _framework density 20.842680999999999
#
# number of rings (size 3 to 8) (size 9 to 14) (size 15 to 20)
#    0.000    1.000    5.000    1.500    3.500    0.000 
#    0.000    1.250    0.000    0.000    0.000    0.000 
#    0.000    0.000    0.000    0.000    0.000    0.000 
#
# Total GULP energy -198331.976971 kJ/mol
# GULP energy per Si atom -12395.748561 kJ/mol
# Density = 2.079524 g / cm^3
# Si number density = 20.842681 Si / 1000 Ang^3
#
#
#
# Elastic Constant Matrix: (Units=GPa)
#
#
# Indices 1 2 3 4 5 6 
#
# 1 130.9652 47.4746 7.6231 0.3166 -19.6191 2.1106
# 2 47.4746 114.5366 21.1332 -0.2316 -10.5786 0.7196
# 3 7.6231 21.1332 95.1950 -0.0884 -9.0411 -0.4616
# 4 0.3166 -0.2316 -0.0884 42.8608 -1.6112 1.5034
# 5 -19.6191 -10.5786 -9.0411 -1.6112 23.2845 -0.1918
# 6 2.1106 0.7196 -0.4616 1.5034 -0.1918 35.4657
#
#
#
# Elastic Compliance Matrix: (Units=1/GPa)
#
#
# Indices 1 2 3 4 5 6 
#
# 1 0.009961 -0.003600 0.000667 0.000189 0.007026 -0.000481
# 2 -0.003600 0.010687 -0.001984 0.000121 0.001060 -0.000028
# 3 0.000667 -0.001984 0.011277 0.000154 0.004051 0.000163
# 4 0.000189 0.000121 0.000154 0.023437 0.001888 -0.000995
# 5 0.007026 0.001060 0.004051 0.001888 0.051051 -0.000191
# 6 -0.000481 -0.000028 0.000163 -0.000995 -0.000191 0.028269
#
#
# Mechanical properties :
#
#
# Convention : Reuss Voigt Hill
#
# Bulk Modulus (GPa) = 45.26377 54.79539 50.02958
# Shear Modulus (GPa) = 32.92069 37.95324 35.43697
#
# Velocity S-wave (km/s) = 3.97858 4.27187 4.12784
# Velocity P-wave (km/s) = 6.54748 7.11892 6.83917
#
# Compressibility (1/GPa) = 0.02209273
#
# Stress axis : x y z
#
# Youngs Moduli (GPa) = 100.38662 93.56979 88.67255
#
# Poissons Ratio (x) = 0.33682 -0.05910
# Poissons Ratio (y) = 0.36135 0.17589
# Poissons Ratio (z) = -0.06691 0.18561
#
# Static dielectric constant tensor:
#      x y z
#    x 3.965970 0.022720 -0.160790 
#    y 0.022720 3.796110 -0.022270 
#    z -0.160790 -0.022270 3.963560 
# 
# 
# High freq. dielectric constant tensor:
#      x y z
#    x 1.833590 0.004610 -0.010150 
#    y 0.004610 1.784140 -0.002880 
#    z -0.010150 -0.002880 1.821620 
# 
# From -- ./inp_files/556818.got.cif
#   From: 2010.06.25/outbox.cif.g09.slc.cpg/sg2_279_cif.got.tgz:556818.got - 2010.06.27 13:26:56.
