data_PCOD8005231
_publ_section_title
;
Structure prediction by ZEFSAII (Michael W. Deem and Ramdas Pophale) SiO2 
 PCOD8005231
Probable space group: P -1
;
_chemical_formula_sum "Si O2"
_cell_formula_units_Z 16
_cell_length_a 18.058672
_cell_length_b 23.127502
_cell_length_c 5.611638
_cell_angle_alpha 71.088352
_cell_angle_beta 81.692512
_cell_angle_gamma 19.429263
_cell_volume 633.465059
_symmetry_space_group_name_H-M "P -1"
_symmetry_group_IT_number 2
_symmetry_cell_setting 'triclinic'
loop_
_space_group_symop_operation_xyz
x,y,z
-x,-y,-z
loop_
_atom_site_type_symbol
_atom_site_label
_atom_site_fract_x
_atom_site_fract_y
_atom_site_fract_z
Si Si1 0.876151 0.936006 0.213679
Si Si2 0.958060 0.321528 0.390074
Si Si3 0.437443 0.222874 0.716290
Si Si4 0.501511 0.282134 0.268168
Si Si5 0.795278 0.213820 0.852123
Si Si6 0.299129 0.751935 0.650097
Si Si7 0.389804 0.032965 0.256370
Si Si8 0.903823 0.679901 0.388052
O O1 0.779945 0.053187 0.319527
O O2 0.055968 0.739294 0.474051
O O3 0.617045 0.114202 0.972609
O O4 0.056029 0.838467 0.097161
O O5 0.955292 0.364590 0.571994
O O6 0.238210 0.120196 0.422764
O O7 0.720751 0.525945 0.066871
O O8 0.422384 0.280215 0.423067
O O9 0.549375 0.068913 0.821793
O O10 0.134531 0.450299 0.624518
O O11 0.545396 0.305912 0.390458
O O12 0.641835 0.335246 0.501683
O O13 0.617457 0.342551 0.002080
O O14 0.000000 0.000000 0.000000
O O15 0.000000 0.000000 0.500000
O O16 0.667582 0.845486 0.457975
O O17 0.219234 0.218419 0.954619
#
# Coordination Sequence:
#
# PCOD8005231 Si02
#       8
#     2   2   2   2   2   2   2   2
#     4  12  24  40  69  94 135 174 220 282 334 407
#     4  12  25  44  62 104 128 178 220 274 344 402
#     4  12  23  42  68 100 124 180 230 270 338 408
#     4  12  24  40  69  94 135 174 220 282 334 407
#     4  10  20  38  65  96 131 181 226 275 349 405
#     4  10  20  38  65  96 131 181 226 275 349 405
#     4  11  24  43  65  95 136 172 218 282 338 400
#     4  11  24  43  65  95 136 172 218 282 338 400
#
# _framework density 25.257905000000001
#
# number of rings (size 3 to 8) (size 9 to 14) (size 15 to 20)
#    0.000    0.750    7.500    2.250    0.000    0.000 
#    0.000    2.500    0.000    0.000    0.000    0.000 
#    0.000    0.000    0.000    0.000    0.000    0.000 
#
# Total GULP energy -198276.188603 kJ/mol
# GULP energy per Si atom -12392.261788 kJ/mol
# Density = 2.520042 g / cm^3
# Si number density = 25.257905 Si / 1000 Ang^3
#
#
#
# Elastic Constant Matrix: (Units=GPa)
#
#
# Indices 1 2 3 4 5 6 
#
# 1 94.4134 -7.8730 6.3302 2.4077 1.4671 -10.9410
# 2 -7.8730 30.6341 2.2575 3.1847 -2.2442 2.1170
# 3 6.3302 2.2575 96.4626 6.9413 -1.4498 12.4475
# 4 2.4077 3.1847 6.9413 30.9411 -0.9480 0.4687
# 5 1.4671 -2.2442 -1.4498 -0.9480 45.2357 4.6089
# 6 -10.9410 2.1170 12.4475 0.4687 4.6089 26.6137
#
#
#
# Elastic Compliance Matrix: (Units=1/GPa)
#
#
# Indices 1 2 3 4 5 6 
#
# 1 0.011582 0.002749 -0.001464 -0.000964 -0.000856 0.005392
# 2 0.002749 0.033983 -0.000495 -0.003526 0.001667 -0.001568
# 3 -0.001464 -0.000495 0.011431 -0.002279 0.000956 -0.006034
# 4 -0.000964 -0.003526 -0.002279 0.033278 0.000452 0.000286
# 5 -0.000856 0.001667 0.000956 0.000452 0.022754 -0.004880
# 6 0.005392 -0.001568 -0.006034 0.000286 -0.004880 0.043579
#
#
# Mechanical properties :
#
#
# Convention : Reuss Voigt Hill
#
# Bulk Modulus (GPa) = 17.07106 24.77106 20.92106
# Shear Modulus (GPa) = 28.64472 35.27778 31.96125
#
# Velocity S-wave (km/s) = 3.37128 3.74130 3.56110
# Velocity P-wave (km/s) = 4.68267 5.33776 5.02091
#
# Compressibility (1/GPa) = 0.05857866
#
# Stress axis : x y z
#
# Youngs Moduli (GPa) = 86.34172 29.42609 87.47843
#
# Poissons Ratio (x) = -0.08090 0.12804
# Poissons Ratio (y) = -0.23738 0.04326
# Poissons Ratio (z) = 0.12638 0.01455
#
# Static dielectric constant tensor:
#      x y z
#    x 4.783440 -0.352110 -0.204650 
#    y -0.352110 4.375450 -0.191470 
#    z -0.204650 -0.191470 4.225830 
# 
# 
# High freq. dielectric constant tensor:
#      x y z
#    x 2.019250 -0.009730 0.003810 
#    y -0.009730 1.995190 -0.006260 
#    z 0.003810 -0.006260 1.999320 
# 
# From -- ./inp_files/106128.got.cif
#   From: 2010.06.25/outbox.cif.g09.slc.cpg/sg2_54_cif.got.tgz:106128.got - 2010.06.27 13:26:56.
