data_PCOD8005525
_publ_section_title
;
Structure prediction by ZEFSAII (Michael W. Deem and Ramdas Pophale) SiO2 
 PCOD8005525
Probable space group: P -1
;
_chemical_formula_sum "Si O2"
_cell_formula_units_Z 14
_cell_length_a 9.103741
_cell_length_b 15.189554
_cell_length_c 7.789040
_cell_angle_alpha 79.715671
_cell_angle_beta 130.816086
_cell_angle_gamma 72.154623
_cell_volume 659.976568
_symmetry_space_group_name_H-M "P -1"
_symmetry_group_IT_number 2
_symmetry_cell_setting 'triclinic'
loop_
_space_group_symop_operation_xyz
x,y,z
-x,-y,-z
loop_
_atom_site_type_symbol
_atom_site_label
_atom_site_fract_x
_atom_site_fract_y
_atom_site_fract_z
Si Si1 0.923232 0.532818 0.618971
Si Si2 0.266335 0.864361 0.626127
Si Si3 0.089409 0.802155 0.200767
Si Si4 0.053230 0.290864 0.258768
Si Si5 0.955668 0.897805 0.687167
Si Si6 0.431002 0.612666 0.337949
Si Si7 0.214004 0.290566 0.034810
O O1 0.643521 0.598461 0.398669
O O2 0.000000 0.500000 0.500000
O O3 0.989715 0.618346 0.674442
O O4 0.061628 0.422349 0.872169
O O5 0.097490 0.861426 0.355715
O O6 0.537692 0.763014 0.852459
O O7 0.183973 0.865086 0.757546
O O8 0.248333 0.975378 0.539384
O O9 0.357459 0.696126 0.411499
O O10 0.008384 0.876870 0.940051
O O11 0.923573 0.759412 0.129879
O O12 0.139781 0.172196 0.439841
O O13 0.245255 0.268654 0.270070
O O14 0.797870 0.334148 0.972666
O O15 0.500000 0.500000 0.500000
#
# Coordination Sequence:
#
# PCOD8005525 Si02
#       7
#     2   2   2   2   2   2   2
#     4  12  25  36  60  94 123 158 201 246 300 367
#     4  11  22  42  67  86 126 158 201 265 300 346
#     4  10  22  40  65  89 123 161 201 248 308 365
#     4  10  23  41  61  85 125 159 200 247 302 362
#     4   9  23  43  62  93 119 161 208 248 309 364
#     4  10  20  39  59  85 123 160 196 242 302 357
#     4  10  23  39  60  95 115 160 211 237 303 375
#
# _framework density 21.212873999999999
#
# number of rings (size 3 to 8) (size 9 to 14) (size 15 to 20)
#    0.000    2.000    2.857    1.714    8.000    2.857 
#    0.000    5.714    0.000    0.000    0.000    0.000 
#    0.000    0.000    0.000    0.000    0.000    0.000 
#
# Total GULP energy -173461.251069 kJ/mol
# GULP energy per Si atom -12390.089362 kJ/mol
# Density = 2.116459 g / cm^3
# Si number density = 21.212874 Si / 1000 Ang^3
#
#
#
# Elastic Constant Matrix: (Units=GPa)
#
#
# Indices 1 2 3 4 5 6 
#
# 1 61.9930 19.8094 10.1559 4.4279 4.1137 2.2341
# 2 19.8094 134.5195 14.2458 4.7030 -5.7263 17.6155
# 3 10.1559 14.2458 24.6642 2.0509 7.2765 -0.6899
# 4 4.4279 4.7030 2.0509 27.7080 -0.9866 -2.7522
# 5 4.1137 -5.7263 7.2765 -0.9866 32.2482 -11.6193
# 6 2.2341 17.6155 -0.6899 -2.7522 -11.6193 37.7419
#
#
#
# Elastic Compliance Matrix: (Units=1/GPa)
#
#
# Indices 1 2 3 4 5 6 
#
# 1 0.017981 -0.001921 -0.005601 -0.002295 -0.001799 -0.000991
# 2 -0.001921 0.008809 -0.004751 -0.001151 0.001512 -0.003703
# 3 -0.005601 -0.004751 0.049140 -0.002363 -0.011371 -0.000226
# 4 -0.002295 -0.001151 -0.002363 0.037382 0.003346 0.004386
# 5 -0.001799 0.001512 -0.011371 0.003346 0.038211 0.011201
# 6 -0.000991 -0.003703 -0.000226 0.004386 0.011201 0.032047
#
#
# Mechanical properties :
#
#
# Convention : Reuss Voigt Hill
#
# Bulk Modulus (GPa) = 19.46114 34.39987 26.93050
# Shear Modulus (GPa) = 22.19804 31.33732 26.76768
#
# Velocity S-wave (km/s) = 3.23838 3.84771 3.55612
# Velocity P-wave (km/s) = 4.81425 5.99929 5.43914
#
# Compressibility (1/GPa) = 0.05138445
#
# Stress axis : x y z
#
# Youngs Moduli (GPa) = 55.61322 113.51400 20.35012
#
# Poissons Ratio (x) = 0.21810 0.11397
# Poissons Ratio (y) = 0.10685 0.09669
# Poissons Ratio (z) = 0.31147 0.53932
#
# Static dielectric constant tensor:
#      x y z
#    x 0.826470 -6.221270 3.191500 
#    y -6.221270 -9.326590 6.961810 
#    z 3.191500 6.961810 -0.331550 
# 
# 
# High freq. dielectric constant tensor:
#      x y z
#    x 1.839800 0.005470 -0.000500 
#    y 0.005470 1.851120 -0.015180 
#    z -0.000500 -0.015180 1.798390 
# 
# From -- ./inp_files/179605.got.cif
#   From: 2010.06.25/outbox.cif.g09.slc.cpg/sg2_90_cif.got.tgz:179605.got - 2010.06.27 13:26:56.
