data_PCOD8005035
_publ_section_title
;
Structure prediction by ZEFSAII (Michael W. Deem and Ramdas Pophale) SiO2 
 PCOD8005035
Probable space group: P -1
;
_chemical_formula_sum "Si O2"
_cell_formula_units_Z 16
_cell_length_a 23.071572
_cell_length_b 18.447334
_cell_length_c 12.358743
_cell_angle_alpha 26.175559
_cell_angle_beta 152.389296
_cell_angle_gamma 158.702300
_cell_volume 800.746511
_symmetry_space_group_name_H-M "P -1"
_symmetry_group_IT_number 2
_symmetry_cell_setting 'triclinic'
loop_
_space_group_symop_operation_xyz
x,y,z
-x,-y,-z
loop_
_atom_site_type_symbol
_atom_site_label
_atom_site_fract_x
_atom_site_fract_y
_atom_site_fract_z
Si Si1 0.164376 0.205539 0.435709
Si Si2 0.739171 0.904885 0.452457
Si Si3 0.142461 0.800091 0.366660
Si Si4 0.597571 0.371097 0.616870
Si Si5 0.396025 0.308638 0.169507
Si Si6 0.895914 0.382444 0.093641
Si Si7 0.045528 0.431906 0.835851
Si Si8 0.132474 0.217544 0.994342
O O1 0.243458 0.125614 0.604411
O O2 0.298089 0.373544 0.523348
O O3 0.000000 0.000000 0.500000
O O4 0.130902 0.331055 0.133662
O O5 0.546978 0.780362 0.329269
O O6 0.811313 0.816262 0.756535
O O7 0.859510 0.159324 0.342572
O O8 0.121353 0.737873 0.287470
O O9 0.179144 0.670759 0.674244
O O10 0.277084 0.063677 0.248626
O O11 0.953579 0.685646 0.247925
O O12 0.519978 0.321281 0.436916
O O13 0.718566 0.320712 0.881588
O O14 0.295969 0.365761 0.989688
O O15 0.500000 0.500000 0.000000
O O16 0.003026 0.532513 0.175153
O O17 0.000000 0.500000 0.000000
O O18 0.000000 0.000000 0.000000
#
# Coordination Sequence:
#
# PCOD8005035 Si02
#       8
#     2   2   2   2   2   2   2   2
#     4  11  23  38  62  93 122 160 207 264 310 362
#     4  11  20  38  59  87 122 160 208 255 303 369
#     4  10  20  38  64  88 122 170 206 252 300 373
#     4  10  23  39  59  86 121 159 202 254 319 369
#     4  10  22  37  60  91 125 157 203 258 313 357
#     4  11  23  39  61  91 120 163 208 260 314 369
#     4  10  21  38  62  92 123 158 214 251 303 369
#     4   9  18  33  58  86 112 160 206 241 290 359
#
# _framework density 19.981355000000001
#
# number of rings (size 3 to 8) (size 9 to 14) (size 15 to 20)
#    0.000    1.750    1.250    4.500    1.750    4.000 
#    0.000    0.000    0.000    3.750    0.000    0.000 
#    0.000    0.000    0.000    0.000    0.000    0.000 
#
# Total GULP energy -198294.103818 kJ/mol
# GULP energy per Si atom -12393.381489 kJ/mol
# Density = 1.993588 g / cm^3
# Si number density = 19.981355 Si / 1000 Ang^3
#
#
#
# Elastic Constant Matrix: (Units=GPa)
#
#
# Indices 1 2 3 4 5 6 
#
# 1 142.5983 64.1047 42.6107 -6.7648 -7.1435 -4.8015
# 2 64.1047 115.4380 38.5278 -14.4496 -10.4572 -3.2055
# 3 42.6107 38.5278 79.7372 -5.1567 -1.1813 8.4958
# 4 -6.7648 -14.4496 -5.1567 31.2121 -3.0927 -2.9800
# 5 -7.1435 -10.4572 -1.1813 -3.0927 28.1884 0.3058
# 6 -4.8015 -3.2055 8.4958 -2.9800 0.3058 42.6467
#
#
#
# Elastic Compliance Matrix: (Units=1/GPa)
#
#
# Indices 1 2 3 4 5 6 
#
# 1 0.010080 -0.004366 -0.003435 -0.000188 0.000754 0.001473
# 2 -0.004366 0.013499 -0.003963 0.005231 0.004291 0.001647
# 3 -0.003435 -0.003963 0.016672 -0.000371 -0.001639 -0.004020
# 4 -0.000188 0.005231 -0.000371 0.035197 0.005708 0.002864
# 5 0.000754 0.004291 -0.001639 0.005708 0.037807 0.000862
# 6 0.001473 0.001647 -0.004020 0.002864 0.000862 0.024733
#
#
# Mechanical properties :
#
#
# Convention : Reuss Voigt Hill
#
# Bulk Modulus (GPa) = 59.79800 69.80666 64.80233
# Shear Modulus (GPa) = 29.92388 33.24481 31.58435
#
# Velocity S-wave (km/s) = 3.87407 4.08339 3.98010
# Velocity P-wave (km/s) = 7.07129 7.56596 7.32280
#
# Compressibility (1/GPa) = 0.01672297
#
# Stress axis : x y z
#
# Youngs Moduli (GPa) = 99.20480 74.08018 59.98079
#
# Poissons Ratio (x) = 0.32340 0.20605
# Poissons Ratio (y) = 0.43308 0.23772
# Poissons Ratio (z) = 0.34080 0.29360
#
# Static dielectric constant tensor:
#      x y z
#    x 4.272840 0.061980 0.069120 
#    y 0.061980 3.877280 -0.018200 
#    z 0.069120 -0.018200 3.751270 
# 
# 
# High freq. dielectric constant tensor:
#      x y z
#    x 1.792680 -0.019120 -0.001610 
#    y -0.019120 1.767370 -0.003160 
#    z -0.001610 -0.003160 1.774710 
# 
# From -- ./inp_files/189246.got.cif
#   From: 2010.06.25/outbox.cif.g09.slc.cpg/sg2_95_cif.got.tgz:189246.got - 2010.06.27 13:26:56.
