data_PCOD8005594
_publ_section_title
;
Structure prediction by ZEFSAII (Michael W. Deem and Ramdas Pophale) SiO2 
 PCOD8005594
Probable space group: P -1
;
_chemical_formula_sum "Si O2"
_cell_formula_units_Z 14
_cell_length_a 13.096458
_cell_length_b 7.208666
_cell_length_c 10.632296
_cell_angle_alpha 44.753013
_cell_angle_beta 77.961448
_cell_angle_gamma 86.380711
_cell_volume 685.881616
_symmetry_space_group_name_H-M "P -1"
_symmetry_group_IT_number 2
_symmetry_cell_setting 'triclinic'
loop_
_space_group_symop_operation_xyz
x,y,z
-x,-y,-z
loop_
_atom_site_type_symbol
_atom_site_label
_atom_site_fract_x
_atom_site_fract_y
_atom_site_fract_z
Si Si1 0.016224 0.671843 0.536712
Si Si2 0.621909 0.551727 0.481632
Si Si3 0.417055 0.967950 0.147683
Si Si4 0.841379 0.847744 0.657582
Si Si5 0.449900 0.942258 0.678161
Si Si6 0.291146 0.430014 0.969842
Si Si7 0.792780 0.382047 0.338766
O O1 0.092042 0.519018 0.680953
O O2 0.000000 0.500000 0.500000
O O3 0.902314 0.689772 0.616461
O O4 0.074534 0.975020 0.356404
O O5 0.500000 0.500000 0.500000
O O6 0.639727 0.337025 0.689125
O O7 0.699590 0.516345 0.364091
O O8 0.638271 0.854751 0.380068
O O9 0.464443 0.029406 0.245681
O O10 0.500000 0.000000 0.000000
O O11 0.328594 0.153488 0.049513
O O12 0.771599 0.058198 0.508494
O O13 0.767271 0.619319 0.858590
O O14 0.393219 0.645223 0.847711
O O15 0.500000 0.000000 0.500000
O O16 0.206717 0.524420 0.849929
#
# Coordination Sequence:
#
# PCOD8005594 Si02
#       7
#     2   2   2   2   2   2   2
#     4   9  20  46  69  93 131 174 212 275 352 396
#     4  10  20  39  60  89 132 172 213 265 326 391
#     4  11  21  40  59  88 131 173 223 271 315 394
#     4   9  22  43  67  95 131 166 219 281 333 389
#     4  11  24  39  61  92 133 182 222 268 330 392
#     4  12  22  39  66  97 128 166 225 269 334 389
#     4  10  21  42  65  93 130 171 210 274 338 386
#
# _framework density 20.411684999999999
#
# number of rings (size 3 to 8) (size 9 to 14) (size 15 to 20)
#    0.857    0.857    1.429    4.714    0.000    1.714 
#    7.714    0.714    0.000    0.000    0.000    0.000 
#    0.000    0.000    0.000    0.000    0.000    0.000 
#
# Total GULP energy -173472.848216 kJ/mol
# GULP energy per Si atom -12390.917730 kJ/mol
# Density = 2.036523 g / cm^3
# Si number density = 20.411685 Si / 1000 Ang^3
#
#
#
# Elastic Constant Matrix: (Units=GPa)
#
#
# Indices 1 2 3 4 5 6 
#
# 1 70.5692 34.9559 30.4674 5.6466 15.7040 -20.2463
# 2 34.9559 108.5978 39.1902 10.0065 6.4940 -25.3369
# 3 30.4674 39.1902 137.3133 1.6088 8.4958 -11.9774
# 4 5.6466 10.0065 1.6088 36.1214 -3.4037 0.2881
# 5 15.7040 6.4940 8.4958 -3.4037 36.8367 6.3263
# 6 -20.2463 -25.3369 -11.9774 0.2881 6.3263 40.2336
#
#
#
# Elastic Compliance Matrix: (Units=1/GPa)
#
#
# Indices 1 2 3 4 5 6 
#
# 1 0.022286 -0.002888 -0.002527 -0.003645 -0.010519 0.010324
# 2 -0.002888 0.012848 -0.002326 -0.003230 -0.001871 0.006262
# 3 -0.002527 -0.002326 0.008511 0.000624 -0.000393 -0.000145
# 4 -0.003645 -0.003230 0.000624 0.029681 0.005540 -0.004766
# 5 -0.010519 -0.001871 -0.000393 0.005540 0.034637 -0.012075
# 6 0.010324 0.006262 -0.000145 -0.004766 -0.012075 0.035883
#
#
# Mechanical properties :
#
#
# Convention : Reuss Voigt Hill
#
# Bulk Modulus (GPa) = 35.50660 58.41192 46.95926
# Shear Modulus (GPa) = 29.63524 36.76280 33.19902
#
# Velocity S-wave (km/s) = 3.81448 4.24850 4.03733
# Velocity P-wave (km/s) = 6.06905 7.26260 6.69249
#
# Compressibility (1/GPa) = 0.02816378
#
# Stress axis : x y z
#
# Youngs Moduli (GPa) = 44.87043 77.83257 117.48836
#
# Poissons Ratio (x) = 0.22481 0.29684
# Poissons Ratio (y) = 0.12960 0.27330
# Poissons Ratio (z) = 0.11337 0.18105
#
# Static dielectric constant tensor:
#      x y z
#    x 4.203770 -0.347940 -0.212150 
#    y -0.347940 3.923190 -0.298560 
#    z -0.212150 -0.298560 4.144080 
# 
# 
# High freq. dielectric constant tensor:
#      x y z
#    x 1.781870 -0.024050 0.006410 
#    y -0.024050 1.796170 -0.004710 
#    z 0.006410 -0.004710 1.795500 
# 
# From -- ./inp_files/442416.got.cif
#   From: 2010.06.25/outbox.cif.g09.slc.cpg/sg2_222_cif.got.tgz:442416.got - 2010.06.27 13:26:56.
