data_PCOD8005156
_publ_section_title
;
Structure prediction by ZEFSAII (Michael W. Deem and Ramdas Pophale) SiO2 
 PCOD8005156
Probable space group: P -1
;
_chemical_formula_sum "Si O2"
_cell_formula_units_Z 16
_cell_length_a 10.031868
_cell_length_b 20.562984
_cell_length_c 8.967782
_cell_angle_alpha 44.454564
_cell_angle_beta 103.776104
_cell_angle_gamma 136.038893
_cell_volume 740.779420
_symmetry_space_group_name_H-M "P -1"
_symmetry_group_IT_number 2
_symmetry_cell_setting 'triclinic'
loop_
_space_group_symop_operation_xyz
x,y,z
-x,-y,-z
loop_
_atom_site_type_symbol
_atom_site_label
_atom_site_fract_x
_atom_site_fract_y
_atom_site_fract_z
Si Si1 0.989137 0.941129 0.749398
Si Si2 0.955604 0.390547 0.771964
Si Si3 0.555092 0.123978 0.895499
Si Si4 0.304111 0.124570 0.007566
Si Si5 0.499825 0.220912 0.467221
Si Si6 0.333153 0.662037 0.001893
Si Si7 0.519341 0.569515 0.241264
Si Si8 0.460845 0.604479 0.594985
O O1 0.950532 0.987159 0.812186
O O2 0.780873 0.753216 0.994988
O O3 0.000000 0.000000 0.500000
O O4 0.243110 0.034063 0.687314
O O5 0.749969 0.217301 0.922353
O O6 0.887238 0.400069 0.896599
O O7 0.000000 0.500000 0.500000
O O8 0.180601 0.450578 0.752487
O O9 0.320384 0.041661 0.043181
O O10 0.643473 0.244335 0.594575
O O11 0.500000 0.000000 0.000000
O O12 0.445036 0.180481 0.105061
O O13 0.421597 0.276771 0.706953
O O14 0.469219 0.310803 0.367502
O O15 0.644283 0.297463 0.229822
O O16 0.325484 0.545135 0.213368
O O17 0.500000 0.500000 0.500000
O O18 0.468210 0.465165 0.269366
#
# Coordination Sequence:
#
# PCOD8005156 Si02
#       8
#     2   2   2   2   2   2   2   2
#     4  11  21  39  65  91 126 169 203 253 336 375
#     4  11  19  42  64  83 119 176 205 249 324 383
#     4  10  23  40  60  89 123 159 219 262 303 381
#     4   9  18  40  62  85 125 164 202 249 321 376
#     4  11  23  40  62  91 129 162 207 268 322 369
#     4  10  20  38  65  88 125 164 207 259 318 375
#     4  11  20  40  65  95 119 165 222 254 299 388
#     4  11  22  38  64  93 125 163 217 263 308 376
#
# _framework density 21.598872
#
# number of rings (size 3 to 8) (size 9 to 14) (size 15 to 20)
#    0.000    1.500    8.750    0.000    1.750    3.000 
#    0.000    3.750    0.000    0.000    0.000    0.000 
#    0.000    0.000    0.000    0.000    0.000    0.000 
#
# Total GULP energy -198210.421270 kJ/mol
# GULP energy per Si atom -12388.151329 kJ/mol
# Density = 2.154971 g / cm^3
# Si number density = 21.598872 Si / 1000 Ang^3
#
#
#
# Elastic Constant Matrix: (Units=GPa)
#
#
# Indices 1 2 3 4 5 6 
#
# 1 108.0976 27.6238 36.7454 3.3723 -1.5411 -34.8970
# 2 27.6238 71.0283 34.3115 10.5621 -3.3292 -28.4926
# 3 36.7454 34.3115 99.4091 16.2529 -16.1557 -21.5471
# 4 3.3723 10.5621 16.2529 40.9309 -11.0052 -2.2472
# 5 -1.5411 -3.3292 -16.1557 -11.0052 33.5366 -3.8526
# 6 -34.8970 -28.4926 -21.5471 -2.2472 -3.8526 47.4202
#
#
#
# Elastic Compliance Matrix: (Units=1/GPa)
#
#
# Indices 1 2 3 4 5 6 
#
# 1 0.012925 -0.000522 -0.002962 0.000753 0.000271 0.007910
# 2 -0.000522 0.020855 -0.004307 -0.003042 0.000128 0.010055
# 3 -0.002962 -0.004307 0.014492 -0.002729 0.005770 0.002157
# 4 0.000753 -0.003042 -0.002729 0.028258 0.007627 -0.000555
# 5 0.000271 0.000128 0.005770 0.007627 0.035835 0.006171
# 6 0.007910 0.010055 0.002157 -0.000555 0.006171 0.034406
#
#
# Mechanical properties :
#
#
# Convention : Reuss Voigt Hill
#
# Bulk Modulus (GPa) = 30.59136 52.87737 41.73437
# Shear Modulus (GPa) = 28.85990 36.36782 32.61386
#
# Velocity S-wave (km/s) = 3.65934 4.10784 3.89006
# Velocity P-wave (km/s) = 5.66114 6.85812 6.28818
#
# Compressibility (1/GPa) = 0.03268897
#
# Stress axis : x y z
#
# Youngs Moduli (GPa) = 77.36903 47.95073 69.00147
#
# Poissons Ratio (x) = 0.02504 0.20438
# Poissons Ratio (y) = 0.04040 0.29722
# Poissons Ratio (z) = 0.22917 0.20654
#
# Static dielectric constant tensor:
#      x y z
#    x 3.660560 -0.925530 0.010500 
#    y -0.925530 3.502600 0.289610 
#    z 0.010500 0.289610 3.699600 
# 
# 
# High freq. dielectric constant tensor:
#      x y z
#    x 1.845190 -0.020110 -0.019590 
#    y -0.020110 1.847600 0.011320 
#    z -0.019590 0.011320 1.822230 
# 
# From -- ./inp_files/282908.got.cif
#   From: 2010.06.25/outbox.cif.g09.slc.cpg/sg2_142_cif.got.tgz:282908.got - 2010.06.27 13:26:56.
