data_PCOD8005753
_publ_section_title
;
Structure prediction by ZEFSAII (Michael W. Deem and Ramdas Pophale) SiO2 
 PCOD8005753
Probable space group: P -1
;
_chemical_formula_sum "Si O2"
_cell_formula_units_Z 16
_cell_length_a 13.804068
_cell_length_b 26.215111
_cell_length_c 7.746268
_cell_angle_alpha 48.979751
_cell_angle_beta 122.803127
_cell_angle_gamma 159.501584
_cell_volume 711.769409
_symmetry_space_group_name_H-M "P -1"
_symmetry_group_IT_number 2
_symmetry_cell_setting 'triclinic'
loop_
_space_group_symop_operation_xyz
x,y,z
-x,-y,-z
loop_
_atom_site_type_symbol
_atom_site_label
_atom_site_fract_x
_atom_site_fract_y
_atom_site_fract_z
Si Si1 0.460436 0.371735 0.519068
Si Si2 0.502383 0.907526 0.592311
Si Si3 0.914692 0.037211 0.535742
Si Si4 0.882114 0.888230 0.985877
Si Si5 0.810287 0.209620 0.137575
Si Si6 0.569863 0.502890 0.877839
Si Si7 0.116977 0.746729 0.277358
Si Si8 0.042386 0.863395 0.978699
O O1 0.380950 0.407419 0.403937
O O2 0.790716 0.545252 0.391578
O O3 0.249306 0.230443 0.477864
O O4 0.413276 0.303596 0.800471
O O5 0.341964 0.818017 0.822393
O O6 0.267798 0.783604 0.487047
O O7 0.703807 0.950094 0.679002
O O8 0.712922 0.084121 0.385086
O O9 0.815027 0.026010 0.297632
O O10 0.847002 0.919901 0.716080
O O11 0.100678 0.943924 0.020491
O O12 0.000000 0.000000 0.000000
O O13 0.154611 0.397473 0.071683
O O14 0.727709 0.178850 0.925038
O O15 0.500000 0.500000 0.000000
O O16 0.302158 0.314230 0.980480
O O17 0.138849 0.837842 0.153255
#
# Coordination Sequence:
#
# PCOD8005753 Si02
#       8
#     2   2   2   2   2   2   2   2
#     4  10  20  39  62  90 123 156 207 263 314 357
#     4  11  24  35  62  92 136 168 201 245 325 392
#     4  11  20  44  59  88 127 169 211 248 306 380
#     4  10  25  38  60  90 122 166 214 266 295 364
#     4  11  21  37  58  94 136 164 189 255 330 380
#     4  11  17  35  64  93 123 155 195 269 322 370
#     4  11  22  39  64 101 125 156 205 267 325 381
#     4  11  21  36  67  92 121 158 208 266 319 363
#
# _framework density 22.479189000000002
#
# number of rings (size 3 to 8) (size 9 to 14) (size 15 to 20)
#    0.000    1.250    6.250    0.750    3.500    2.000 
#    0.000    0.625    0.000    0.750    0.000    0.000 
#    0.000    0.000    0.000    0.000    0.000    0.000 
#
# Total GULP energy -198259.552724 kJ/mol
# GULP energy per Si atom -12391.222045 kJ/mol
# Density = 2.242803 g / cm^3
# Si number density = 22.479189 Si / 1000 Ang^3
#
#
#
# Elastic Constant Matrix: (Units=GPa)
#
#
# Indices 1 2 3 4 5 6 
#
# 1 101.3750 22.0067 31.2449 -10.0591 -22.9129 -6.5216
# 2 22.0067 59.3817 -1.2246 -2.7879 -7.2836 6.9389
# 3 31.2449 -1.2246 103.3095 -10.7091 0.1498 -4.1118
# 4 -10.0591 -2.7879 -10.7091 19.8388 1.9874 -9.9963
# 5 -22.9129 -7.2836 0.1498 1.9874 34.0176 0.4713
# 6 -6.5216 6.9389 -4.1118 -9.9963 0.4713 19.8415
#
#
#
# Elastic Compliance Matrix: (Units=1/GPa)
#
#
# Indices 1 2 3 4 5 6 
#
# 1 0.015893 -0.005754 -0.003349 0.010401 0.008720 0.011575
# 2 -0.005754 0.020197 0.000952 -0.005470 0.000924 -0.011535
# 3 -0.003349 0.000952 0.011664 0.007398 -0.002601 0.004772
# 4 0.010401 -0.005470 0.007398 0.083545 0.000243 0.048950
# 5 0.008720 0.000924 -0.002601 0.000243 0.035447 0.001284
# 6 0.011575 -0.011535 0.004772 0.048950 0.001284 0.083858
#
#
# Mechanical properties :
#
#
# Convention : Reuss Voigt Hill
#
# Bulk Modulus (GPa) = 31.79307 40.90226 36.34767
# Shear Modulus (GPa) = 18.02524 28.87550 23.45037
#
# Velocity S-wave (km/s) = 2.83479 3.58794 3.23337
# Velocity P-wave (km/s) = 4.98886 5.94975 5.49037
#
# Compressibility (1/GPa) = 0.03145340
#
# Stress axis : x y z
#
# Youngs Moduli (GPa) = 62.92062 49.51343 85.73188
#
# Poissons Ratio (x) = 0.28489 0.28709
# Poissons Ratio (y) = 0.36203 -0.08163
# Poissons Ratio (z) = 0.21070 -0.04714
#
# Static dielectric constant tensor:
#      x y z
#    x 4.157340 0.016900 -0.036210 
#    y 0.016900 3.928630 0.001910 
#    z -0.036210 0.001910 4.736660 
# 
# 
# High freq. dielectric constant tensor:
#      x y z
#    x 1.868180 0.003820 -0.023500 
#    y 0.003820 1.869590 0.001430 
#    z -0.023500 0.001430 1.889600 
# 
# From -- ./inp_files/321046.got.cif
#   From: 2010.06.25/outbox.cif.g09.slc.cpg/sg2_161_cif.got.tgz:321046.got - 2010.06.27 13:26:56.
