data_PCOD8005210
_publ_section_title
;
Structure prediction by ZEFSAII (Michael W. Deem and Ramdas Pophale) SiO2 
 PCOD8005210
Probable space group: P -1
;
_chemical_formula_sum "Si O2"
_cell_formula_units_Z 16
_cell_length_a 10.194200
_cell_length_b 29.293701
_cell_length_c 9.148712
_cell_angle_alpha 145.084179
_cell_angle_beta 120.141734
_cell_angle_gamma 34.559374
_cell_volume 750.375271
_symmetry_space_group_name_H-M "P -1"
_symmetry_group_IT_number 2
_symmetry_cell_setting 'triclinic'
loop_
_space_group_symop_operation_xyz
x,y,z
-x,-y,-z
loop_
_atom_site_type_symbol
_atom_site_label
_atom_site_fract_x
_atom_site_fract_y
_atom_site_fract_z
Si Si1 0.062615 0.919218 0.091544
Si Si2 0.060158 0.586337 0.737276
Si Si3 0.851212 0.637676 0.352519
Si Si4 0.887059 0.153914 0.741099
Si Si5 0.272319 0.127334 0.817509
Si Si6 0.369730 0.338790 0.423202
Si Si7 0.469901 0.932488 0.894965
Si Si8 0.625429 0.531899 0.671120
O O1 0.135560 0.864344 0.153005
O O2 0.315321 0.801974 0.815081
O O3 0.950489 0.058769 0.406530
O O4 0.844491 0.955462 0.990887
O O5 0.227371 0.490343 0.728038
O O6 0.298840 0.462494 0.427680
O O7 0.795759 0.645403 0.739355
O O8 0.950061 0.724040 0.010081
O O9 0.664520 0.680859 0.486990
O O10 0.646566 0.783156 0.524904
O O11 0.084119 0.599158 0.428945
O O12 0.000000 0.500000 0.000000
O O13 0.122263 0.116872 0.771840
O O14 0.588470 0.319686 0.970430
O O15 0.500000 0.000000 0.500000
O O16 0.418560 0.110214 0.987865
O O17 0.500000 0.000000 0.000000
O O18 0.500000 0.500000 0.500000
#
# Coordination Sequence:
#
# PCOD8005210 Si02
#       8
#     2   2   2   2   2   2   2   2
#     4  11  24  39  66  96 136 170 221 268 335 394
#     4  10  20  38  65  94 122 169 213 269 329 381
#     4  11  25  44  65  95 131 176 219 269 339 396
#     4  11  22  39  65 103 125 172 225 272 320 407
#     4  12  24  44  67  98 135 175 222 276 337 397
#     4  10  21  40  65  91 129 170 217 271 326 389
#     4  12  25  46  67  97 137 180 215 274 343 401
#     4  11  19  38  68  89 123 162 220 267 318 380
#
# _framework density 21.322666000000002
#
# number of rings (size 3 to 8) (size 9 to 14) (size 15 to 20)
#    0.000    1.000    6.250    1.500    0.000    1.500 
#    2.250    0.000    0.000    2.250    0.000    0.000 
#    0.000    0.000    0.000    0.000    0.000    0.000 
#
# Total GULP energy -198243.209345 kJ/mol
# GULP energy per Si atom -12390.200584 kJ/mol
# Density = 2.127413 g / cm^3
# Si number density = 21.322666 Si / 1000 Ang^3
#
#
#
# Elastic Constant Matrix: (Units=GPa)
#
#
# Indices 1 2 3 4 5 6 
#
# 1 131.7668 46.3560 66.2719 18.1864 -1.8486 -17.6706
# 2 46.3560 67.4893 42.1559 17.6583 -2.4431 -6.0747
# 3 66.2719 42.1559 149.3003 30.9464 -3.7576 3.7562
# 4 18.1864 17.6583 30.9464 30.7913 -3.5396 4.5005
# 5 -1.8486 -2.4431 -3.7576 -3.5396 38.4161 14.1805
# 6 -17.6706 -6.0747 3.7562 4.5005 14.1805 36.0733
#
#
#
# Elastic Compliance Matrix: (Units=1/GPa)
#
#
# Indices 1 2 3 4 5 6 
#
# 1 0.012564 -0.005119 -0.004003 -0.001828 -0.002892 0.007074
# 2 -0.005119 0.022097 -0.002468 -0.007661 -0.000800 0.002741
# 3 -0.004003 -0.002468 0.010577 -0.006232 0.001296 -0.003210
# 4 -0.001828 -0.007661 -0.006232 0.046455 0.006787 -0.010000
# 5 -0.002892 -0.000800 0.001296 0.006787 0.032200 -0.015191
# 6 0.007074 0.002741 -0.003210 -0.010000 -0.015191 0.039202
#
#
# Mechanical properties :
#
#
# Convention : Reuss Voigt Hill
#
# Bulk Modulus (GPa) = 45.33701 73.12487 59.23094
# Shear Modulus (GPa) = 25.82267 33.97432 29.89850
#
# Velocity S-wave (km/s) = 3.48378 3.99600 3.74865
# Velocity P-wave (km/s) = 6.12297 7.46053 6.82460
#
# Compressibility (1/GPa) = 0.02205704
#
# Stress axis : x y z
#
# Youngs Moduli (GPa) = 79.59312 45.25510 94.54407
#
# Poissons Ratio (x) = 0.23164 0.37851
# Poissons Ratio (y) = 0.40741 0.23337
# Poissons Ratio (z) = 0.31865 0.11170
#
# Static dielectric constant tensor:
#      x y z
#    x 4.004050 0.343610 0.076800 
#    y 0.343610 2.838030 0.437590 
#    z 0.076800 0.437590 4.017390 
# 
# 
# High freq. dielectric constant tensor:
#      x y z
#    x 1.852890 -0.003490 0.001040 
#    y -0.003490 1.816860 0.035570 
#    z 0.001040 0.035570 1.836600 
# 
# From -- ./inp_files/227763.got.cif
#   From: 2010.06.25/outbox.cif.g09.slc.cpg/sg2_114_cif.got.tgz:227763.got - 2010.06.27 13:26:56.
