data_PCOD8005307
_publ_section_title
;
Structure prediction by ZEFSAII (Michael W. Deem and Ramdas Pophale) SiO2 
 PCOD8005307
Probable space group: P -1
;
_chemical_formula_sum "Si O2"
_cell_formula_units_Z 14
_cell_length_a 11.848151
_cell_length_b 15.455058
_cell_length_c 14.928596
_cell_angle_alpha 142.334178
_cell_angle_beta 29.780866
_cell_angle_gamma 152.613483
_cell_volume 621.926954
_symmetry_space_group_name_H-M "P -1"
_symmetry_group_IT_number 2
_symmetry_cell_setting 'triclinic'
loop_
_space_group_symop_operation_xyz
x,y,z
-x,-y,-z
loop_
_atom_site_type_symbol
_atom_site_label
_atom_site_fract_x
_atom_site_fract_y
_atom_site_fract_z
Si Si1 0.239321 0.719151 0.276931
Si Si2 0.498664 0.138239 0.423878
Si Si3 0.797382 0.212093 0.452445
Si Si4 0.811869 0.719267 0.270595
Si Si5 0.297817 0.713616 0.947513
Si Si6 0.426257 0.322495 0.118163
Si Si7 0.381674 0.641710 0.641136
O O1 0.173724 0.666876 0.385132
O O2 0.927716 0.575159 0.318998
O O3 0.368610 0.927940 0.340203
O O4 0.474456 0.698096 0.063367
O O5 0.751694 0.269172 0.434853
O O6 0.220034 0.135267 0.628453
O O7 0.658672 0.241010 0.303042
O O8 0.080004 0.223091 0.266136
O O9 0.500000 0.000000 0.500000
O O10 0.634668 0.541143 0.180054
O O11 0.649922 0.650301 0.424796
O O12 0.167519 0.821732 0.118121
O O13 0.537283 0.788745 0.924168
O O14 0.459628 0.732000 0.759522
O O15 0.000000 0.500000 0.000000
#
# Coordination Sequence:
#
# PCOD8005307 Si02
#       7
#     2   2   2   2   2   2   2
#     4  11  21  41  65  94 125 172 208 257 324 367
#     4   9  23  42  62  94 132 156 224 258 308 383
#     4  10  22  43  63  90 129 169 207 268 311 366
#     4   9  20  39  62  94 127 162 207 258 315 373
#     4  10  20  38  66  95 127 165 209 258 314 385
#     4  11  22  38  67  96 122 168 221 246 318 388
#     4  10  20  40  67  93 127 171 201 264 321 366
#
# _framework density 22.510681999999999
#
# number of rings (size 3 to 8) (size 9 to 14) (size 15 to 20)
#    0.857    1.143    4.286    0.000    0.000    8.000 
#    7.714    2.857    0.000    0.000    0.000    0.000 
#    0.000    0.000    0.000    0.000    0.000    0.000 
#
# Total GULP energy -173478.922478 kJ/mol
# GULP energy per Si atom -12391.351606 kJ/mol
# Density = 2.245945 g / cm^3
# Si number density = 22.510682 Si / 1000 Ang^3
#
#
#
# Elastic Constant Matrix: (Units=GPa)
#
#
# Indices 1 2 3 4 5 6 
#
# 1 113.9040 6.6840 53.6112 -7.8948 -5.6567 5.7098
# 2 6.6840 39.4825 25.7550 2.0422 -1.4411 -0.2634
# 3 53.6112 25.7550 183.2727 3.3689 2.9966 9.0282
# 4 -7.8948 2.0422 3.3689 22.4516 6.6473 -7.4467
# 5 -5.6567 -1.4411 2.9966 6.6473 35.1505 -5.3954
# 6 5.7098 -0.2634 9.0282 -7.4467 -5.3954 21.9201
#
#
#
# Elastic Compliance Matrix: (Units=1/GPa)
#
#
# Indices 1 2 3 4 5 6 
#
# 1 0.010613 0.000157 -0.003229 0.003890 0.001286 0.000205
# 2 0.000157 0.028164 -0.004096 -0.001917 0.002179 0.001870
# 3 -0.003229 -0.004096 0.007212 -0.002571 -0.001335 -0.003381
# 4 0.003890 -0.001917 -0.002571 0.054043 -0.006892 0.016686
# 5 0.001286 0.002179 -0.001335 -0.006892 0.031012 0.005533
# 6 0.000205 0.001870 -0.003381 0.016686 0.005533 0.054012
#
#
# Mechanical properties :
#
#
# Convention : Reuss Voigt Hill
#
# Bulk Modulus (GPa) = 31.59309 56.52884 44.06096
# Shear Modulus (GPa) = 23.81579 32.61170 28.21375
#
# Velocity S-wave (km/s) = 3.25618 3.81034 3.54411
# Velocity P-wave (km/s) = 5.31057 6.67269 6.03021
#
# Compressibility (1/GPa) = 0.03165249
#
# Stress axis : x y z
#
# Youngs Moduli (GPa) = 94.22240 35.50588 138.65297
#
# Poissons Ratio (x) = -0.00557 0.44775
# Poissons Ratio (y) = -0.01478 0.56796
# Poissons Ratio (z) = 0.30427 0.14544
#
# Static dielectric constant tensor:
#      x y z
#    x 4.777600 0.195140 0.018930 
#    y 0.195140 3.634900 0.095650 
#    z 0.018930 0.095650 4.423860 
# 
# 
# High freq. dielectric constant tensor:
#      x y z
#    x 1.885430 0.005070 0.006160 
#    y 0.005070 1.861190 0.003190 
#    z 0.006160 0.003190 1.893640 
# 
# From -- ./inp_files/523021.got.cif
#   From: 2010.06.25/outbox.cif.g09.slc.cpg/sg2_262_cif.got.tgz:523021.got - 2010.06.27 13:26:56.
