data_PCOD8005540
_publ_section_title
;
Structure prediction by ZEFSAII (Michael W. Deem and Ramdas Pophale) SiO2 
 PCOD8005540
Probable space group: P -1
;
_chemical_formula_sum "Si O2"
_cell_formula_units_Z 16
_cell_length_a 7.777717
_cell_length_b 12.984730
_cell_length_c 26.553996
_cell_angle_alpha 19.059937
_cell_angle_beta 52.280688
_cell_angle_gamma 52.575184
_cell_volume 688.201964
_symmetry_space_group_name_H-M "P -1"
_symmetry_group_IT_number 2
_symmetry_cell_setting 'triclinic'
loop_
_space_group_symop_operation_xyz
x,y,z
-x,-y,-z
loop_
_atom_site_type_symbol
_atom_site_label
_atom_site_fract_x
_atom_site_fract_y
_atom_site_fract_z
Si Si1 0.086979 0.368330 0.744205
Si Si2 0.467106 0.638291 0.611778
Si Si3 0.525573 0.912514 0.758338
Si Si4 0.094655 0.710846 0.478340
Si Si5 0.221069 0.256918 0.578529
Si Si6 0.798580 0.290746 0.009391
Si Si7 0.149641 0.716626 0.778830
Si Si8 0.608082 0.631278 0.699165
O O1 0.258383 0.472345 0.706108
O O2 0.129416 0.508508 0.616102
O O3 0.833983 0.465756 0.759222
O O4 0.114146 0.985089 0.917135
O O5 0.675587 0.586034 0.561460
O O6 0.566226 0.498562 0.711806
O O7 0.371473 0.998122 0.472598
O O8 0.332417 0.876327 0.847831
O O9 0.696776 0.125063 0.653961
O O10 0.440563 0.122203 0.629933
O O11 0.644206 0.566574 0.880623
O O12 0.057912 0.494974 0.534019
O O13 0.901704 0.006054 0.384163
O O14 0.105461 0.936730 0.734919
O O15 0.996850 0.438186 0.933175
O O16 0.399203 0.557162 0.804119
#
# Coordination Sequence:
#
# PCOD8005540 Si02
#       8
#     2   2   2   2   2   2   2   2
#     4  12  21  39  68  93 120 167 205 253 312 362
#     4  10  21  39  65  98 120 157 204 267 311 352
#     4  10  20  39  59  88 128 154 197 252 306 379
#     4  11  20  36  65  94 122 149 206 260 306 374
#     4  11  19  36  64  95 119 158 203 252 316 370
#     4  10  23  40  58  88 126 167 199 245 311 374
#     4  10  24  41  58  85 131 165 199 257 305 356
#     4  10  23  42  60  92 128 157 213 261 296 357
#
# _framework density 23.248988000000001
#
# number of rings (size 3 to 8) (size 9 to 14) (size 15 to 20)
#    0.000    1.500    2.500    4.125    0.000    1.000 
#    4.500    0.625    0.000    0.000    0.000    0.000 
#    0.000    0.000    0.000    0.000    0.000    0.000 
#
# Total GULP energy -198244.722255 kJ/mol
# GULP energy per Si atom -12390.295141 kJ/mol
# Density = 2.319607 g / cm^3
# Si number density = 23.248988 Si / 1000 Ang^3
#
#
#
# Elastic Constant Matrix: (Units=GPa)
#
#
# Indices 1 2 3 4 5 6 
#
# 1 113.4688 45.3528 23.7351 -18.2424 -28.3715 -19.3555
# 2 45.3528 100.0578 38.5443 -18.2638 -8.8742 -22.4255
# 3 23.7351 38.5443 64.4332 -20.1991 -18.8434 -18.0563
# 4 -18.2424 -18.2638 -20.1991 31.8075 0.5621 0.1066
# 5 -28.3715 -8.8742 -18.8434 0.5621 39.3568 -2.4720
# 6 -19.3555 -22.4255 -18.0563 0.1066 -2.4720 46.8525
#
#
#
# Elastic Compliance Matrix: (Units=1/GPa)
#
#
# Indices 1 2 3 4 5 6 
#
# 1 0.015639 -0.004869 0.006189 0.009842 0.013451 0.007203
# 2 -0.004869 0.015550 -0.007344 0.001524 -0.003390 0.002419
# 3 0.006189 -0.007344 0.033058 0.019945 0.019149 0.012747
# 4 0.009842 0.001524 0.019945 0.050278 0.017103 0.013270
# 5 0.013451 -0.003390 0.019149 0.017103 0.044119 0.013603
# 6 0.007203 0.002419 0.012747 0.013270 0.013603 0.031077
#
#
# Mechanical properties :
#
#
# Convention : Reuss Voigt Hill
#
# Bulk Modulus (GPa) = 19.15741 54.80267 36.98004
# Shear Modulus (GPa) = 22.81353 34.95852 28.88603
#
# Velocity S-wave (km/s) = 3.13592 3.88191 3.52868
# Velocity P-wave (km/s) = 4.62277 6.61177 5.70463
#
# Compressibility (1/GPa) = 0.05219912
#
# Stress axis : x y z
#
# Youngs Moduli (GPa) = 63.94439 64.30882 30.24972
#
# Poissons Ratio (x) = 0.31312 -0.18723
# Poissons Ratio (y) = 0.31134 0.22216
# Poissons Ratio (z) = -0.39578 0.47230
#
# Static dielectric constant tensor:
#      x y z
#    x 4.698120 -0.099510 -0.071200 
#    y -0.099510 4.108810 -0.312050 
#    z -0.071200 -0.312050 4.013750 
# 
# 
# High freq. dielectric constant tensor:
#      x y z
#    x 1.946770 -0.017960 -0.013120 
#    y -0.017960 1.909490 -0.019520 
#    z -0.013120 -0.019520 1.895280 
# 
# From -- ./inp_files/617014.got.cif
#   From: 2010.06.25/outbox.cif.g09.slc.cpg/sg2_309_cif.got.tgz:617014.got - 2010.06.27 13:26:56.
