data_PCOD8005498
_publ_section_title
;
Structure prediction by ZEFSAII (Michael W. Deem and Ramdas Pophale) SiO2 
 PCOD8005498
Probable space group: P -1
;
_chemical_formula_sum "Si O2"
_cell_formula_units_Z 14
_cell_length_a 11.563840
_cell_length_b 8.600551
_cell_length_c 14.678712
_cell_angle_alpha 73.617351
_cell_angle_beta 111.847350
_cell_angle_gamma 50.135524
_cell_volume 710.047905
_symmetry_space_group_name_H-M "P -1"
_symmetry_group_IT_number 2
_symmetry_cell_setting 'triclinic'
loop_
_space_group_symop_operation_xyz
x,y,z
-x,-y,-z
loop_
_atom_site_type_symbol
_atom_site_label
_atom_site_fract_x
_atom_site_fract_y
_atom_site_fract_z
Si Si1 0.025355 0.265944 0.116398
Si Si2 0.860867 0.490464 0.681413
Si Si3 0.234350 0.765081 0.361263
Si Si4 0.239237 0.329142 0.852193
Si Si5 0.289061 0.296495 0.196281
Si Si6 0.020033 0.131868 0.419005
Si Si7 0.219121 0.208086 0.554383
O O1 0.219882 0.188202 0.172264
O O2 0.861107 0.494540 0.112777
O O3 0.157302 0.954890 0.221124
O O4 0.875725 0.405793 0.958488
O O5 0.861533 0.307977 0.674405
O O6 0.728475 0.640587 0.712949
O O7 0.727147 0.736060 0.525135
O O8 0.111755 0.299354 0.793604
O O9 0.500000 0.500000 0.500000
O O10 0.114484 0.964465 0.381113
O O11 0.198204 0.512454 0.730428
O O12 0.500000 0.000000 0.000000
O O13 0.547927 0.038114 0.278365
O O14 0.198029 0.048943 0.538577
O O15 0.000000 0.000000 0.500000
O O16 0.000000 0.500000 0.500000
#
# Coordination Sequence:
#
# PCOD8005498 Si02
#       7
#     2   2   2   2   2   2   2
#     4   9  21  37  60  86 115 157 192 240 298 343
#     4  10  21  37  59  87 113 155 200 233 297 349
#     4  11  21  39  60  84 120 152 193 244 294 348
#     4   9  20  40  61  83 120 157 196 245 294 354
#     4  10  20  39  58  84 119 148 202 239 284 355
#     4  10  22  40  56  88 118 150 199 242 296 345
#     4  11  22  36  62  87 115 155 200 240 291 351
#
# _framework density 19.716978000000001
#
# number of rings (size 3 to 8) (size 9 to 14) (size 15 to 20)
#    0.000    2.000    0.000    3.857    4.000    0.571 
#    7.714    1.429    0.000    0.000    0.000    0.000 
#    0.000    0.000    0.000    0.000    0.000    0.000 
#
# Total GULP energy -173482.781321 kJ/mol
# GULP energy per Si atom -12391.627237 kJ/mol
# Density = 1.967210 g / cm^3
# Si number density = 19.716978 Si / 1000 Ang^3
#
#
#
# Elastic Constant Matrix: (Units=GPa)
#
#
# Indices 1 2 3 4 5 6 
#
# 1 122.5073 46.5083 89.6634 -15.5504 -9.1411 22.1042
# 2 46.5083 80.3598 49.6138 0.2154 7.6012 14.9826
# 3 89.6634 49.6138 151.4931 -15.3965 2.0586 4.3061
# 4 -15.5504 0.2154 -15.3965 30.9824 -3.9024 -1.5121
# 5 -9.1411 7.6012 2.0586 -3.9024 41.2259 -0.2328
# 6 22.1042 14.9826 4.3061 -1.5121 -0.2328 34.7522
#
#
#
# Elastic Compliance Matrix: (Units=1/GPa)
#
#
# Indices 1 2 3 4 5 6 
#
# 1 0.019439 -0.004387 -0.009338 0.005468 0.006052 -0.009037
# 2 -0.004387 0.018778 -0.003862 -0.005099 -0.004754 -0.005080
# 3 -0.009338 -0.003862 0.013459 0.002096 -0.001798 0.006016
# 4 0.005468 -0.005099 0.002096 0.036799 0.005532 0.000099
# 5 0.006052 -0.004754 -0.001798 0.005532 0.027082 -0.001155
# 6 -0.009037 -0.005080 0.006016 0.000099 -0.001155 0.035965
#
#
# Mechanical properties :
#
#
# Convention : Reuss Voigt Hill
#
# Bulk Modulus (GPa) = 60.60221 80.65905 70.63063
# Shear Modulus (GPa) = 26.01468 32.63041 29.32255
#
# Velocity S-wave (km/s) = 3.63630 4.07251 3.86057
# Velocity P-wave (km/s) = 6.95938 7.94424 7.46807
#
# Compressibility (1/GPa) = 0.01650105
#
# Stress axis : x y z
#
# Youngs Moduli (GPa) = 51.44200 53.25291 74.29815
#
# Poissons Ratio (x) = 0.23364 0.69382
# Poissons Ratio (y) = 0.22569 0.28697
# Poissons Ratio (z) = 0.48038 0.20568
#
# Static dielectric constant tensor:
#      x y z
#    x 3.783060 0.129040 -0.268800 
#    y 0.129040 3.509870 0.079680 
#    z -0.268800 0.079680 3.983000 
# 
# 
# High freq. dielectric constant tensor:
#      x y z
#    x 1.767570 0.004050 -0.004980 
#    y 0.004050 1.760820 0.010980 
#    z -0.004980 0.010980 1.780700 
# 
# From -- ./inp_files/155356.got.cif
#   From: 2010.06.25/outbox.cif.g09.slc.cpg/sg2_78_cif.got.tgz:155356.got - 2010.06.27 13:26:56.
