data_PCOD8005617
_publ_section_title
;
Structure prediction by ZEFSAII (Michael W. Deem and Ramdas Pophale) SiO2 
 PCOD8005617
Probable space group: P -1
;
_chemical_formula_sum "Si O2"
_cell_formula_units_Z 14
_cell_length_a 8.978727
_cell_length_b 8.392802
_cell_length_c 14.487289
_cell_angle_alpha 52.752854
_cell_angle_beta 119.973555
_cell_angle_gamma 131.405361
_cell_volume 642.745038
_symmetry_space_group_name_H-M "P -1"
_symmetry_group_IT_number 2
_symmetry_cell_setting 'triclinic'
loop_
_space_group_symop_operation_xyz
x,y,z
-x,-y,-z
loop_
_atom_site_type_symbol
_atom_site_label
_atom_site_fract_x
_atom_site_fract_y
_atom_site_fract_z
Si Si1 0.734923 0.283851 0.746474
Si Si2 0.239524 0.115520 0.035078
Si Si3 0.038153 0.187717 0.594656
Si Si4 0.729533 0.705111 0.687005
Si Si5 0.888392 0.466569 0.348712
Si Si6 0.624553 0.774361 0.441518
Si Si7 0.529331 0.441127 0.167549
O O1 0.788585 0.524630 0.728460
O O2 0.522266 0.146675 0.674208
O O3 0.908971 0.341320 0.706842
O O4 0.723845 0.100467 0.882825
O O5 0.343317 0.268836 0.105521
O O6 0.351221 0.288061 0.923440
O O7 0.000000 0.000000 0.000000
O O8 0.151886 0.404767 0.623953
O O9 0.183161 0.141503 0.592844
O O10 0.903727 0.247387 0.464021
O O11 0.917230 0.945752 0.701740
O O12 0.675263 0.833152 0.544268
O O13 0.556456 0.563069 0.756743
O O14 0.696008 0.365262 0.256013
O O15 0.500000 0.500000 0.500000
#
# Coordination Sequence:
#
# PCOD8005617 Si02
#       7
#     2   2   2   2   2   2   2
#     4  11  23  41  69  95 136 175 219 276 331 389
#     4  11  25  50  73  92 127 173 231 287 328 386
#     4  11  23  38  64 100 147 179 212 264 325 408
#     4  11  24  40  62 103 137 173 217 268 336 405
#     4  11  22  39  67 100 134 180 222 261 330 394
#     4  10  20  39  60  95 142 175 210 263 331 391
#     4  11  26  45  71  97 131 174 226 279 331 389
#
# _framework density 21.781573999999999
#
# number of rings (size 3 to 8) (size 9 to 14) (size 15 to 20)
#    0.000    1.143    4.286    3.000    4.000    1.143 
#    0.000    0.714    0.000    0.000    0.000    0.000 
#    0.000    0.000    0.000    0.000    0.000    0.000 
#
# Total GULP energy -173489.242479 kJ/mol
# GULP energy per Si atom -12392.088748 kJ/mol
# Density = 2.173200 g / cm^3
# Si number density = 21.781574 Si / 1000 Ang^3
#
#
#
# Elastic Constant Matrix: (Units=GPa)
#
#
# Indices 1 2 3 4 5 6 
#
# 1 116.5646 39.0597 71.5610 7.0500 -14.1094 18.4461
# 2 39.0597 97.7725 54.8845 -15.8039 4.1011 14.7030
# 3 71.5610 54.8845 122.8139 -11.1579 9.0114 21.5461
# 4 7.0500 -15.8039 -11.1579 35.9816 8.3384 -2.6067
# 5 -14.1094 4.1011 9.0114 8.3384 40.0811 1.3242
# 6 18.4461 14.7030 21.5461 -2.6067 1.3242 24.1221
#
#
#
# Elastic Compliance Matrix: (Units=1/GPa)
#
#
# Indices 1 2 3 4 5 6 
#
# 1 0.019362 -0.003281 -0.010906 -0.011813 0.012227 -0.005012
# 2 -0.003281 0.015155 -0.003544 0.006756 -0.003227 -0.002655
# 3 -0.010906 -0.003544 0.018258 0.008030 -0.009105 -0.004440
# 4 -0.011813 0.006756 0.008030 0.039222 -0.014907 0.002800
# 5 0.012227 -0.003227 -0.009105 -0.014907 0.034824 -0.002773
# 6 -0.005012 -0.002655 -0.004440 0.002800 -0.002773 0.051327
#
#
# Mechanical properties :
#
#
# Convention : Reuss Voigt Hill
#
# Bulk Modulus (GPa) = 57.76882 74.24017 66.00450
# Shear Modulus (GPa) = 22.79138 31.48001 27.13569
#
# Velocity S-wave (km/s) = 3.23826 3.80578 3.53343
# Velocity P-wave (km/s) = 6.36877 7.31231 6.85679
#
# Compressibility (1/GPa) = 0.01731038
#
# Stress axis : x y z
#
# Youngs Moduli (GPa) = 51.64838 65.98526 54.77083
#
# Poissons Ratio (x) = 0.21652 0.59735
# Poissons Ratio (y) = 0.16948 0.19413
# Poissons Ratio (z) = 0.56330 0.23387
#
# Static dielectric constant tensor:
#      x y z
#    x 3.400800 -0.121730 -0.207680 
#    y -0.121730 3.227520 -0.499870 
#    z -0.207680 -0.499870 3.843920 
# 
# 
# High freq. dielectric constant tensor:
#      x y z
#    x 1.845360 0.016880 0.000130 
#    y 0.016880 1.867380 -0.009700 
#    z 0.000130 -0.009700 1.854860 
# 
# From -- ./inp_files/177214.got.cif
#   From: 2010.06.25/outbox.cif.g09.slc.cpg/sg2_89_cif.got.tgz:177214.got - 2010.06.27 13:26:56.
