data_PCOD8005427
_publ_section_title
;
Structure prediction by ZEFSAII (Michael W. Deem and Ramdas Pophale) SiO2 
 PCOD8005427
Probable space group: P -1
;
_chemical_formula_sum "Si O2"
_cell_formula_units_Z 16
_cell_length_a 10.303662
_cell_length_b 16.684977
_cell_length_c 7.785217
_cell_angle_alpha 79.375308
_cell_angle_beta 112.845897
_cell_angle_gamma 142.309938
_cell_volume 735.947921
_symmetry_space_group_name_H-M "P -1"
_symmetry_group_IT_number 2
_symmetry_cell_setting 'triclinic'
loop_
_space_group_symop_operation_xyz
x,y,z
-x,-y,-z
loop_
_atom_site_type_symbol
_atom_site_label
_atom_site_fract_x
_atom_site_fract_y
_atom_site_fract_z
Si Si1 0.995144 0.356598 0.386908
Si Si2 0.590541 0.953768 0.011533
Si Si3 0.555807 0.223159 0.681562
Si Si4 0.944136 0.503087 0.160058
Si Si5 0.496902 0.382853 0.558367
Si Si6 0.651836 0.517538 0.944339
Si Si7 0.955762 0.758168 0.801263
Si Si8 0.563746 0.118429 0.425732
O O1 0.275098 0.493998 0.493104
O O2 0.926172 0.259508 0.243090
O O3 0.887691 0.396707 0.281407
O O4 0.847998 0.258006 0.514688
O O5 0.493169 0.840048 0.134015
O O6 0.533755 0.905144 0.804683
O O7 0.869477 0.088207 0.125574
O O8 0.500000 0.000000 0.000000
O O9 0.463412 0.272462 0.623628
O O10 0.443163 0.122198 0.503604
O O11 0.825983 0.345198 0.721404
O O12 0.725874 0.463787 0.080132
O O13 0.000000 0.500000 0.000000
O O14 0.523018 0.444088 0.725325
O O15 0.267928 0.307771 0.379835
O O16 0.879147 0.677635 0.968080
O O17 0.500000 0.500000 0.000000
O O18 0.500000 0.000000 0.500000
#
# Coordination Sequence:
#
# PCOD8005427 Si02
#       8
#     2   2   2   2   2   2   2   2
#     4  10  20  38  69  96 131 171 224 281 337 409
#     4  12  23  44  69  94 134 181 224 288 339 395
#     4  11  24  43  68 100 138 175 236 282 336 409
#     4  11  19  38  71 100 133 179 222 285 351 399
#     4  10  24  43  66  95 136 185 216 279 360 401
#     4  11  23  39  66 104 135 173 226 280 344 416
#     4  11  22  43  64  91 139 181 221 278 348 403
#     4  12  25  40  68 105 128 176 231 282 338 403
#
# _framework density 21.740669
#
# number of rings (size 3 to 8) (size 9 to 14) (size 15 to 20)
#    0.000    1.000    6.250    3.000    0.000    5.500 
#    2.250    0.625    0.000    0.000    0.000    0.000 
#    0.000    0.000    0.000    0.000    0.000    0.000 
#
# Total GULP energy -198274.321514 kJ/mol
# GULP energy per Si atom -12392.145095 kJ/mol
# Density = 2.169119 g / cm^3
# Si number density = 21.740669 Si / 1000 Ang^3
#
#
#
# Elastic Constant Matrix: (Units=GPa)
#
#
# Indices 1 2 3 4 5 6 
#
# 1 132.9668 40.5049 47.6089 -9.2226 0.8304 -8.8032
# 2 40.5049 135.5375 45.9437 -19.5964 3.5088 -10.6246
# 3 47.6089 45.9437 101.1761 -1.8272 -2.5404 -3.3305
# 4 -9.2226 -19.5964 -1.8272 38.7632 -0.3745 1.7147
# 5 0.8304 3.5088 -2.5404 -0.3745 41.5485 0.1277
# 6 -8.8032 -10.6246 -3.3305 1.7147 0.1277 28.0681
#
#
#
# Elastic Compliance Matrix: (Units=1/GPa)
#
#
# Indices 1 2 3 4 5 6 
#
# 1 0.009485 -0.001162 -0.003853 0.001396 -0.000321 0.001994
# 2 -0.001162 0.009887 -0.003801 0.004415 -0.001013 0.002662
# 3 -0.003853 -0.003801 0.013383 -0.002154 0.001200 -0.000933
# 4 0.001396 0.004415 -0.002154 0.028252 -0.000278 0.000129
# 5 -0.000321 -0.001013 0.001200 -0.000278 0.024232 -0.000435
# 6 0.001994 0.002662 -0.000933 0.000129 -0.000435 0.037144
#
#
# Mechanical properties :
#
#
# Convention : Reuss Voigt Hill
#
# Bulk Modulus (GPa) = 66.12124 70.86618 68.49371
# Shear Modulus (GPa) = 34.46945 37.38413 35.92679
#
# Velocity S-wave (km/s) = 3.98613 4.15124 4.06952
# Velocity P-wave (km/s) = 7.18786 7.45949 7.32493
#
# Compressibility (1/GPa) = 0.01512373
#
# Stress axis : x y z
#
# Youngs Moduli (GPa) = 105.42946 101.14363 74.72098
#
# Poissons Ratio (x) = 0.11754 0.28788
# Poissons Ratio (y) = 0.12252 0.28400
# Poissons Ratio (z) = 0.40619 0.38443
#
# Static dielectric constant tensor:
#      x y z
#    x 3.709690 -0.018400 -0.030390 
#    y -0.018400 4.304850 -0.015220 
#    z -0.030390 -0.015220 3.855390 
# 
# 
# High freq. dielectric constant tensor:
#      x y z
#    x 1.845390 -0.014670 -0.005420 
#    y -0.014670 1.866630 -0.003000 
#    z -0.005420 -0.003000 1.845940 
# 
# From -- ./inp_files/207100.got.cif
#   From: 2010.06.25/outbox.cif.g09.slc.cpg/sg2_104_cif.got.tgz:207100.got - 2010.06.27 13:26:56.
