data_PCOD8005303
_publ_section_title
;
Structure prediction by ZEFSAII (Michael W. Deem and Ramdas Pophale) SiO2 
 PCOD8005303
Probable space group: P -1
;
_chemical_formula_sum "Si O2"
_cell_formula_units_Z 14
_cell_length_a 9.350660
_cell_length_b 19.795180
_cell_length_c 15.370980
_cell_angle_alpha 18.170691
_cell_angle_beta 49.498368
_cell_angle_gamma 52.260155
_cell_volume 674.505881
_symmetry_space_group_name_H-M "P -1"
_symmetry_group_IT_number 2
_symmetry_cell_setting 'triclinic'
loop_
_space_group_symop_operation_xyz
x,y,z
-x,-y,-z
loop_
_atom_site_type_symbol
_atom_site_label
_atom_site_fract_x
_atom_site_fract_y
_atom_site_fract_z
Si Si1 0.218156 0.162386 0.530730
Si Si2 0.118188 0.529189 0.004130
Si Si3 0.882325 0.844553 0.799813
Si Si4 0.256801 0.064512 0.896139
Si Si5 0.922996 0.822505 0.009289
Si Si6 0.556973 0.110644 0.579795
Si Si7 0.019405 0.678560 0.416770
O O1 0.212263 0.304904 0.270732
O O2 0.429065 0.117355 0.535464
O O3 0.121700 0.308732 0.462333
O O4 0.113058 0.932529 0.838897
O O5 0.288534 0.698258 0.716836
O O6 0.000000 0.500000 0.000000
O O7 0.962669 0.605592 0.043701
O O8 0.662372 0.879050 0.820967
O O9 0.903154 0.908749 0.813863
O O10 0.000000 0.000000 0.500000
O O11 0.259104 0.098738 0.958472
O O12 0.444024 0.138281 0.681172
O O13 0.080492 0.214232 0.757467
O O14 0.211921 0.814199 0.194967
O O15 0.931137 0.565333 0.325268
#
# Coordination Sequence:
#
# PCOD8005303 Si02
#       7
#     2   2   2   2   2   2   2
#     4  10  20  38  66  95 121 163 208 258 307 360
#     4  11  22  43  64  85 125 170 210 255 318 368
#     4  10  22  41  61  87 124 167 205 254 309 371
#     4   9  20  36  62  94 129 160 202 255 313 358
#     4  11  20  38  69  90 127 167 206 244 317 379
#     4  10  22  41  60  93 130 155 210 265 298 368
#     4   9  18  37  61  94 128 163 202 252 305 380
#
# _framework density 20.755935000000001
#
# number of rings (size 3 to 8) (size 9 to 14) (size 15 to 20)
#    0.000    2.000    1.429    3.429    0.000    0.571 
#    7.714    4.286    0.000    0.000    0.000    0.000 
#    0.000    0.000    0.000    0.000    0.000    0.000 
#
# Total GULP energy -173499.813205 kJ/mol
# GULP energy per Si atom -12392.843800 kJ/mol
# Density = 2.070869 g / cm^3
# Si number density = 20.755935 Si / 1000 Ang^3
#
#
#
# Elastic Constant Matrix: (Units=GPa)
#
#
# Indices 1 2 3 4 5 6 
#
# 1 134.7364 60.9616 48.4225 1.0547 4.5686 -0.1725
# 2 60.9616 119.9050 47.5216 2.3845 2.2824 5.7689
# 3 48.4225 47.5216 120.7054 -7.9583 -4.9476 -4.2630
# 4 1.0547 2.3845 -7.9583 30.6976 4.2499 3.5697
# 5 4.5686 2.2824 -4.9476 4.2499 25.7805 3.6567
# 6 -0.1725 5.7689 -4.2630 3.5697 3.6567 35.7452
#
#
#
# Elastic Compliance Matrix: (Units=1/GPa)
#
#
# Indices 1 2 3 4 5 6 
#
# 1 0.010325 -0.004215 -0.002572 -0.000501 -0.001963 0.000674
# 2 -0.004215 0.011872 -0.003160 -0.001293 -0.000393 -0.002144
# 3 -0.002572 -0.003160 0.010874 0.002698 0.002193 0.001301
# 4 -0.000501 -0.001293 0.002698 0.034311 -0.004591 -0.002429
# 5 -0.001963 -0.000393 0.002193 -0.004591 0.040832 -0.003403
# 6 0.000674 -0.002144 0.001301 -0.002429 -0.003403 0.029071
#
#
# Mechanical properties :
#
#
# Convention : Reuss Voigt Hill
#
# Bulk Modulus (GPa) = 75.89332 76.57311 76.23322
# Shear Modulus (GPa) = 30.94617 33.00740 31.97679
#
# Velocity S-wave (km/s) = 3.86548 3.99214 3.92932
# Velocity P-wave (km/s) = 7.52108 7.63032 7.57589
#
# Compressibility (1/GPa) = 0.01317639
#
# Stress axis : x y z
#
# Youngs Moduli (GPa) = 96.85526 84.23451 91.95991
#
# Poissons Ratio (x) = 0.35504 0.23653
# Poissons Ratio (y) = 0.40824 0.29060
# Poissons Ratio (z) = 0.24912 0.26618
#
# Static dielectric constant tensor:
#      x y z
#    x 3.854630 -0.018280 0.295660 
#    y -0.018280 4.014810 -0.062010 
#    z 0.295660 -0.062010 3.791140 
# 
# 
# High freq. dielectric constant tensor:
#      x y z
#    x 1.802600 0.012530 0.014870 
#    y 0.012530 1.812500 0.007850 
#    z 0.014870 0.007850 1.810870 
# 
# From -- ./inp_files/272876.got.cif
#   From: 2010.06.25/outbox.cif.g09.slc.cpg/sg2_137_cif.got.tgz:272876.got - 2010.06.27 13:26:56.
