data_PCOD8005693
_publ_section_title
;
Structure prediction by ZEFSAII (Michael W. Deem and Ramdas Pophale) SiO2 
 PCOD8005693
Probable space group: P -1
;
_chemical_formula_sum "Si O2"
_cell_formula_units_Z 14
_cell_length_a 17.552763
_cell_length_b 8.655176
_cell_length_c 7.693925
_cell_angle_alpha 86.192703
_cell_angle_beta 44.849348
_cell_angle_gamma 60.943864
_cell_volume 643.218961
_symmetry_space_group_name_H-M "P -1"
_symmetry_group_IT_number 2
_symmetry_cell_setting 'triclinic'
loop_
_space_group_symop_operation_xyz
x,y,z
-x,-y,-z
loop_
_atom_site_type_symbol
_atom_site_label
_atom_site_fract_x
_atom_site_fract_y
_atom_site_fract_z
Si Si1 0.495462 0.707736 0.141904
Si Si2 0.617280 0.948342 0.445330
Si Si3 0.845823 0.974632 0.963906
Si Si4 0.252905 0.727880 0.627660
Si Si5 0.276229 0.399826 0.458292
Si Si6 0.917338 0.438188 0.544049
Si Si7 0.725693 0.375943 0.029429
O O1 0.359073 0.725900 0.331265
O O2 0.597413 0.508783 0.101562
O O3 0.457955 0.897855 0.287852
O O4 0.568316 0.692490 0.846105
O O5 0.709003 0.726993 0.392988
O O6 0.500000 0.000000 0.500000
O O7 0.721003 0.964515 0.171707
O O8 0.984137 0.767871 0.700566
O O9 0.860398 0.049189 0.125609
O O10 0.805316 0.142748 0.874957
O O11 0.194662 0.632524 0.623090
O O12 0.328609 0.584096 0.686259
O O13 0.188623 0.399974 0.442828
O O14 0.000000 0.500000 0.500000
O O15 0.831806 0.424148 0.830246
#
# Coordination Sequence:
#
# PCOD8005693 Si02
#       7
#     2   2   2   2   2   2   2
#     4  10  20  39  61  96 131 162 205 258 319 379
#     4  11  24  39  65  97 132 166 207 258 323 381
#     4   9  23  40  65  91 123 169 214 253 315 367
#     4   9  20  38  63  93 124 163 208 259 311 378
#     4  11  24  39  64  94 131 167 208 261 316 370
#     4  11  25  44  64  92 127 169 214 263 311 373
#     4   9  20  40  66  89 124 168 214 252 316 368
#
# _framework density 21.765526999999999
#
# number of rings (size 3 to 8) (size 9 to 14) (size 15 to 20)
#    0.857    1.143    0.000    2.571    8.000    1.143 
#    0.000    4.286    0.000    0.000    0.000    0.000 
#    0.000    0.000    0.000    0.000    0.000    0.000 
#
# Total GULP energy -173457.883739 kJ/mol
# GULP energy per Si atom -12389.848839 kJ/mol
# Density = 2.171599 g / cm^3
# Si number density = 21.765527 Si / 1000 Ang^3
#
#
#
# Elastic Constant Matrix: (Units=GPa)
#
#
# Indices 1 2 3 4 5 6 
#
# 1 93.7823 39.6900 5.4287 -6.9811 -8.5136 16.6456
# 2 39.6900 97.7948 16.3689 -4.4052 -10.5669 14.8707
# 3 5.4287 16.3689 47.9275 1.7478 1.8658 8.2349
# 4 -6.9811 -4.4052 1.7478 36.8149 5.4894 2.9175
# 5 -8.5136 -10.5669 1.8658 5.4894 14.9023 -0.1195
# 6 16.6456 14.8707 8.2349 2.9175 -0.1195 29.4688
#
#
#
# Elastic Compliance Matrix: (Units=1/GPa)
#
#
# Indices 1 2 3 4 5 6 
#
# 1 0.014077 -0.004373 0.000721 0.001991 0.004069 -0.006127
# 2 -0.004373 0.014063 -0.004022 0.000143 0.007896 -0.003485
# 3 0.000721 -0.004022 0.023207 -0.000274 -0.005284 -0.004857
# 4 0.001991 0.000143 -0.000274 0.029318 -0.009559 -0.004062
# 5 0.004069 0.007896 -0.005284 -0.009559 0.079181 -0.003539
# 6 -0.006127 -0.003485 -0.004857 -0.004062 -0.003539 0.040899
#
#
# Mechanical properties :
#
#
# Convention : Reuss Voigt Hill
#
# Bulk Modulus (GPa) = 27.77823 40.27556 34.02690
# Shear Modulus (GPa) = 21.92104 28.10500 25.01302
#
# Velocity S-wave (km/s) = 3.17700 3.59731 3.39367
# Velocity P-wave (km/s) = 5.12327 5.98320 5.56986
#
# Compressibility (1/GPa) = 0.03599941
#
# Stress axis : x y z
#
# Youngs Moduli (GPa) = 71.03836 71.10920 43.09063
#
# Poissons Ratio (x) = 0.31095 -0.03105
# Poissons Ratio (y) = 0.31064 0.17329
# Poissons Ratio (z) = -0.05120 0.28597
#
# Static dielectric constant tensor:
#      x y z
#    x 3.612470 0.251950 0.107190 
#    y 0.251950 3.925830 -0.040620 
#    z 0.107190 -0.040620 3.999150 
# 
# 
# High freq. dielectric constant tensor:
#      x y z
#    x 1.833750 0.018970 0.005470 
#    y 0.018970 1.854790 -0.007310 
#    z 0.005470 -0.007310 1.856040 
# 
# From -- ./inp_files/326154.got.cif
#   From: 2010.06.25/outbox.cif.g09.slc.cpg/sg2_164_cif.got.tgz:326154.got - 2010.06.27 13:26:56.
