data_PCOD8005293
_publ_section_title
;
Structure prediction by ZEFSAII (Michael W. Deem and Ramdas Pophale) SiO2 
 PCOD8005293
Probable space group: P -1
;
_chemical_formula_sum "Si O2"
_cell_formula_units_Z 14
_cell_length_a 9.577839
_cell_length_b 11.560588
_cell_length_c 8.954474
_cell_angle_alpha 68.371226
_cell_angle_beta 70.553456
_cell_angle_gamma 46.520750
_cell_volume 664.153969
_symmetry_space_group_name_H-M "P -1"
_symmetry_group_IT_number 2
_symmetry_cell_setting 'triclinic'
loop_
_space_group_symop_operation_xyz
x,y,z
-x,-y,-z
loop_
_atom_site_type_symbol
_atom_site_label
_atom_site_fract_x
_atom_site_fract_y
_atom_site_fract_z
Si Si1 0.046968 0.232104 0.237774
Si Si2 0.620965 0.311966 0.856476
Si Si3 0.274732 0.610296 0.493726
Si Si4 0.840035 0.583623 0.727678
Si Si5 0.250313 0.599143 0.977797
Si Si6 0.436858 0.915300 0.157672
Si Si7 0.753678 0.663189 0.402159
O O1 0.114886 0.333097 0.209671
O O2 0.882166 0.259681 0.388996
O O3 0.960031 0.288612 0.075095
O O4 0.232885 0.042733 0.253328
O O5 0.762039 0.286288 0.688727
O O6 0.415733 0.498447 0.838461
O O7 0.578771 0.189277 0.904314
O O8 0.723990 0.287553 0.989853
O O9 0.500000 0.500000 0.500000
O O10 0.230627 0.492480 0.537071
O O11 0.727008 0.707765 0.567215
O O12 0.035913 0.404284 0.693898
O O13 0.712151 0.544413 0.865968
O O14 0.587731 0.809253 0.288026
O O15 0.500000 0.000000 0.000000
#
# Coordination Sequence:
#
# PCOD8005293 Si02
#       7
#     2   2   2   2   2   2   2
#     4  11  24  37  63  94 131 170 204 243 329 381
#     4  11  23  39  67  92 124 162 213 264 314 354
#     4  11  19  42  66  92 121 160 217 273 299 360
#     4  10  20  38  66  94 116 160 219 265 296 362
#     4  11  21  39  67  96 116 164 219 267 300 362
#     4  12  25  43  60  92 137 171 195 255 321 392
#     4  10  21  38  66  91 121 162 210 262 312 351
#
# _framework density 21.079449
#
# number of rings (size 3 to 8) (size 9 to 14) (size 15 to 20)
#    0.000    1.143    4.286    3.000    0.000    1.714 
#    0.000    0.000    0.000    0.000    0.000    0.000 
#    0.000    0.000    0.000    0.000    0.000    0.000 
#
# Total GULP energy -173543.200209 kJ/mol
# GULP energy per Si atom -12395.942872 kJ/mol
# Density = 2.103147 g / cm^3
# Si number density = 21.079449 Si / 1000 Ang^3
#
#
#
# Elastic Constant Matrix: (Units=GPa)
#
#
# Indices 1 2 3 4 5 6 
#
# 1 122.6197 52.5376 55.3168 -3.0624 21.4758 0.3541
# 2 52.5376 96.9216 52.2117 4.3305 14.5713 -8.7432
# 3 55.3168 52.2117 113.6625 -2.6254 5.0759 -0.6143
# 4 -3.0624 4.3305 -2.6254 31.9025 -6.8937 -3.1811
# 5 21.4758 14.5713 5.0759 -6.8937 41.9876 -2.6350
# 6 0.3541 -8.7432 -0.6143 -3.1811 -2.6350 27.0492
#
#
#
# Elastic Compliance Matrix: (Units=1/GPa)
#
#
# Indices 1 2 3 4 5 6 
#
# 1 0.012555 -0.004153 -0.004003 0.000249 -0.004582 -0.002015
# 2 -0.004153 0.016582 -0.005504 -0.003343 -0.003226 0.004582
# 3 -0.004003 -0.005504 0.013197 0.001920 0.002618 -0.000946
# 4 0.000249 -0.003343 0.001920 0.033756 0.006567 0.003569
# 5 -0.004582 -0.003226 0.002618 0.006567 0.028204 0.002597
# 6 -0.002015 0.004582 -0.000946 0.003569 0.002597 0.039128
#
#
# Mechanical properties :
#
#
# Convention : Reuss Voigt Hill
#
# Bulk Modulus (GPa) = 66.60853 72.59288 69.60071
# Shear Modulus (GPa) = 28.44996 31.73038 30.09017
#
# Velocity S-wave (km/s) = 3.67775 3.88400 3.78228
# Velocity P-wave (km/s) = 7.04995 7.39097 7.22247
#
# Compressibility (1/GPa) = 0.01501309
#
# Stress axis : x y z
#
# Youngs Moduli (GPa) = 79.64821 60.30769 75.77618
#
# Poissons Ratio (x) = 0.25047 0.30333
# Poissons Ratio (y) = 0.33080 0.41707
# Poissons Ratio (z) = 0.31883 0.33193
#
# Static dielectric constant tensor:
#      x y z
#    x 3.843300 -0.033960 0.078940 
#    y -0.033960 3.538010 0.254950 
#    z 0.078940 0.254950 3.998810 
# 
# 
# High freq. dielectric constant tensor:
#      x y z
#    x 1.844590 -0.004280 0.000620 
#    y -0.004280 1.787650 0.019010 
#    z 0.000620 0.019010 1.835300 
# 
# From -- ./inp_files/175993.got.cif
#   From: 2010.06.25/outbox.cif.g09.slc.cpg/sg2_88_cif.got.tgz:175993.got - 2010.06.27 13:26:56.
