data_PCOD8005421
_publ_section_title
;
Structure prediction by ZEFSAII (Michael W. Deem and Ramdas Pophale) SiO2 
 PCOD8005421
Probable space group: P -1
;
_chemical_formula_sum "Si O2"
_cell_formula_units_Z 14
_cell_length_a 17.873253
_cell_length_b 8.672880
_cell_length_c 5.191697
_cell_angle_alpha 65.256371
_cell_angle_beta 107.098681
_cell_angle_gamma 115.845638
_cell_volume 651.627006
_symmetry_space_group_name_H-M "P -1"
_symmetry_group_IT_number 2
_symmetry_cell_setting 'triclinic'
loop_
_space_group_symop_operation_xyz
x,y,z
-x,-y,-z
loop_
_atom_site_type_symbol
_atom_site_label
_atom_site_fract_x
_atom_site_fract_y
_atom_site_fract_z
Si Si1 0.701746 0.669678 0.566251
Si Si2 0.175204 0.436359 0.512413
Si Si3 0.346103 0.516610 0.846996
Si Si4 0.553156 0.081913 0.246556
Si Si5 0.732433 0.067928 0.378395
Si Si6 0.831834 0.208106 0.893541
Si Si7 0.056407 0.035029 0.782870
O O1 0.783157 0.609808 0.672121
O O2 0.635749 0.569632 0.340444
O O3 0.737171 0.882411 0.402879
O O4 0.657042 0.621310 0.829130
O O5 0.254752 0.540570 0.712450
O O6 0.127676 0.576199 0.297808
O O7 0.116354 0.246739 0.710766
O O8 0.421038 0.701600 0.860962
O O9 0.500000 0.000000 0.500000
O O10 0.636228 0.036883 0.343770
O O11 0.500000 0.000000 0.000000
O O12 0.775266 0.104648 0.672626
O O13 0.778328 0.207852 0.098425
O O14 0.899190 0.114115 0.077942
O O15 0.000000 0.000000 0.500000
O O16 0.000000 0.000000 0.000000
#
# Coordination Sequence:
#
# PCOD8005421 Si02
#       7
#     2   2   2   2   2   2   2
#     4  10  20  38  69  93 127 166 241 280 310 386
#     4  10  24  42  73  94 135 179 233 274 329 407
#     4  10  21  41  64  95 126 178 229 264 334 404
#     4  12  25  42  63 100 144 172 217 294 349 386
#     4  12  22  43  69 105 125 183 239 270 329 418
#     4  12  24  43  75  97 131 188 238 265 333 418
#     4  12  28  45  66 105 146 170 218 296 352 386
#
# _framework density 21.484684000000001
#
# number of rings (size 3 to 8) (size 9 to 14) (size 15 to 20)
#    0.857    0.000    2.857    5.143    2.000    1.143 
#    0.000    4.286    0.000    0.000    0.000    0.000 
#    0.000    0.000    0.000    0.000    0.000    0.000 
#
# Total GULP energy -173491.890087 kJ/mol
# GULP energy per Si atom -12392.277863 kJ/mol
# Density = 2.143578 g / cm^3
# Si number density = 21.484684 Si / 1000 Ang^3
#
#
#
# Elastic Constant Matrix: (Units=GPa)
#
#
# Indices 1 2 3 4 5 6 
#
# 1 99.5776 27.3626 39.9151 0.1719 -11.6466 -6.6672
# 2 27.3626 72.8137 36.9491 -9.9588 4.8216 8.7064
# 3 39.9151 36.9491 126.0463 11.8749 -21.2043 -3.3395
# 4 0.1719 -9.9588 11.8749 57.2580 -2.1708 2.3826
# 5 -11.6466 4.8216 -21.2043 -2.1708 39.6954 -6.6260
# 6 -6.6672 8.7064 -3.3395 2.3826 -6.6260 32.7802
#
#
#
# Elastic Compliance Matrix: (Units=1/GPa)
#
#
# Indices 1 2 3 4 5 6 
#
# 1 0.012882 -0.004829 -0.001794 -0.000541 0.004146 0.004597
# 2 -0.004829 0.021657 -0.007121 0.005314 -0.009180 -0.009701
# 3 -0.001794 -0.007121 0.012316 -0.003694 0.007477 0.004561
# 4 -0.000541 0.005314 -0.003694 0.019224 -0.002355 -0.003771
# 5 0.004146 -0.009180 0.007477 -0.002355 0.033212 0.010928
# 6 0.004597 -0.009701 0.004561 -0.003771 0.010928 0.036965
#
#
# Mechanical properties :
#
#
# Convention : Reuss Voigt Hill
#
# Bulk Modulus (GPa) = 51.63470 56.32125 53.97798
# Shear Modulus (GPa) = 29.37731 38.89412 34.13572
#
# Velocity S-wave (km/s) = 3.70180 4.25940 3.99035
# Velocity P-wave (km/s) = 6.50819 7.10363 6.81241
#
# Compressibility (1/GPa) = 0.01936682
#
# Stress axis : x y z
#
# Youngs Moduli (GPa) = 77.62816 46.17526 81.19727
#
# Poissons Ratio (x) = 0.22298 0.14564
# Poissons Ratio (y) = 0.37486 0.57822
# Poissons Ratio (z) = 0.13924 0.32882
#
# Static dielectric constant tensor:
#      x y z
#    x 3.594510 -0.127390 -0.166910 
#    y -0.127390 3.995350 -0.130710 
#    z -0.166910 -0.130710 3.766640 
# 
# 
# High freq. dielectric constant tensor:
#      x y z
#    x 1.820550 -0.012450 -0.012760 
#    y -0.012450 1.856720 -0.002210 
#    z -0.012760 -0.002210 1.856850 
# 
# From -- ./inp_files/106341.got.cif
#   From: 2010.06.25/outbox.cif.g09.slc.cpg/sg2_54_cif.got.tgz:106341.got - 2010.06.27 13:26:56.
