data_PCOD8005223
_publ_section_title
;
Structure prediction by ZEFSAII (Michael W. Deem and Ramdas Pophale) SiO2 
 PCOD8005223
Probable space group: P -1
;
_chemical_formula_sum "Si O2"
_cell_formula_units_Z 10
_cell_length_a 13.500144
_cell_length_b 7.570470
_cell_length_c 7.120411
_cell_angle_alpha 110.352244
_cell_angle_beta 68.220703
_cell_angle_gamma 136.353713
_cell_volume 462.840870
_symmetry_space_group_name_H-M "P -1"
_symmetry_group_IT_number 2
_symmetry_cell_setting 'triclinic'
loop_
_space_group_symop_operation_xyz
x,y,z
-x,-y,-z
loop_
_atom_site_type_symbol
_atom_site_label
_atom_site_fract_x
_atom_site_fract_y
_atom_site_fract_z
Si Si1 0.647558 0.108762 0.350704
Si Si2 0.957746 0.007960 0.822543
Si Si3 0.654823 0.706435 0.071377
Si Si4 0.227876 0.520653 0.919177
Si Si5 0.112085 0.470047 0.386336
O O1 0.667447 0.206038 0.159065
O O2 0.763627 0.348636 0.486478
O O3 0.500000 0.000000 0.500000
O O4 0.655086 0.892067 0.268948
O O5 0.913223 0.686867 0.199273
O O6 0.963861 0.824945 0.624549
O O7 0.791288 0.887700 0.894518
O O8 0.000000 0.000000 0.000000
O O9 0.679980 0.558293 0.134725
O O10 0.500000 0.500000 0.000000
O O11 0.177382 0.552452 0.161129
O O12 0.000000 0.500000 0.500000
#
# Coordination Sequence:
#
# PCOD8005223 Si02
#       5
#     2   2   2   2   2
#     4  12  25  40  63  92 120 163 212 247 301 366
#     4   8  17  37  61  86 121 158 193 243 306 359
#     4  10  21  40  63  89 124 160 199 251 307 364
#     4  10  23  43  62  87 129 163 194 256 308 350
#     4  10  20  38  65  95 121 154 207 252 295 370
#
# _framework density 21.605698
#
# number of rings (size 3 to 8) (size 9 to 14) (size 15 to 20)
#    0.000    2.400    0.000    6.000    0.000    8.000 
#    0.000    8.000    0.000    0.000    0.000    0.000 
#    0.000    0.000    0.000    0.000    0.000    0.000 
#
# Total GULP energy -123921.503009 kJ/mol
# GULP energy per Si atom -12392.150301 kJ/mol
# Density = 2.155652 g / cm^3
# Si number density = 21.605698 Si / 1000 Ang^3
#
#
#
# Elastic Constant Matrix: (Units=GPa)
#
#
# Indices 1 2 3 4 5 6 
#
# 1 126.7539 46.6126 45.0237 -0.5886 -29.2203 12.8919
# 2 46.6126 84.2082 36.1505 -1.6001 1.2981 6.3627
# 3 45.0237 36.1505 99.7624 14.0980 -23.0496 -16.8243
# 4 -0.5886 -1.6001 14.0980 45.3592 3.2473 1.4211
# 5 -29.2203 1.2981 -23.0496 3.2473 43.0332 11.0018
# 6 12.8919 6.3627 -16.8243 1.4211 11.0018 34.7969
#
#
#
# Elastic Compliance Matrix: (Units=1/GPa)
#
#
# Indices 1 2 3 4 5 6 
#
# 1 0.014913 -0.006046 -0.003797 0.000698 0.010692 -0.009665
# 2 -0.006046 0.018350 -0.006524 0.003223 -0.007911 -0.001900
# 3 -0.003797 -0.006524 0.017881 -0.006516 0.005162 0.009880
# 4 0.000698 0.003223 -0.006516 0.024599 -0.004015 -0.003733
# 5 0.010692 -0.007911 0.005162 -0.004015 0.036737 -0.011470
# 6 -0.009665 -0.001900 0.009880 -0.003733 -0.011470 0.041222
#
#
# Mechanical properties :
#
#
# Convention : Reuss Voigt Hill
#
# Bulk Modulus (GPa) = 54.32284 62.92201 58.62242
# Shear Modulus (GPa) = 25.96416 36.83370 31.39893
#
# Velocity S-wave (km/s) = 3.47035 4.13342 3.81631
# Velocity P-wave (km/s) = 6.42302 7.20877 6.82721
#
# Compressibility (1/GPa) = 0.01840846
#
# Stress axis : x y z
#
# Youngs Moduli (GPa) = 67.05745 54.49721 55.92380
#
# Poissons Ratio (x) = 0.32948 0.21237
# Poissons Ratio (y) = 0.40541 0.36487
# Poissons Ratio (z) = 0.25465 0.35556
#
# Static dielectric constant tensor:
#      x y z
#    x 3.859550 0.113800 -0.206780 
#    y 0.113800 4.580730 0.075280 
#    z -0.206780 0.075280 3.852580 
# 
# 
# High freq. dielectric constant tensor:
#      x y z
#    x 1.845270 0.010450 -0.014150 
#    y 0.010450 1.857960 0.018760 
#    z -0.014150 0.018760 1.845430 
# 
# From -- ./inp_files/57285.got.cif
#   From: 2010.06.25/outbox.cif.g09.slc.cpg/sg2_29_cif.got.tgz:57285.got - 2010.06.27 13:26:56.
