data_PCOD8005413
_publ_section_title
;
Structure prediction by ZEFSAII (Michael W. Deem and Ramdas Pophale) SiO2 
 PCOD8005413
Probable space group: P -1
;
_chemical_formula_sum "Si O2"
_cell_formula_units_Z 14
_cell_length_a 11.850507
_cell_length_b 4.846109
_cell_length_c 12.846429
_cell_angle_alpha 100.417597
_cell_angle_beta 61.591367
_cell_angle_gamma 80.168367
_cell_volume 609.452081
_symmetry_space_group_name_H-M "P -1"
_symmetry_group_IT_number 2
_symmetry_cell_setting 'triclinic'
loop_
_space_group_symop_operation_xyz
x,y,z
-x,-y,-z
loop_
_atom_site_type_symbol
_atom_site_label
_atom_site_fract_x
_atom_site_fract_y
_atom_site_fract_z
Si Si1 0.878116 0.606382 0.982436
Si Si2 0.590213 0.906619 0.216619
Si Si3 0.510942 0.473709 0.615808
Si Si4 0.596964 0.251798 0.872562
Si Si5 0.858795 0.041957 0.848122
Si Si6 0.921109 0.830281 0.590310
Si Si7 0.755415 0.435652 0.633828
O O1 0.741586 0.717465 0.115201
O O2 0.869641 0.364330 0.885953
O O3 0.000000 0.500000 0.000000
O O4 0.907049 0.863028 0.919594
O O5 0.538090 0.791848 0.337094
O O6 0.492494 0.913248 0.162159
O O7 0.583817 0.240896 0.264472
O O8 0.500000 0.500000 0.500000
O O9 0.667497 0.422845 0.570670
O O10 0.705155 0.046329 0.890493
O O11 0.683277 0.394907 0.768345
O O12 0.500000 0.500000 0.000000
O O13 0.954815 0.907008 0.698137
O O14 0.775312 0.761358 0.651351
O O15 0.000000 0.500000 0.500000
O O16 0.106021 0.865172 0.452490
#
# Coordination Sequence:
#
# PCOD8005413 Si02
#       7
#     2   2   2   2   2   2   2
#     4  12  26  45  63  94 139 174 223 268 313 408
#     4  11  24  41  67 100 129 171 219 273 339 386
#     4  11  23  44  66  94 131 171 219 272 327 391
#     4  10  20  38  69 104 134 164 212 282 346 399
#     4  11  23  42  67  96 128 173 218 271 340 381
#     4  11  23  43  66  94 132 170 219 271 328 391
#     4  10  22  40  62 100 131 160 215 278 325 384
#
# _framework density 22.971454999999999
#
# number of rings (size 3 to 8) (size 9 to 14) (size 15 to 20)
#    0.000    1.143    1.429    6.429    2.000    1.714 
#    7.714    0.000    0.000    0.000    0.000    0.000 
#    0.000    0.000    0.000    0.000    0.000    0.000 
#
# Total GULP energy -173570.351303 kJ/mol
# GULP energy per Si atom -12397.882236 kJ/mol
# Density = 2.291917 g / cm^3
# Si number density = 22.971455 Si / 1000 Ang^3
#
#
#
# Elastic Constant Matrix: (Units=GPa)
#
#
# Indices 1 2 3 4 5 6 
#
# 1 110.8877 32.1329 34.6612 4.8139 12.8862 -26.2997
# 2 32.1329 114.0708 23.5446 -4.1920 0.9093 -0.5885
# 3 34.6612 23.5446 112.9303 19.1245 11.3846 -17.5190
# 4 4.8139 -4.1920 19.1245 42.1066 -7.7671 2.5730
# 5 12.8862 0.9093 11.3846 -7.7671 30.6880 -4.8185
# 6 -26.2997 -0.5885 -17.5190 2.5730 -4.8185 41.0677
#
#
#
# Elastic Compliance Matrix: (Units=1/GPa)
#
#
# Indices 1 2 3 4 5 6 
#
# 1 0.012679 -0.003335 -0.001237 -0.002445 -0.004255 0.007198
# 2 -0.003335 0.010262 -0.002311 0.003048 0.002270 -0.002899
# 3 -0.001237 -0.002311 0.011984 -0.006688 -0.004902 0.004131
# 4 -0.002445 0.003048 -0.006688 0.029542 0.010103 -0.005041
# 5 -0.004255 0.002270 -0.004902 0.010103 0.038541 -0.000895
# 6 0.007198 -0.002899 0.004131 -0.005041 -0.000895 0.030891
#
#
# Mechanical properties :
#
#
# Convention : Reuss Voigt Hill
#
# Bulk Modulus (GPa) = 47.25839 57.61846 52.43842
# Shear Modulus (GPa) = 32.31712 39.27580 35.79646
#
# Velocity S-wave (km/s) = 3.75485 4.13942 3.95182
# Velocity P-wave (km/s) = 6.27821 6.92701 6.61057
#
# Compressibility (1/GPa) = 0.02116026
#
# Stress axis : x y z
#
# Youngs Moduli (GPa) = 78.87097 97.44819 83.44429
#
# Poissons Ratio (x) = 0.32500 0.10318
# Poissons Ratio (y) = 0.26305 0.19281
# Poissons Ratio (z) = 0.09753 0.22517
#
# Static dielectric constant tensor:
#      x y z
#    x 1.146970 -1.508940 1.391480 
#    y -1.508940 4.024520 0.591370 
#    z 1.391480 0.591370 3.617300 
# 
# 
# High freq. dielectric constant tensor:
#      x y z
#    x 1.906500 0.001650 -0.013550 
#    y 0.001650 1.931990 0.009550 
#    z -0.013550 0.009550 1.916790 
# 
# From -- ./inp_files/409563.got.cif
#   From: 2010.06.25/outbox.cif.g09.slc.cpg/sg2_205_cif.got.tgz:409563.got - 2010.06.27 13:26:56.
