data_PCOD8005839
_publ_section_title
;
Structure prediction by ZEFSAII (Michael W. Deem and Ramdas Pophale) SiO2 
 PCOD8005839
Probable space group: P -1
;
_chemical_formula_sum "Si O2"
_cell_formula_units_Z 16
_cell_length_a 20.899075
_cell_length_b 8.113518
_cell_length_c 7.617115
_cell_angle_alpha 57.616279
_cell_angle_beta 46.822305
_cell_angle_gamma 70.964259
_cell_volume 793.689610
_symmetry_space_group_name_H-M "P -1"
_symmetry_group_IT_number 2
_symmetry_cell_setting 'triclinic'
loop_
_space_group_symop_operation_xyz
x,y,z
-x,-y,-z
loop_
_atom_site_type_symbol
_atom_site_label
_atom_site_fract_x
_atom_site_fract_y
_atom_site_fract_z
Si Si1 0.711271 0.297668 0.711787
Si Si2 0.029542 0.257818 0.438715
Si Si3 0.092402 0.689293 0.045438
Si Si4 0.288454 0.726501 0.670625
Si Si5 0.635178 0.506967 0.031719
Si Si6 0.529641 0.190415 0.232430
Si Si7 0.581556 0.902245 0.817884
Si Si8 0.898180 0.149531 0.448085
O O1 0.712172 0.368648 0.468185
O O2 0.705068 0.479221 0.756391
O O3 0.797084 0.184100 0.658651
O O4 0.623521 0.152415 0.984833
O O5 0.091071 0.454324 0.189159
O O6 0.980501 0.237601 0.728766
O O7 0.959536 0.262083 0.410940
O O8 0.092809 0.080926 0.414187
O O9 0.188897 0.768559 0.884725
O O10 0.072146 0.770152 0.844318
O O11 0.342580 0.934737 0.464590
O O12 0.327946 0.570701 0.812487
O O13 0.619749 0.734468 0.963313
O O14 0.543736 0.379772 0.226064
O O15 0.453289 0.220542 0.217612
O O16 0.500000 0.000000 0.500000
O O17 0.500000 0.000000 0.000000
#
# Coordination Sequence:
#
# PCOD8005839 Si02
#       8
#     2   2   2   2   2   2   2   2
#     4   9  21  40  59  87 124 152 202 254 288 359
#     4  10  21  38  64  88 121 159 196 244 304 362
#     4  10  22  39  59  91 125 154 199 246 300 355
#     4  11  22  40  62  90 119 161 203 246 298 358
#     4  10  23  40  60  85 121 160 197 252 303 348
#     4  10  20  40  62  84 122 159 198 248 304 348
#     4  12  22  41  60  88 121 158 205 248 296 358
#     4  10  20  39  63  89 119 157 200 245 298 358
#
# _framework density 20.159016000000001
#
# number of rings (size 3 to 8) (size 9 to 14) (size 15 to 20)
#    0.750    1.000    2.500    1.875    0.000    2.500 
#    2.250   10.000    0.000    0.000    0.000    0.000 
#    0.000    0.000    0.000    0.000    0.000    0.000 
#
# Total GULP energy -198334.275593 kJ/mol
# GULP energy per Si atom -12395.892225 kJ/mol
# Density = 2.011313 g / cm^3
# Si number density = 20.159016 Si / 1000 Ang^3
#
#
#
# Elastic Constant Matrix: (Units=GPa)
#
#
# Indices 1 2 3 4 5 6 
#
# 1 113.4439 46.1944 47.7990 -4.2924 8.2380 -12.0910
# 2 46.1944 103.6135 32.3612 -2.9901 1.0120 -15.4379
# 3 47.7990 32.3612 85.9453 -4.0873 -6.9691 -12.7655
# 4 -4.2924 -2.9901 -4.0873 16.3594 -4.5675 5.5014
# 5 8.2380 1.0120 -6.9691 -4.5675 36.4385 -2.6698
# 6 -12.0910 -15.4379 -12.7655 5.5014 -2.6698 24.1929
#
#
#
# Elastic Compliance Matrix: (Units=1/GPa)
#
#
# Indices 1 2 3 4 5 6 
#
# 1 0.013376 -0.003910 -0.006232 -0.000057 -0.004081 0.000465
# 2 -0.003910 0.012747 -0.001815 -0.000856 0.000476 0.005469
# 3 -0.006232 -0.001815 0.017035 0.002162 0.005341 0.004814
# 4 -0.000057 -0.000856 0.002162 0.068478 0.007999 -0.014123
# 5 -0.004081 0.000476 0.005341 0.007999 0.030570 0.002637
# 6 0.000465 0.005469 0.004814 -0.014123 0.002637 0.051100
#
#
# Mechanical properties :
#
#
# Convention : Reuss Voigt Hill
#
# Bulk Modulus (GPa) = 51.95940 61.74576 56.85258
# Shear Modulus (GPa) = 22.35785 27.17469 24.76627
#
# Velocity S-wave (km/s) = 3.33389 3.67552 3.50886
# Velocity P-wave (km/s) = 6.37577 6.97914 6.68427
#
# Compressibility (1/GPa) = 0.01924580
#
# Stress axis : x y z
#
# Youngs Moduli (GPa) = 74.75835 78.45119 58.70129
#
# Poissons Ratio (x) = 0.30673 0.36581
# Poissons Ratio (y) = 0.29230 0.10653
# Poissons Ratio (z) = 0.46588 0.14237
#
# Static dielectric constant tensor:
#      x y z
#    x 4.093030 -0.043000 -0.003940 
#    y -0.043000 3.478170 0.081990 
#    z -0.003940 0.081990 3.647840 
# 
# 
# High freq. dielectric constant tensor:
#      x y z
#    x 1.802290 -0.001780 0.005440 
#    y -0.001780 1.768840 0.000200 
#    z 0.005440 0.000200 1.786640 
# 
# From -- ./inp_files/343295.got.cif
#   From: 2010.06.25/outbox.cif.g09.slc.cpg/sg2_172_cif.got.tgz:343295.got - 2010.06.27 13:26:56.
