data_PCOD8005796
_publ_section_title
;
Structure prediction by ZEFSAII (Michael W. Deem and Ramdas Pophale) SiO2 
 PCOD8005796
Probable space group: P -1
;
_chemical_formula_sum "Si O2"
_cell_formula_units_Z 16
_cell_length_a 25.471073
_cell_length_b 22.827020
_cell_length_c 9.719318
_cell_angle_alpha 25.195734
_cell_angle_beta 27.468009
_cell_angle_gamma 17.001122
_cell_volume 692.388117
_symmetry_space_group_name_H-M "P -1"
_symmetry_group_IT_number 2
_symmetry_cell_setting 'triclinic'
loop_
_space_group_symop_operation_xyz
x,y,z
-x,-y,-z
loop_
_atom_site_type_symbol
_atom_site_label
_atom_site_fract_x
_atom_site_fract_y
_atom_site_fract_z
Si Si1 0.150764 0.126420 0.585841
Si Si2 0.549412 0.463406 0.672618
Si Si3 0.442152 0.279171 0.415976
Si Si4 0.099092 0.854761 0.312919
Si Si5 0.089420 0.411184 0.331340
Si Si6 0.423781 0.997334 0.551688
Si Si7 0.271197 0.866184 0.287721
Si Si8 0.927811 0.363210 0.340630
O O1 0.054018 0.302404 0.560391
O O2 0.080007 0.251608 0.338696
O O3 0.369306 0.937376 0.485251
O O4 0.090370 0.026074 0.951274
O O5 0.701428 0.382696 0.592582
O O6 0.401525 0.718974 0.431278
O O7 0.664848 0.300746 0.621094
O O8 0.436815 0.446870 0.041286
O O9 0.422700 0.214467 0.453856
O O10 0.270526 0.399734 0.650784
O O11 0.070519 0.800892 0.350214
O O12 0.939834 0.962497 0.558303
O O13 0.000000 0.500000 0.500000
O O14 0.306279 0.216769 0.269744
O O15 0.022550 0.601148 0.989559
O O16 0.500000 0.000000 0.500000
O O17 0.287314 0.006037 0.900408
#
# Coordination Sequence:
#
# PCOD8005796 Si02
#       8
#     2   2   2   2   2   2   2   2
#     4  10  24  46  69  96 139 176 217 286 338 393
#     4   9  20  37  65  95 131 172 219 279 332 393
#     4   9  22  44  65  96 134 172 225 272 334 405
#     4  11  23  39  67  99 132 175 226 273 337 396
#     4  11  26  47  66 101 134 174 232 278 334 405
#     4  10  23  42  65  95 136 176 219 282 333 387
#     4  10  20  39  62  96 133 174 221 272 340 393
#     4  12  25  42  71  98 134 184 224 269 342 403
#
# _framework density 23.108426999999999
#
# number of rings (size 3 to 8) (size 9 to 14) (size 15 to 20)
#    0.000    1.750    0.000    3.375    3.500    6.000 
#    4.500    0.000    0.000    0.000    0.000    0.000 
#    0.000    0.000    0.000    0.000    0.000    0.000 
#
# Total GULP energy -198368.339428 kJ/mol
# GULP energy per Si atom -12398.021214 kJ/mol
# Density = 2.305583 g / cm^3
# Si number density = 23.108427 Si / 1000 Ang^3
#
#
#
# Elastic Constant Matrix: (Units=GPa)
#
#
# Indices 1 2 3 4 5 6 
#
# 1 158.7615 33.9812 40.2922 -9.2536 4.8091 8.3575
# 2 33.9812 61.5949 30.6835 4.9941 3.7004 6.3866
# 3 40.2922 30.6835 69.1298 -5.7985 15.3481 8.0708
# 4 -9.2536 4.9941 -5.7985 35.4285 2.3470 6.9542
# 5 4.8091 3.7004 15.3481 2.3470 37.7322 -8.5387
# 6 8.3575 6.3866 8.0708 6.9542 -8.5387 34.2132
#
#
#
# Elastic Compliance Matrix: (Units=1/GPa)
#
#
# Indices 1 2 3 4 5 6 
#
# 1 0.007866 -0.002911 -0.003013 0.002174 0.000130 -0.001077
# 2 -0.002911 0.022869 -0.009551 -0.005810 0.002487 0.000497
# 3 -0.003013 -0.009551 0.024198 0.006627 -0.010557 -0.007171
# 4 0.002174 -0.005810 0.006627 0.032968 -0.006570 -0.009351
# 5 0.000130 0.002487 -0.010557 -0.006570 0.033596 0.011714
# 6 -0.001077 0.000497 -0.007171 -0.009351 0.011714 0.035915
#
#
# Mechanical properties :
#
#
# Convention : Reuss Voigt Hill
#
# Bulk Modulus (GPa) = 41.69798 55.48892 48.59345
# Shear Modulus (GPa) = 25.46375 33.77673 29.62024
#
# Velocity S-wave (km/s) = 3.32313 3.82732 3.58410
# Velocity P-wave (km/s) = 5.72782 6.60270 6.18076
#
# Compressibility (1/GPa) = 0.02398198
#
# Stress axis : x y z
#
# Youngs Moduli (GPa) = 127.12797 43.72694 41.32532
#
# Poissons Ratio (x) = 0.12729 0.12453
# Poissons Ratio (y) = 0.37006 0.39472
# Poissons Ratio (z) = 0.38308 0.41766
#
# Static dielectric constant tensor:
#      x y z
#    x 4.480680 -0.061360 0.027000 
#    y -0.061360 4.157760 -0.301080 
#    z 0.027000 -0.301080 4.111410 
# 
# 
# High freq. dielectric constant tensor:
#      x y z
#    x 1.924270 -0.000070 0.004660 
#    y -0.000070 1.912080 -0.012500 
#    z 0.004660 -0.012500 1.898870 
# 
# From -- ./inp_files/355235.got.cif
#   From: 2010.06.25/outbox.cif.g09.slc.cpg/sg2_178_cif.got.tgz:355235.got - 2010.06.27 13:26:56.
