data_PCOD8005082
_publ_section_title
;
Structure prediction by ZEFSAII (Michael W. Deem and Ramdas Pophale) SiO2 
 PCOD8005082
Probable space group: P -1
;
_chemical_formula_sum "Si O2"
_cell_formula_units_Z 16
_cell_length_a 29.279255
_cell_length_b 8.358917
_cell_length_c 14.547001
_cell_angle_alpha 51.946380
_cell_angle_beta 20.900315
_cell_angle_gamma 41.117078
_cell_volume 775.092748
_symmetry_space_group_name_H-M "P -1"
_symmetry_group_IT_number 2
_symmetry_cell_setting 'triclinic'
loop_
_space_group_symop_operation_xyz
x,y,z
-x,-y,-z
loop_
_atom_site_type_symbol
_atom_site_label
_atom_site_fract_x
_atom_site_fract_y
_atom_site_fract_z
Si Si1 0.656090 0.956098 0.447437
Si Si2 0.092499 0.965873 0.061532
Si Si3 0.219712 0.619520 0.591889
Si Si4 0.163806 0.834723 0.190176
Si Si5 0.415242 0.234983 0.953374
Si Si6 0.071226 0.676938 0.043098
Si Si7 0.313177 0.944699 0.344371
Si Si8 0.329579 0.064063 0.775031
O O1 0.688591 0.682875 0.488623
O O2 0.632362 0.055665 0.354619
O O3 0.484351 0.174906 0.741919
O O4 0.805789 0.946806 0.204150
O O5 0.125913 0.875659 0.137191
O O6 0.123295 0.746205 0.012669
O O7 0.902640 0.226996 0.318341
O O8 0.343447 0.688573 0.336455
O O9 0.120779 0.738039 0.833034
O O10 0.258954 0.537480 0.146645
O O11 0.000000 0.000000 0.500000
O O12 0.278885 0.910351 0.979267
O O13 0.567607 0.148293 0.760757
O O14 0.359061 0.062670 0.139391
O O15 0.171446 0.367170 0.969290
O O16 0.876883 0.825762 0.351714
O O17 0.500000 0.000000 0.500000
#
# Coordination Sequence:
#
# PCOD8005082 Si02
#       8
#     2   2   2   2   2   2   2   2
#     4  10  22  36  60  93 122 158 204 253 304 361
#     4  10  21  38  66  93 121 163 206 251 300 378
#     4  10  20  38  64  93 124 155 206 256 308 354
#     4  11  26  45  62  88 127 170 206 254 317 370
#     4  11  24  40  63  87 126 164 208 251 310 369
#     4  10  20  40  67  92 127 157 209 253 310 360
#     4  10  22  40  61  91 120 167 206 257 302 365
#     4  10  24  40  63  94 126 164 205 257 305 371
#
# _framework density 20.642690000000002
#
# number of rings (size 3 to 8) (size 9 to 14) (size 15 to 20)
#    0.000    1.750    0.000    4.125    7.000    5.500 
#    4.500    3.125    0.000    0.000    0.000    0.000 
#    0.000    0.000    0.000    0.000    0.000    0.000 
#
# Total GULP energy -198285.123042 kJ/mol
# GULP energy per Si atom -12392.820190 kJ/mol
# Density = 2.059571 g / cm^3
# Si number density = 20.642690 Si / 1000 Ang^3
#
#
#
# Elastic Constant Matrix: (Units=GPa)
#
#
# Indices 1 2 3 4 5 6 
#
# 1 79.6838 36.0702 50.0555 -4.4892 0.9946 5.8885
# 2 36.0702 95.1262 63.1122 -11.3723 2.2943 3.3400
# 3 50.0555 63.1122 130.1097 -10.1647 -3.0922 13.1042
# 4 -4.4892 -11.3723 -10.1647 38.6383 7.2268 -2.3957
# 5 0.9946 2.2943 -3.0922 7.2268 29.8211 0.5174
# 6 5.8885 3.3400 13.1042 -2.3957 0.5174 24.5899
#
#
#
# Elastic Compliance Matrix: (Units=1/GPa)
#
#
# Indices 1 2 3 4 5 6 
#
# 1 0.017207 -0.003162 -0.005015 -0.000166 -0.000793 -0.001018
# 2 -0.003162 0.016702 -0.006945 0.003399 -0.002768 0.002579
# 3 -0.005015 -0.006945 0.013567 0.000225 0.002142 -0.005109
# 4 -0.000166 0.003399 0.000225 0.028408 -0.007158 0.002376
# 5 -0.000793 -0.002768 0.002142 -0.007158 0.035765 -0.002026
# 6 -0.001018 0.002579 -0.005109 0.002376 -0.002026 0.043557
#
#
# Mechanical properties :
#
#
# Convention : Reuss Voigt Hill
#
# Bulk Modulus (GPa) = 58.03438 67.04394 62.53916
# Shear Modulus (GPa) = 26.15144 28.98865 27.57004
#
# Velocity S-wave (km/s) = 3.56316 3.75147 3.65853
# Velocity P-wave (km/s) = 6.71587 7.16335 6.94322
#
# Compressibility (1/GPa) = 0.01723117
#
# Stress axis : x y z
#
# Youngs Moduli (GPa) = 58.11473 59.87460 73.70777
#
# Poissons Ratio (x) = 0.18933 0.36967
# Poissons Ratio (y) = 0.18377 0.51189
# Poissons Ratio (z) = 0.29147 0.41582
#
# Static dielectric constant tensor:
#      x y z
#    x 1.761850 -0.962090 2.462990 
#    y -0.962090 3.253190 1.184660 
#    z 2.462990 1.184660 0.585810 
# 
# 
# High freq. dielectric constant tensor:
#      x y z
#    x 1.804270 0.007290 -0.007460 
#    y 0.007290 1.817630 -0.008440 
#    z -0.007460 -0.008440 1.810630 
# 
# From -- ./inp_files/274358.got.cif
#   From: 2010.06.25/outbox.cif.g09.slc.cpg/sg2_138_cif.got.tgz:274358.got - 2010.06.27 13:26:56.
