data_PCOD8005562
_publ_section_title
;
Structure prediction by ZEFSAII (Michael W. Deem and Ramdas Pophale) SiO2 
 PCOD8005562
Probable space group: P -1
;
_chemical_formula_sum "Si O2"
_cell_formula_units_Z 16
_cell_length_a 8.666950
_cell_length_b 23.221848
_cell_length_c 12.161219
_cell_angle_alpha 142.586021
_cell_angle_beta 146.911583
_cell_angle_gamma 50.992877
_cell_volume 807.041810
_symmetry_space_group_name_H-M "P -1"
_symmetry_group_IT_number 2
_symmetry_cell_setting 'triclinic'
loop_
_space_group_symop_operation_xyz
x,y,z
-x,-y,-z
loop_
_atom_site_type_symbol
_atom_site_label
_atom_site_fract_x
_atom_site_fract_y
_atom_site_fract_z
Si Si1 0.342072 0.006811 0.031365
Si Si2 0.504824 0.161322 0.536415
Si Si3 0.237826 0.618176 0.486857
Si Si4 0.685206 0.371899 0.923613
Si Si5 0.848311 0.167472 0.195006
Si Si6 0.673753 0.522342 0.975682
Si Si7 0.254335 0.915086 0.224891
Si Si8 0.735826 0.530365 0.540415
O O1 0.524770 0.079006 0.333016
O O2 0.045971 0.045018 0.885337
O O3 0.500000 0.000000 0.000000
O O4 0.295003 0.905148 0.909735
O O5 0.705699 0.149727 0.743519
O O6 0.184891 0.162625 0.390689
O O7 0.628240 0.259338 0.701475
O O8 0.237417 0.729949 0.669618
O O9 0.537319 0.598670 0.586810
O O10 0.191834 0.561760 0.488462
O O11 0.972917 0.573911 0.184030
O O12 0.719752 0.418312 0.893181
O O13 0.972923 0.403601 0.212990
O O14 0.412228 0.407672 0.873303
O O15 0.724742 0.143855 0.964185
O O16 0.418363 0.512867 0.724347
O O17 0.500000 0.000000 0.500000
#
# Coordination Sequence:
#
# PCOD8005562 Si02
#       8
#     2   2   2   2   2   2   2   2
#     4  11  25  43  63  94 129 157 198 263 313 362
#     4  11  22  42  65  93 123 164 211 248 304 372
#     4  10  22  38  60  90 120 161 202 244 303 363
#     4  10  22  36  59  90 117 155 206 247 292 357
#     4  11  22  40  66  89 126 161 212 249 303 377
#     4  10  20  39  60  83 124 161 195 247 301 356
#     4  11  21  42  67  89 118 166 206 251 301 362
#     4  10  22  39  57  90 126 155 200 253 299 353
#
# _framework density 19.825491
#
# number of rings (size 3 to 8) (size 9 to 14) (size 15 to 20)
#    0.000    1.500    3.750    1.500    1.750    4.500 
#    2.250    0.000    0.000    0.000    0.000    0.000 
#    0.000    0.000    0.000    0.000    0.000    0.000 
#
# Total GULP energy -198403.968889 kJ/mol
# GULP energy per Si atom -12400.248056 kJ/mol
# Density = 1.978037 g / cm^3
# Si number density = 19.825491 Si / 1000 Ang^3
#
#
#
# Elastic Constant Matrix: (Units=GPa)
#
#
# Indices 1 2 3 4 5 6 
#
# 1 82.8146 54.4612 34.9769 10.3467 -5.2467 7.5992
# 2 54.4612 119.6248 62.2037 24.3623 -4.9182 1.9201
# 3 34.9769 62.2037 117.6721 5.2900 0.9212 9.5481
# 4 10.3467 24.3623 5.2900 44.6528 2.2508 1.8056
# 5 -5.2467 -4.9182 0.9212 2.2508 29.4181 -0.5240
# 6 7.5992 1.9201 9.5481 1.8056 -0.5240 22.5259
#
#
#
# Elastic Compliance Matrix: (Units=1/GPa)
#
#
# Indices 1 2 3 4 5 6 
#
# 1 0.018025 -0.007584 -0.000966 0.000183 0.001874 -0.004996
# 2 -0.007584 0.016682 -0.006643 -0.006855 0.002250 0.004554
# 3 -0.000966 -0.006643 0.012575 0.002648 -0.001963 -0.004696
# 4 0.000183 -0.006855 0.002648 0.026054 -0.003239 -0.002763
# 5 0.001874 0.002250 -0.001963 -0.003239 0.035032 0.001082
# 6 -0.004996 0.004554 -0.004696 -0.002763 0.001082 0.047928
#
#
# Mechanical properties :
#
#
# Convention : Reuss Voigt Hill
#
# Bulk Modulus (GPa) = 59.18968 69.26614 64.22791
# Shear Modulus (GPa) = 25.99937 30.55067 28.27502
#
# Velocity S-wave (km/s) = 3.62527 3.92979 3.78060
# Velocity P-wave (km/s) = 6.88793 7.45686 7.17803
#
# Compressibility (1/GPa) = 0.01689484
#
# Stress axis : x y z
#
# Youngs Moduli (GPa) = 55.47901 59.94533 79.52602
#
# Poissons Ratio (x) = 0.45460 0.07685
# Poissons Ratio (y) = 0.42073 0.52831
# Poissons Ratio (z) = 0.05361 0.39823
#
# Static dielectric constant tensor:
#      x y z
#    x 3.430210 0.096280 0.036870 
#    y 0.096280 3.768790 -0.171300 
#    z 0.036870 -0.171300 3.821630 
# 
# 
# High freq. dielectric constant tensor:
#      x y z
#    x 1.760090 0.000530 0.006660 
#    y 0.000530 1.779310 -0.005260 
#    z 0.006660 -0.005260 1.785360 
# 
# From -- ./inp_files/39465.got.cif
#   From: 2010.06.25/outbox.cif.g09.slc.cpg/sg2_20_cif.got.tgz:39465.got - 2010.06.27 13:26:56.
