data_PCOD8005993
_publ_section_title
;
Structure prediction by ZEFSAII (Michael W. Deem and Ramdas Pophale) SiO2 
 PCOD8005993
Probable space group: P -1
;
_chemical_formula_sum "Si O2"
_cell_formula_units_Z 16
_cell_length_a 21.091222
_cell_length_b 5.260439
_cell_length_c 5.282056
_cell_angle_alpha 88.325389
_cell_angle_beta 80.089513
_cell_angle_gamma 92.039132
_cell_volume 576.556741
_symmetry_space_group_name_H-M "P -1"
_symmetry_group_IT_number 2
_symmetry_cell_setting 'triclinic'
loop_
_space_group_symop_operation_xyz
x,y,z
-x,-y,-z
loop_
_atom_site_type_symbol
_atom_site_label
_atom_site_fract_x
_atom_site_fract_y
_atom_site_fract_z
Si Si1 0.846304 0.376336 0.011014
Si Si2 0.627951 0.411895 0.381237
Si Si3 0.601945 0.019451 0.016017
Si Si4 0.813782 0.864987 0.214489
Si Si5 0.928635 0.387265 0.462172
Si Si6 0.491906 0.690491 0.231305
Si Si7 0.039682 0.100709 0.729795
Si Si8 0.688410 0.910517 0.558771
O O1 0.796506 0.600286 0.085395
O O2 0.884638 0.450758 0.728055
O O3 0.808052 0.102871 0.016677
O O4 0.890524 0.326946 0.228135
O O5 0.550631 0.434607 0.503092
O O6 0.662010 0.691988 0.386156
O O7 0.665766 0.197207 0.514091
O O8 0.626822 0.293365 0.103287
O O9 0.661967 0.862624 0.863899
O O10 0.552640 0.076012 0.823114
O O11 0.562945 0.824381 0.243846
O O12 0.886100 0.821421 0.260290
O O13 0.765838 0.905542 0.482752
O O14 0.982291 0.618813 0.358176
O O15 0.961050 0.111967 0.488898
O O16 0.500000 0.500000 0.000000
O O17 0.000000 0.000000 0.000000
#
# Coordination Sequence:
#
# PCOD8005993 Si02
#       8
#     2   2   2   2   2   2   2   2
#     4  10  21  42  67  94 132 173 227 275 342 410
#     4  11  24  40  65  96 127 174 220 269 334 401
#     4  10  23  40  62  95 128 172 214 275 332 393
#     4  10  22  43  64  91 132 175 219 286 339 408
#     4  10  21  40  65  98 132 172 219 279 342 412
#     4  10  20  39  64  91 133 165 215 273 329 400
#     4  10  21  41  68 102 134 175 226 280 345 412
#     4  11  24  44  61  92 132 168 228 272 331 406
#
# _framework density 27.750959000000002
#
# number of rings (size 3 to 8) (size 9 to 14) (size 15 to 20)
#    0.000    1.750    1.250    2.250    1.750    0.500 
#   13.500   15.000    0.000    0.000    0.000    0.000 
#    0.000    0.000    0.000    0.000    0.000    0.000 
#
# Total GULP energy -198259.070552 kJ/mol
# GULP energy per Si atom -12391.191909 kJ/mol
# Density = 2.768780 g / cm^3
# Si number density = 27.750959 Si / 1000 Ang^3
#
#
#
# Elastic Constant Matrix: (Units=GPa)
#
#
# Indices 1 2 3 4 5 6 
#
# 1 78.4807 7.1721 35.7412 0.2250 -38.1485 -6.1780
# 2 7.1721 176.8224 39.3856 6.7329 -17.2619 -11.5727
# 3 35.7412 39.3856 164.0437 10.5313 -36.2629 -4.9728
# 4 0.2250 6.7329 10.5313 51.5137 -0.7881 -5.6969
# 5 -38.1485 -17.2619 -36.2629 -0.7881 50.9891 7.1844
# 6 -6.1780 -11.5727 -4.9728 -5.6969 7.1844 30.1102
#
#
#
# Elastic Compliance Matrix: (Units=1/GPa)
#
#
# Indices 1 2 3 4 5 6 
#
# 1 0.020410 0.000957 -0.001490 0.000416 0.014407 0.000950
# 2 0.000957 0.006194 -0.001253 -0.000320 0.001647 0.001916
# 3 -0.001490 -0.001253 0.007675 -0.001420 0.004002 -0.000743
# 4 0.000416 -0.000320 -0.001420 0.020145 -0.001029 0.003785
# 5 0.014407 0.001647 0.004002 -0.001029 0.034363 -0.004144
# 6 0.000950 0.001916 -0.000743 0.003785 -0.004144 0.035725
#
#
# Mechanical properties :
#
#
# Convention : Reuss Voigt Hill
#
# Bulk Modulus (GPa) = 32.56615 64.88273 48.72444
# Shear Modulus (GPa) = 36.14847 48.99245 42.57046
#
# Velocity S-wave (km/s) = 3.61307 4.20626 3.92090
# Velocity P-wave (km/s) = 5.40059 6.85721 6.17202
#
# Compressibility (1/GPa) = 0.03070673
#
# Stress axis : x y z
#
# Youngs Moduli (GPa) = 48.99663 161.44523 130.29928
#
# Poissons Ratio (x) = -0.15447 0.19410
# Poissons Ratio (y) = -0.04688 0.16325
# Poissons Ratio (z) = 0.07299 0.20228
#
# Static dielectric constant tensor:
#      x y z
#    x 5.143100 -0.302200 -0.138030 
#    y -0.302200 6.123200 -0.020580 
#    z -0.138030 -0.020580 5.068520 
# 
# 
# High freq. dielectric constant tensor:
#      x y z
#    x 2.125500 -0.017100 -0.006790 
#    y -0.017100 2.166860 0.004340 
#    z -0.006790 0.004340 2.107350 
# 
# From -- ./inp_files/10590.got.cif
#   From: 2010.06.25/outbox.cif.g09.slc.cpg/sg2_6_cif.got.tgz:10590.got - 2010.06.27 13:26:56.
