data_PCOD8005677
_publ_section_title
;
Structure prediction by ZEFSAII (Michael W. Deem and Ramdas Pophale) SiO2 
 PCOD8005677
Probable space group: P -1
;
_chemical_formula_sum "Si O2"
_cell_formula_units_Z 14
_cell_length_a 14.811489
_cell_length_b 9.810828
_cell_length_c 12.319129
_cell_angle_alpha 65.791309
_cell_angle_beta 29.870249
_cell_angle_gamma 58.213805
_cell_volume 753.208479
_symmetry_space_group_name_H-M "P -1"
_symmetry_group_IT_number 2
_symmetry_cell_setting 'triclinic'
loop_
_space_group_symop_operation_xyz
x,y,z
-x,-y,-z
loop_
_atom_site_type_symbol
_atom_site_label
_atom_site_fract_x
_atom_site_fract_y
_atom_site_fract_z
Si Si1 0.974999 0.363615 0.998261
Si Si2 0.026549 0.810253 0.737852
Si Si3 0.509281 0.611143 0.855636
Si Si4 0.894878 0.513356 0.362174
Si Si5 0.630649 0.064474 0.983827
Si Si6 0.622614 0.133308 0.726088
Si Si7 0.306457 0.480486 0.933472
O O1 0.760256 0.429073 0.142807
O O2 0.002792 0.210142 0.095298
O O3 0.000000 0.500000 0.000000
O O4 0.134597 0.339149 0.742143
O O5 0.121146 0.639571 0.633662
O O6 0.176055 0.901002 0.537359
O O7 0.819754 0.912280 0.868487
O O8 0.736040 0.570169 0.603691
O O9 0.393791 0.584628 0.881540
O O10 0.500000 0.500000 0.000000
O O11 0.410598 0.797717 0.928613
O O12 0.115976 0.463566 0.196531
O O13 0.663773 0.134077 0.811260
O O14 0.446050 0.010963 0.186935
O O15 0.463382 0.304615 0.801997
#
# Coordination Sequence:
#
# PCOD8005677 Si02
#       7
#     2   2   2   2   2   2   2
#     4   8  18  37  61  88 118 150 202 247 285 335
#     4  11  19  39  62  86 117 157 197 245 292 340
#     4  12  23  40  60  90 120 159 195 237 305 357
#     4   9  20  38  61  88 122 149 200 250 279 350
#     4  11  24  38  57  90 124 146 201 245 295 351
#     4  11  21  38  62  88 116 157 200 241 293 351
#     4  10  20  39  61  91 114 156 199 241 291 349
#
# _framework density 18.587150999999999
#
# number of rings (size 3 to 8) (size 9 to 14) (size 15 to 20)
#    0.857    0.857    4.286    0.429    0.000    2.286 
#    2.571    1.429    0.000    0.000    0.000    0.000 
#    0.000    0.000    0.000    0.000    0.000    0.000 
#
# Total GULP energy -173491.845445 kJ/mol
# GULP energy per Si atom -12392.274675 kJ/mol
# Density = 1.854485 g / cm^3
# Si number density = 18.587151 Si / 1000 Ang^3
#
#
#
# Elastic Constant Matrix: (Units=GPa)
#
#
# Indices 1 2 3 4 5 6 
#
# 1 78.3888 22.1627 8.4200 2.3437 -9.4750 -5.3395
# 2 22.1627 53.8351 26.1201 -1.9124 0.8351 7.2860
# 3 8.4200 26.1201 92.8832 -8.1896 11.5196 -15.5857
# 4 2.3437 -1.9124 -8.1896 19.5128 2.7368 -1.8138
# 5 -9.4750 0.8351 11.5196 2.7368 18.6839 0.6114
# 6 -5.3395 7.2860 -15.5857 -1.8138 0.6114 31.7577
#
#
#
# Elastic Compliance Matrix: (Units=1/GPa)
#
#
# Indices 1 2 3 4 5 6 
#
# 1 0.016377 -0.007472 -0.000173 -0.003685 0.009155 0.003996
# 2 -0.007472 0.027932 -0.009632 -0.001793 0.001574 -0.012524
# 3 -0.000173 -0.009632 0.017819 0.009383 -0.012401 0.011700
# 4 -0.003685 -0.001793 0.009383 0.058503 -0.016406 0.008054
# 5 0.009155 0.001574 -0.012401 -0.016406 0.068378 -0.007161
# 6 0.003996 -0.012524 0.011700 0.008054 -0.007161 0.041374
#
#
# Mechanical properties :
#
#
# Convention : Reuss Voigt Hill
#
# Bulk Modulus (GPa) = 36.26677 37.61252 36.93964
# Shear Modulus (GPa) = 18.23969 25.21782 21.72876
#
# Velocity S-wave (km/s) = 3.13598 3.68738 3.42280
# Velocity P-wave (km/s) = 5.71547 6.19748 5.96135
#
# Compressibility (1/GPa) = 0.02757345
#
# Stress axis : x y z
#
# Youngs Moduli (GPa) = 61.06164 35.80185 56.11912
#
# Poissons Ratio (x) = 0.26750 0.00972
# Poissons Ratio (y) = 0.45623 0.54055
# Poissons Ratio (z) = 0.01058 0.34485
#
# Static dielectric constant tensor:
#      x y z
#    x 1.539350 0.282360 -1.613130 
#    y 0.282360 3.123660 0.062570 
#    z -1.613130 0.062570 2.152020 
# 
# 
# High freq. dielectric constant tensor:
#      x y z
#    x 1.722960 -0.005110 -0.008650 
#    y -0.005110 1.695960 -0.015590 
#    z -0.008650 -0.015590 1.722790 
# 
# From -- ./inp_files/445593.got.cif
#   From: 2010.06.25/outbox.cif.g09.slc.cpg/sg2_223_cif.got.tgz:445593.got - 2010.06.27 13:26:56.
