data_PCOD8005097
_publ_section_title
;
Structure prediction by ZEFSAII (Michael W. Deem and Ramdas Pophale) SiO2 
 PCOD8005097
Probable space group: P -1
;
_chemical_formula_sum "Si O2"
_cell_formula_units_Z 16
_cell_length_a 8.041187
_cell_length_b 25.205096
_cell_length_c 25.091743
_cell_angle_alpha 168.827874
_cell_angle_beta 131.360262
_cell_angle_gamma 48.523962
_cell_volume 736.131171
_symmetry_space_group_name_H-M "P -1"
_symmetry_group_IT_number 2
_symmetry_cell_setting 'triclinic'
loop_
_space_group_symop_operation_xyz
x,y,z
-x,-y,-z
loop_
_atom_site_type_symbol
_atom_site_label
_atom_site_fract_x
_atom_site_fract_y
_atom_site_fract_z
Si Si1 0.782868 0.959632 0.819535
Si Si2 0.342523 0.363328 0.714381
Si Si3 0.809993 0.119293 0.617191
Si Si4 0.731325 0.778768 0.906298
Si Si5 0.788649 0.105860 0.847262
Si Si6 0.076842 0.411954 0.350393
Si Si7 0.461187 0.296901 0.396785
Si Si8 0.252222 0.419807 0.866435
O O1 0.577854 0.849486 0.699232
O O2 0.987958 0.724660 0.627059
O O3 0.697219 0.046231 0.827872
O O4 0.871635 0.223829 0.127876
O O5 0.590922 0.227119 0.644150
O O6 0.189650 0.426288 0.796966
O O7 0.209983 0.167400 0.456592
O O8 0.370426 0.647553 0.969703
O O9 0.752121 0.886419 0.415829
O O10 0.895106 0.363629 0.913120
O O11 0.000000 0.000000 0.500000
O O12 0.963786 0.801120 0.007033
O O13 0.591482 0.074610 0.166924
O O14 0.762820 0.691074 0.765461
O O15 0.601209 0.555833 0.690601
O O16 0.219059 0.397881 0.420851
O O17 0.500000 0.500000 0.000000
#
# Coordination Sequence:
#
# PCOD8005097 Si02
#       8
#     2   2   2   2   2   2   2   2
#     4  11  23  39  60  86 122 158 200 251 302 372
#     4  11  21  40  67  86 117 168 206 234 284 368
#     4  11  22  39  65 101 131 148 187 256 306 334
#     4  11  23  38  59  86 119 153 202 261 299 354
#     4  11  23  41  60  84 117 169 210 234 290 368
#     4  11  21  39  61  87 116 158 201 247 318 381
#     4  12  22  38  61  90 117 151 199 267 320 348
#     4  10  20  38  64  94 122 157 198 236 285 349
#
# _framework density 21.735256
#
# number of rings (size 3 to 8) (size 9 to 14) (size 15 to 20)
#    0.000    1.000    0.000   10.875    0.000    0.000 
#    0.000    5.000    0.000    3.000    0.000    0.000 
#    0.000    0.000    0.000    0.000    0.000    0.000 
#
# Total GULP energy -198458.820611 kJ/mol
# GULP energy per Si atom -12403.676288 kJ/mol
# Density = 2.168579 g / cm^3
# Si number density = 21.735256 Si / 1000 Ang^3
#
#
#
# Elastic Constant Matrix: (Units=GPa)
#
#
# Indices 1 2 3 4 5 6 
#
# 1 73.6231 21.9606 -2.6571 -2.2580 3.2437 10.4879
# 2 21.9606 76.5486 17.9349 6.4902 3.2855 26.9042
# 3 -2.6571 17.9349 86.8483 2.8168 1.2153 10.5497
# 4 -2.2580 6.4902 2.8168 49.0234 1.0069 -0.4935
# 5 3.2437 3.2855 1.2153 1.0069 41.8072 3.7916
# 6 10.4879 26.9042 10.5497 -0.4935 3.7916 28.4812
#
#
#
# Elastic Compliance Matrix: (Units=1/GPa)
#
#
# Indices 1 2 3 4 5 6 
#
# 1 0.015221 -0.003986 0.001541 0.001132 -0.000732 -0.002293
# 2 -0.003986 0.021265 -0.002246 -0.003058 0.000400 -0.017893
# 3 0.001541 -0.002246 0.012408 -0.000375 -0.000018 -0.003046
# 4 0.001132 -0.003058 -0.000375 0.020920 -0.000618 0.003055
# 5 -0.000732 0.000400 -0.000018 -0.000618 0.024263 -0.003342
# 6 -0.002293 -0.017893 -0.003046 0.003055 -0.003342 0.054484
#
#
# Mechanical properties :
#
#
# Convention : Reuss Voigt Hill
#
# Bulk Modulus (GPa) = 25.30990 34.61075 29.96033
# Shear Modulus (GPa) = 29.22030 37.18112 33.20071
#
# Velocity S-wave (km/s) = 3.67055 4.14047 3.91257
# Velocity P-wave (km/s) = 5.44369 6.23028 5.85022
#
# Compressibility (1/GPa) = 0.03951023
#
# Stress axis : x y z
#
# Youngs Moduli (GPa) = 65.69867 47.02668 80.59508
#
# Poissons Ratio (x) = 0.18747 -0.12419
# Poissons Ratio (y) = 0.26190 0.18103
# Poissons Ratio (z) = -0.10124 0.10563
#
# Static dielectric constant tensor:
#      x y z
#    x 3.882520 0.253010 -0.175030 
#    y 0.253010 3.801070 -0.049610 
#    z -0.175030 -0.049610 4.456290 
# 
# 
# High freq. dielectric constant tensor:
#      x y z
#    x 1.848310 0.020830 -0.003570 
#    y 0.020830 1.834970 0.006410 
#    z -0.003570 0.006410 1.883400 
# 
# From -- ./inp_files/617714.got.cif
#   From: 2010.06.25/outbox.cif.g09.slc.cpg/sg2_309_cif.got.tgz:617714.got - 2010.06.27 13:26:56.
