data_PCOD8005877
_publ_section_title
;
Structure prediction by ZEFSAII (Michael W. Deem and Ramdas Pophale) SiO2 
 PCOD8005877
Probable space group: P -1
;
_chemical_formula_sum "Si O2"
_cell_formula_units_Z 16
_cell_length_a 11.487795
_cell_length_b 14.840889
_cell_length_c 13.807358
_cell_angle_alpha 34.427680
_cell_angle_beta 120.848290
_cell_angle_gamma 142.149153
_cell_volume 748.692488
_symmetry_space_group_name_H-M "P -1"
_symmetry_group_IT_number 2
_symmetry_cell_setting 'triclinic'
loop_
_space_group_symop_operation_xyz
x,y,z
-x,-y,-z
loop_
_atom_site_type_symbol
_atom_site_label
_atom_site_fract_x
_atom_site_fract_y
_atom_site_fract_z
Si Si1 0.780237 0.921454 0.209860
Si Si2 0.503482 0.873341 0.261828
Si Si3 0.563346 0.296888 0.885824
Si Si4 0.312187 0.024353 0.361403
Si Si5 0.952826 0.741078 0.146215
Si Si6 0.588851 0.206884 0.485140
Si Si7 0.149937 0.377591 0.435898
Si Si8 0.300247 0.178746 0.031246
O O1 0.713803 0.975399 0.223249
O O2 0.585896 0.735105 0.220602
O O3 0.839683 0.800184 0.379700
O O4 0.971090 0.166563 0.013652
O O5 0.501164 0.851727 0.394795
O O6 0.298543 0.611333 0.362156
O O7 0.508276 0.061711 0.065716
O O8 0.791374 0.534458 0.729919
O O9 0.526497 0.341126 0.937282
O O10 0.427402 0.990350 0.378861
O O11 0.082823 0.768387 0.521286
O O12 0.446986 0.186868 0.369553
O O13 0.306289 0.170283 0.157330
O O14 0.830307 0.467844 0.347456
O O15 0.783663 0.723476 0.120764
O O16 0.141992 0.908575 0.154969
#
# Coordination Sequence:
#
# PCOD8005877 Si02
#       8
#     2   2   2   2   2   2   2   2
#     4  10  21  37  59  96 123 146 194 250 301 352
#     4  11  22  38  62  92 118 157 200 243 299 354
#     4  10  21  35  61  95 119 150 193 251 298 350
#     4  11  24  44  57  86 122 160 205 242 298 348
#     4  10  22  37  65  92 116 155 194 251 300 352
#     4  11  26  40  61  84 123 163 198 249 291 352
#     4  11  22  38  65  87 122 156 193 254 297 350
#     4  10  20  39  63  92 118 145 206 245 297 357
#
# _framework density 21.370588999999999
#
# number of rings (size 3 to 8) (size 9 to 14) (size 15 to 20)
#    0.000    1.500    2.500    3.750   10.500    1.500 
#    0.000    2.500    0.000    0.000    0.000    0.000 
#    0.000    0.000    0.000    0.000    0.000    0.000 
#
# Total GULP energy -198367.921980 kJ/mol
# GULP energy per Si atom -12397.995124 kJ/mol
# Density = 2.132195 g / cm^3
# Si number density = 21.370589 Si / 1000 Ang^3
#
#
#
# Elastic Constant Matrix: (Units=GPa)
#
#
# Indices 1 2 3 4 5 6 
#
# 1 114.8853 17.6504 15.3675 6.8696 -30.6790 -8.4170
# 2 17.6504 67.9788 12.4026 15.3008 -17.5030 -4.0928
# 3 15.3675 12.4026 62.8065 15.8464 -22.4362 -6.2103
# 4 6.8696 15.3008 15.8464 20.5958 -5.8746 0.2839
# 5 -30.6790 -17.5030 -22.4362 -5.8746 37.0697 12.8883
# 6 -8.4170 -4.0928 -6.2103 0.2839 12.8883 19.3956
#
#
#
# Elastic Compliance Matrix: (Units=1/GPa)
#
#
# Indices 1 2 3 4 5 6 
#
# 1 0.011299 -0.000259 0.001179 -0.001542 0.010238 -0.001555
# 2 -0.000259 0.019674 0.002826 -0.014193 0.008771 -0.000677
# 3 0.001179 0.002826 0.024608 -0.017243 0.014642 -0.000490
# 4 -0.001542 -0.014193 -0.017243 0.071681 -0.004545 -0.007214
# 5 0.010238 0.008771 0.014642 -0.004545 0.057078 -0.026879
# 6 -0.001555 -0.000677 -0.000490 -0.007214 -0.026879 0.068550
#
#
# Mechanical properties :
#
#
# Convention : Reuss Voigt Hill
#
# Bulk Modulus (GPa) = 15.85491 37.39021 26.62256
# Shear Modulus (GPa) = 18.76715 28.76223 23.76469
#
# Velocity S-wave (km/s) = 2.96662 3.67260 3.33833
# Velocity P-wave (km/s) = 4.37831 5.95971 5.22913
#
# Compressibility (1/GPa) = 0.06307193
#
# Stress axis : x y z
#
# Youngs Moduli (GPa) = 88.50505 50.82751 40.63759
#
# Poissons Ratio (x) = 0.01318 -0.04792
# Poissons Ratio (y) = 0.02295 -0.11482
# Poissons Ratio (z) = -0.10437 -0.14361
#
# Static dielectric constant tensor:
#      x y z
#    x 4.218770 -0.069740 -0.288620 
#    y -0.069740 3.575800 0.186600 
#    z -0.288620 0.186600 3.839610 
# 
# 
# High freq. dielectric constant tensor:
#      x y z
#    x 1.858050 -0.003020 -0.010540 
#    y -0.003020 1.791890 0.021260 
#    z -0.010540 0.021260 1.838920 
# 
# From -- ./inp_files/329074.got.cif
#   From: 2010.06.25/outbox.cif.g09.slc.cpg/sg2_165_cif.got.tgz:329074.got - 2010.06.27 13:26:56.
