data_PCOD8005472
_publ_section_title
;
Structure prediction by ZEFSAII (Michael W. Deem and Ramdas Pophale) SiO2 
 PCOD8005472
Probable space group: P -1
;
_chemical_formula_sum "Si O2"
_cell_formula_units_Z 16
_cell_length_a 20.873122
_cell_length_b 7.860123
_cell_length_c 9.533200
_cell_angle_alpha 114.568812
_cell_angle_beta 136.013909
_cell_angle_gamma 55.743336
_cell_volume 897.628507
_symmetry_space_group_name_H-M "P -1"
_symmetry_group_IT_number 2
_symmetry_cell_setting 'triclinic'
loop_
_space_group_symop_operation_xyz
x,y,z
-x,-y,-z
loop_
_atom_site_type_symbol
_atom_site_label
_atom_site_fract_x
_atom_site_fract_y
_atom_site_fract_z
Si Si1 0.726495 0.944725 0.304682
Si Si2 0.523877 0.662351 0.684075
Si Si3 0.533544 0.307521 0.084299
Si Si4 0.768919 0.694154 0.719754
Si Si5 0.879077 0.891674 0.759995
Si Si6 0.400956 0.118553 0.683908
Si Si7 0.733492 0.688187 0.965378
Si Si8 0.112558 0.679473 0.051711
O O1 0.829105 0.912230 0.535323
O O2 0.663247 0.852429 0.266030
O O3 0.655638 0.188308 0.252028
O O4 0.754890 0.824204 0.162537
O O5 0.500000 0.500000 0.500000
O O6 0.522057 0.613361 0.828610
O O7 0.632726 0.651911 0.812890
O O8 0.436580 0.890812 0.595846
O O9 0.500000 0.500000 0.000000
O O10 0.500054 0.147696 0.895756
O O11 0.824322 0.814841 0.766238
O O12 0.669252 0.714802 0.482510
O O13 0.730715 0.798064 0.848037
O O14 0.841621 0.450612 0.775841
O O15 0.869780 0.115437 0.862795
O O16 0.994565 0.727553 0.874356
O O17 0.828940 0.463126 0.037029
#
# Coordination Sequence:
#
# PCOD8005472 Si02
#       8
#     2   2   2   2   2   2   2   2
#     4  10  20  39  57  80 112 154 189 230 288 345
#     4  11  23  37  57  84 121 154 192 237 287 341
#     4  11  23  36  56  83 117 158 191 230 281 350
#     4   9  22  34  63  84 114 147 195 234 284 347
#     4  10  20  41  65  81 111 155 192 239 294 344
#     4  10  20  39  57  78 115 160 188 228 283 348
#     4  10  21  38  54  85 119 142 194 243 281 340
#     4   9  22  38  63  86 114 144 198 243 287 348
#
# _framework density 17.824745
#
# number of rings (size 3 to 8) (size 9 to 14) (size 15 to 20)
#    0.750    1.250    2.500    1.125    8.750    2.000 
#    0.000    0.000    0.000    1.500    0.000    0.000 
#    0.000    0.000    0.000    0.000    0.000    0.000 
#
# Total GULP energy -198293.176402 kJ/mol
# GULP energy per Si atom -12393.323525 kJ/mol
# Density = 1.778418 g / cm^3
# Si number density = 17.824745 Si / 1000 Ang^3
#
#
#
# Elastic Constant Matrix: (Units=GPa)
#
#
# Indices 1 2 3 4 5 6 
#
# 1 95.6326 44.0819 50.2286 -3.3653 -9.5245 -10.3742
# 2 44.0819 92.6863 52.6398 -15.4683 -11.0863 -3.9814
# 3 50.2286 52.6398 113.1510 -10.4985 -7.8171 -9.8119
# 4 -3.3653 -15.4683 -10.4985 39.8036 -1.4486 -2.8136
# 5 -9.5245 -11.0863 -7.8171 -1.4486 25.5408 0.6013
# 6 -10.3742 -3.9814 -9.8119 -2.8136 0.6013 26.9588
#
#
#
# Elastic Compliance Matrix: (Units=1/GPa)
#
#
# Indices 1 2 3 4 5 6 
#
# 1 0.015454 -0.004686 -0.004347 -0.001333 0.002241 0.003484
# 2 -0.004686 0.017369 -0.005284 0.005071 0.004480 -0.000732
# 3 -0.004347 -0.005284 0.013598 0.001361 0.000263 0.002632
# 4 -0.001333 0.005071 0.001361 0.027722 0.003610 0.003544
# 5 0.002241 0.004480 0.000263 0.003610 0.042193 0.001055
# 6 0.003484 -0.000732 0.002632 0.003544 0.001055 0.039630
#
#
# Mechanical properties :
#
#
# Convention : Reuss Voigt Hill
#
# Bulk Modulus (GPa) = 56.21739 66.15227 61.18483
# Shear Modulus (GPa) = 26.24246 28.76194 27.50220
#
# Velocity S-wave (km/s) = 3.84115 4.02132 3.93227
# Velocity P-wave (km/s) = 7.16101 7.66515 7.41736
#
# Compressibility (1/GPa) = 0.01778809
#
# Stress axis : x y z
#
# Youngs Moduli (GPa) = 64.70821 57.57262 73.53897
#
# Poissons Ratio (x) = 0.26978 0.31967
# Poissons Ratio (y) = 0.30322 0.38857
# Poissons Ratio (z) = 0.28128 0.30420
#
# Static dielectric constant tensor:
#      x y z
#    x 3.274980 -0.021810 0.080540 
#    y -0.021810 3.347560 -0.078880 
#    z 0.080540 -0.078880 3.524190 
# 
# 
# High freq. dielectric constant tensor:
#      x y z
#    x 1.683580 -0.002780 0.000410 
#    y -0.002780 1.687420 -0.010710 
#    z 0.000410 -0.010710 1.691750 
# 
# From -- ./inp_files/208171.got.cif
#   From: 2010.06.25/outbox.cif.g09.slc.cpg/sg2_105_cif.got.tgz:208171.got - 2010.06.27 13:26:56.
