data_PCOD8005872
_publ_section_title
;
Structure prediction by ZEFSAII (Michael W. Deem and Ramdas Pophale) SiO2 
 PCOD8005872
Probable space group: P -1
;
_chemical_formula_sum "Si O2"
_cell_formula_units_Z 16
_cell_length_a 9.075642
_cell_length_b 22.469114
_cell_length_c 6.477324
_cell_angle_alpha 82.978341
_cell_angle_beta 55.600246
_cell_angle_gamma 47.166700
_cell_volume 720.521369
_symmetry_space_group_name_H-M "P -1"
_symmetry_group_IT_number 2
_symmetry_cell_setting 'triclinic'
loop_
_space_group_symop_operation_xyz
x,y,z
-x,-y,-z
loop_
_atom_site_type_symbol
_atom_site_label
_atom_site_fract_x
_atom_site_fract_y
_atom_site_fract_z
Si Si1 0.881263 0.085028 0.178549
Si Si2 0.196428 0.096751 0.663087
Si Si3 0.120203 0.604713 0.926801
Si Si4 0.177207 0.847554 0.406549
Si Si5 0.422149 0.323065 0.581273
Si Si6 0.564345 0.403762 0.642414
Si Si7 0.574187 0.755511 0.754977
Si Si8 0.028552 0.718875 0.301867
O O1 0.902383 0.075295 0.416380
O O2 0.568313 0.166243 0.335942
O O3 0.022177 0.110219 0.974026
O O4 0.000000 0.000000 0.000000
O O5 0.097247 0.101803 0.511010
O O6 0.145193 0.180624 0.676606
O O7 0.500000 0.000000 0.500000
O O8 0.325196 0.502593 0.890328
O O9 0.223982 0.603755 0.626648
O O10 0.125598 0.660267 0.048302
O O11 0.825337 0.648894 0.121307
O O12 0.293259 0.770783 0.511400
O O13 0.410581 0.799272 0.076550
O O14 0.422173 0.393955 0.596416
O O15 0.406628 0.314508 0.347434
O O16 0.715216 0.328617 0.737438
O O17 0.859082 0.715063 0.580004
#
# Coordination Sequence:
#
# PCOD8005872 Si02
#       8
#     2   2   2   2   2   2   2   2
#     4  10  22  41  62  89 122 162 212 265 319 381
#     4  11  24  39  62  95 126 166 215 264 323 380
#     4  10  24  39  62  99 131 168 219 266 320 391
#     4  10  21  40  64  89 120 167 213 258 324 385
#     4  10  20  39  63  91 128 169 213 263 321 384
#     4  11  22  39  65  93 131 176 214 265 327 378
#     4   9  21  37  61  90 120 166 212 258 322 377
#     4  11  22  41  64  91 132 167 213 269 320 386
#
# _framework density 22.206140000000001
#
# number of rings (size 3 to 8) (size 9 to 14) (size 15 to 20)
#    0.000    1.750    1.250    2.250    5.250    2.500 
#    0.000    2.500    0.000    8.250    0.000    0.000 
#    0.000    0.000    0.000    0.000    0.000    0.000 
#
# Total GULP energy -198234.502392 kJ/mol
# GULP energy per Si atom -12389.656400 kJ/mol
# Density = 2.215560 g / cm^3
# Si number density = 22.206140 Si / 1000 Ang^3
#
#
#
# Elastic Constant Matrix: (Units=GPa)
#
#
# Indices 1 2 3 4 5 6 
#
# 1 118.4252 47.9324 51.9991 13.2217 19.0189 4.6421
# 2 47.9324 111.5098 37.4295 21.6816 11.5305 3.5760
# 3 51.9991 37.4295 104.3222 15.7066 21.0568 2.7050
# 4 13.2217 21.6816 15.7066 33.8701 6.9060 2.8019
# 5 19.0189 11.5305 21.0568 6.9060 35.7353 8.5478
# 6 4.6421 3.5760 2.7050 2.8019 8.5478 36.6729
#
#
#
# Elastic Compliance Matrix: (Units=1/GPa)
#
#
# Indices 1 2 3 4 5 6 
#
# 1 0.012190 -0.003529 -0.004248 0.000061 -0.002801 -0.000237
# 2 -0.003529 0.012164 -0.001786 -0.005591 0.000137 -0.000212
# 3 -0.004248 -0.001786 0.013720 -0.002631 -0.004994 0.001065
# 4 0.000061 -0.005591 -0.002631 0.035045 -0.003161 -0.001209
# 5 -0.002801 0.000137 -0.004994 -0.003161 0.034690 -0.007135
# 6 -0.000237 -0.000212 0.001065 -0.001209 -0.007135 0.028996
#
#
# Mechanical properties :
#
#
# Convention : Reuss Voigt Hill
#
# Bulk Modulus (GPa) = 52.77040 67.66435 60.21737
# Shear Modulus (GPa) = 30.81766 34.38207 32.59986
#
# Velocity S-wave (km/s) = 3.72936 3.93913 3.83568
# Velocity P-wave (km/s) = 6.50843 7.15724 6.84053
#
# Compressibility (1/GPa) = 0.01895002
#
# Stress axis : x y z
#
# Youngs Moduli (GPa) = 82.03601 82.21115 72.88603
#
# Poissons Ratio (x) = 0.29009 0.30959
# Poissons Ratio (y) = 0.28947 0.13015
# Poissons Ratio (z) = 0.34845 0.14680
#
# Static dielectric constant tensor:
#      x y z
#    x 4.204620 -0.108420 0.163620 
#    y -0.108420 3.954370 0.177900 
#    z 0.163620 0.177900 4.093120 
# 
# 
# High freq. dielectric constant tensor:
#      x y z
#    x 1.878740 -0.002350 0.007650 
#    y -0.002350 1.862240 0.017560 
#    z 0.007650 0.017560 1.874710 
# 
# From -- ./inp_files/55473.got.cif
#   From: 2010.06.25/outbox.cif.g09.slc.cpg/sg2_28_cif.got.tgz:55473.got - 2010.06.27 13:26:56.
