data_PCOD8005166
_publ_section_title
;
Structure prediction by ZEFSAII (Michael W. Deem and Ramdas Pophale) SiO2 
 PCOD8005166
Probable space group: P -1
;
_chemical_formula_sum "Si O2"
_cell_formula_units_Z 12
_cell_length_a 12.370721
_cell_length_b 7.112923
_cell_length_c 7.502317
_cell_angle_alpha 121.027689
_cell_angle_beta 66.107628
_cell_angle_gamma 84.712190
_cell_volume 477.542267
_symmetry_space_group_name_H-M "P -1"
_symmetry_group_IT_number 2
_symmetry_cell_setting 'triclinic'
loop_
_space_group_symop_operation_xyz
x,y,z
-x,-y,-z
loop_
_atom_site_type_symbol
_atom_site_label
_atom_site_fract_x
_atom_site_fract_y
_atom_site_fract_z
Si Si1 0.452425 0.778938 0.625945
Si Si2 0.173088 0.936534 0.981345
Si Si3 0.636014 0.019951 0.587511
Si Si4 0.164799 0.828406 0.311895
Si Si5 0.085580 0.672995 0.621792
Si Si6 0.897300 0.686756 0.283046
O O1 0.500000 0.500000 0.500000
O O2 0.316148 0.928169 0.880486
O O3 0.548875 0.900527 0.689595
O O4 0.443225 0.807996 0.432264
O O5 0.147611 0.835301 0.761820
O O6 0.157061 0.777181 0.081417
O O7 0.069315 0.204023 0.207093
O O8 0.691829 0.168238 0.754962
O O9 0.762403 0.798038 0.320863
O O10 0.061512 0.094759 0.574789
O O11 0.140347 0.637172 0.364404
O O12 0.126395 0.421862 0.567798
O O13 0.000000 0.500000 0.000000
#
# Coordination Sequence:
#
# PCOD8005166 Si02
#       6
#     2   2   2   2   2   2
#     4  11  21  40  65  85 121 167 206 248 310 357
#     4  11  22  39  65  90 123 167 201 255 305 358
#     4   9  22  38  60  92 121 155 208 252 294 371
#     4  10  23  40  59  96 128 151 208 256 302 363
#     4  11  21  40  65  90 129 160 200 252 310 362
#     4  10  20  38  65  89 124 161 199 248 308 364
#
# _framework density 25.128665000000002
#
# number of rings (size 3 to 8) (size 9 to 14) (size 15 to 20)
#    1.000    0.667    1.667    4.500    0.000    1.333 
#    0.000    7.500    0.000    0.000    0.000    0.000 
#    0.000    0.000    0.000    0.000    0.000    0.000 
#
# Total GULP energy -148703.496020 kJ/mol
# GULP energy per Si atom -12391.958002 kJ/mol
# Density = 2.507147 g / cm^3
# Si number density = 25.128665 Si / 1000 Ang^3
#
#
#
# Elastic Constant Matrix: (Units=GPa)
#
#
# Indices 1 2 3 4 5 6 
#
# 1 67.9724 17.0693 33.6315 4.8627 -25.2584 0.3638
# 2 17.0693 142.9340 11.1707 -13.2850 -13.2332 -8.4368
# 3 33.6315 11.1707 67.6209 -13.7447 -29.0096 -7.9290
# 4 4.8627 -13.2850 -13.7447 36.1193 -11.7305 -1.3390
# 5 -25.2584 -13.2332 -29.0096 -11.7305 39.9930 -11.2280
# 6 0.3638 -8.4368 -7.9290 -1.3390 -11.2280 37.4981
#
#
#
# Elastic Compliance Matrix: (Units=1/GPa)
#
#
# Indices 1 2 3 4 5 6 
#
# 1 0.022560 -0.002730 -0.012976 -0.009058 0.000197 -0.003842
# 2 -0.002730 0.009712 0.010032 0.013047 0.015219 0.009356
# 3 -0.012976 0.010032 0.063995 0.053245 0.067869 0.038138
# 4 -0.009058 0.013047 0.053245 0.078443 0.070990 0.038340
# 5 0.000197 0.015219 0.067869 0.070990 0.115639 0.054934
# 6 -0.003842 0.009356 0.038138 0.038340 0.054934 0.054692
#
#
# Mechanical properties :
#
#
# Convention : Reuss Voigt Hill
#
# Bulk Modulus (GPa) = 11.77619 44.69670 28.23644
# Shear Modulus (GPa) = 12.99724 37.16578 25.08151
#
# Velocity S-wave (km/s) = 2.27673 3.84997 3.16274
# Velocity P-wave (km/s) = 3.40703 6.13097 4.95967
#
# Compressibility (1/GPa) = 0.08491714
#
# Stress axis : x y z
#
# Youngs Moduli (GPa) = 44.32713 102.96307 15.62616
#
# Poissons Ratio (x) = 0.28113 0.20277
# Poissons Ratio (y) = 0.12103 -0.15676
# Poissons Ratio (z) = 0.57520 -1.03289
#
# Static dielectric constant tensor:
#      x y z
#    x 4.735540 -0.229960 -0.348550 
#    y -0.229960 4.619620 -0.224590 
#    z -0.348550 -0.224590 4.067380 
# 
# 
# High freq. dielectric constant tensor:
#      x y z
#    x 2.014740 -0.010330 -0.024880 
#    y -0.010330 2.008690 -0.025800 
#    z -0.024880 -0.025800 1.964730 
# 
# From -- ./inp_files/295705.got.cif
#   From: 2010.06.25/outbox.cif.g09.slc.cpg/sg2_148_cif.got.tgz:295705.got - 2010.06.27 13:26:56.
