data_PCOD8005272
_publ_section_title
;
Structure prediction by ZEFSAII (Michael W. Deem and Ramdas Pophale) SiO2 
 PCOD8005272
Probable space group: P -1
;
_chemical_formula_sum "Si O2"
_cell_formula_units_Z 16
_cell_length_a 10.438128
_cell_length_b 13.365328
_cell_length_c 13.180037
_cell_angle_alpha 48.891776
_cell_angle_beta 46.716401
_cell_angle_gamma 33.697286
_cell_volume 725.167111
_symmetry_space_group_name_H-M "P -1"
_symmetry_group_IT_number 2
_symmetry_cell_setting 'triclinic'
loop_
_space_group_symop_operation_xyz
x,y,z
-x,-y,-z
loop_
_atom_site_type_symbol
_atom_site_label
_atom_site_fract_x
_atom_site_fract_y
_atom_site_fract_z
Si Si1 0.295459 0.835498 0.370058
Si Si2 0.286242 0.424787 0.922545
Si Si3 0.185946 0.773831 0.266717
Si Si4 0.802389 0.509483 0.654141
Si Si5 0.679541 0.807947 0.083301
Si Si6 0.734515 0.174496 0.218870
Si Si7 0.146908 0.763137 0.678335
Si Si8 0.876994 0.359745 0.932967
O O1 0.172252 0.799383 0.378973
O O2 0.556129 0.754756 0.249243
O O3 0.342328 0.727776 0.519430
O O4 0.121458 0.055501 0.339715
O O5 0.584359 0.258083 0.873487
O O6 0.178668 0.342231 0.987504
O O7 0.202561 0.579863 0.783027
O O8 0.225542 0.479329 0.037415
O O9 0.241825 0.592008 0.328264
O O10 0.924439 0.955459 0.235199
O O11 0.545342 0.722649 0.673383
O O12 0.895505 0.410264 0.778078
O O13 0.000000 0.500000 0.500000
O O14 0.847277 0.808801 0.064620
O O15 0.500000 0.000000 0.000000
O O16 0.850027 0.181767 0.248049
O O17 0.732075 0.293957 0.054750
#
# Coordination Sequence:
#
# PCOD8005272 Si02
#       8
#     2   2   2   2   2   2   2   2
#     4   9  20  34  62  95 126 167 203 259 321 376
#     4  10  20  38  66  90 123 166 208 261 313 379
#     4  10  21  41  66  92 124 169 212 257 317 369
#     4  12  27  44  64  92 130 165 215 267 309 374
#     4  11  22  37  58  96 135 156 210 261 317 372
#     4  10  22  44  67  88 129 163 217 261 307 383
#     4   9  17  36  63  93 123 164 211 256 318 374
#     4  11  23  41  65  95 124 171 209 257 319 373
#
# _framework density 22.063879
#
# number of rings (size 3 to 8) (size 9 to 14) (size 15 to 20)
#    0.000    1.750    2.500    3.750    1.750    4.000 
#    2.250    2.500    0.000    0.000    0.000    0.000 
#    0.000    0.000    0.000    0.000    0.000    0.000 
#
# Total GULP energy -198249.841780 kJ/mol
# GULP energy per Si atom -12390.615111 kJ/mol
# Density = 2.201366 g / cm^3
# Si number density = 22.063879 Si / 1000 Ang^3
#
#
#
# Elastic Constant Matrix: (Units=GPa)
#
#
# Indices 1 2 3 4 5 6 
#
# 1 30.8608 7.9946 15.6448 -2.0937 -6.9558 -0.7999
# 2 7.9946 94.6573 24.8079 -4.6706 8.3955 -7.7365
# 3 15.6448 24.8079 133.4311 12.2602 10.8972 -2.2831
# 4 -2.0937 -4.6706 12.2602 26.3840 -4.0079 -4.3122
# 5 -6.9558 8.3955 10.8972 -4.0079 26.5084 2.7461
# 6 -0.7999 -7.7365 -2.2831 -4.3122 2.7461 32.9451
#
#
#
# Elastic Compliance Matrix: (Units=1/GPa)
#
#
# Indices 1 2 3 4 5 6 
#
# 1 0.040183 -0.002768 -0.006159 0.007809 0.015169 -0.000343
# 2 -0.002768 0.012002 -0.001796 0.002712 -0.003720 0.003292
# 3 -0.006159 -0.001796 0.009599 -0.006201 -0.005908 -0.000225
# 4 0.007809 0.002712 -0.006201 0.044261 0.009875 0.005367
# 5 0.015169 -0.003720 -0.005908 0.009875 0.047172 -0.003554
# 6 -0.000343 0.003292 -0.000225 0.005367 -0.003554 0.032101
#
#
# Mechanical properties :
#
#
# Convention : Reuss Voigt Hill
#
# Bulk Modulus (GPa) = 24.79059 39.53819 32.16439
# Shear Modulus (GPa) = 22.70571 31.20094 26.95333
#
# Velocity S-wave (km/s) = 3.21142 3.76456 3.49894
# Velocity P-wave (km/s) = 5.00112 6.07080 5.56174
#
# Compressibility (1/GPa) = 0.04033789
#
# Stress axis : x y z
#
# Youngs Moduli (GPa) = 24.88634 83.32156 104.17766
#
# Poissons Ratio (x) = 0.23061 0.64163
# Poissons Ratio (y) = 0.06888 0.18710
# Poissons Ratio (z) = 0.15328 0.14964
#
# Static dielectric constant tensor:
#      x y z
#    x 3.844150 -0.058350 -0.019610 
#    y -0.058350 4.601130 0.134350 
#    z -0.019610 0.134350 4.142450 
# 
# 
# High freq. dielectric constant tensor:
#      x y z
#    x 1.841780 -0.006100 0.005930 
#    y -0.006100 1.886930 0.013520 
#    z 0.005930 0.013520 1.857930 
# 
# From -- ./inp_files/521451.got.cif
#   From: 2010.06.25/outbox.cif.g09.slc.cpg/sg2_261_cif.got.tgz:521451.got - 2010.06.27 13:26:56.
