data_PCOD8005936
_publ_section_title
;
Structure prediction by ZEFSAII (Michael W. Deem and Ramdas Pophale) SiO2 
 PCOD8005936
Probable space group: P -1
;
_chemical_formula_sum "Si O2"
_cell_formula_units_Z 16
_cell_length_a 9.956568
_cell_length_b 14.693784
_cell_length_c 13.413729
_cell_angle_alpha 32.231566
_cell_angle_beta 111.472601
_cell_angle_gamma 92.615854
_cell_volume 824.774272
_symmetry_space_group_name_H-M "P -1"
_symmetry_group_IT_number 2
_symmetry_cell_setting 'triclinic'
loop_
_space_group_symop_operation_xyz
x,y,z
-x,-y,-z
loop_
_atom_site_type_symbol
_atom_site_label
_atom_site_fract_x
_atom_site_fract_y
_atom_site_fract_z
Si Si1 0.543843 0.778392 0.203228
Si Si2 0.301366 0.758237 0.019712
Si Si3 0.981257 0.075449 0.536314
Si Si4 0.258311 0.070863 0.349172
Si Si5 0.896965 0.491489 0.193219
Si Si6 0.626906 0.674695 0.113332
Si Si7 0.743422 0.585882 0.630449
Si Si8 0.444643 0.076975 0.574747
O O1 0.367213 0.793328 0.111023
O O2 0.678882 0.671601 0.246720
O O3 0.617405 0.655072 0.438460
O O4 0.500000 0.000000 0.000000
O O5 0.467692 0.640247 0.100509
O O6 0.209499 0.636022 0.121969
O O7 0.164068 0.973405 0.735067
O O8 0.899012 0.316659 0.290640
O O9 0.868468 0.007413 0.628129
O O10 0.000000 0.000000 0.500000
O O11 0.308737 0.051894 0.497210
O O12 0.424805 0.917792 0.472103
O O13 0.181579 0.303338 0.080998
O O14 0.786995 0.515033 0.239924
O O15 0.086094 0.420556 0.346356
O O16 0.552815 0.898949 0.845975
O O17 0.655330 0.718709 0.580363
#
# Coordination Sequence:
#
# PCOD8005936 Si02
#       8
#     2   2   2   2   2   2   2   2
#     4  10  20  39  64  86 118 165 206 251 307 360
#     4  10  23  39  58  93 120 158 210 246 302 376
#     4  12  24  40  64  91 126 165 208 248 307 362
#     4  10  23  41  59  94 127 161 200 259 300 373
#     4  11  24  40  63  93 127 160 204 255 308 357
#     4   9  21  41  60  89 123 156 207 248 301 370
#     4  12  21  38  66  88 122 165 203 259 306 360
#     4  10  21  40  63  87 126 162 204 246 317 360
#
# _framework density 19.399246999999999
#
# number of rings (size 3 to 8) (size 9 to 14) (size 15 to 20)
#    0.750    0.750    2.500    3.375    3.500    1.500 
#    0.000    2.500    0.000    2.250    0.000    0.000 
#    0.000    0.000    0.000    0.000    0.000    0.000 
#
# Total GULP energy -198310.850211 kJ/mol
# GULP energy per Si atom -12394.428138 kJ/mol
# Density = 1.935509 g / cm^3
# Si number density = 19.399247 Si / 1000 Ang^3
#
#
#
# Elastic Constant Matrix: (Units=GPa)
#
#
# Indices 1 2 3 4 5 6 
#
# 1 104.9016 48.0352 27.3051 -10.9089 6.6722 6.4315
# 2 48.0352 94.6926 23.5245 -3.8357 11.0020 -3.9961
# 3 27.3051 23.5245 67.0056 -7.8680 5.0497 1.5611
# 4 -10.9089 -3.8357 -7.8680 37.6617 4.6231 -2.4422
# 5 6.6722 11.0020 5.0497 4.6231 30.9890 -0.7200
# 6 6.4315 -3.9961 1.5611 -2.4422 -0.7200 29.8955
#
#
#
# Elastic Compliance Matrix: (Units=1/GPa)
#
#
# Indices 1 2 3 4 5 6 
#
# 1 0.013638 -0.006135 -0.002966 0.002575 -0.000738 -0.003406
# 2 -0.006135 0.014838 -0.002548 -0.000160 -0.003431 0.003341
# 3 -0.002966 -0.002548 0.017486 0.002718 -0.001722 -0.000435
# 4 0.002575 -0.000160 0.002718 0.028581 -0.005170 0.001493
# 5 -0.000738 -0.003431 -0.001722 -0.005170 0.034703 0.000204
# 6 -0.003406 0.003341 -0.000435 0.001493 0.000204 0.034779
#
#
# Mechanical properties :
#
#
# Convention : Reuss Voigt Hill
#
# Bulk Modulus (GPa) = 44.12056 51.59215 47.85635
# Shear Modulus (GPa) = 28.59145 30.89159 29.74152
#
# Velocity S-wave (km/s) = 3.84323 3.99483 3.91977
# Velocity P-wave (km/s) = 6.51818 6.92322 6.72375
#
# Compressibility (1/GPa) = 0.02266517
#
# Stress axis : x y z
#
# Youngs Moduli (GPa) = 73.32667 67.39229 57.18755
#
# Poissons Ratio (x) = 0.41344 0.16963
# Poissons Ratio (y) = 0.44984 0.14570
# Poissons Ratio (z) = 0.21750 0.17169
#
# Static dielectric constant tensor:
#      x y z
#    x 3.701200 -0.144880 -0.038070 
#    y -0.144880 3.732760 0.296360 
#    z -0.038070 0.296360 3.647150 
# 
# 
# High freq. dielectric constant tensor:
#      x y z
#    x 1.759290 0.001130 -0.003350 
#    y 0.001130 1.748360 0.003540 
#    z -0.003350 0.003540 1.751160 
# 
# From -- ./inp_files/520646.got.cif
#   From: 2010.06.25/outbox.cif.g09.slc.cpg/sg2_261_cif.got.tgz:520646.got - 2010.06.27 13:26:56.
