data_PCOD8005649
_publ_section_title
;
Structure prediction by ZEFSAII (Michael W. Deem and Ramdas Pophale) SiO2 
 PCOD8005649
Probable space group: P -1
;
_chemical_formula_sum "Si O2"
_cell_formula_units_Z 14
_cell_length_a 18.481932
_cell_length_b 19.069160
_cell_length_c 12.424913
_cell_angle_alpha 27.097860
_cell_angle_beta 19.458585
_cell_angle_gamma 26.386145
_cell_volume 616.808188
_symmetry_space_group_name_H-M "P -1"
_symmetry_group_IT_number 2
_symmetry_cell_setting 'triclinic'
loop_
_space_group_symop_operation_xyz
x,y,z
-x,-y,-z
loop_
_atom_site_type_symbol
_atom_site_label
_atom_site_fract_x
_atom_site_fract_y
_atom_site_fract_z
Si Si1 0.162759 0.494386 0.681073
Si Si2 0.807025 0.940985 0.007145
Si Si3 0.879420 0.328711 0.194746
Si Si4 0.185125 0.315586 0.476194
Si Si5 0.712947 0.957422 0.452502
Si Si6 0.504223 0.549234 0.256848
Si Si7 0.917200 0.137228 0.769578
O O1 0.424502 0.427032 0.458444
O O2 0.121477 0.672251 0.446546
O O3 0.000000 0.500000 0.000000
O O4 0.103895 0.381059 0.830129
O O5 0.786125 0.790410 0.311922
O O6 0.554128 0.032404 0.181413
O O7 0.006651 0.860763 0.746001
O O8 0.895333 0.062574 0.786029
O O9 0.728852 0.445714 0.151675
O O10 0.713669 0.339774 0.514178
O O11 0.125212 0.213481 0.602341
O O12 0.000000 0.500000 0.500000
O O13 0.434490 0.326543 0.079095
O O14 0.819171 0.953651 0.427709
O O15 0.731231 0.111298 0.148892
#
# Coordination Sequence:
#
# PCOD8005649 Si02
#       7
#     2   2   2   2   2   2   2
#     4  10  21  39  63  90 122 168 215 253 309 377
#     4  11  22  40  63  97 127 162 210 264 317 377
#     4  10  22  38  62  93 125 164 215 252 312 381
#     4  11  20  37  66  96 121 165 218 262 305 377
#     4  10  22  39  63  90 136 166 200 261 330 370
#     4  10  20  39  61  87 130 164 201 266 315 356
#     4  10  21  39  63  89 130 170 204 257 324 376
#
# _framework density 22.697493000000001
#
# number of rings (size 3 to 8) (size 9 to 14) (size 15 to 20)
#    0.000    1.714    1.429    4.286    0.000    1.143 
#    2.571    7.857    0.000   12.000    0.000    0.000 
#    0.000    0.000    0.000    0.000    0.000    0.000 
#
# Total GULP energy -173469.788996 kJ/mol
# GULP energy per Si atom -12390.699214 kJ/mol
# Density = 2.264583 g / cm^3
# Si number density = 22.697493 Si / 1000 Ang^3
#
#
#
# Elastic Constant Matrix: (Units=GPa)
#
#
# Indices 1 2 3 4 5 6 
#
# 1 112.5243 18.0726 25.8575 12.7750 -37.8930 4.0901
# 2 18.0726 65.1135 11.5168 14.6836 8.5744 17.9907
# 3 25.8575 11.5168 78.0661 -1.4549 -10.1443 8.8872
# 4 12.7750 14.6836 -1.4549 33.6542 -8.2048 2.2716
# 5 -37.8930 8.5744 -10.1443 -8.2048 35.6739 -5.9976
# 6 4.0901 17.9907 8.8872 2.2716 -5.9976 20.3893
#
#
#
# Elastic Compliance Matrix: (Units=1/GPa)
#
#
# Indices 1 2 3 4 5 6 
#
# 1 0.020366 -0.014914 -0.002836 0.004368 0.028476 0.018200
# 2 -0.014914 0.039771 -0.001450 -0.017988 -0.036721 -0.040266
# 3 -0.002836 -0.001450 0.014718 0.003003 0.001461 -0.004472
# 4 0.004368 -0.017988 0.003003 0.040273 0.021699 0.015583
# 5 0.028476 -0.036721 0.001461 0.021699 0.080463 0.047303
# 6 0.018200 -0.040266 -0.004472 0.015583 0.047303 0.095051
#
#
# Mechanical properties :
#
#
# Convention : Reuss Voigt Hill
#
# Bulk Modulus (GPa) = 27.43175 40.73308 34.08242
# Shear Modulus (GPa) = 14.65442 31.29395 22.97419
#
# Velocity S-wave (km/s) = 2.54370 3.71717 3.18495
# Velocity P-wave (km/s) = 4.55404 6.03392 5.34544
#
# Compressibility (1/GPa) = 0.03645411
#
# Stress axis : x y z
#
# Youngs Moduli (GPa) = 49.10180 25.14371 67.94548
#
# Poissons Ratio (x) = 0.37501 0.19267
# Poissons Ratio (y) = 0.73233 0.09854
# Poissons Ratio (z) = 0.13924 0.03646
#
# Static dielectric constant tensor:
#      x y z
#    x 4.543400 0.146660 -0.459100 
#    y 0.146660 3.885380 -0.131280 
#    z -0.459100 -0.131280 4.363300 
# 
# 
# High freq. dielectric constant tensor:
#      x y z
#    x 1.907740 -0.005800 -0.011140 
#    y -0.005800 1.867380 -0.014870 
#    z -0.011140 -0.014870 1.903100 
# 
# From -- ./inp_files/242566.got.cif
#   From: 2010.06.25/outbox.cif.g09.slc.cpg/sg2_122_cif.got.tgz:242566.got - 2010.06.27 13:26:56.
