data_PCOD8005946
_publ_section_title
;
Structure prediction by ZEFSAII (Michael W. Deem and Ramdas Pophale) SiO2 
 PCOD8005946
Probable space group: P -1
;
_chemical_formula_sum "Si O2"
_cell_formula_units_Z 12
_cell_length_a 5.518960
_cell_length_b 19.036604
_cell_length_c 5.225475
_cell_angle_alpha 95.464876
_cell_angle_beta 91.992658
_cell_angle_gamma 57.543871
_cell_volume 461.054993
_symmetry_space_group_name_H-M "P -1"
_symmetry_group_IT_number 2
_symmetry_cell_setting 'triclinic'
loop_
_space_group_symop_operation_xyz
x,y,z
-x,-y,-z
loop_
_atom_site_type_symbol
_atom_site_label
_atom_site_fract_x
_atom_site_fract_y
_atom_site_fract_z
Si Si1 0.756531 0.904156 0.470212
Si Si2 0.742468 0.483870 0.200324
Si Si3 0.679973 0.671550 0.911611
Si Si4 0.639795 0.369553 0.472226
Si Si5 0.759993 0.746861 0.430171
Si Si6 0.151130 0.052180 0.011641
O O1 0.623939 0.846178 0.441097
O O2 0.954750 0.889889 0.225239
O O3 0.500000 0.000000 0.500000
O O4 0.951727 0.886985 0.723644
O O5 0.748190 0.430194 0.422915
O O6 0.651061 0.575788 0.343506
O O7 0.061567 0.426797 0.072564
O O8 0.500000 0.500000 0.000000
O O9 0.412569 0.666997 0.801642
O O10 0.728563 0.721732 0.707141
O O11 0.617675 0.719919 0.196169
O O12 0.897386 0.295693 0.623867
O O13 0.500000 0.000000 0.000000
O O14 0.000000 0.000000 0.000000
#
# Coordination Sequence:
#
# PCOD8005946 Si02
#       6
#     2   2   2   2   2   2
#     4  10  22  44  68  93 134 174 226 281 342 406
#     4  10  20  39  64  87 132 163 219 263 322 400
#     4  11  24  40  66  93 131 169 216 265 338 392
#     4  10  23  40  60  96 124 173 211 272 326 393
#     4  11  24  44  62  94 133 168 218 277 326 401
#     4  10  21  42  70 100 133 171 228 287 343 412
#
# _framework density 26.027260999999999
#
# number of rings (size 3 to 8) (size 9 to 14) (size 15 to 20)
#    0.000    1.667    1.667    2.000    2.333    0.667 
#   18.000    0.000    0.000    0.000    0.000    0.000 
#    0.000    0.000    0.000    0.000    0.000    0.000 
#
# Total GULP energy -148684.810210 kJ/mol
# GULP energy per Si atom -12390.400851 kJ/mol
# Density = 2.596802 g / cm^3
# Si number density = 26.027261 Si / 1000 Ang^3
#
#
#
# Elastic Constant Matrix: (Units=GPa)
#
#
# Indices 1 2 3 4 5 6 
#
# 1 63.3257 -2.4694 1.2184 3.4243 23.7541 3.0089
# 2 -2.4694 103.3307 12.6041 11.3900 9.5495 9.7976
# 3 1.2184 12.6041 175.1874 -4.5937 29.3455 10.3394
# 4 3.4243 11.3900 -4.5937 37.1802 16.4322 2.9137
# 5 23.7541 9.5495 29.3455 16.4322 40.1580 4.0931
# 6 3.0089 9.7976 10.3394 2.9137 4.0931 28.1303
#
#
#
# Elastic Compliance Matrix: (Units=1/GPa)
#
#
# Indices 1 2 3 4 5 6 
#
# 1 0.022303 0.001350 0.003036 0.006014 -0.017991 -0.001977
# 2 0.001350 0.010473 -0.000344 -0.002353 -0.001752 -0.003167
# 3 0.003036 -0.000344 0.007464 0.004868 -0.008941 -0.002152
# 4 0.006014 -0.002353 0.004868 0.037404 -0.021622 -0.002341
# 5 -0.017991 -0.001752 -0.008941 -0.021622 0.051281 0.000599
# 6 -0.001977 -0.003167 -0.002152 -0.002341 0.000599 0.037810
#
#
# Mechanical properties :
#
#
# Convention : Reuss Voigt Hill
#
# Bulk Modulus (GPa) = 20.69372 40.50557 30.59964
# Shear Modulus (GPa) = 28.61071 43.12641 35.86856
#
# Velocity S-wave (km/s) = 3.31911 4.07501 3.71632
# Velocity P-wave (km/s) = 4.75990 6.14308 5.49518
#
# Compressibility (1/GPa) = 0.04832385
#
# Stress axis : x y z
#
# Youngs Moduli (GPa) = 44.83680 95.47930 133.97327
#
# Poissons Ratio (x) = -0.12889 -0.40672
# Poissons Ratio (y) = -0.06053 0.04612
# Poissons Ratio (z) = -0.13612 0.03287
#
# Static dielectric constant tensor:
#      x y z
#    x 4.310650 0.055050 -0.717400 
#    y 0.055050 4.932790 -0.872190 
#    z -0.717400 -0.872190 8.005090 
# 
# 
# High freq. dielectric constant tensor:
#      x y z
#    x 2.017480 0.013480 0.003550 
#    y 0.013480 2.036240 -0.011180 
#    z 0.003550 -0.011180 2.063790 
# 
# From -- ./inp_files/3104.got.cif
#   From: 2010.06.25/outbox.cif.g09.slc.cpg/sg2_2_cif.got.tgz:3104.got - 2010.06.27 13:26:56.
