data_PCOD8005962
_publ_section_title
;
Structure prediction by ZEFSAII (Michael W. Deem and Ramdas Pophale) SiO2 
 PCOD8005962
Probable space group: P -1
;
_chemical_formula_sum "Si O2"
_cell_formula_units_Z 14
_cell_length_a 6.641558
_cell_length_b 20.867348
_cell_length_c 6.193414
_cell_angle_alpha 117.025061
_cell_angle_beta 108.488075
_cell_angle_gamma 53.494004
_cell_volume 613.291704
_symmetry_space_group_name_H-M "P -1"
_symmetry_group_IT_number 2
_symmetry_cell_setting 'triclinic'
loop_
_space_group_symop_operation_xyz
x,y,z
-x,-y,-z
loop_
_atom_site_type_symbol
_atom_site_label
_atom_site_fract_x
_atom_site_fract_y
_atom_site_fract_z
Si Si1 0.764765 0.561694 0.247602
Si Si2 0.568920 0.314485 0.305098
Si Si3 0.292075 0.658796 0.018837
Si Si4 0.342006 0.062525 0.732837
Si Si5 0.831075 0.185357 0.546085
Si Si6 0.097027 0.374190 0.987165
Si Si7 0.758227 0.045091 0.140872
O O1 0.612492 0.610328 0.481647
O O2 0.551771 0.570014 0.022168
O O3 0.962694 0.462951 0.214895
O O4 0.901137 0.603881 0.232767
O O5 0.773486 0.225296 0.346232
O O6 0.375687 0.308143 0.070124
O O7 0.737948 0.336906 0.244877
O O8 0.330244 0.735734 0.226181
O O9 0.061181 0.669241 0.092774
O O10 0.117345 0.143852 0.658278
O O11 0.500000 0.000000 0.500000
O O12 0.227926 0.024340 0.798497
O O13 0.510903 0.086766 0.968858
O O14 0.750507 0.116462 0.402653
O O15 0.000000 0.000000 0.000000
#
# Coordination Sequence:
#
# PCOD8005962 Si02
#       7
#     2   2   2   2   2   2   2
#     4   9  20  40  61  90 127 170 218 270 311 375
#     4  10  23  39  59  94 129 168 213 263 322 378
#     4  10  23  39  59  94 129 168 214 263 325 378
#     4  11  25  45  70  99 123 170 219 257 326 385
#     4  11  25  43  64  95 140 163 210 272 321 383
#     4  10  20  39  64  89 128 174 215 262 322 379
#     4  11  25  45  70  97 126 167 218 264 317 388
#
# _framework density 22.827636999999999
#
# number of rings (size 3 to 8) (size 9 to 14) (size 15 to 20)
#    0.000    1.714    1.429    1.286    4.000    2.857 
#    5.143    0.000    0.000    0.000    0.000    0.000 
#    0.000    0.000    0.000    0.000    0.000    0.000 
#
# Total GULP energy -173432.821690 kJ/mol
# GULP energy per Si atom -12388.058692 kJ/mol
# Density = 2.277568 g / cm^3
# Si number density = 22.827637 Si / 1000 Ang^3
#
#
#
# Elastic Constant Matrix: (Units=GPa)
#
#
# Indices 1 2 3 4 5 6 
#
# 1 122.4649 46.1704 49.1395 -11.4899 -9.6773 5.9919
# 2 46.1704 117.3933 34.3147 -24.0669 10.3954 -15.9172
# 3 49.1395 34.3147 91.4199 -3.3115 -8.0324 9.0366
# 4 -11.4899 -24.0669 -3.3115 40.4083 -2.8070 8.0351
# 5 -9.6773 10.3954 -8.0324 -2.8070 42.8304 -11.8872
# 6 5.9919 -15.9172 9.0366 8.0351 -11.8872 32.1616
#
#
#
# Elastic Compliance Matrix: (Units=1/GPa)
#
#
# Indices 1 2 3 4 5 6 
#
# 1 0.011704 -0.003461 -0.004534 0.001481 0.002119 -0.002206
# 2 -0.003461 0.013030 -0.003658 0.005127 -0.002670 0.005854
# 3 -0.004534 -0.003658 0.015265 -0.001239 0.001418 -0.004421
# 4 0.001481 0.005127 -0.001239 0.029047 -0.000589 -0.004865
# 5 0.002119 -0.002670 0.001418 -0.000589 0.026917 0.007981
# 6 -0.002206 0.005854 -0.004421 -0.004865 0.007981 0.039809
#
#
# Mechanical properties :
#
#
# Convention : Reuss Voigt Hill
#
# Bulk Modulus (GPa) = 59.90398 65.61416 62.75907
# Shear Modulus (GPa) = 30.36869 36.52364 33.44616
#
# Velocity S-wave (km/s) = 3.65135 4.00431 3.83189
# Velocity P-wave (km/s) = 6.63892 7.08414 6.86514
#
# Compressibility (1/GPa) = 0.01669338
#
# Stress axis : x y z
#
# Youngs Moduli (GPa) = 85.44007 76.74543 65.50735
#
# Poissons Ratio (x) = 0.26562 0.29702
# Poissons Ratio (y) = 0.29571 0.23963
# Poissons Ratio (z) = 0.38740 0.28074
#
# Static dielectric constant tensor:
#      x y z
#    x 4.154270 -0.218140 -0.033330 
#    y -0.218140 4.648490 -0.490180 
#    z -0.033330 -0.490180 4.230730 
# 
# 
# High freq. dielectric constant tensor:
#      x y z
#    x 1.895400 -0.014010 -0.014160 
#    y -0.014010 1.901230 -0.020680 
#    z -0.014160 -0.020680 1.898740 
# 
# From -- ./inp_files/7825.got.cif
#   From: 2010.06.25/outbox.cif.g09.slc.cpg/sg2_4_cif.got.tgz:7825.got - 2010.06.27 13:26:56.
