data_PCOD8005511
_publ_section_title
;
Structure prediction by ZEFSAII (Michael W. Deem and Ramdas Pophale) SiO2 
 PCOD8005511
Probable space group: P -1
;
_chemical_formula_sum "Si O2"
_cell_formula_units_Z 16
_cell_length_a 16.080320
_cell_length_b 11.863948
_cell_length_c 11.164914
_cell_angle_alpha 75.637981
_cell_angle_beta 156.230413
_cell_angle_gamma 106.715494
_cell_volume 821.603997
_symmetry_space_group_name_H-M "P -1"
_symmetry_group_IT_number 2
_symmetry_cell_setting 'triclinic'
loop_
_space_group_symop_operation_xyz
x,y,z
-x,-y,-z
loop_
_atom_site_type_symbol
_atom_site_label
_atom_site_fract_x
_atom_site_fract_y
_atom_site_fract_z
Si Si1 0.593018 0.681647 0.607830
Si Si2 0.254196 0.723515 0.773245
Si Si3 0.756581 0.509948 0.687782
Si Si4 0.522144 0.497002 0.890825
Si Si5 0.591964 0.126526 0.830313
Si Si6 0.921436 0.979505 0.267201
Si Si7 0.662259 0.049649 0.299120
Si Si8 0.797084 0.723701 0.108893
O O1 0.714718 0.620220 0.682939
O O2 0.385073 0.602579 0.408204
O O3 0.519402 0.796793 0.426661
O O4 0.768530 0.722593 0.928052
O O5 0.327633 0.807514 0.731976
O O6 0.009698 0.683162 0.444093
O O7 0.345467 0.604394 0.940404
O O8 0.308904 0.799539 0.944740
O O9 0.690963 0.530927 0.458519
O O10 0.000000 0.500000 0.000000
O O11 0.500000 0.500000 0.000000
O O12 0.618047 0.628168 0.949824
O O13 0.421195 0.012008 0.670972
O O14 0.780498 0.078482 0.021825
O O15 0.778798 0.851623 0.104147
O O16 0.111699 0.985737 0.423286
O O17 0.000000 0.000000 0.500000
O O18 0.500000 0.000000 0.000000
#
# Coordination Sequence:
#
# PCOD8005511 Si02
#       8
#     2   2   2   2   2   2   2   2
#     4  10  23  43  61  88 129 166 205 250 311 368
#     4  10  20  39  58  90 119 160 202 250 315 352
#     4  10  23  44  63  88 126 171 204 250 310 374
#     4  11  24  37  62  98 120 153 210 260 307 364
#     4  11  21  38  64  86 120 166 205 255 295 375
#     4  11  20  38  61  90 119 164 204 249 314 355
#     4   9  19  34  58  89 119 152 206 253 297 356
#     4  10  23  40  61  89 127 160 201 260 308 363
#
# _framework density 19.4741
#
# number of rings (size 3 to 8) (size 9 to 14) (size 15 to 20)
#    0.000    1.750    5.000    0.375    3.500    2.500 
#    0.000    2.500    0.000    0.000    0.000    0.000 
#    0.000    0.000    0.000    0.000    0.000    0.000 
#
# Total GULP energy -198259.978484 kJ/mol
# GULP energy per Si atom -12391.248655 kJ/mol
# Density = 1.942978 g / cm^3
# Si number density = 19.474100 Si / 1000 Ang^3
#
#
#
# Elastic Constant Matrix: (Units=GPa)
#
#
# Indices 1 2 3 4 5 6 
#
# 1 79.7296 31.8914 52.3218 -3.1438 -9.0822 -3.5661
# 2 31.8914 90.8898 29.9756 -9.0965 -6.4786 -19.2702
# 3 52.3218 29.9756 113.6129 -12.3336 -9.3642 -16.3587
# 4 -3.1438 -9.0965 -12.3336 36.0465 -4.7320 -3.8326
# 5 -9.0822 -6.4786 -9.3642 -4.7320 36.6307 -5.3398
# 6 -3.5661 -19.2702 -16.3587 -3.8326 -5.3398 23.4392
#
#
#
# Elastic Compliance Matrix: (Units=1/GPa)
#
#
# Indices 1 2 3 4 5 6 
#
# 1 0.021037 -0.006735 -0.009882 -0.004388 -0.000537 -0.010073
# 2 -0.006735 0.017375 0.002205 0.007086 0.005387 0.017185
# 3 -0.009882 0.002205 0.015950 0.007266 0.004962 0.013760
# 4 -0.004388 0.007086 0.007266 0.034746 0.009134 0.017992
# 5 -0.000537 0.005387 0.004962 0.009134 0.033020 0.016826
# 6 -0.010073 0.017185 0.013760 0.017992 0.016826 0.071638
#
#
# Mechanical properties :
#
#
# Convention : Reuss Voigt Hill
#
# Bulk Modulus (GPa) = 39.15783 56.95665 48.05724
# Shear Modulus (GPa) = 21.63543 30.55951 26.09747
#
# Velocity S-wave (km/s) = 3.33676 3.96566 3.66472
# Velocity P-wave (km/s) = 5.91579 7.09080 6.52978
#
# Compressibility (1/GPa) = 0.02553768
#
# Stress axis : x y z
#
# Youngs Moduli (GPa) = 47.53603 57.55371 62.69652
#
# Poissons Ratio (x) = 0.38765 0.61956
# Poissons Ratio (y) = 0.32017 -0.13827
# Poissons Ratio (z) = 0.46974 -0.12692
#
# Static dielectric constant tensor:
#      x y z
#    x 10.182070 2.033750 -3.598230 
#    y 2.033750 4.305250 -0.864960 
#    z -3.598230 -0.864960 5.653500 
# 
# 
# High freq. dielectric constant tensor:
#      x y z
#    x 1.738260 -0.001420 -0.000490 
#    y -0.001420 1.770570 -0.003030 
#    z -0.000490 -0.003030 1.764210 
# 
# From -- ./inp_files/454976.got.cif
#   From: 2010.06.25/outbox.cif.g09.slc.cpg/sg2_228_cif.got.tgz:454976.got - 2010.06.27 13:26:56.
