data_PCOD8005954
_publ_section_title
;
Structure prediction by ZEFSAII (Michael W. Deem and Ramdas Pophale) SiO2 
 PCOD8005954
Probable space group: P -1
;
_chemical_formula_sum "Si O2"
_cell_formula_units_Z 16
_cell_length_a 11.149779
_cell_length_b 11.603416
_cell_length_c 8.819710
_cell_angle_alpha 113.750089
_cell_angle_beta 59.989087
_cell_angle_gamma 132.704833
_cell_volume 722.465976
_symmetry_space_group_name_H-M "P -1"
_symmetry_group_IT_number 2
_symmetry_cell_setting 'triclinic'
loop_
_space_group_symop_operation_xyz
x,y,z
-x,-y,-z
loop_
_atom_site_type_symbol
_atom_site_label
_atom_site_fract_x
_atom_site_fract_y
_atom_site_fract_z
Si Si1 0.521875 0.795867 0.521633
Si Si2 0.052218 0.443630 0.295398
Si Si3 0.807925 0.395342 0.003839
Si Si4 0.877897 0.792863 0.811526
Si Si5 0.275198 0.836167 0.830405
Si Si6 0.672396 0.512529 0.377971
Si Si7 0.819301 0.834254 0.548231
Si Si8 0.240487 0.067584 0.828881
O O1 0.454624 0.897140 0.664603
O O2 0.351932 0.611364 0.546762
O O3 0.669053 0.833186 0.566195
O O4 0.587279 0.831844 0.327655
O O5 0.183559 0.592151 0.178289
O O6 0.151254 0.372652 0.252243
O O7 0.000000 0.500000 0.500000
O O8 0.884837 0.310820 0.237202
O O9 0.721626 0.217627 0.027391
O O10 0.703165 0.460212 0.169230
O O11 0.000000 0.500000 0.000000
O O12 0.780201 0.797630 0.731494
O O13 0.794669 0.812363 0.022479
O O14 0.082697 0.938110 0.751710
O O15 0.262902 0.981113 0.908555
O O16 0.500000 0.500000 0.500000
O O17 0.830550 0.696700 0.401704
O O18 0.000000 0.000000 0.500000
#
# Coordination Sequence:
#
# PCOD8005954 Si02
#       8
#     2   2   2   2   2   2   2   2
#     4  10  20  39  64  88 125 170 210 258 329 382
#     4  10  22  38  61  94 127 163 217 271 313 376
#     4   9  19  36  61  89 119 171 210 255 320 381
#     4  10  23  37  60  92 126 157 220 266 313 377
#     4   9  20  39  62  90 123 168 215 253 323 392
#     4   9  21  36  62  89 124 163 213 257 318 385
#     4  11  22  38  61  91 124 165 215 266 312 375
#     4  10  20  40  61  91 124 169 208 262 321 386
#
# _framework density 22.146372
#
# number of rings (size 3 to 8) (size 9 to 14) (size 15 to 20)
#    0.000    2.250    1.250    0.375    8.750    2.000 
#    0.000    5.000    0.000    1.500    0.000    0.000 
#    0.000    0.000    0.000    0.000    0.000    0.000 
#
# Total GULP energy -198246.995042 kJ/mol
# GULP energy per Si atom -12390.437190 kJ/mol
# Density = 2.209597 g / cm^3
# Si number density = 22.146372 Si / 1000 Ang^3
#
#
#
# Elastic Constant Matrix: (Units=GPa)
#
#
# Indices 1 2 3 4 5 6 
#
# 1 79.4703 28.7259 28.6349 -0.8226 -5.5859 -25.9811
# 2 28.7259 100.9603 52.1009 -5.1371 1.0438 -20.9140
# 3 28.6349 52.1009 145.2518 -19.3364 -5.3406 -27.5486
# 4 -0.8226 -5.1371 -19.3364 33.9267 -5.0679 -2.3790
# 5 -5.5859 1.0438 -5.3406 -5.0679 37.9877 -1.5877
# 6 -25.9811 -20.9140 -27.5486 -2.3790 -1.5877 30.0928
#
#
#
# Elastic Compliance Matrix: (Units=1/GPa)
#
#
# Indices 1 2 3 4 5 6 
#
# 1 0.018478 -0.002295 0.000449 0.001976 0.003739 0.015123
# 2 -0.002295 0.013225 -0.003595 0.000013 -0.001043 0.003865
# 3 0.000449 -0.003595 0.010635 0.006540 0.002879 0.008294
# 4 0.001976 0.000013 0.006540 0.034954 0.006324 0.010799
# 5 0.003739 -0.001043 0.002879 0.006324 0.028450 0.007140
# 6 0.015123 0.003865 0.008294 0.010799 0.007140 0.057797
#
#
# Mechanical properties :
#
#
# Convention : Reuss Voigt Hill
#
# Bulk Modulus (GPa) = 31.78887 60.51175 46.15031
# Shear Modulus (GPa) = 27.04069 34.81616 30.92843
#
# Velocity S-wave (km/s) = 3.49807 3.96926 3.74109
# Velocity P-wave (km/s) = 5.54080 6.95626 6.28849
#
# Compressibility (1/GPa) = 0.03145755
#
# Stress axis : x y z
#
# Youngs Moduli (GPa) = 54.11697 75.61401 94.02872
#
# Poissons Ratio (x) = 0.17351 -0.04222
# Poissons Ratio (y) = 0.12418 0.33802
# Poissons Ratio (z) = -0.02430 0.27182
#
# Static dielectric constant tensor:
#      x y z
#    x 4.248540 -0.424090 -0.012640 
#    y -0.424090 4.554580 -0.293190 
#    z -0.012640 -0.293190 4.119310 
# 
# 
# High freq. dielectric constant tensor:
#      x y z
#    x 1.866490 -0.025900 -0.014690 
#    y -0.025900 1.860590 -0.015380 
#    z -0.014690 -0.015380 1.862500 
# 
# From -- ./inp_files/259440.got.cif
#   From: 2010.06.25/outbox.cif.g09.slc.cpg/sg2_130_cif.got.tgz:259440.got - 2010.06.27 13:26:56.
