data_PCOD8005333
_publ_section_title
;
Structure prediction by ZEFSAII (Michael W. Deem and Ramdas Pophale) SiO2 
 PCOD8005333
Probable space group: P -1
;
_chemical_formula_sum "Si O2"
_cell_formula_units_Z 10
_cell_length_a 9.654677
_cell_length_b 16.132998
_cell_length_c 16.998947
_cell_angle_alpha 17.121396
_cell_angle_beta 139.439800
_cell_angle_gamma 146.089005
_cell_volume 425.790414
_symmetry_space_group_name_H-M "P -1"
_symmetry_group_IT_number 2
_symmetry_cell_setting 'triclinic'
loop_
_space_group_symop_operation_xyz
x,y,z
-x,-y,-z
loop_
_atom_site_type_symbol
_atom_site_label
_atom_site_fract_x
_atom_site_fract_y
_atom_site_fract_z
Si Si1 0.214509 0.251116 0.629705
Si Si2 0.264710 0.341952 0.313593
Si Si3 0.975955 0.172654 0.756930
Si Si4 0.425374 0.878404 0.764420
Si Si5 0.964230 0.494739 0.801972
O O1 0.500000 0.500000 0.500000
O O2 0.042378 0.379953 0.402275
O O3 0.188653 0.243790 0.719943
O O4 0.108879 0.882399 0.886197
O O5 0.256257 0.492324 0.257602
O O6 0.469620 0.235637 0.489721
O O7 0.291574 0.602344 0.024494
O O8 0.000000 0.000000 0.500000
O O9 0.000000 0.500000 0.500000
O O10 0.698506 0.938767 0.808777
O O11 0.000000 0.000000 0.000000
O O12 0.246380 0.739692 0.736328
#
# Coordination Sequence:
#
# PCOD8005333 Si02
#       5
#     2   2   2   2   2
#     4  12  28  46  70 103 143 189 230 290 355 411
#     4  10  20  38  67 109 138 173 224 285 352 408
#     4  12  29  49  70 101 145 191 232 285 355 422
#     4  11  23  42  72 104 138 184 234 288 345 414
#     4  11  23  43  72 103 140 177 239 291 347 407
#
# _framework density 23.485734000000001
#
# number of rings (size 3 to 8) (size 9 to 14) (size 15 to 20)
#    0.000    0.800    0.000    9.000    8.400    1.600 
#    0.000    0.000    0.000    0.000    0.000    0.000 
#    0.000    0.000    0.000    0.000    0.000    0.000 
#
# Total GULP energy -123998.323552 kJ/mol
# GULP energy per Si atom -12399.832355 kJ/mol
# Density = 2.343228 g / cm^3
# Si number density = 23.485734 Si / 1000 Ang^3
#
#
#
# Elastic Constant Matrix: (Units=GPa)
#
#
# Indices 1 2 3 4 5 6 
#
# 1 126.2212 56.3414 35.3503 -5.0331 -14.4342 3.2350
# 2 56.3414 117.8462 51.0251 12.1376 -6.2023 10.1629
# 3 35.3503 51.0251 146.9064 18.9587 3.7058 -4.7876
# 4 -5.0331 12.1376 18.9587 42.7090 -9.8513 3.9525
# 5 -14.4342 -6.2023 3.7058 -9.8513 45.0605 3.0987
# 6 3.2350 10.1629 -4.7876 3.9525 3.0987 37.3947
#
#
#
# Elastic Compliance Matrix: (Units=1/GPa)
#
#
# Indices 1 2 3 4 5 6 
#
# 1 0.011213 -0.004793 -0.001736 0.004464 0.004099 -0.000701
# 2 -0.004793 0.012616 -0.003012 -0.002494 0.000120 -0.003146
# 3 -0.001736 -0.003012 0.008982 -0.004248 -0.002831 0.002802
# 4 0.004464 -0.002494 -0.004248 0.028744 0.007992 -0.003953
# 5 0.004099 0.000120 -0.002831 0.007992 0.025758 -0.003729
# 6 -0.000701 -0.003146 0.002802 -0.003953 -0.003729 0.028743
#
#
# Mechanical properties :
#
#
# Convention : Reuss Voigt Hill
#
# Bulk Modulus (GPa) = 72.83965 75.15635 73.99800
# Shear Modulus (GPa) = 35.78734 41.58331 38.68532
#
# Velocity S-wave (km/s) = 3.90781 4.21239 4.06295
# Velocity P-wave (km/s) = 7.17238 7.46520 7.32026
#
# Compressibility (1/GPa) = 0.01372879
#
# Stress axis : x y z
#
# Youngs Moduli (GPa) = 89.18319 79.26588 111.33445
#
# Poissons Ratio (x) = 0.37990 0.19327
# Poissons Ratio (y) = 0.42744 0.33536
# Poissons Ratio (z) = 0.15481 0.23877
#
# Static dielectric constant tensor:
#      x y z
#    x 5.537800 0.722890 0.519400 
#    y 0.722890 4.624070 0.247370 
#    z 0.519400 0.247370 4.611940 
# 
# 
# High freq. dielectric constant tensor:
#      x y z
#    x 1.917890 0.005310 0.008550 
#    y 0.005310 1.937890 0.003490 
#    z 0.008550 0.003490 1.951530 
# 
# From -- ./inp_files/15901.got.cif
#   From: 2010.06.25/outbox.cif.g09.slc.cpg/sg2_8_cif.got.tgz:15901.got - 2010.06.27 13:26:56.
