data_PCOD8005942
_publ_section_title
;
Structure prediction by ZEFSAII (Michael W. Deem and Ramdas Pophale) SiO2 
 PCOD8005942
Probable space group: P -1
;
_chemical_formula_sum "Si O2"
_cell_formula_units_Z 16
_cell_length_a 10.682872
_cell_length_b 23.423098
_cell_length_c 10.029792
_cell_angle_alpha 143.168766
_cell_angle_beta 122.928143
_cell_angle_gamma 33.383061
_cell_volume 766.312388
_symmetry_space_group_name_H-M "P -1"
_symmetry_group_IT_number 2
_symmetry_cell_setting 'triclinic'
loop_
_space_group_symop_operation_xyz
x,y,z
-x,-y,-z
loop_
_atom_site_type_symbol
_atom_site_label
_atom_site_fract_x
_atom_site_fract_y
_atom_site_fract_z
Si Si1 0.872259 0.160165 0.680232
Si Si2 0.511987 0.667543 0.440075
Si Si3 0.194428 0.699240 0.648091
Si Si4 0.984105 0.548180 0.728227
Si Si5 0.520634 0.253839 0.143719
Si Si6 0.207958 0.148568 0.760534
Si Si7 0.266815 0.055179 0.334126
Si Si8 0.606914 0.430793 0.210939
O O1 0.742917 0.212341 0.560434
O O2 0.089790 0.126010 0.737719
O O3 0.666928 0.301569 0.929699
O O4 0.000000 0.000000 0.500000
O O5 0.455297 0.763281 0.713071
O O6 0.611451 0.515153 0.266643
O O7 0.726090 0.601137 0.340165
O O8 0.342947 0.723846 0.793507
O O9 0.337875 0.559721 0.364476
O O10 0.196167 0.652415 0.709457
O O11 0.918831 0.853269 0.726339
O O12 0.776927 0.594235 0.778279
O O13 0.000000 0.500000 0.500000
O O14 0.898539 0.700012 0.963668
O O15 0.647129 0.095640 0.861196
O O16 0.141526 0.164842 0.596871
O O17 0.501358 0.997523 0.670780
#
# Coordination Sequence:
#
# PCOD8005942 Si02
#       8
#     2   2   2   2   2   2   2   2
#     4  12  26  39  62  92 126 157 201 257 304 361
#     4  10  20  39  64  87 116 165 204 245 307 358
#     4  10  21  37  61  89 120 161 208 246 304 355
#     4   9  18  35  61  92 118 155 206 247 296 363
#     4   9  19  34  60  92 120 158 200 253 294 359
#     4  10  21  39  59  91 126 162 204 245 307 357
#     4  10  21  36  63  88 125 166 197 249 302 365
#     4  10  22  39  60  88 118 159 203 256 293 357
#
# _framework density 20.879214000000001
#
# number of rings (size 3 to 8) (size 9 to 14) (size 15 to 20)
#    0.000    2.000    1.250    2.250    5.250    0.000 
#    0.000    6.875    0.000    1.500    0.000    0.000 
#    0.000    0.000    0.000    0.000    0.000    0.000 
#
# Total GULP energy -198251.695253 kJ/mol
# GULP energy per Si atom -12390.730953 kJ/mol
# Density = 2.083169 g / cm^3
# Si number density = 20.879214 Si / 1000 Ang^3
#
#
#
# Elastic Constant Matrix: (Units=GPa)
#
#
# Indices 1 2 3 4 5 6 
#
# 1 69.8293 47.9152 22.1222 -1.2693 9.3205 -11.4012
# 2 47.9152 101.5647 18.6924 7.0869 9.1528 -5.7431
# 3 22.1222 18.6924 127.3151 -6.5405 4.7439 3.6642
# 4 -1.2693 7.0869 -6.5405 21.5914 -0.5865 1.4782
# 5 9.3205 9.1528 4.7439 -0.5865 25.3767 -2.9573
# 6 -11.4012 -5.7431 3.6642 1.4782 -2.9573 27.6591
#
#
#
# Elastic Compliance Matrix: (Units=1/GPa)
#
#
# Indices 1 2 3 4 5 6 
#
# 1 0.023999 -0.010336 -0.002557 0.003415 -0.003654 0.007512
# 2 -0.010336 0.015371 -0.000667 -0.005846 -0.001859 -0.000867
# 3 -0.002557 -0.000667 0.008641 0.002843 -0.000668 -0.002561
# 4 0.003415 -0.005846 0.002843 0.049512 0.001152 -0.002706
# 5 -0.003654 -0.001859 -0.000668 0.001152 0.041875 0.002612
# 6 0.007512 -0.000867 -0.002561 -0.002706 0.002612 0.039834
#
#
# Mechanical properties :
#
#
# Convention : Reuss Voigt Hill
#
# Bulk Modulus (GPa) = 47.86476 52.90763 50.38620
# Shear Modulus (GPa) = 23.43931 28.92407 26.18169
#
# Velocity S-wave (km/s) = 3.35418 3.72601 3.54497
# Velocity P-wave (km/s) = 6.16239 6.62614 6.39847
#
# Compressibility (1/GPa) = 0.02089220
#
# Stress axis : x y z
#
# Youngs Moduli (GPa) = 41.66809 65.05664 115.72106
#
# Poissons Ratio (x) = 0.67240 0.29592
# Poissons Ratio (y) = 0.43067 0.07718
# Poissons Ratio (z) = 0.10655 0.04339
#
# Static dielectric constant tensor:
#      x y z
#    x 3.822470 -0.436490 -0.155390 
#    y -0.436490 3.761840 -0.055470 
#    z -0.155390 -0.055470 3.957290 
# 
# 
# High freq. dielectric constant tensor:
#      x y z
#    x 1.796000 -0.028920 -0.012040 
#    y -0.028920 1.798860 -0.004770 
#    z -0.012040 -0.004770 1.834660 
# 
# From -- ./inp_files/439604.got.cif
#   From: 2010.06.25/outbox.cif.g09.slc.cpg/sg2_220_cif.got.tgz:439604.got - 2010.06.27 13:26:56.
