data_PCOD8005380
_publ_section_title
;
Structure prediction by ZEFSAII (Michael W. Deem and Ramdas Pophale) SiO2 
 PCOD8005380
Probable space group: P -1
;
_chemical_formula_sum "Si O2"
_cell_formula_units_Z 16
_cell_length_a 11.733562
_cell_length_b 8.714790
_cell_length_c 9.240309
_cell_angle_alpha 118.585042
_cell_angle_beta 96.741075
_cell_angle_gamma 61.249937
_cell_volume 719.575961
_symmetry_space_group_name_H-M "P -1"
_symmetry_group_IT_number 2
_symmetry_cell_setting 'triclinic'
loop_
_space_group_symop_operation_xyz
x,y,z
-x,-y,-z
loop_
_atom_site_type_symbol
_atom_site_label
_atom_site_fract_x
_atom_site_fract_y
_atom_site_fract_z
Si Si1 0.503132 0.241036 0.761654
Si Si2 0.170688 0.236364 0.510764
Si Si3 0.289938 0.499181 0.325448
Si Si4 0.998035 0.137831 0.933559
Si Si5 0.693322 0.390820 0.932837
Si Si6 0.071938 0.367666 0.257077
Si Si7 0.132200 0.948787 0.576229
Si Si8 0.560648 0.815905 0.572795
O O1 0.629927 0.242887 0.853099
O O2 0.523580 0.220346 0.580354
O O3 0.496073 0.044100 0.726556
O O4 0.370985 0.444491 0.875982
O O5 0.116657 0.216272 0.334296
O O6 0.306522 0.234693 0.514361
O O7 0.071437 0.450282 0.655936
O O8 0.194450 0.062088 0.547421
O O9 0.344214 0.489497 0.169294
O O10 0.173406 0.446678 0.281245
O O11 0.235868 0.715191 0.487921
O O12 0.414170 0.335049 0.360146
O O13 0.849759 0.267097 0.913047
O O14 0.098540 0.015104 0.766483
O O15 0.059778 0.268991 0.063920
O O16 0.000000 0.000000 0.000000
O O17 0.000000 0.000000 0.500000
#
# Coordination Sequence:
#
# PCOD8005380 Si02
#       8
#     2   2   2   2   2   2   2   2
#     4  10  24  44  68  87 122 173 219 264 314 366
#     4  10  20  38  68  87 137 162 209 259 318 377
#     4  11  24  40  67  94 132 164 211 265 317 384
#     4  12  27  38  66  98 134 167 210 256 321 388
#     4  11  24  44  64  92 130 167 211 269 314 369
#     4  10  22  38  61  98 126 172 203 254 317 389
#     4  12  22  40  60  99 132 172 202 255 330 386
#     4  10  23  42  67  94 117 171 219 260 316 371
#
# _framework density 22.235315
#
# number of rings (size 3 to 8) (size 9 to 14) (size 15 to 20)
#    0.000    1.250    2.500    2.250    8.750    4.000 
#    0.000    0.000    0.000    0.000    0.000    0.000 
#    0.000    0.000    0.000    0.000    0.000    0.000 
#
# Total GULP energy -198389.357442 kJ/mol
# GULP energy per Si atom -12399.334840 kJ/mol
# Density = 2.218471 g / cm^3
# Si number density = 22.235315 Si / 1000 Ang^3
#
#
#
# Elastic Constant Matrix: (Units=GPa)
#
#
# Indices 1 2 3 4 5 6 
#
# 1 35.8009 7.4408 24.8234 7.3299 2.1340 6.3912
# 2 7.4408 134.5956 47.1953 -3.5366 6.6535 12.0845
# 3 24.8234 47.1953 145.6303 6.2027 13.2221 10.7236
# 4 7.3299 -3.5366 6.2027 32.8184 1.3266 -6.1582
# 5 2.1340 6.6535 13.2221 1.3266 13.1322 -4.9542
# 6 6.3912 12.0845 10.7236 -6.1582 -4.9542 29.8883
#
#
#
# Elastic Compliance Matrix: (Units=1/GPa)
#
#
# Indices 1 2 3 4 5 6 
#
# 1 0.034447 0.000440 -0.004785 -0.008119 -0.003213 -0.008032
# 2 0.000440 0.008716 -0.002402 0.000841 -0.003338 -0.003137
# 3 -0.004785 -0.002402 0.009527 -0.001225 -0.008647 -0.003110
# 4 -0.008119 0.000841 -0.001225 0.034255 0.002156 0.009251
# 5 -0.003213 -0.003338 -0.008647 0.002156 0.094890 0.021312
# 6 -0.008032 -0.003137 -0.003110 0.009251 0.021312 0.042998
#
#
# Mechanical properties :
#
#
# Convention : Reuss Voigt Hill
#
# Bulk Modulus (GPa) = 25.51248 52.77174 39.14211
# Shear Modulus (GPa) = 19.88930 30.93894 25.41412
#
# Velocity S-wave (km/s) = 2.99405 3.73424 3.38444
# Velocity P-wave (km/s) = 4.84264 6.50980 5.73710
#
# Compressibility (1/GPa) = 0.03919651
#
# Stress axis : x y z
#
# Youngs Moduli (GPa) = 29.03051 114.72975 104.96625
#
# Poissons Ratio (x) = -0.05052 0.50229
# Poissons Ratio (y) = -0.01278 0.25208
# Poissons Ratio (z) = 0.13892 0.27553
#
# Static dielectric constant tensor:
#      x y z
#    x 3.851120 -0.162760 0.076040 
#    y -0.162760 3.866530 -0.042580 
#    z 0.076040 -0.042580 4.258460 
# 
# 
# High freq. dielectric constant tensor:
#      x y z
#    x 1.870640 -0.001680 0.005130 
#    y -0.001680 1.881210 0.004560 
#    z 0.005130 0.004560 1.879700 
# 
# From -- ./inp_files/215982.got.cif
#   From: 2010.06.25/outbox.cif.g09.slc.cpg/sg2_108_cif.got.tgz:215982.got - 2010.06.27 13:26:56.
