data_PCOD8005288
_publ_section_title
;
Structure prediction by ZEFSAII (Michael W. Deem and Ramdas Pophale) SiO2 
 PCOD8005288
Probable space group: P -1
;
_chemical_formula_sum "Si O2"
_cell_formula_units_Z 14
_cell_length_a 9.543901
_cell_length_b 20.871048
_cell_length_c 21.292085
_cell_angle_alpha 160.384364
_cell_angle_beta 151.080649
_cell_angle_gamma 27.082904
_cell_volume 629.345101
_symmetry_space_group_name_H-M "P -1"
_symmetry_group_IT_number 2
_symmetry_cell_setting 'triclinic'
loop_
_space_group_symop_operation_xyz
x,y,z
-x,-y,-z
loop_
_atom_site_type_symbol
_atom_site_label
_atom_site_fract_x
_atom_site_fract_y
_atom_site_fract_z
Si Si1 0.672559 0.497024 0.297778
Si Si2 0.582354 0.730315 0.601560
Si Si3 0.528614 0.797805 0.862801
Si Si4 0.147346 0.804521 0.137374
Si Si5 0.641552 0.559282 0.202213
Si Si6 0.806515 0.295880 0.460941
Si Si7 0.660408 0.123265 0.007764
O O1 0.553519 0.682056 0.472896
O O2 0.539892 0.585296 0.259046
O O3 0.054544 0.387031 0.341908
O O4 0.513706 0.339577 0.111915
O O5 0.351315 0.669607 0.499855
O O6 0.459623 0.981831 0.791933
O O7 0.466971 0.639713 0.643239
O O8 0.282268 0.840003 0.862238
O O9 0.867444 0.722238 0.961247
O O10 0.500000 0.000000 0.000000
O O11 0.371527 0.747769 0.233583
O O12 0.333892 0.666216 0.022151
O O13 0.024167 0.051802 0.305269
O O14 0.979123 0.574043 0.339494
O O15 0.000000 0.000000 0.000000
#
# Coordination Sequence:
#
# PCOD8005288 Si02
#       7
#     2   2   2   2   2   2   2
#     4  10  24  37  58  92 129 158 201 243 316 368
#     4  10  21  39  59  92 124 155 201 262 300 353
#     4  10  20  38  66  93 116 156 213 253 298 353
#     4  10  23  43  63  88 128 158 211 252 300 365
#     4  11  25  41  63  91 124 169 199 250 311 368
#     4  11  23  38  70  94 117 156 213 261 301 348
#     4  10  21  37  58  89 129 158 193 257 306 359
#
# _framework density 22.245346999999999
#
# number of rings (size 3 to 8) (size 9 to 14) (size 15 to 20)
#    0.000    1.714    2.857    1.286   14.000    1.143 
#    0.000    1.429    0.000    0.000    0.000    0.000 
#    0.000    0.000    0.000    0.000    0.000    0.000 
#
# Total GULP energy -173534.136087 kJ/mol
# GULP energy per Si atom -12395.295435 kJ/mol
# Density = 2.219472 g / cm^3
# Si number density = 22.245347 Si / 1000 Ang^3
#
#
#
# Elastic Constant Matrix: (Units=GPa)
#
#
# Indices 1 2 3 4 5 6 
#
# 1 171.2174 28.6659 55.7553 -8.7348 -18.9565 22.4154
# 2 28.6659 77.4011 32.2925 -18.1637 -7.4088 14.1277
# 3 55.7553 32.2925 122.0437 4.4803 -17.6650 17.5377
# 4 -8.7348 -18.1637 4.4803 33.0459 0.8973 -6.8251
# 5 -18.9565 -7.4088 -17.6650 0.8973 44.1370 0.0566
# 6 22.4154 14.1277 17.5377 -6.8251 0.0566 28.6038
#
#
#
# Elastic Compliance Matrix: (Units=1/GPa)
#
#
# Indices 1 2 3 4 5 6 
#
# 1 0.007541 -0.000586 -0.002473 0.001157 0.002132 -0.003832
# 2 -0.000586 0.017819 -0.004157 0.009448 0.000888 -0.003541
# 3 -0.002473 -0.004157 0.011718 -0.005544 0.003049 -0.004522
# 4 0.001157 0.009448 -0.005544 0.037958 -0.000917 0.006885
# 5 0.002132 0.000888 0.003049 -0.000917 0.024966 -0.004247
# 6 -0.003832 -0.003541 -0.004522 0.006885 -0.004247 0.044136
#
#
# Mechanical properties :
#
#
# Convention : Reuss Voigt Hill
#
# Bulk Modulus (GPa) = 44.15689 67.12107 55.63898
# Shear Modulus (GPa) = 30.09902 38.08725 34.09314
#
# Velocity S-wave (km/s) = 3.68237 4.14230 3.91909
# Velocity P-wave (km/s) = 6.16221 7.28812 6.74869
#
# Compressibility (1/GPa) = 0.02264652
#
# Stress axis : x y z
#
# Youngs Moduli (GPa) = 132.61389 56.11890 85.33758
#
# Poissons Ratio (x) = 0.03288 0.21106
# Poissons Ratio (y) = 0.07770 0.35472
# Poissons Ratio (z) = 0.32798 0.23327
#
# Static dielectric constant tensor:
#      x y z
#    x 4.164630 0.044100 0.094390 
#    y 0.044100 3.941350 0.322120 
#    z 0.094390 0.322120 4.482140 
# 
# 
# High freq. dielectric constant tensor:
#      x y z
#    x 1.881350 -0.002620 -0.013670 
#    y -0.002620 1.844010 0.022210 
#    z -0.013670 0.022210 1.897780 
# 
# From -- ./inp_files/261334.got.cif
#   From: 2010.06.25/outbox.cif.g09.slc.cpg/sg2_131_cif.got.tgz:261334.got - 2010.06.27 13:26:56.
