data_PCOD8005854
_publ_section_title
;
Structure prediction by ZEFSAII (Michael W. Deem and Ramdas Pophale) SiO2 
 PCOD8005854
Probable space group: P -1
;
_chemical_formula_sum "Si O2"
_cell_formula_units_Z 14
_cell_length_a 9.645109
_cell_length_b 12.637403
_cell_length_c 9.295687
_cell_angle_alpha 78.359703
_cell_angle_beta 125.921979
_cell_angle_gamma 65.518222
_cell_volume 665.757157
_symmetry_space_group_name_H-M "P -1"
_symmetry_group_IT_number 2
_symmetry_cell_setting 'triclinic'
loop_
_space_group_symop_operation_xyz
x,y,z
-x,-y,-z
loop_
_atom_site_type_symbol
_atom_site_label
_atom_site_fract_x
_atom_site_fract_y
_atom_site_fract_z
Si Si1 0.064113 0.546094 0.228325
Si Si2 0.480675 0.234527 0.534399
Si Si3 0.019943 0.340475 0.150063
Si Si4 0.691895 0.055520 0.991098
Si Si5 0.767221 0.791710 0.201022
Si Si6 0.019378 0.174833 0.421101
Si Si7 0.829628 0.097886 0.536734
O O1 0.334006 0.400558 0.457353
O O2 0.923502 0.497577 0.105583
O O3 0.956712 0.634499 0.286430
O O4 0.043530 0.644163 0.061353
O O5 0.299727 0.219123 0.376054
O O6 0.653586 0.117470 0.791919
O O7 0.632498 0.208665 0.499510
O O8 0.913058 0.285496 0.190116
O O9 0.470679 0.172919 0.927315
O O10 0.916371 0.015624 0.205703
O O11 0.726642 0.911649 0.040846
O O12 0.852669 0.791762 0.410620
O O13 0.204505 0.005481 0.527840
O O14 0.820279 0.197482 0.384557
#
# Coordination Sequence:
#
# PCOD8005854 Si02
#       7
#     2   2   2   2   2   2   2
#     4   9  21  39  64  93 121 153 212 259 290 356
#     4  10  20  39  63  90 121 163 197 255 304 357
#     4   9  20  39  62  92 116 160 215 237 308 351
#     4  10  21  36  61  98 119 162 199 249 314 350
#     4  10  20  39  65  92 121 152 215 253 291 364
#     4  10  21  40  60  89 120 168 196 251 302 355
#     4  10  23  38  60  90 137 149 202 251 309 368
#
# _framework density 21.028689
#
# number of rings (size 3 to 8) (size 9 to 14) (size 15 to 20)
#    0.857    1.429    1.429    0.429    2.000    7.429 
#    0.000    3.571    0.000    0.000    0.000    0.000 
#    0.000    0.000    0.000    0.000    0.000    0.000 
#
# Total GULP energy -173506.507506 kJ/mol
# GULP energy per Si atom -12393.321965 kJ/mol
# Density = 2.098083 g / cm^3
# Si number density = 21.028689 Si / 1000 Ang^3
#
#
#
# Elastic Constant Matrix: (Units=GPa)
#
#
# Indices 1 2 3 4 5 6 
#
# 1 92.8942 36.9404 28.5814 -6.3226 -22.9199 -17.8466
# 2 36.9404 105.7808 -2.0547 -12.3428 14.2995 -26.2179
# 3 28.5814 -2.0547 57.7421 -0.2542 -17.9015 -3.8472
# 4 -6.3226 -12.3428 -0.2542 20.0583 2.6741 6.2659
# 5 -22.9199 14.2995 -17.9015 2.6741 40.2432 -1.6674
# 6 -17.8466 -26.2179 -3.8472 6.2659 -1.6674 29.3036
#
#
#
# Elastic Compliance Matrix: (Units=1/GPa)
#
#
# Indices 1 2 3 4 5 6 
#
# 1 0.019093 -0.007120 -0.005902 -0.001626 0.011113 0.005463
# 2 -0.007120 0.015988 0.001903 0.006192 -0.008954 0.008384
# 3 -0.005902 0.001903 0.022299 -0.001766 0.006072 0.001759
# 4 -0.001626 0.006192 -0.001766 0.056788 -0.008028 -0.008281
# 5 0.011113 -0.008954 0.006072 -0.008028 0.037736 0.003419
# 6 0.005463 0.008384 0.001759 -0.008281 0.003419 0.047150
#
#
# Mechanical properties :
#
#
# Convention : Reuss Voigt Hill
#
# Bulk Modulus (GPa) = 28.45537 42.59459 35.52498
# Shear Modulus (GPa) = 21.45865 30.78434 26.12150
#
# Velocity S-wave (km/s) = 3.19791 3.83027 3.52829
# Velocity P-wave (km/s) = 5.21503 6.31354 5.79039
#
# Compressibility (1/GPa) = 0.03514275
#
# Stress axis : x y z
#
# Youngs Moduli (GPa) = 52.37486 62.54696 44.84422
#
# Poissons Ratio (x) = 0.44535 0.26467
# Poissons Ratio (y) = 0.37293 -0.08536
# Poissons Ratio (z) = 0.30911 -0.11905
#
# Static dielectric constant tensor:
#      x y z
#    x 3.663870 -0.070850 -0.198530 
#    y -0.070850 3.516930 0.018690 
#    z -0.198530 0.018690 3.636670 
# 
# 
# High freq. dielectric constant tensor:
#      x y z
#    x 1.812550 -0.010790 -0.023940 
#    y -0.010790 1.804110 0.006290 
#    z -0.023940 0.006290 1.812600 
# 
# From -- ./inp_files/200882.got.cif
#   From: 2010.06.25/outbox.cif.g09.slc.cpg/sg2_101_cif.got.tgz:200882.got - 2010.06.27 13:26:56.
