data_PCOD8005346
_publ_section_title
;
Structure prediction by ZEFSAII (Michael W. Deem and Ramdas Pophale) SiO2 
 PCOD8005346
Probable space group: P -1
;
_chemical_formula_sum "Si O2"
_cell_formula_units_Z 14
_cell_length_a 14.663327
_cell_length_b 11.698034
_cell_length_c 10.014526
_cell_angle_alpha 63.662660
_cell_angle_beta 46.780489
_cell_angle_gamma 34.404109
_cell_volume 675.901673
_symmetry_space_group_name_H-M "P -1"
_symmetry_group_IT_number 2
_symmetry_cell_setting 'triclinic'
loop_
_space_group_symop_operation_xyz
x,y,z
-x,-y,-z
loop_
_atom_site_type_symbol
_atom_site_label
_atom_site_fract_x
_atom_site_fract_y
_atom_site_fract_z
Si Si1 0.347762 0.518427 0.003808
Si Si2 0.453257 0.383233 0.254668
Si Si3 0.269625 0.891563 0.323273
Si Si4 0.618417 0.972071 0.279373
Si Si5 0.458711 0.116882 0.852204
Si Si6 0.097247 0.600980 0.985469
Si Si7 0.856198 0.282310 0.390700
O O1 0.371071 0.650978 0.895079
O O2 0.563045 0.276372 0.871310
O O3 0.307030 0.520138 0.199469
O O4 0.158425 0.623167 0.049496
O O5 0.307935 0.504006 0.468195
O O6 0.583066 0.149967 0.235697
O O7 0.369312 0.910407 0.317888
O O8 0.206388 0.815823 0.506699
O O9 0.078638 0.113486 0.325341
O O10 0.518366 0.998785 0.231798
O O11 0.862512 0.745247 0.157543
O O12 0.500000 0.000000 0.500000
O O13 0.230146 0.364640 0.955943
O O14 0.500000 0.000000 0.000000
O O15 0.136617 0.665709 0.790548
#
# Coordination Sequence:
#
# PCOD8005346 Si02
#       7
#     2   2   2   2   2   2   2
#     4   9  20  39  64  87 118 153 195 248 295 343
#     4  10  21  39  59  89 123 155 190 239 301 350
#     4   9  20  38  63  92 118 157 201 241 292 345
#     4  12  26  40  57  86 124 156 193 244 297 356
#     4  11  23  41  63  85 120 164 200 235 286 360
#     4  11  23  41  63  87 113 156 206 248 292 342
#     4  10  20  38  67  92 117 149 200 255 292 342
#
# _framework density 20.713073000000001
#
# number of rings (size 3 to 8) (size 9 to 14) (size 15 to 20)
#    0.000    1.714    0.000    4.714    0.000   10.286 
#    0.000    2.143    0.000    0.000    0.000    0.000 
#    0.000    0.000    0.000    0.000    0.000    0.000 
#
# Total GULP energy -173652.707726 kJ/mol
# GULP energy per Si atom -12403.764838 kJ/mol
# Density = 2.066593 g / cm^3
# Si number density = 20.713073 Si / 1000 Ang^3
#
#
#
# Elastic Constant Matrix: (Units=GPa)
#
#
# Indices 1 2 3 4 5 6 
#
# 1 92.0424 29.5422 23.5295 7.3491 -0.0859 0.0512
# 2 29.5422 107.5609 23.3851 -3.5340 -9.4808 4.1616
# 3 23.5295 23.3851 99.1267 -7.8238 1.2777 -14.4007
# 4 7.3491 -3.5340 -7.8238 23.0206 -6.7797 -1.6339
# 5 -0.0859 -9.4808 1.2777 -6.7797 28.9981 -0.8292
# 6 0.0512 4.1616 -14.4007 -1.6339 -0.8292 34.3393
#
#
#
# Elastic Compliance Matrix: (Units=1/GPa)
#
#
# Indices 1 2 3 4 5 6 
#
# 1 0.013243 -0.003370 -0.003019 -0.006599 -0.002508 -0.001252
# 2 -0.003370 0.011215 -0.001915 0.003327 0.004465 -0.001891
# 3 -0.003019 -0.001915 0.012515 0.005402 0.000241 0.005748
# 4 -0.006599 0.003327 0.005402 0.052095 0.013143 0.004668
# 5 -0.002508 0.004465 0.000241 0.013143 0.039032 0.001131
# 6 -0.001252 -0.001891 0.005748 0.004668 0.001131 0.032012
#
#
# Mechanical properties :
#
#
# Convention : Reuss Voigt Hill
#
# Bulk Modulus (GPa) = 49.10625 50.18261 49.64443
# Shear Modulus (GPa) = 27.24659 32.08983 29.66821
#
# Velocity S-wave (km/s) = 3.63082 3.94033 3.78874
# Velocity P-wave (km/s) = 6.42934 6.70684 6.56956
#
# Compressibility (1/GPa) = 0.02036401
#
# Stress axis : x y z
#
# Youngs Moduli (GPa) = 75.50996 89.16398 79.90567
#
# Poissons Ratio (x) = 0.30053 0.24121
# Poissons Ratio (y) = 0.25451 0.15306
# Poissons Ratio (z) = 0.22794 0.17079
#
# Static dielectric constant tensor:
#      x y z
#    x 3.996740 0.106390 -0.043350 
#    y 0.106390 3.820390 -0.064720 
#    z -0.043350 -0.064720 3.712130 
# 
# 
# High freq. dielectric constant tensor:
#      x y z
#    x 1.823550 0.006760 0.000080 
#    y 0.006760 1.813350 -0.007180 
#    z 0.000080 -0.007180 1.803660 
# 
# From -- ./inp_files/185546.got.cif
#   From: 2010.06.25/outbox.cif.g09.slc.cpg/sg2_93_cif.got.tgz:185546.got - 2010.06.27 13:26:56.
