data_PCOD8005058
_publ_section_title
;
Structure prediction by ZEFSAII (Michael W. Deem and Ramdas Pophale) SiO2 
 PCOD8005058
Probable space group: P -1
;
_chemical_formula_sum "Si O2"
_cell_formula_units_Z 14
_cell_length_a 8.095882
_cell_length_b 11.291414
_cell_length_c 8.483748
_cell_angle_alpha 90.431489
_cell_angle_beta 53.674997
_cell_angle_gamma 93.078228
_cell_volume 623.637824
_symmetry_space_group_name_H-M "P -1"
_symmetry_group_IT_number 2
_symmetry_cell_setting 'triclinic'
loop_
_space_group_symop_operation_xyz
x,y,z
-x,-y,-z
loop_
_atom_site_type_symbol
_atom_site_label
_atom_site_fract_x
_atom_site_fract_y
_atom_site_fract_z
Si Si1 0.743201 0.367485 0.071766
Si Si2 0.107199 0.247416 0.977069
Si Si3 0.526658 0.862866 0.802715
Si Si4 0.124071 0.178333 0.619125
Si Si5 0.806472 0.978447 0.911321
Si Si6 0.103377 0.611889 0.353933
Si Si7 0.542621 0.578353 0.133476
O O1 0.571674 0.268683 0.108972
O O2 0.631488 0.481616 0.205520
O O3 0.875617 0.412702 0.844901
O O4 0.895037 0.314433 0.114410
O O5 0.173712 0.242984 0.756951
O O6 0.285595 0.314222 0.979906
O O7 0.067345 0.112062 0.057357
O O8 0.662595 0.865052 0.567841
O O9 0.668546 0.900658 0.868225
O O10 0.340480 0.949852 0.890242
O O11 0.026798 0.271049 0.552143
O O12 0.961240 0.067129 0.729322
O O13 0.330021 0.632707 0.306406
O O14 0.000000 0.500000 0.500000
O O15 0.500000 0.500000 0.000000
#
# Coordination Sequence:
#
# PCOD8005058 Si02
#       7
#     2   2   2   2   2   2   2
#     4  10  21  42  63  95 130 169 216 267 327 382
#     4  11  23  41  66  95 137 172 212 275 329 382
#     4  11  23  42  71  93 134 176 217 265 324 384
#     4  11  24  43  63 102 136 165 223 271 322 389
#     4  11  23  43  68  95 137 173 219 264 322 393
#     4  10  20  38  64  90 128 166 215 270 314 385
#     4  10  21  39  66  91 124 173 218 260 326 382
#
# _framework density 22.448927999999999
#
# number of rings (size 3 to 8) (size 9 to 14) (size 15 to 20)
#    0.000    1.429    2.857    3.857    2.000    1.714 
#    0.000    9.286    0.000    0.000    0.000    0.000 
#    0.000    0.000    0.000    0.000    0.000    0.000 
#
# Total GULP energy -173533.670561 kJ/mol
# GULP energy per Si atom -12395.262183 kJ/mol
# Density = 2.239783 g / cm^3
# Si number density = 22.448928 Si / 1000 Ang^3
#
#
#
# Elastic Constant Matrix: (Units=GPa)
#
#
# Indices 1 2 3 4 5 6 
#
# 1 82.2875 47.0877 36.9300 -18.4363 -17.3077 -12.4312
# 2 47.0877 136.2691 46.7797 -32.6891 -5.9454 -16.9409
# 3 36.9300 46.7797 94.5232 -17.4102 -18.2349 -8.0390
# 4 -18.4363 -32.6891 -17.4102 37.1412 4.8515 -1.5687
# 5 -17.3077 -5.9454 -18.2349 4.8515 21.4612 -6.4474
# 6 -12.4312 -16.9409 -8.0390 -1.5687 -6.4474 54.1780
#
#
#
# Elastic Compliance Matrix: (Units=1/GPa)
#
#
# Indices 1 2 3 4 5 6 
#
# 1 0.019818 -0.004091 -0.001982 0.003711 0.013743 0.004717
# 2 -0.004091 0.011771 -0.003504 0.007302 -0.004081 0.001948
# 3 -0.001982 -0.003504 0.015761 0.001972 0.011025 0.002158
# 4 0.003711 0.007302 0.001972 0.036329 -0.000182 0.004458
# 5 0.013743 -0.004081 0.011025 -0.000182 0.069496 0.011778
# 6 0.004717 0.001948 0.002158 0.004458 0.011778 0.022000
#
#
# Mechanical properties :
#
#
# Convention : Reuss Voigt Hill
#
# Bulk Modulus (GPa) = 35.46611 63.85274 49.65943
# Shear Modulus (GPa) = 24.54261 34.70825 29.62543
#
# Velocity S-wave (km/s) = 3.31004 3.93631 3.63668
# Velocity P-wave (km/s) = 5.51737 7.01175 6.30897
#
# Compressibility (1/GPa) = 0.02819593
#
# Stress axis : x y z
#
# Youngs Moduli (GPa) = 50.45944 84.95751 63.44640
#
# Poissons Ratio (x) = 0.34759 0.12575
# Poissons Ratio (y) = 0.20645 0.22229
# Poissons Ratio (z) = 0.10001 0.29765
#
# Static dielectric constant tensor:
#      x y z
#    x 4.363230 -0.501860 -0.368750 
#    y -0.501860 4.503620 0.101610 
#    z -0.368750 0.101610 3.704210 
# 
# 
# High freq. dielectric constant tensor:
#      x y z
#    x 1.892510 -0.015820 -0.023290 
#    y -0.015820 1.904760 -0.009090 
#    z -0.023290 -0.009090 1.845040 
# 
# From -- ./inp_files/177255.got.cif
#   From: 2010.06.25/outbox.cif.g09.slc.cpg/sg2_89_cif.got.tgz:177255.got - 2010.06.27 13:26:56.
