data_PCOD8005703
_publ_section_title
;
Structure prediction by ZEFSAII (Michael W. Deem and Ramdas Pophale) SiO2 
 PCOD8005703
Probable space group: P -1
;
_chemical_formula_sum "Si O2"
_cell_formula_units_Z 16
_cell_length_a 11.957863
_cell_length_b 8.295536
_cell_length_c 10.593118
_cell_angle_alpha 40.320181
_cell_angle_beta 97.091082
_cell_angle_gamma 95.469773
_cell_volume 674.729846
_symmetry_space_group_name_H-M "P -1"
_symmetry_group_IT_number 2
_symmetry_cell_setting 'triclinic'
loop_
_space_group_symop_operation_xyz
x,y,z
-x,-y,-z
loop_
_atom_site_type_symbol
_atom_site_label
_atom_site_fract_x
_atom_site_fract_y
_atom_site_fract_z
Si Si1 0.856871 0.040464 0.588919
Si Si2 0.668258 0.108580 0.150238
Si Si3 0.663822 0.981676 0.950083
Si Si4 0.688382 0.470763 0.364675
Si Si5 0.895665 0.928568 0.379537
Si Si6 0.756944 0.485536 0.633332
Si Si7 0.328865 0.345861 0.219895
Si Si8 0.473779 0.941827 0.368107
O O1 0.793890 0.287723 0.476270
O O2 0.978829 0.022987 0.685449
O O3 0.878530 0.066134 0.427915
O O4 0.782881 0.798587 0.759177
O O5 0.607509 0.963977 0.345330
O O6 0.612291 0.048432 0.041267
O O7 0.801175 0.039211 0.206140
O O8 0.655525 0.401573 0.007996
O O9 0.701237 0.692225 0.132410
O O10 0.578157 0.006574 0.808556
O O11 0.765949 0.182411 0.818444
O O12 0.693755 0.583521 0.439643
O O13 0.568899 0.323705 0.424605
O O14 0.877362 0.627499 0.572914
O O15 0.678584 0.577956 0.681059
O O16 0.435484 0.158675 0.331950
#
# Coordination Sequence:
#
# PCOD8005703 Si02
#       8
#     2   2   2   2   2   2   2   2
#     4   9  21  39  60  87 115 159 193 250 297 340
#     4  11  21  37  61  88 118 160 197 237 297 353
#     4  10  21  38  60  87 123 158 193 237 297 355
#     4  10  20  40  62  87 119 159 194 238 301 353
#     4  10  20  39  62  83 121 155 198 244 295 349
#     4   9  19  39  60  85 122 152 196 246 286 348
#     4   9  20  39  61  85 120 154 196 251 289 343
#     4  10  22  39  59  91 122 154 195 247 289 349
#
# _framework density 23.713193
#
# number of rings (size 3 to 8) (size 9 to 14) (size 15 to 20)
#    0.000    2.250    1.250    0.750    1.750    1.500 
#    6.750    3.750    0.000    0.000    0.000    0.000 
#    0.000    0.000    0.000    0.000    0.000    0.000 
#
# Total GULP energy -198282.596251 kJ/mol
# GULP energy per Si atom -12392.662266 kJ/mol
# Density = 2.365922 g / cm^3
# Si number density = 23.713193 Si / 1000 Ang^3
#
#
#
# Elastic Constant Matrix: (Units=GPa)
#
#
# Indices 1 2 3 4 5 6 
#
# 1 82.1944 4.8981 11.7792 -15.9026 -6.8240 9.5880
# 2 4.8981 77.5175 16.0517 -14.4870 -1.5432 7.7322
# 3 11.7792 16.0517 105.6011 -30.3090 -3.7407 9.3076
# 4 -15.9026 -14.4870 -30.3090 36.2276 -1.1759 -0.8785
# 5 -6.8240 -1.5432 -3.7407 -1.1759 21.9367 0.6363
# 6 9.5880 7.7322 9.3076 -0.8785 0.6363 20.1404
#
#
#
# Elastic Compliance Matrix: (Units=1/GPa)
#
#
# Indices 1 2 3 4 5 6 
#
# 1 0.014878 0.001209 0.001412 0.008183 0.005625 -0.008020
# 2 0.001209 0.014636 0.000061 0.006352 0.001931 -0.006007
# 3 0.001412 0.000061 0.013387 0.011802 0.003547 -0.006479
# 4 0.008183 0.006352 0.011802 0.043612 0.007636 -0.010127
# 5 0.005625 0.001931 0.003547 0.007636 0.048667 -0.006263
# 6 -0.008020 -0.006007 -0.006479 -0.010127 -0.006263 0.058526
#
#
# Mechanical properties :
#
#
# Convention : Reuss Voigt Hill
#
# Bulk Modulus (GPa) = 20.71935 36.75233 28.73584
# Shear Modulus (GPa) = 24.45826 31.16653 27.81240
#
# Velocity S-wave (km/s) = 3.21506 3.62928 3.42843
# Velocity P-wave (km/s) = 4.74748 5.75278 5.27414
#
# Compressibility (1/GPa) = 0.04826405
#
# Stress axis : x y z
#
# Youngs Moduli (GPa) = 67.21445 68.32534 74.69986
#
# Poissons Ratio (x) = -0.08260 -0.10544
# Poissons Ratio (y) = -0.08126 -0.00458
# Poissons Ratio (z) = -0.09488 -0.00419
#
# Static dielectric constant tensor:
#      x y z
#    x 4.096450 0.132000 -0.318480 
#    y 0.132000 4.622580 -0.203160 
#    z -0.318480 -0.203160 4.334890 
# 
# 
# High freq. dielectric constant tensor:
#      x y z
#    x 1.904560 0.008170 -0.017000 
#    y 0.008170 1.963020 -0.008330 
#    z -0.017000 -0.008330 1.937570 
# 
# From -- ./inp_files/349717.got.cif
#   From: 2010.06.25/outbox.cif.g09.slc.cpg/sg2_175_cif.got.tgz:349717.got - 2010.06.27 13:26:56.
