data_PCOD8005846
_publ_section_title
;
Structure prediction by ZEFSAII (Michael W. Deem and Ramdas Pophale) SiO2 
 PCOD8005846
Probable space group: P -1
;
_chemical_formula_sum "Si O2"
_cell_formula_units_Z 16
_cell_length_a 7.735596
_cell_length_b 11.993862
_cell_length_c 9.145980
_cell_angle_alpha 99.202162
_cell_angle_beta 89.188246
_cell_angle_gamma 54.747912
_cell_volume 678.041747
_symmetry_space_group_name_H-M "P -1"
_symmetry_group_IT_number 2
_symmetry_cell_setting 'triclinic'
loop_
_space_group_symop_operation_xyz
x,y,z
-x,-y,-z
loop_
_atom_site_type_symbol
_atom_site_label
_atom_site_fract_x
_atom_site_fract_y
_atom_site_fract_z
Si Si1 0.659203 0.036699 0.621266
Si Si2 0.029526 0.434750 0.674252
Si Si3 0.165363 0.810623 0.231950
Si Si4 0.396344 0.532540 0.351862
Si Si5 0.226466 0.181240 0.821187
Si Si6 0.244732 0.293770 0.129706
Si Si7 0.344820 0.206468 0.421048
Si Si8 0.450064 0.633764 0.946771
O O1 0.825153 0.062099 0.692488
O O2 0.469039 0.076088 0.744228
O O3 0.567486 0.123079 0.489379
O O4 0.771065 0.871416 0.558892
O O5 0.806174 0.469543 0.634913
O O6 0.982047 0.579000 0.768551
O O7 0.131629 0.331518 0.787438
O O8 0.189098 0.366278 0.517966
O O9 0.322012 0.679927 0.311022
O O10 0.918509 0.867480 0.245109
O O11 0.246381 0.769336 0.054219
O O12 0.500000 0.500000 0.500000
O O13 0.578178 0.397035 0.226365
O O14 0.212476 0.199854 0.001953
O O15 0.392705 0.201630 0.247205
O O16 0.354188 0.352047 0.047005
O O17 0.500000 0.500000 0.000000
#
# Coordination Sequence:
#
# PCOD8005846 Si02
#       8
#     2   2   2   2   2   2   2   2
#     4  10  22  44  65  85 129 170 207 259 311 365
#     4   9  20  37  57  91 125 158 205 249 321 373
#     4  10  20  39  63  89 123 168 205 251 319 366
#     4   9  19  33  58  89 128 157 203 256 300 376
#     4  10  21  39  64  95 119 162 212 250 313 379
#     4  11  20  37  65  93 124 161 206 264 308 368
#     4  10  23  40  62  91 123 167 215 254 311 372
#     4   9  19  35  54  88 124 157 198 243 313 371
#
# _framework density 23.597366999999998
#
# number of rings (size 3 to 8) (size 9 to 14) (size 15 to 20)
#    0.000    2.250    1.250    1.500    3.500    1.500 
#    2.250   10.625    0.000    0.000    0.000    0.000 
#    0.000    0.000    0.000    0.000    0.000    0.000 
#
# Total GULP energy -198235.895503 kJ/mol
# GULP energy per Si atom -12389.743469 kJ/mol
# Density = 2.354366 g / cm^3
# Si number density = 23.597367 Si / 1000 Ang^3
#
#
#
# Elastic Constant Matrix: (Units=GPa)
#
#
# Indices 1 2 3 4 5 6 
#
# 1 77.6170 20.5626 31.0622 -0.6929 6.7985 17.4112
# 2 20.5626 51.7658 9.9271 5.6229 1.3917 9.3163
# 3 31.0622 9.9271 139.4652 -3.5629 12.6447 -4.9248
# 4 -0.6929 5.6229 -3.5629 22.8627 8.0934 1.3584
# 5 6.7985 1.3917 12.6447 8.0934 24.4722 7.3470
# 6 17.4112 9.3163 -4.9248 1.3584 7.3470 30.0574
#
#
#
# Elastic Compliance Matrix: (Units=1/GPa)
#
#
# Indices 1 2 3 4 5 6 
#
# 1 0.017908 -0.004851 -0.003889 0.001855 -0.000457 -0.009480
# 2 -0.004851 0.023172 -0.001392 -0.007456 0.004851 -0.005449
# 3 -0.003889 -0.001392 0.008995 0.003534 -0.006321 0.005543
# 4 0.001855 -0.007456 0.003534 0.053312 -0.020904 0.004516
# 5 -0.000457 0.004851 -0.006321 -0.020904 0.055354 -0.014860
# 6 -0.009480 -0.005449 0.005543 0.004516 -0.014860 0.044786
#
#
# Mechanical properties :
#
#
# Convention : Reuss Voigt Hill
#
# Bulk Modulus (GPa) = 33.54455 43.55021 38.54738
# Shear Modulus (GPa) = 21.39240 29.29820 25.34530
#
# Velocity S-wave (km/s) = 3.01418 3.52744 3.28086
# Velocity P-wave (km/s) = 5.13419 5.92335 5.54283
#
# Compressibility (1/GPa) = 0.02981110
#
# Stress axis : x y z
#
# Youngs Moduli (GPa) = 55.83953 43.15624 111.17709
#
# Poissons Ratio (x) = 0.20935 0.43240
# Poissons Ratio (y) = 0.27088 0.15471
# Poissons Ratio (z) = 0.21717 0.06006
#
# Static dielectric constant tensor:
#      x y z
#    x 3.978530 0.093590 -0.127890 
#    y 0.093590 4.350040 0.385580 
#    z -0.127890 0.385580 4.716470 
# 
# 
# High freq. dielectric constant tensor:
#      x y z
#    x 1.899550 0.014560 -0.002110 
#    y 0.014560 1.917450 0.015320 
#    z -0.002110 0.015320 1.953880 
# 
# From -- ./inp_files/187643.got.cif
#   From: 2010.06.25/outbox.cif.g09.slc.cpg/sg2_94_cif.got.tgz:187643.got - 2010.06.27 13:26:56.
