data_PCOD8005901
_publ_section_title
;
Structure prediction by ZEFSAII (Michael W. Deem and Ramdas Pophale) SiO2 
 PCOD8005901
Probable space group: P -1
;
_chemical_formula_sum "Si O2"
_cell_formula_units_Z 16
_cell_length_a 13.851327
_cell_length_b 14.165714
_cell_length_c 9.217460
_cell_angle_alpha 129.596093
_cell_angle_beta 84.562823
_cell_angle_gamma 134.463663
_cell_volume 764.643724
_symmetry_space_group_name_H-M "P -1"
_symmetry_group_IT_number 2
_symmetry_cell_setting 'triclinic'
loop_
_space_group_symop_operation_xyz
x,y,z
-x,-y,-z
loop_
_atom_site_type_symbol
_atom_site_label
_atom_site_fract_x
_atom_site_fract_y
_atom_site_fract_z
Si Si1 0.839784 0.207295 0.765859
Si Si2 0.731113 0.681399 0.993665
Si Si3 0.280854 0.049389 0.731093
Si Si4 0.834248 0.440388 0.117264
Si Si5 0.947374 0.155252 0.956474
Si Si6 0.405816 0.359607 0.520250
Si Si7 0.997916 0.363943 0.431856
Si Si8 0.664614 0.504776 0.137953
O O1 0.947321 0.253029 0.922766
O O2 0.971666 0.392481 0.802006
O O3 0.715394 0.984438 0.474101
O O4 0.728109 0.206100 0.849066
O O5 0.786424 0.882032 0.177493
O O6 0.664882 0.578692 0.061760
O O7 0.910496 0.800603 0.047518
O O8 0.563646 0.474709 0.712386
O O9 0.479013 0.248045 0.951149
O O10 0.173450 0.847497 0.655171
O O11 0.833329 0.460844 0.311243
O O12 0.796151 0.529799 0.135325
O O13 0.744716 0.897688 0.747803
O O14 0.014238 0.284835 0.223105
O O15 0.500000 0.500000 0.500000
O O16 0.297389 0.357491 0.605966
O O17 0.000000 0.500000 0.500000
#
# Coordination Sequence:
#
# PCOD8005901 Si02
#       8
#     2   2   2   2   2   2   2   2
#     4  10  20  39  63  94 121 165 220 261 312 383
#     4  11  24  42  67 104 131 167 215 270 329 389
#     4  10  23  40  66  93 133 167 210 269 328 385
#     4  10  22  39  64  91 126 165 214 269 313 379
#     4  12  23  40  71  93 128 177 215 261 334 386
#     4  11  26  42  63  97 138 169 215 266 321 395
#     4  11  24  44  62  89 131 173 220 268 317 385
#     4  11  22  43  65  96 134 165 209 276 330 382
#
# _framework density 20.924776999999999
#
# number of rings (size 3 to 8) (size 9 to 14) (size 15 to 20)
#    0.000    1.250    2.500    4.500    5.250    2.500 
#    0.000    1.875    0.000    0.000    0.000    0.000 
#    0.000    0.000    0.000    0.000    0.000    0.000 
#
# Total GULP energy -198234.657583 kJ/mol
# GULP energy per Si atom -12389.666099 kJ/mol
# Density = 2.087715 g / cm^3
# Si number density = 20.924777 Si / 1000 Ang^3
#
#
#
# Elastic Constant Matrix: (Units=GPa)
#
#
# Indices 1 2 3 4 5 6 
#
# 1 91.4313 36.8847 36.8697 -2.6753 -11.2881 -17.9134
# 2 36.8847 106.5686 35.3524 -9.5731 -10.3166 -11.8678
# 3 36.8697 35.3524 106.0302 -18.7304 -21.6355 -2.3459
# 4 -2.6753 -9.5731 -18.7304 39.4427 1.4831 -0.9533
# 5 -11.2881 -10.3166 -21.6355 1.4831 24.3470 -0.3381
# 6 -17.9134 -11.8678 -2.3459 -0.9533 -0.3381 26.6895
#
#
#
# Elastic Compliance Matrix: (Units=1/GPa)
#
#
# Indices 1 2 3 4 5 6 
#
# 1 0.015801 -0.003021 -0.003993 -0.001445 0.002709 0.008893
# 2 -0.003021 0.011807 -0.002206 0.001629 0.001586 0.003107
# 3 -0.003993 -0.002206 0.014493 0.005661 0.009719 -0.002061
# 4 -0.001445 0.001629 0.005661 0.028244 0.003348 0.001303
# 5 0.002709 0.001586 0.009719 0.003348 0.051491 0.004149
# 6 0.008893 0.003107 -0.002061 0.001303 0.004149 0.044736
#
#
# Mechanical properties :
#
#
# Convention : Reuss Voigt Hill
#
# Bulk Modulus (GPa) = 42.26496 58.02710 50.14603
# Shear Modulus (GPa) = 25.92030 31.09072 28.50551
#
# Velocity S-wave (km/s) = 3.52339 3.85883 3.69492
# Velocity P-wave (km/s) = 6.06587 6.90258 6.49770
#
# Compressibility (1/GPa) = 0.02366026
#
# Stress axis : x y z
#
# Youngs Moduli (GPa) = 63.28845 84.69587 69.00005
#
# Poissons Ratio (x) = 0.25591 0.27549
# Poissons Ratio (y) = 0.19122 0.15222
# Poissons Ratio (z) = 0.25268 0.18684
#
# Static dielectric constant tensor:
#      x y z
#    x 3.887660 -0.012520 -0.289220 
#    y -0.012520 3.709020 -0.253900 
#    z -0.289220 -0.253900 4.469900 
# 
# 
# High freq. dielectric constant tensor:
#      x y z
#    x 1.808560 -0.011340 -0.017110 
#    y -0.011340 1.818800 -0.015780 
#    z -0.017110 -0.015780 1.834260 
# 
# From -- ./inp_files/221540.got.cif
#   From: 2010.06.25/outbox.cif.g09.slc.cpg/sg2_111_cif.got.tgz:221540.got - 2010.06.27 13:26:56.
