data_PCOD8005234
_publ_section_title
;
Structure prediction by ZEFSAII (Michael W. Deem and Ramdas Pophale) SiO2 
 PCOD8005234
Probable space group: P -1
;
_chemical_formula_sum "Si O2"
_cell_formula_units_Z 16
_cell_length_a 20.315148
_cell_length_b 9.020269
_cell_length_c 5.187068
_cell_angle_alpha 81.686734
_cell_angle_beta 120.049873
_cell_angle_gamma 107.506470
_cell_volume 784.631892
_symmetry_space_group_name_H-M "P -1"
_symmetry_group_IT_number 2
_symmetry_cell_setting 'triclinic'
loop_
_space_group_symop_operation_xyz
x,y,z
-x,-y,-z
loop_
_atom_site_type_symbol
_atom_site_label
_atom_site_fract_x
_atom_site_fract_y
_atom_site_fract_z
Si Si1 0.216653 0.173638 0.663530
Si Si2 0.333893 0.063519 0.641048
Si Si3 0.591579 0.016658 0.672640
Si Si4 0.199424 0.925754 0.085021
Si Si5 0.954778 0.420464 0.680162
Si Si6 0.276287 0.686129 0.170596
Si Si7 0.928134 0.072788 0.810363
Si Si8 0.213881 0.517638 0.604736
O O1 0.194466 0.331895 0.630088
O O2 0.292794 0.199756 0.614102
O O3 0.138608 0.047084 0.448850
O O4 0.237435 0.093838 0.985991
O O5 0.390178 0.096965 0.489149
O O6 0.256392 0.921969 0.448530
O O7 0.382028 0.022342 0.983994
O O8 0.637342 0.195102 0.651561
O O9 0.500000 0.000000 0.500000
O O10 0.209701 0.781732 0.970917
O O11 0.108517 0.903178 0.987692
O O12 0.955796 0.241241 0.693595
O O13 0.866326 0.434488 0.522785
O O14 0.000000 0.500000 0.500000
O O15 0.000000 0.500000 0.000000
O O16 0.254581 0.572087 0.399172
O O17 0.275143 0.585372 0.937009
O O18 0.000000 0.000000 0.000000
#
# Coordination Sequence:
#
# PCOD8005234 Si02
#       8
#     2   2   2   2   2   2   2   2
#     4  11  24  41  67  93 127 177 224 268 324 393
#     4  10  20  38  65  97 127 164 216 260 311 382
#     4  11  22  39  71 106 133 164 214 269 324 388
#     4  10  21  40  67  89 124 171 225 268 319 381
#     4  12  27  44  61  91 132 169 214 283 340 372
#     4  11  22  42  65  96 126 167 215 269 319 384
#     4  11  25  41  65  92 130 173 228 276 335 393
#     4  12  26  41  66  93 131 169 225 267 327 391
#
# _framework density 20.391731
#
# number of rings (size 3 to 8) (size 9 to 14) (size 15 to 20)
#    0.000    1.000    3.750    4.125    7.000    0.500 
#    0.000    0.000    0.000    4.500    0.000    0.000 
#    0.000    0.000    0.000    0.000    0.000    0.000 
#
# Total GULP energy -198269.482291 kJ/mol
# GULP energy per Si atom -12391.842643 kJ/mol
# Density = 2.034532 g / cm^3
# Si number density = 20.391731 Si / 1000 Ang^3
#
#
#
# Elastic Constant Matrix: (Units=GPa)
#
#
# Indices 1 2 3 4 5 6 
#
# 1 136.7542 39.2344 59.1640 1.5759 7.8434 -1.3098
# 2 39.2344 140.8029 45.2621 -10.2110 1.1531 -4.5238
# 3 59.1640 45.2621 117.2882 0.5110 -5.7511 -3.2584
# 4 1.5759 -10.2110 0.5110 25.9433 3.3176 0.1491
# 5 7.8434 1.1531 -5.7511 3.3176 41.9792 -3.8390
# 6 -1.3098 -4.5238 -3.2584 0.1491 -3.8390 24.8843
#
#
#
# Elastic Compliance Matrix: (Units=1/GPa)
#
#
# Indices 1 2 3 4 5 6 
#
# 1 0.009811 -0.001316 -0.004576 -0.000709 -0.002431 -0.000693
# 2 -0.001316 0.008629 -0.002679 0.003593 -0.000547 0.001043
# 3 -0.004576 -0.002679 0.012048 -0.001380 0.002806 0.001291
# 4 -0.000709 0.003593 -0.001380 0.040465 -0.003383 -0.000329
# 5 -0.002431 -0.000547 0.002806 -0.003383 0.025314 0.004066
# 6 -0.000693 0.001043 0.001291 -0.000329 0.004066 0.041137
#
#
# Mechanical properties :
#
#
# Convention : Reuss Voigt Hill
#
# Bulk Modulus (GPa) = 74.94333 75.79624 75.36979
# Shear Modulus (GPa) = 31.44745 35.30702 33.37724
#
# Velocity S-wave (km/s) = 3.93130 4.16557 4.05013
# Velocity P-wave (km/s) = 7.57882 7.77089 7.67545
#
# Compressibility (1/GPa) = 0.01334341
#
# Stress axis : x y z
#
# Youngs Moduli (GPa) = 101.92761 115.89133 83.00232
#
# Poissons Ratio (x) = 0.15257 0.37984
# Poissons Ratio (y) = 0.13419 0.22239
# Poissons Ratio (z) = 0.46645 0.31051
#
# Static dielectric constant tensor:
#      x y z
#    x 3.979120 -0.070880 -0.360620 
#    y -0.070880 5.064670 -2.141480 
#    z -0.360620 -2.141480 7.322290 
# 
# 
# High freq. dielectric constant tensor:
#      x y z
#    x 1.801760 -0.013200 -0.016990 
#    y -0.013200 1.777790 0.004540 
#    z -0.016990 0.004540 1.802420 
# 
# From -- ./inp_files/55347.got.cif
#   From: 2010.06.25/outbox.cif.g09.slc.cpg/sg2_28_cif.got.tgz:55347.got - 2010.06.27 13:26:56.
