data_PCOD8005146
_publ_section_title
;
Structure prediction by ZEFSAII (Michael W. Deem and Ramdas Pophale) SiO2 
 PCOD8005146
Probable space group: P -1
;
_chemical_formula_sum "Si O2"
_cell_formula_units_Z 14
_cell_length_a 7.899464
_cell_length_b 16.579080
_cell_length_c 10.004474
_cell_angle_alpha 136.486571
_cell_angle_beta 116.583164
_cell_angle_gamma 88.246949
_cell_volume 708.905367
_symmetry_space_group_name_H-M "P -1"
_symmetry_group_IT_number 2
_symmetry_cell_setting 'triclinic'
loop_
_space_group_symop_operation_xyz
x,y,z
-x,-y,-z
loop_
_atom_site_type_symbol
_atom_site_label
_atom_site_fract_x
_atom_site_fract_y
_atom_site_fract_z
Si Si1 0.265561 0.826191 0.961672
Si Si2 0.995267 0.732788 0.010035
Si Si3 0.860160 0.233942 0.447318
Si Si4 0.645222 0.782813 0.083308
Si Si5 0.696512 0.053927 0.422977
Si Si6 0.331500 0.402207 0.925826
Si Si7 0.836882 0.476492 0.795518
O O1 0.066934 0.764247 0.919922
O O2 0.401518 0.743401 0.901923
O O3 0.434003 0.978986 0.249041
O O4 0.165670 0.825058 0.780902
O O5 0.194277 0.829215 0.290839
O O6 0.780702 0.745859 0.979812
O O7 0.950148 0.582829 0.843742
O O8 0.760138 0.111100 0.365132
O O9 0.740944 0.325716 0.526208
O O10 0.107814 0.330786 0.683171
O O11 0.622193 0.712327 0.134194
O O12 0.775526 0.943452 0.342226
O O13 0.500000 0.500000 0.000000
O O14 0.344122 0.494362 0.167417
O O15 0.000000 0.500000 0.000000
#
# Coordination Sequence:
#
# PCOD8005146 Si02
#       7
#     2   2   2   2   2   2   2
#     4  10  25  36  63  92 121 159 197 245 313 346
#     4  11  19  41  60  89 118 160 206 246 284 365
#     4  11  21  41  59  90 124 155 193 260 298 346
#     4   9  22  38  63  88 116 161 205 241 293 359
#     4  10  20  38  65  84 124 160 201 240 298 362
#     4  10  21  39  62  88 118 158 209 240 295 363
#     4   9  19  35  61  81 115 159 196 243 296 345
#
# _framework density 19.748757999999999
#
# number of rings (size 3 to 8) (size 9 to 14) (size 15 to 20)
#    0.857    1.143    4.286    1.286    4.000    0.571 
#    2.571    2.143    0.000    0.000    0.000    0.000 
#    0.000    0.000    0.000    0.000    0.000    0.000 
#
# Total GULP energy -173444.943912 kJ/mol
# GULP energy per Si atom -12388.924565 kJ/mol
# Density = 1.970381 g / cm^3
# Si number density = 19.748758 Si / 1000 Ang^3
#
#
#
# Elastic Constant Matrix: (Units=GPa)
#
#
# Indices 1 2 3 4 5 6 
#
# 1 73.2513 45.7184 13.7191 7.2938 5.9315 21.4806
# 2 45.7184 159.2124 40.1372 17.2831 -9.4497 26.1188
# 3 13.7191 40.1372 35.3696 2.8763 -7.7818 2.3269
# 4 7.2938 17.2831 2.8763 38.0290 0.9069 -2.7234
# 5 5.9315 -9.4497 -7.7818 0.9069 20.6815 1.6888
# 6 21.4806 26.1188 2.3269 -2.7234 1.6888 38.2938
#
#
#
# Elastic Compliance Matrix: (Units=1/GPa)
#
#
# Indices 1 2 3 4 5 6 
#
# 1 0.020093 -0.003332 -0.005113 -0.002360 -0.008413 -0.008484
# 2 -0.003332 0.011402 -0.010276 -0.004245 0.002952 -0.005715
# 3 -0.005113 -0.010276 0.044055 0.002505 0.012681 0.006819
# 4 -0.002360 -0.004245 0.002505 0.028984 -0.002100 0.006221
# 5 -0.008413 0.002952 0.012681 -0.002100 0.057037 -0.000730
# 6 -0.008484 -0.005715 0.006819 0.006221 -0.000730 0.034832
#
#
# Mechanical properties :
#
#
# Convention : Reuss Voigt Hill
#
# Bulk Modulus (GPa) = 26.24149 51.88695 39.06422
# Shear Modulus (GPa) = 20.28009 30.61809 25.44909
#
# Velocity S-wave (km/s) = 3.20801 3.94176 3.59366
# Velocity P-wave (km/s) = 5.19984 6.85909 6.08627
#
# Compressibility (1/GPa) = 0.03810759
#
# Stress axis : x y z
#
# Youngs Moduli (GPa) = 49.76816 87.70520 22.69901
#
# Poissons Ratio (x) = 0.29224 0.11607
# Poissons Ratio (y) = 0.16583 0.23325
# Poissons Ratio (z) = 0.25449 0.90123
#
# Static dielectric constant tensor:
#      x y z
#    x 3.592490 -0.088030 -0.167730 
#    y -0.088030 3.776740 0.274310 
#    z -0.167730 0.274310 3.553910 
# 
# 
# High freq. dielectric constant tensor:
#      x y z
#    x 1.750780 0.005320 -0.000890 
#    y 0.005320 1.785370 0.012070 
#    z -0.000890 0.012070 1.745610 
# 
# From -- ./inp_files/209116.got.cif
#   From: 2010.06.25/outbox.cif.g09.slc.cpg/sg2_105_cif.got.tgz:209116.got - 2010.06.27 13:26:56.
