data_PCOD8005196
_publ_section_title
;
Structure prediction by ZEFSAII (Michael W. Deem and Ramdas Pophale) SiO2 
 PCOD8005196
Probable space group: P -1
;
_chemical_formula_sum "Si O2"
_cell_formula_units_Z 12
_cell_length_a 11.127521
_cell_length_b 7.413265
_cell_length_c 8.254317
_cell_angle_alpha 80.393938
_cell_angle_beta 72.394721
_cell_angle_gamma 113.082973
_cell_volume 564.531572
_symmetry_space_group_name_H-M "P -1"
_symmetry_group_IT_number 2
_symmetry_cell_setting 'triclinic'
loop_
_space_group_symop_operation_xyz
x,y,z
-x,-y,-z
loop_
_atom_site_type_symbol
_atom_site_label
_atom_site_fract_x
_atom_site_fract_y
_atom_site_fract_z
Si Si1 0.073116 0.634902 0.692069
Si Si2 0.375265 0.824011 0.679621
Si Si3 0.368293 0.506712 0.962300
Si Si4 0.659039 0.139206 0.966711
Si Si5 0.074531 0.798965 0.320235
Si Si6 0.066776 0.144328 0.105609
O O1 0.240669 0.717983 0.632233
O O2 0.040900 0.718671 0.527055
O O3 0.004445 0.386490 0.750256
O O4 0.004857 0.707013 0.855079
O O5 0.420636 0.652857 0.756219
O O6 0.500000 0.000000 0.500000
O O7 0.330826 0.918645 0.839540
O O8 0.500000 0.500000 0.000000
O O9 0.304806 0.617598 0.094903
O O10 0.239507 0.282210 0.000310
O O11 0.758256 0.096461 0.810195
O O12 0.500000 0.000000 0.000000
O O13 0.028794 0.978653 0.292179
O O14 0.000000 0.000000 0.000000
#
# Coordination Sequence:
#
# PCOD8005196 Si02
#       6
#     2   2   2   2   2   2
#     4  11  23  43  63 101 131 176 227 278 336 400
#     4  10  22  39  65  93 135 171 220 279 333 398
#     4  10  23  40  66  99 135 170 229 272 335 409
#     4  10  20  38  65  92 128 179 219 266 341 395
#     4  11  23  40  68  93 137 174 224 275 335 402
#     4  12  24  41  70  98 135 176 228 281 336 403
#
# _framework density 21.256561000000001
#
# number of rings (size 3 to 8) (size 9 to 14) (size 15 to 20)
#    1.000    0.333    1.667    4.500    2.333    2.000 
#    0.000    0.000    0.000    5.000    0.000    0.000 
#    0.000    0.000    0.000    0.000    0.000    0.000 
#
# Total GULP energy -148693.727039 kJ/mol
# GULP energy per Si atom -12391.143920 kJ/mol
# Density = 2.120818 g / cm^3
# Si number density = 21.256561 Si / 1000 Ang^3
#
#
#
# Elastic Constant Matrix: (Units=GPa)
#
#
# Indices 1 2 3 4 5 6 
#
# 1 96.8043 46.7429 10.7966 -8.3926 8.2515 13.9930
# 2 46.7429 129.7749 24.8087 -8.7563 9.7472 18.5131
# 3 10.7966 24.8087 64.6122 -9.3010 1.8483 3.7371
# 4 -8.3926 -8.7563 -9.3010 39.5935 -3.5823 1.7882
# 5 8.2515 9.7472 1.8483 -3.5823 32.8929 -3.9803
# 6 13.9930 18.5131 3.7371 1.7882 -3.9803 45.9770
#
#
#
# Elastic Compliance Matrix: (Units=1/GPa)
#
#
# Indices 1 2 3 4 5 6 
#
# 1 0.012990 -0.003994 -0.000173 0.001748 -0.002188 -0.002589
# 2 -0.003994 0.010338 -0.002974 0.000676 -0.002174 -0.002920
# 3 -0.000173 -0.002974 0.017139 0.003370 0.000299 -0.000248
# 4 0.001748 0.000676 0.003370 0.026825 0.001856 -0.001961
# 5 -0.002188 -0.002174 0.000299 0.001856 0.032293 0.004241
# 6 -0.002589 -0.002920 -0.000248 -0.001961 0.004241 0.024177
#
#
# Mechanical properties :
#
#
# Convention : Reuss Voigt Hill
#
# Bulk Modulus (GPa) = 38.18923 50.65422 44.42172
# Shear Modulus (GPa) = 34.06620 37.61556 35.84088
#
# Velocity S-wave (km/s) = 4.00762 4.21122 4.11068
# Velocity P-wave (km/s) = 6.27850 6.89402 6.59344
#
# Compressibility (1/GPa) = 0.02618540
#
# Stress axis : x y z
#
# Youngs Moduli (GPa) = 76.98001 96.72807 58.34800
#
# Poissons Ratio (x) = 0.38636 0.01010
# Poissons Ratio (y) = 0.30748 0.17351
# Poissons Ratio (z) = 0.01332 0.28763
#
# Static dielectric constant tensor:
#      x y z
#    x 3.695020 0.028790 0.161590 
#    y 0.028790 3.968170 0.087100 
#    z 0.161590 0.087100 3.598220 
# 
# 
# High freq. dielectric constant tensor:
#      x y z
#    x 1.828930 0.010310 0.016100 
#    y 0.010310 1.850110 -0.003950 
#    z 0.016100 -0.003950 1.814650 
# 
# From -- ./inp_files/158598.got.cif
#   From: 2010.06.25/outbox.cif.g09.slc.cpg/sg2_80_cif.got.tgz:158598.got - 2010.06.27 13:26:56.
