data_PCOD8005761
_publ_section_title
;
Structure prediction by ZEFSAII (Michael W. Deem and Ramdas Pophale) SiO2 
 PCOD8005761
Probable space group: P -1
;
_chemical_formula_sum "Si O2"
_cell_formula_units_Z 16
_cell_length_a 8.325957
_cell_length_b 15.089931
_cell_length_c 7.969537
_cell_angle_alpha 105.136422
_cell_angle_beta 107.017126
_cell_angle_gamma 52.449585
_cell_volume 754.538142
_symmetry_space_group_name_H-M "P -1"
_symmetry_group_IT_number 2
_symmetry_cell_setting 'triclinic'
loop_
_space_group_symop_operation_xyz
x,y,z
-x,-y,-z
loop_
_atom_site_type_symbol
_atom_site_label
_atom_site_fract_x
_atom_site_fract_y
_atom_site_fract_z
Si Si1 0.514797 0.248066 0.277010
Si Si2 0.129565 0.877018 0.897306
Si Si3 0.344968 0.619679 0.428942
Si Si4 0.213457 0.381674 0.987992
Si Si5 0.488392 0.153196 0.541247
Si Si6 0.900218 0.750686 0.318762
Si Si7 0.096313 0.061621 0.479006
Si Si8 0.594706 0.297482 0.844819
O O1 0.653745 0.154889 0.129925
O O2 0.645474 0.287092 0.424878
O O3 0.444459 0.194255 0.357905
O O4 0.307660 0.354120 0.188021
O O5 0.003138 0.877891 0.700260
O O6 0.205894 0.773866 0.003066
O O7 0.000000 0.000000 0.000000
O O8 0.500000 0.500000 0.500000
O O9 0.382500 0.625996 0.243269
O O10 0.121453 0.642708 0.393964
O O11 0.179249 0.286022 0.876733
O O12 0.374741 0.382069 0.913361
O O13 0.000000 0.500000 0.000000
O O14 0.266879 0.193612 0.557933
O O15 0.587733 0.203387 0.702383
O O16 0.660560 0.020213 0.525438
O O17 0.938870 0.847700 0.344693
O O18 0.000000 0.000000 0.500000
#
# Coordination Sequence:
#
# PCOD8005761 Si02
#       8
#     2   2   2   2   2   2   2   2
#     4  10  21  41  63  90 122 170 214 253 318 389
#     4  11  20  35  65  93 120 165 213 247 312 376
#     4  11  22  41  67  93 122 167 221 266 313 378
#     4  10  22  43  64  90 129 168 207 272 325 367
#     4  10  20  39  62  91 126 166 207 262 316 382
#     4  11  24  40  62  97 129 159 218 270 311 380
#     4  12  21  40  67  91 129 177 209 252 322 389
#     4   9  21  39  65  91 125 167 213 256 316 387
#
# _framework density 21.205024999999999
#
# number of rings (size 3 to 8) (size 9 to 14) (size 15 to 20)
#    0.000    1.500    3.750    1.875    0.000    1.000 
#    2.250   10.000    0.000    0.000    0.000    0.000 
#    0.000    0.000    0.000    0.000    0.000    0.000 
#
# Total GULP energy -198221.359742 kJ/mol
# GULP energy per Si atom -12388.834984 kJ/mol
# Density = 2.115676 g / cm^3
# Si number density = 21.205025 Si / 1000 Ang^3
#
#
#
# Elastic Constant Matrix: (Units=GPa)
#
#
# Indices 1 2 3 4 5 6 
#
# 1 101.2241 49.4292 42.0809 -16.1286 1.9131 -19.5124
# 2 49.4292 99.4002 40.7423 -14.8788 -16.5636 -22.9057
# 3 42.0809 40.7423 111.6699 -24.5979 -10.7507 -3.4685
# 4 -16.1286 -14.8788 -24.5979 42.3819 1.0915 6.0364
# 5 1.9131 -16.5636 -10.7507 1.0915 27.4094 -1.2507
# 6 -19.5124 -22.9057 -3.4685 6.0364 -1.2507 42.3726
#
#
#
# Elastic Compliance Matrix: (Units=1/GPa)
#
#
# Indices 1 2 3 4 5 6 
#
# 1 0.015403 -0.006284 -0.003754 0.001206 -0.006255 0.003032
# 2 -0.006284 0.017672 -0.002643 0.001073 0.010339 0.006595
# 3 -0.003754 -0.002643 0.012746 0.005351 0.003325 -0.002778
# 4 0.001206 0.001073 0.005351 0.027834 0.001448 -0.002349
# 5 -0.006255 0.010339 0.003325 0.001448 0.044601 0.004091
# 6 0.003032 0.006595 -0.002778 -0.002349 0.004091 0.028790
#
#
# Mechanical properties :
#
#
# Convention : Reuss Voigt Hill
#
# Bulk Modulus (GPa) = 48.87642 64.08877 56.48260
# Shear Modulus (GPa) = 27.89746 34.43557 31.16652
#
# Velocity S-wave (km/s) = 3.63106 4.03418 3.83792
# Velocity P-wave (km/s) = 6.37801 7.21030 6.80689
#
# Compressibility (1/GPa) = 0.02045976
#
# Stress axis : x y z
#
# Youngs Moduli (GPa) = 64.92208 56.58765 78.45331
#
# Poissons Ratio (x) = 0.35558 0.29452
# Poissons Ratio (y) = 0.40795 0.20735
# Poissons Ratio (z) = 0.24372 0.14956
#
# Static dielectric constant tensor:
#      x y z
#    x 3.871620 -0.229680 -0.066850 
#    y -0.229680 3.844310 -0.048740 
#    z -0.066850 -0.048740 4.084390 
# 
# 
# High freq. dielectric constant tensor:
#      x y z
#    x 1.822710 -0.030780 0.000870 
#    y -0.030780 1.831630 -0.001820 
#    z 0.000870 -0.001820 1.832190 
# 
# From -- ./inp_files/207899.got.cif
#   From: 2010.06.25/outbox.cif.g09.slc.cpg/sg2_104_cif.got.tgz:207899.got - 2010.06.27 13:26:56.
