data_PCOD8005385
_publ_section_title
;
Structure prediction by ZEFSAII (Michael W. Deem and Ramdas Pophale) SiO2 
 PCOD8005385
Probable space group: P -1
;
_chemical_formula_sum "Si O2"
_cell_formula_units_Z 16
_cell_length_a 14.778205
_cell_length_b 14.594064
_cell_length_c 13.371524
_cell_angle_alpha 43.786995
_cell_angle_beta 147.858129
_cell_angle_gamma 152.452492
_cell_volume 704.695712
_symmetry_space_group_name_H-M "P -1"
_symmetry_group_IT_number 2
_symmetry_cell_setting 'triclinic'
loop_
_space_group_symop_operation_xyz
x,y,z
-x,-y,-z
loop_
_atom_site_type_symbol
_atom_site_label
_atom_site_fract_x
_atom_site_fract_y
_atom_site_fract_z
Si Si1 0.766507 0.764369 0.466980
Si Si2 0.015847 0.436322 0.411754
Si Si3 0.464834 0.172229 0.154139
Si Si4 0.421771 0.779360 0.202686
Si Si5 0.508982 0.397520 0.173976
Si Si6 0.125412 0.755142 0.784379
Si Si7 0.424158 0.549333 0.128222
Si Si8 0.860640 0.274778 0.832685
O O1 0.540076 0.697720 0.375351
O O2 0.650950 0.670597 0.323767
O O3 0.894916 0.699107 0.672136
O O4 0.000000 0.000000 0.500000
O O5 0.197613 0.455307 0.635879
O O6 0.139061 0.653789 0.332660
O O7 0.753154 0.285829 0.346658
O O8 0.977523 0.359000 0.325676
O O9 0.385493 0.193190 0.170177
O O10 0.268244 0.942935 0.124668
O O11 0.469878 0.279391 0.984158
O O12 0.287516 0.719554 0.230647
O O13 0.645603 0.014491 0.211461
O O14 0.218750 0.689054 0.994354
O O15 0.369513 0.375862 0.158353
O O16 0.500000 0.500000 0.000000
O O17 0.155578 0.431230 0.020662
#
# Coordination Sequence:
#
# PCOD8005385 Si02
#       8
#     2   2   2   2   2   2   2   2
#     4  10  21  37  65  96 127 174 217 263 321 389
#     4  11  21  41  65  94 126 166 220 267 318 398
#     4  10  22  41  68  91 121 174 211 271 334 379
#     4  10  21  39  61  98 132 174 214 260 326 383
#     4  10  22  43  68  93 126 169 214 273 333 383
#     4  10  20  38  68  90 133 173 217 265 316 393
#     4  10  22  42  64  93 131 164 218 270 320 391
#     4  11  24  39  65  96 130 171 214 264 328 388
#
# _framework density 22.704834000000002
#
# number of rings (size 3 to 8) (size 9 to 14) (size 15 to 20)
#    0.000    1.750    2.500    1.875    3.500    3.000 
#    2.250    3.750    0.000    0.000    0.000    0.000 
#    0.000    0.000    0.000    0.000    0.000    0.000 
#
# Total GULP energy -198217.495900 kJ/mol
# GULP energy per Si atom -12388.593494 kJ/mol
# Density = 2.265316 g / cm^3
# Si number density = 22.704834 Si / 1000 Ang^3
#
#
#
# Elastic Constant Matrix: (Units=GPa)
#
#
# Indices 1 2 3 4 5 6 
#
# 1 117.9144 49.0745 26.7117 15.7594 18.0690 -21.1802
# 2 49.0745 71.2046 26.0111 12.0667 6.1166 -0.9025
# 3 26.7117 26.0111 121.6479 10.1477 11.8563 7.2514
# 4 15.7594 12.0667 10.1477 12.3496 -9.4338 0.0648
# 5 18.0690 6.1166 11.8563 -9.4338 39.4172 -3.0970
# 6 -21.1802 -0.9025 7.2514 0.0648 -3.0970 29.4428
#
#
#
# Elastic Compliance Matrix: (Units=1/GPa)
#
#
# Indices 1 2 3 4 5 6 
#
# 1 0.019762 -0.007487 0.000271 -0.028801 -0.013888 0.012522
# 2 -0.007487 0.022193 -0.001401 -0.013365 -0.003156 -0.004663
# 3 0.000271 -0.001401 0.010237 -0.012033 -0.006100 -0.002984
# 4 -0.028801 -0.013365 -0.012033 0.189011 0.063195 -0.011933
# 5 -0.013888 -0.003156 -0.006100 0.063195 0.048904 -0.003580
# 6 0.012522 -0.004663 -0.002984 -0.011933 -0.003580 0.043214
#
#
# Mechanical properties :
#
#
# Convention : Reuss Voigt Hill
#
# Bulk Modulus (GPa) = 28.60561 57.15128 42.87844
# Shear Modulus (GPa) = 13.80429 30.17321 21.98875
#
# Velocity S-wave (km/s) = 2.46842 3.64941 3.11539
# Velocity P-wave (km/s) = 4.55526 6.55619 5.64509
#
# Compressibility (1/GPa) = 0.03495818
#
# Stress axis : x y z
#
# Youngs Moduli (GPa) = 50.60247 45.06025 97.68771
#
# Poissons Ratio (x) = 0.33735 -0.02648
# Poissons Ratio (y) = 0.37884 0.13685
# Poissons Ratio (z) = -0.01372 0.06313
#
# Static dielectric constant tensor:
#      x y z
#    x 4.465260 -0.393420 0.389550 
#    y -0.393420 4.163550 -0.114560 
#    z 0.389550 -0.114560 4.464450 
# 
# 
# High freq. dielectric constant tensor:
#      x y z
#    x 1.898320 -0.024100 0.014850 
#    y -0.024100 1.884150 0.002950 
#    z 0.014850 0.002950 1.906080 
# 
# From -- ./inp_files/534345.got.cif
#   From: 2010.06.25/outbox.cif.g09.slc.cpg/sg2_268_cif.got.tgz:534345.got - 2010.06.27 13:26:56.
