data_PCOD8005764
_publ_section_title
;
Structure prediction by ZEFSAII (Michael W. Deem and Ramdas Pophale) SiO2 
 PCOD8005764
Probable space group: P -1
;
_chemical_formula_sum "Si O2"
_cell_formula_units_Z 16
_cell_length_a 12.377824
_cell_length_b 8.065255
_cell_length_c 11.375101
_cell_angle_alpha 65.657071
_cell_angle_beta 126.645845
_cell_angle_gamma 84.258398
_cell_volume 731.201125
_symmetry_space_group_name_H-M "P -1"
_symmetry_group_IT_number 2
_symmetry_cell_setting 'triclinic'
loop_
_space_group_symop_operation_xyz
x,y,z
-x,-y,-z
loop_
_atom_site_type_symbol
_atom_site_label
_atom_site_fract_x
_atom_site_fract_y
_atom_site_fract_z
Si Si1 0.078730 0.076731 0.378799
Si Si2 0.817935 0.914028 0.932600
Si Si3 0.474684 0.937324 0.178320
Si Si4 0.115575 0.795308 0.271435
Si Si5 0.760935 0.272403 0.233501
Si Si6 0.463895 0.303011 0.944043
Si Si7 0.832022 0.663392 0.804462
Si Si8 0.372942 0.426593 0.458277
O O1 0.909808 0.241701 0.266456
O O2 0.157709 0.201258 0.336504
O O3 0.062358 0.924473 0.318577
O O4 0.187559 0.935360 0.595340
O O5 0.758966 0.803574 0.831605
O O6 0.702329 0.003833 0.940041
O O7 0.831980 0.098353 0.825568
O O8 0.979412 0.758266 0.141911
O O9 0.552575 0.793061 0.159668
O O10 0.556124 0.810378 0.385537
O O11 0.482129 0.150358 0.109206
O O12 0.260680 0.569936 0.447189
O O13 0.691360 0.479153 0.208092
O O14 0.621154 0.317221 0.041092
O O15 0.725901 0.559852 0.727437
O O16 0.000000 0.500000 0.000000
O O17 0.500000 0.500000 0.500000
#
# Coordination Sequence:
#
# PCOD8005764 Si02
#       8
#     2   2   2   2   2   2   2   2
#     4  10  22  39  66  93 125 164 214 264 306 376
#     4  10  21  39  62  88 128 171 211 255 312 380
#     4  11  23  41  60  93 126 166 212 262 315 376
#     4  10  20  39  62  91 127 169 212 255 312 380
#     4  10  21  42  63  92 121 166 211 261 317 369
#     4  10  23  40  63  87 127 165 209 262 317 375
#     4  11  24  41  63  96 131 167 212 260 313 383
#     4  12  24  41  63  95 133 169 209 261 320 377
#
# _framework density 21.881803999999999
#
# number of rings (size 3 to 8) (size 9 to 14) (size 15 to 20)
#    0.000    1.500    2.500    2.250    1.750    1.500 
#    4.500    0.000    0.000    8.250    0.000    0.000 
#    0.000    0.000    0.000    0.000    0.000    0.000 
#
# Total GULP energy -198325.924771 kJ/mol
# GULP energy per Si atom -12395.370298 kJ/mol
# Density = 2.183200 g / cm^3
# Si number density = 21.881804 Si / 1000 Ang^3
#
#
#
# Elastic Constant Matrix: (Units=GPa)
#
#
# Indices 1 2 3 4 5 6 
#
# 1 85.9448 31.5446 31.3643 -1.8848 19.7666 -16.4187
# 2 31.5446 93.9597 29.5367 3.8527 20.5342 -5.5266
# 3 31.3643 29.5367 84.8950 -7.0843 22.0095 5.0073
# 4 -1.8848 3.8527 -7.0843 42.0754 -1.0080 8.5596
# 5 19.7666 20.5342 22.0095 -1.0080 36.7057 -7.1466
# 6 -16.4187 -5.5266 5.0073 8.5596 -7.1466 30.5964
#
#
#
# Elastic Compliance Matrix: (Units=1/GPa)
#
#
# Indices 1 2 3 4 5 6 
#
# 1 0.016959 -0.002830 -0.005317 -0.001845 -0.002588 0.009371
# 2 -0.002830 0.013548 -0.002808 -0.002145 -0.004236 0.000999
# 3 -0.005317 -0.002808 0.017718 0.004731 -0.007896 -0.009428
# 4 -0.001845 -0.002145 0.004731 0.026677 -0.001868 -0.010051
# 5 -0.002588 -0.004236 -0.007896 -0.001868 0.037322 0.008379
# 6 0.009371 0.000999 -0.009428 -0.010051 0.008379 0.044205
#
#
# Mechanical properties :
#
#
# Convention : Reuss Voigt Hill
#
# Bulk Modulus (GPa) = 37.99866 49.96563 43.98214
# Shear Modulus (GPa) = 26.72216 33.36576 30.04396
#
# Velocity S-wave (km/s) = 3.49836 3.90913 3.70944
# Velocity P-wave (km/s) = 5.80699 6.57715 6.20404
#
# Compressibility (1/GPa) = 0.02631672
#
# Stress axis : x y z
#
# Youngs Moduli (GPa) = 58.96451 73.81164 56.43853
#
# Poissons Ratio (x) = 0.20888 0.30007
# Poissons Ratio (y) = 0.16686 0.15847
# Poissons Ratio (z) = 0.31350 0.20725
#
# Static dielectric constant tensor:
#      x y z
#    x 3.865320 -0.101590 0.056630 
#    y -0.101590 3.939780 -0.186680 
#    z 0.056630 -0.186680 3.949330 
# 
# 
# High freq. dielectric constant tensor:
#      x y z
#    x 1.852340 -0.009650 0.011920 
#    y -0.009650 1.858480 -0.011960 
#    z 0.011920 -0.011960 1.861940 
# 
# From -- ./inp_files/399794.got.cif
#   From: 2010.06.25/outbox.cif.g09.slc.cpg/sg2_200_cif.got.tgz:399794.got - 2010.06.27 13:26:56.
