data_PCOD8005873
_publ_section_title
;
Structure prediction by ZEFSAII (Michael W. Deem and Ramdas Pophale) SiO2 
 PCOD8005873
Probable space group: P -1
;
_chemical_formula_sum "Si O2"
_cell_formula_units_Z 16
_cell_length_a 8.357843
_cell_length_b 9.007336
_cell_length_c 23.501474
_cell_angle_alpha 31.354993
_cell_angle_beta 127.595203
_cell_angle_gamma 126.517476
_cell_volume 717.557446
_symmetry_space_group_name_H-M "P -1"
_symmetry_group_IT_number 2
_symmetry_cell_setting 'triclinic'
loop_
_space_group_symop_operation_xyz
x,y,z
-x,-y,-z
loop_
_atom_site_type_symbol
_atom_site_label
_atom_site_fract_x
_atom_site_fract_y
_atom_site_fract_z
Si Si1 0.039236 0.242091 0.714725
Si Si2 0.857269 0.719272 0.914805
Si Si3 0.201114 0.717652 0.452713
Si Si4 0.084341 0.760475 0.631882
Si Si5 0.583194 0.245174 0.206208
Si Si6 0.899794 0.677356 0.066558
Si Si7 0.796040 0.645434 0.711091
Si Si8 0.406031 0.285669 0.697979
O O1 0.132486 0.544711 0.664286
O O2 0.203450 0.162452 0.731153
O O3 0.824697 0.243303 0.633517
O O4 0.992892 0.026019 0.827874
O O5 0.636424 0.676920 0.848719
O O6 0.808110 0.690599 0.979947
O O7 0.000000 0.500000 0.000000
O O8 0.385643 0.551046 0.563436
O O9 0.000000 0.500000 0.500000
O O10 0.231680 0.026388 0.390282
O O11 0.298458 0.865694 0.677795
O O12 0.909423 0.622097 0.683368
O O13 0.000000 0.000000 0.500000
O O14 0.715039 0.541373 0.112809
O O15 0.541937 0.986068 0.236201
O O16 0.069628 0.466763 0.173169
O O17 0.000000 0.000000 0.000000
O O18 0.584336 0.418132 0.736993
#
# Coordination Sequence:
#
# PCOD8005873 Si02
#       8
#     2   2   2   2   2   2   2   2
#     4  11  23  39  61  95 128 163 212 264 311 369
#     4  12  25  42  64  91 123 163 213 271 316 357
#     4  10  20  39  63  91 128 170 205 251 315 384
#     4  11  22  40  64  97 132 163 203 263 318 371
#     4  11  24  44  66  92 126 171 212 253 319 392
#     4  11  23  43  65  88 123 171 216 258 311 376
#     4  11  23  40  63  93 127 170 215 253 311 391
#     4  11  22  41  66  93 126 169 210 253 314 392
#
# _framework density 22.297868000000001
#
# number of rings (size 3 to 8) (size 9 to 14) (size 15 to 20)
#    0.000    1.000    0.000   10.500    0.000    4.000 
#    0.000    4.375    0.000    0.000    0.000    0.000 
#    0.000    0.000    0.000    0.000    0.000    0.000 
#
# Total GULP energy -198376.550021 kJ/mol
# GULP energy per Si atom -12398.534376 kJ/mol
# Density = 2.224712 g / cm^3
# Si number density = 22.297868 Si / 1000 Ang^3
#
#
#
# Elastic Constant Matrix: (Units=GPa)
#
#
# Indices 1 2 3 4 5 6 
#
# 1 71.9324 32.1140 44.4137 5.2714 15.9784 9.2983
# 2 32.1140 123.4781 40.6952 -3.6786 6.9676 8.5907
# 3 44.4137 40.6952 135.6036 5.6538 4.8811 11.8544
# 4 5.2714 -3.6786 5.6538 49.9804 -5.0416 3.3678
# 5 15.9784 6.9676 4.8811 -5.0416 31.0086 4.4502
# 6 9.2983 8.5907 11.8544 3.3678 4.4502 37.2201
#
#
#
# Elastic Compliance Matrix: (Units=1/GPa)
#
#
# Indices 1 2 3 4 5 6 
#
# 1 0.021161 -0.003165 -0.005396 -0.002723 -0.009579 -0.001446
# 2 -0.003165 0.009625 -0.001825 0.001326 0.000112 -0.000983
# 3 -0.005396 -0.001825 0.009774 -0.000386 0.001808 -0.001525
# 4 -0.002723 0.001326 -0.000386 0.021062 0.004876 -0.001992
# 5 -0.009579 0.000112 0.001808 0.004876 0.038128 -0.003209
# 6 -0.001446 -0.000983 -0.001525 -0.001992 -0.003209 0.028505
#
#
# Mechanical properties :
#
#
# Convention : Reuss Voigt Hill
#
# Bulk Modulus (GPa) = 50.53917 62.82888 56.68403
# Shear Modulus (GPa) = 32.12877 37.89456 35.01167
#
# Velocity S-wave (km/s) = 3.80002 4.12694 3.96685
# Velocity P-wave (km/s) = 6.47829 7.13772 6.81598
#
# Compressibility (1/GPa) = 0.01978663
#
# Stress axis : x y z
#
# Youngs Moduli (GPa) = 47.25693 103.89735 102.31362
#
# Poissons Ratio (x) = 0.32885 0.55210
# Poissons Ratio (y) = 0.14957 0.18674
# Poissons Ratio (z) = 0.25501 0.18964
#
# Static dielectric constant tensor:
#      x y z
#    x 3.740480 0.198310 0.009880 
#    y 0.198310 3.761140 0.264150 
#    z 0.009880 0.264150 4.566930 
# 
# 
# High freq. dielectric constant tensor:
#      x y z
#    x 1.858400 0.003580 0.001640 
#    y 0.003580 1.882800 0.005330 
#    z 0.001640 0.005330 1.897170 
# 
# From -- ./inp_files/516131.got.cif
#   From: 2010.06.25/outbox.cif.g09.slc.cpg/sg2_259_cif.got.tgz:516131.got - 2010.06.27 13:26:56.
