data_PCOD8005081
_publ_section_title
;
Structure prediction by ZEFSAII (Michael W. Deem and Ramdas Pophale) SiO2 
 PCOD8005081
Probable space group: P -1
;
_chemical_formula_sum "Si O2"
_cell_formula_units_Z 16
_cell_length_a 18.258510
_cell_length_b 21.610105
_cell_length_c 9.468044
_cell_angle_alpha 39.047659
_cell_angle_beta 36.293603
_cell_angle_gamma 20.056340
_cell_volume 754.842920
_symmetry_space_group_name_H-M "P -1"
_symmetry_group_IT_number 2
_symmetry_cell_setting 'triclinic'
loop_
_space_group_symop_operation_xyz
x,y,z
-x,-y,-z
loop_
_atom_site_type_symbol
_atom_site_label
_atom_site_fract_x
_atom_site_fract_y
_atom_site_fract_z
Si Si1 0.087962 0.128575 0.406448
Si Si2 0.289033 0.643539 0.885065
Si Si3 0.091689 0.192106 0.991373
Si Si4 0.506813 0.221382 0.971867
Si Si5 0.478066 0.727110 0.454705
Si Si6 0.740535 0.787255 0.522090
Si Si7 0.913904 0.344146 0.576617
Si Si8 0.376572 0.652029 0.309021
O O1 0.023194 0.226892 0.474323
O O2 0.895977 0.178711 0.568148
O O3 0.332061 0.911610 0.426713
O O4 0.105725 0.196039 0.131282
O O5 0.307551 0.748255 0.675840
O O6 0.539856 0.432983 0.829332
O O7 0.188739 0.673784 0.135196
O O8 0.143617 0.702544 0.873024
O O9 0.117382 0.282812 0.717895
O O10 0.281418 0.992459 0.989794
O O11 0.434588 0.305405 0.780165
O O12 0.570483 0.269868 0.884926
O O13 0.297948 0.302911 0.228984
O O14 0.705785 0.557206 0.492152
O O15 0.879477 0.737481 0.526486
O O16 0.500000 0.000000 0.500000
O O17 0.500000 0.500000 0.500000
#
# Coordination Sequence:
#
# PCOD8005081 Si02
#       8
#     2   2   2   2   2   2   2   2
#     4  11  22  38  67  96 124 166 201 255 324 366
#     4  11  21  38  60  92 131 163 204 255 309 366
#     4   9  19  38  63  91 121 163 211 255 301 367
#     4  10  20  38  64  93 123 163 213 252 304 372
#     4  11  22  38  61  96 129 162 207 250 317 382
#     4   9  21  44  68  86 121 167 208 264 305 357
#     4  11  24  43  62  87 132 165 202 264 308 366
#     4  12  20  35  65  96 126 163 205 257 314 366
#
# _framework density 21.196463000000001
#
# number of rings (size 3 to 8) (size 9 to 14) (size 15 to 20)
#    0.000    1.500    3.750    1.125    0.000    3.000 
#    6.750    8.125    2.750    0.000    0.000    0.000 
#    0.000    0.000    0.000    0.000    0.000    0.000 
#
# Total GULP energy -198334.172623 kJ/mol
# GULP energy per Si atom -12395.885789 kJ/mol
# Density = 2.114822 g / cm^3
# Si number density = 21.196463 Si / 1000 Ang^3
#
#
#
# Elastic Constant Matrix: (Units=GPa)
#
#
# Indices 1 2 3 4 5 6 
#
# 1 85.4157 45.8858 69.5641 7.0626 8.4248 0.0318
# 2 45.8858 88.1882 35.0027 4.6113 15.7623 -8.5065
# 3 69.5641 35.0027 157.9559 6.1995 -2.1017 1.8695
# 4 7.0626 4.6113 6.1995 23.3107 -2.0926 7.5844
# 5 8.4248 15.7623 -2.1017 -2.0926 33.6739 10.3322
# 6 0.0318 -8.5065 1.8695 7.5844 10.3322 38.7298
#
#
#
# Elastic Compliance Matrix: (Units=1/GPa)
#
#
# Indices 1 2 3 4 5 6 
#
# 1 0.023589 -0.008226 -0.008465 -0.003527 -0.002805 0.000022
# 2 -0.008226 0.018358 -0.000488 -0.004200 -0.009067 0.007304
# 3 -0.008465 -0.000488 0.010202 0.000821 0.003556 -0.001702
# 4 -0.003527 -0.004200 0.000821 0.049855 0.010116 -0.013421
# 5 -0.002805 -0.009067 0.003556 0.010116 0.040042 -0.014824
# 6 0.000022 0.007304 -0.001702 -0.013421 -0.014824 0.034089
#
#
# Mechanical properties :
#
#
# Convention : Reuss Voigt Hill
#
# Bulk Modulus (GPa) = 56.20513 70.27389 63.23951
# Shear Modulus (GPa) = 23.10307 31.21668 27.15987
#
# Velocity S-wave (km/s) = 3.30502 3.84178 3.58346
# Velocity P-wave (km/s) = 6.41389 7.27356 6.85721
#
# Compressibility (1/GPa) = 0.01779197
#
# Stress axis : x y z
#
# Youngs Moduli (GPa) = 42.39323 54.47278 98.01916
#
# Poissons Ratio (x) = 0.44809 0.82971
# Poissons Ratio (y) = 0.34872 0.04779
# Poissons Ratio (z) = 0.35885 0.02656
#
# Static dielectric constant tensor:
#      x y z
#    x 3.606630 -0.187710 0.031830 
#    y -0.187710 3.918810 0.188650 
#    z 0.031830 0.188650 4.486800 
# 
# 
# High freq. dielectric constant tensor:
#      x y z
#    x 1.809950 -0.009780 0.009480 
#    y -0.009780 1.831400 0.013310 
#    z 0.009480 0.013310 1.846370 
# 
# From -- ./inp_files/295812.got.cif
#   From: 2010.06.25/outbox.cif.g09.slc.cpg/sg2_148_cif.got.tgz:295812.got - 2010.06.27 13:26:56.
