data_PCOD8005133
_publ_section_title
;
Structure prediction by ZEFSAII (Michael W. Deem and Ramdas Pophale) SiO2 
 PCOD8005133
Probable space group: P -1
;
_chemical_formula_sum "Si O2"
_cell_formula_units_Z 14
_cell_length_a 7.948928
_cell_length_b 11.146316
_cell_length_c 13.084978
_cell_angle_alpha 32.692743
_cell_angle_beta 106.210026
_cell_angle_gamma 95.991245
_cell_volume 581.944661
_symmetry_space_group_name_H-M "P -1"
_symmetry_group_IT_number 2
_symmetry_cell_setting 'triclinic'
loop_
_space_group_symop_operation_xyz
x,y,z
-x,-y,-z
loop_
_atom_site_type_symbol
_atom_site_label
_atom_site_fract_x
_atom_site_fract_y
_atom_site_fract_z
Si Si1 0.921718 0.422580 0.144291
Si Si2 0.410022 0.742384 0.612750
Si Si3 0.924410 0.335587 0.483676
Si Si4 0.214139 0.905462 0.774131
Si Si5 0.760956 0.461092 0.783103
Si Si6 0.917396 0.252308 0.765416
Si Si7 0.572847 0.795566 0.803748
O O1 0.873346 0.181343 0.280618
O O2 0.077423 0.403072 0.272334
O O3 0.744634 0.618551 0.008343
O O4 0.000000 0.500000 0.000000
O O5 0.227175 0.657287 0.633430
O O6 0.564851 0.628548 0.640850
O O7 0.482253 0.668214 0.792263
O O8 0.357789 0.012767 0.385696
O O9 0.851804 0.246755 0.641182
O O10 0.935797 0.595545 0.316226
O O11 0.112980 0.163099 0.604543
O O12 0.424171 0.898504 0.791408
O O13 0.203221 0.745710 0.982791
O O14 0.758772 0.368577 0.733775
O O15 0.000000 0.000000 0.000000
#
# Coordination Sequence:
#
# PCOD8005133 Si02
#       7
#     2   2   2   2   2   2   2
#     4  10  20  38  64  97 136 181 217 271 338 410
#     4  11  24  41  61 103 138 182 221 280 338 411
#     4  11  26  46  73  99 136 177 237 282 340 403
#     4  11  22  40  64 102 137 180 225 274 339 416
#     4  11  23  41  69  97 141 180 229 281 341 400
#     4  11  25  49  74  96 127 186 235 291 339 393
#     4  11  23  37  63 100 150 177 218 271 342 417
#
# _framework density 24.057272999999999
#
# number of rings (size 3 to 8) (size 9 to 14) (size 15 to 20)
#    0.000    1.143    4.286    3.000    4.000    1.143 
#    0.000    0.714    0.000    0.000    0.000    0.000 
#    0.000    0.000    0.000    0.000    0.000    0.000 
#
# Total GULP energy -173609.375097 kJ/mol
# GULP energy per Si atom -12400.669650 kJ/mol
# Density = 2.400252 g / cm^3
# Si number density = 24.057273 Si / 1000 Ang^3
#
#
#
# Elastic Constant Matrix: (Units=GPa)
#
#
# Indices 1 2 3 4 5 6 
#
# 1 121.4909 16.3461 15.8633 -11.0863 21.8538 -10.6947
# 2 16.3461 75.6773 24.7598 -3.7075 15.6271 -23.3958
# 3 15.8633 24.7598 85.6186 -9.9611 -1.0171 -1.5709
# 4 -11.0863 -3.7075 -9.9611 34.9384 -5.3590 -3.0328
# 5 21.8538 15.6271 -1.0171 -5.3590 36.6595 -4.3829
# 6 -10.6947 -23.3958 -1.5709 -3.0328 -4.3829 44.8751
#
#
#
# Elastic Compliance Matrix: (Units=1/GPa)
#
#
# Indices 1 2 3 4 5 6 
#
# 1 0.009752 0.000294 -0.001689 0.001983 -0.005454 0.002020
# 2 0.000294 0.019382 -0.005551 0.000229 -0.007450 0.009268
# 3 -0.001689 -0.005551 0.013987 0.003282 0.003978 -0.002197
# 4 0.001983 0.000229 0.003282 0.031059 0.003731 0.003170
# 5 -0.005454 -0.007450 0.003978 0.003731 0.034187 -0.001453
# 6 0.002020 0.009268 -0.002197 0.003170 -0.001453 0.027593
#
#
# Mechanical properties :
#
#
# Convention : Reuss Voigt Hill
#
# Bulk Modulus (GPa) = 34.21371 44.08055 39.14713
# Shear Modulus (GPa) = 31.32962 38.34910 34.83936
#
# Velocity S-wave (km/s) = 3.61264 3.99692 3.80963
# Velocity P-wave (km/s) = 5.62621 6.29789 5.97150
#
# Compressibility (1/GPa) = 0.02922805
#
# Stress axis : x y z
#
# Youngs Moduli (GPa) = 102.54460 51.59544 71.49623
#
# Poissons Ratio (x) = -0.01517 0.12075
# Poissons Ratio (y) = -0.03014 0.39688
# Poissons Ratio (z) = 0.17318 0.28641
#
# Static dielectric constant tensor:
#      x y z
#    x 4.471850 -0.115750 -0.166530 
#    y -0.115750 4.754950 0.102190 
#    z -0.166530 0.102190 4.269640 
# 
# 
# High freq. dielectric constant tensor:
#      x y z
#    x 1.958790 -0.024550 -0.021460 
#    y -0.024550 1.937430 -0.000550 
#    z -0.021460 -0.000550 1.964750 
# 
# From -- ./inp_files/357240.got.cif
#   From: 2010.06.25/outbox.cif.g09.slc.cpg/sg2_179_cif.got.tgz:357240.got - 2010.06.27 13:26:56.
