data_PCOD8005433
_publ_section_title
;
Structure prediction by ZEFSAII (Michael W. Deem and Ramdas Pophale) SiO2 
 PCOD8005433
Probable space group: P -1
;
_chemical_formula_sum "Si O2"
_cell_formula_units_Z 16
_cell_length_a 12.556403
_cell_length_b 12.600201
_cell_length_c 9.669546
_cell_angle_alpha 145.560208
_cell_angle_beta 136.160512
_cell_angle_gamma 54.559874
_cell_volume 598.826528
_symmetry_space_group_name_H-M "P -1"
_symmetry_group_IT_number 2
_symmetry_cell_setting 'triclinic'
loop_
_space_group_symop_operation_xyz
x,y,z
-x,-y,-z
loop_
_atom_site_type_symbol
_atom_site_label
_atom_site_fract_x
_atom_site_fract_y
_atom_site_fract_z
Si Si1 0.196544 0.342155 0.618267
Si Si2 0.887846 0.181037 0.751317
Si Si3 0.082516 0.480608 0.390547
Si Si4 0.399912 0.096009 0.395023
Si Si5 0.644925 0.061619 0.110100
Si Si6 0.328037 0.513534 0.419050
Si Si7 0.856435 0.810771 0.202877
Si Si8 0.411596 0.600859 0.262087
O O1 0.158356 0.496195 0.629492
O O2 0.238883 0.145897 0.374577
O O3 0.036329 0.347333 0.563659
O O4 0.342083 0.414271 0.922937
O O5 0.716422 0.253304 0.661409
O O6 0.974719 0.236512 0.746627
O O7 0.868004 0.950500 0.498172
O O8 0.983986 0.280722 0.071621
O O9 0.219470 0.482299 0.414318
O O10 0.471025 0.295238 0.621836
O O11 0.500000 0.000000 0.500000
O O12 0.379281 0.955363 0.095993
O O13 0.682654 0.275530 0.412933
O O14 0.784146 0.932606 0.141758
O O15 0.500000 0.000000 0.000000
O O16 0.500768 0.456885 0.573016
O O17 0.255055 0.375879 0.079892
#
# Coordination Sequence:
#
# PCOD8005433 Si02
#       8
#     2   2   2   2   2   2   2   2
#     4  10  20  38  69  98 142 188 231 297 359 431
#     4   9  20  40  70  97 141 191 230 307 345 425
#     4   9  19  39  67 102 138 189 242 289 367 423
#     4  12  24  41  66 107 148 184 238 300 358 429
#     4  12  27  47  72 107 147 188 243 302 367 432
#     4  11  23  43  74 102 140 193 238 297 365 433
#     4  10  21  45  69  97 144 186 242 291 358 429
#     4  11  21  40  70 104 142 184 240 294 366 429
#
# _framework density 26.718924000000001
#
# number of rings (size 3 to 8) (size 9 to 14) (size 15 to 20)
#    0.000    1.500    2.500    2.625    1.750    0.500 
#    2.250    6.250    2.750    0.000    0.000    0.000 
#    0.000    0.000    0.000    0.000    0.000    0.000 
#
# Total GULP energy -198296.338250 kJ/mol
# GULP energy per Si atom -12393.521141 kJ/mol
# Density = 2.665811 g / cm^3
# Si number density = 26.718924 Si / 1000 Ang^3
#
#
#
# Elastic Constant Matrix: (Units=GPa)
#
#
# Indices 1 2 3 4 5 6 
#
# 1 79.8271 14.1273 44.5337 1.5792 -24.2774 -35.2944
# 2 14.1273 82.3993 30.5778 4.8545 -7.3026 -9.4134
# 3 44.5337 30.5778 158.0468 15.6717 -7.7388 -0.4626
# 4 1.5792 4.8545 15.6717 44.2643 -3.3182 -10.6908
# 5 -24.2774 -7.3026 -7.7388 -3.3182 40.2712 -3.4307
# 6 -35.2944 -9.4134 -0.4626 -10.6908 -3.4307 52.0333
#
#
#
# Elastic Compliance Matrix: (Units=1/GPa)
#
#
# Indices 1 2 3 4 5 6 
#
# 1 0.040753 0.002724 -0.011828 0.012224 0.026547 0.032293
# 2 0.002724 0.013739 -0.003318 0.001023 0.003987 0.004777
# 3 -0.011828 -0.003318 0.010514 -0.005934 -0.007071 -0.010215
# 4 0.012224 0.001023 -0.005934 0.028505 0.010036 0.014943
# 5 0.026547 0.003987 -0.007071 0.010036 0.043034 0.023565
# 6 0.032293 0.004777 -0.010215 0.014943 0.023565 0.046520
#
#
# Mechanical properties :
#
#
# Convention : Reuss Voigt Hill
#
# Bulk Modulus (GPa) = 24.89892 55.41673 40.15782
# Shear Modulus (GPa) = 22.59404 42.71607 32.65506
#
# Velocity S-wave (km/s) = 2.91111 4.00274 3.49975
# Velocity P-wave (km/s) = 4.54296 6.49216 5.60298
#
# Compressibility (1/GPa) = 0.04016239
#
# Stress axis : x y z
#
# Youngs Moduli (GPa) = 24.53803 72.78521 95.10887
#
# Poissons Ratio (x) = -0.19826 1.12494
# Poissons Ratio (y) = -0.06684 0.31556
# Poissons Ratio (z) = 0.29023 0.24149
#
# Static dielectric constant tensor:
#      x y z
#    x 5.284490 -0.351840 0.031040 
#    y -0.351840 4.790880 -0.081010 
#    z 0.031040 -0.081010 5.488140 
# 
# 
# High freq. dielectric constant tensor:
#      x y z
#    x 2.096600 -0.029000 -0.016210 
#    y -0.029000 2.065370 -0.015070 
#    z -0.016210 -0.015070 2.076140 
# 
# From -- ./inp_files/456068.got.cif
#   From: 2010.06.25/outbox.cif.g09.slc.cpg/sg2_229_cif.got.tgz:456068.got - 2010.06.27 13:26:56.
