data_PCOD8005046
_publ_section_title
;
Structure prediction by ZEFSAII (Michael W. Deem and Ramdas Pophale) SiO2 
 PCOD8005046
Probable space group: P -1
;
_chemical_formula_sum "Si O2"
_cell_formula_units_Z 14
_cell_length_a 11.815577
_cell_length_b 5.469261
_cell_length_c 10.884639
_cell_angle_alpha 82.116032
_cell_angle_beta 119.920218
_cell_angle_gamma 92.598378
_cell_volume 603.663983
_symmetry_space_group_name_H-M "P -1"
_symmetry_group_IT_number 2
_symmetry_cell_setting 'triclinic'
loop_
_space_group_symop_operation_xyz
x,y,z
-x,-y,-z
loop_
_atom_site_type_symbol
_atom_site_label
_atom_site_fract_x
_atom_site_fract_y
_atom_site_fract_z
Si Si1 0.545333 0.720270 0.428273
Si Si2 0.109955 0.951144 0.350778
Si Si3 0.396251 0.819027 0.905208
Si Si4 0.196254 0.410416 0.531032
Si Si5 0.322262 0.065210 0.289542
Si Si6 0.638648 0.624281 0.933836
Si Si7 0.820703 0.840921 0.221730
O O1 0.500000 0.500000 0.500000
O O2 0.645535 0.619821 0.386314
O O3 0.622015 0.903902 0.545335
O O4 0.417858 0.859680 0.288891
O O5 0.154697 0.686597 0.449796
O O6 0.955848 0.947230 0.241708
O O7 0.131648 0.191970 0.431288
O O8 0.176490 0.977903 0.249174
O O9 0.338321 0.659822 0.998120
O O10 0.268363 0.952912 0.766359
O O11 0.480359 0.664898 0.860482
O O12 0.500000 0.000000 0.000000
O O13 0.154551 0.383544 0.653362
O O14 0.321593 0.313342 0.189249
O O15 0.732749 0.780925 0.060735
#
# Coordination Sequence:
#
# PCOD8005046 Si02
#       7
#     2   2   2   2   2   2   2
#     4  10  20  38  64  89 124 167 209 265 318 374
#     4  11  25  43  64  96 130 173 213 268 315 383
#     4   9  21  41  57  94 120 165 210 257 320 374
#     4  11  24  42  66  95 128 169 221 267 317 374
#     4  10  22  40  61  96 128 164 215 260 325 381
#     4  10  22  40  66  90 128 164 210 271 316 387
#     4  11  24  39  66  90 127 170 214 262 324 379
#
# _framework density 23.191711000000002
#
# number of rings (size 3 to 8) (size 9 to 14) (size 15 to 20)
#    0.000    1.714    1.429    1.714    4.000    6.286 
#    0.000    0.714    0.000    0.000    0.000    0.000 
#    0.000    0.000    0.000    0.000    0.000    0.000 
#
# Total GULP energy -173439.380207 kJ/mol
# GULP energy per Si atom -12388.527158 kJ/mol
# Density = 2.313893 g / cm^3
# Si number density = 23.191711 Si / 1000 Ang^3
#
#
#
# Elastic Constant Matrix: (Units=GPa)
#
#
# Indices 1 2 3 4 5 6 
#
# 1 143.7469 24.7149 42.8608 -6.6331 12.0658 35.4320
# 2 24.7149 89.0872 21.2581 -23.7626 3.3207 11.9217
# 3 42.8608 21.2581 80.5068 -16.8420 -12.1973 13.0188
# 4 -6.6331 -23.7626 -16.8420 35.9171 6.8140 -9.3583
# 5 12.0658 3.3207 -12.1973 6.8140 38.9441 -9.9352
# 6 35.4320 11.9217 13.0188 -9.3583 -9.9352 32.6526
#
#
#
# Elastic Compliance Matrix: (Units=1/GPa)
#
#
# Indices 1 2 3 4 5 6 
#
# 1 0.013607 -0.000577 -0.006698 -0.003278 -0.009716 -0.015780
# 2 -0.000577 0.014671 -0.001894 0.008757 -0.003872 -0.002643
# 3 -0.006698 -0.001894 0.018137 0.005732 0.008152 0.004851
# 4 -0.003278 0.008757 0.005732 0.038361 -0.002531 0.008298
# 5 -0.009716 -0.003872 0.008152 -0.002531 0.036916 0.019214
# 6 -0.015780 -0.002643 0.004851 0.008298 0.019214 0.055004
#
#
# Mechanical properties :
#
#
# Convention : Reuss Voigt Hill
#
# Bulk Modulus (GPa) = 35.61581 54.55649 45.08615
# Shear Modulus (GPa) = 24.46286 36.46989 30.46637
#
# Velocity S-wave (km/s) = 3.25131 3.96983 3.62840
# Velocity P-wave (km/s) = 5.43002 6.67742 6.08576
#
# Compressibility (1/GPa) = 0.02807742
#
# Stress axis : x y z
#
# Youngs Moduli (GPa) = 73.49280 68.16198 55.13614
#
# Poissons Ratio (x) = 0.03933 0.36929
# Poissons Ratio (y) = 0.04241 0.10442
# Poissons Ratio (z) = 0.49224 0.12908
#
# Static dielectric constant tensor:
#      x y z
#    x 4.866320 -0.005540 0.334010 
#    y -0.005540 4.468450 -0.013130 
#    z 0.334010 -0.013130 4.248350 
# 
# 
# High freq. dielectric constant tensor:
#      x y z
#    x 1.924410 0.014730 0.003530 
#    y 0.014730 1.917590 -0.021530 
#    z 0.003530 -0.021530 1.892200 
# 
# From -- ./inp_files/66152.got.cif
#   From: 2010.06.25/outbox.cif.g09.slc.cpg/sg2_34_cif.got.tgz:66152.got - 2010.06.27 13:26:56.
