data_PCOD8005226
_publ_section_title
;
Structure prediction by ZEFSAII (Michael W. Deem and Ramdas Pophale) SiO2 
 PCOD8005226
Probable space group: P -1
;
_chemical_formula_sum "Si O2"
_cell_formula_units_Z 16
_cell_length_a 11.026103
_cell_length_b 19.436010
_cell_length_c 16.831257
_cell_angle_alpha 156.676674
_cell_angle_beta 30.482803
_cell_angle_gamma 145.611972
_cell_volume 714.060141
_symmetry_space_group_name_H-M "P -1"
_symmetry_group_IT_number 2
_symmetry_cell_setting 'triclinic'
loop_
_space_group_symop_operation_xyz
x,y,z
-x,-y,-z
loop_
_atom_site_type_symbol
_atom_site_label
_atom_site_fract_x
_atom_site_fract_y
_atom_site_fract_z
Si Si1 0.762574 0.024973 0.839000
Si Si2 0.555705 0.629319 0.261341
Si Si3 0.660812 0.354043 0.800129
Si Si4 0.145676 0.782627 0.592641
Si Si5 0.995449 0.295836 0.688123
Si Si6 0.159999 0.134166 0.863166
Si Si7 0.086352 0.699040 0.084258
Si Si8 0.163379 0.354143 0.246456
O O1 0.755496 0.159528 0.912235
O O2 0.963102 0.113405 0.882437
O O3 0.816626 0.836680 0.577403
O O4 0.500000 0.000000 0.000000
O O5 0.377211 0.774086 0.510986
O O6 0.441044 0.454844 0.193094
O O7 0.803723 0.717682 0.254266
O O8 0.604118 0.548835 0.060865
O O9 0.845816 0.378132 0.645512
O O10 0.420382 0.215193 0.766474
O O11 0.785663 0.270050 0.713998
O O12 0.897512 0.766072 0.767048
O O13 0.181263 0.949998 0.695253
O O14 0.858558 0.251480 0.802578
O O15 0.132370 0.500701 0.827898
O O16 0.083210 0.249906 0.101014
O O17 0.000000 0.500000 0.500000
#
# Coordination Sequence:
#
# PCOD8005226 Si02
#       8
#     2   2   2   2   2   2   2   2
#     4  12  27  46  66  99 136 175 221 271 334 394
#     4   9  20  37  63  97 122 170 214 259 331 383
#     4  10  20  38  65  95 128 159 217 269 314 391
#     4  11  19  34  61  91 130 163 202 270 322 378
#     4  10  23  46  68 102 127 175 229 264 330 388
#     4  11  23  41  60  96 130 164 217 267 329 386
#     4  10  23  46  72  94 133 176 224 275 318 395
#     4   9  21  38  56  90 129 165 209 258 323 391
#
# _framework density 22.407074999999999
#
# number of rings (size 3 to 8) (size 9 to 14) (size 15 to 20)
#    0.000    1.750    1.250    2.250    1.750    7.500 
#   11.250    0.000    0.000    0.000    0.000    0.000 
#    0.000    0.000    0.000    0.000    0.000    0.000 
#
# Total GULP energy -198290.192876 kJ/mol
# GULP energy per Si atom -12393.137055 kJ/mol
# Density = 2.235608 g / cm^3
# Si number density = 22.407075 Si / 1000 Ang^3
#
#
#
# Elastic Constant Matrix: (Units=GPa)
#
#
# Indices 1 2 3 4 5 6 
#
# 1 92.4690 46.2835 21.7130 -3.1024 8.6212 -13.6985
# 2 46.2835 104.9000 35.9703 -9.9202 3.3122 -23.3115
# 3 21.7130 35.9703 108.3871 -9.1674 5.1127 -14.3168
# 4 -3.1024 -9.9202 -9.1674 25.6174 -12.1619 -0.0981
# 5 8.6212 3.3122 5.1127 -12.1619 34.7354 2.5236
# 6 -13.6985 -23.3115 -14.3168 -0.0981 2.5236 39.2787
#
#
#
# Elastic Compliance Matrix: (Units=1/GPa)
#
#
# Indices 1 2 3 4 5 6 
#
# 1 0.014455 -0.005907 -0.000778 -0.002690 -0.003961 0.001500
# 2 -0.005907 0.014690 -0.002621 0.004891 0.001756 0.005602
# 3 -0.000778 -0.002621 0.010769 0.002563 -0.000399 0.002130
# 4 -0.002690 0.004891 0.002563 0.049628 0.017060 0.001927
# 5 -0.003961 0.001756 -0.000399 0.017060 0.035836 -0.002744
# 6 0.001500 0.005602 0.002130 0.001927 -0.002744 0.030265
#
#
# Mechanical properties :
#
#
# Convention : Reuss Voigt Hill
#
# Bulk Modulus (GPa) = 46.94452 57.07665 52.01059
# Shear Modulus (GPa) = 27.57025 33.37892 30.47459
#
# Velocity S-wave (km/s) = 3.51155 3.86380 3.69188
# Velocity P-wave (km/s) = 6.11862 6.74041 6.43703
#
# Compressibility (1/GPa) = 0.02130174
#
# Stress axis : x y z
#
# Youngs Moduli (GPa) = 69.18057 68.07405 92.86002
#
# Poissons Ratio (x) = 0.40212 0.07224
# Poissons Ratio (y) = 0.40865 0.24338
# Poissons Ratio (z) = 0.05382 0.17842
#
# Static dielectric constant tensor:
#      x y z
#    x 3.496210 0.536970 -0.923270 
#    y 0.536970 2.991610 1.355630 
#    z -0.923270 1.355630 2.823070 
# 
# 
# High freq. dielectric constant tensor:
#      x y z
#    x 1.884390 -0.029480 0.000630 
#    y -0.029480 1.868340 -0.000870 
#    z 0.000630 -0.000870 1.892300 
# 
# From -- ./inp_files/570782.got.cif
#   From: 2010.06.25/outbox.cif.g09.slc.cpg/sg2_286_cif.got.tgz:570782.got - 2010.06.27 13:26:56.
