data_PCOD8005454
_publ_section_title
;
Structure prediction by ZEFSAII (Michael W. Deem and Ramdas Pophale) SiO2 
 PCOD8005454
Probable space group: P -1
;
_chemical_formula_sum "Si O2"
_cell_formula_units_Z 16
_cell_length_a 11.778393
_cell_length_b 14.313648
_cell_length_c 10.582425
_cell_angle_alpha 118.253648
_cell_angle_beta 51.517737
_cell_angle_gamma 146.473665
_cell_volume 767.112968
_symmetry_space_group_name_H-M "P -1"
_symmetry_group_IT_number 2
_symmetry_cell_setting 'triclinic'
loop_
_space_group_symop_operation_xyz
x,y,z
-x,-y,-z
loop_
_atom_site_type_symbol
_atom_site_label
_atom_site_fract_x
_atom_site_fract_y
_atom_site_fract_z
Si Si1 0.716267 0.979406 0.845178
Si Si2 0.457731 0.956666 0.810638
Si Si3 0.092561 0.649141 0.231795
Si Si4 0.843061 0.707106 0.381405
Si Si5 0.461156 0.486786 0.310724
Si Si6 0.313592 0.580627 0.282699
Si Si7 0.576032 0.340365 0.023293
Si Si8 0.177117 0.664674 0.615895
O O1 0.516861 0.898014 0.831573
O O2 0.656859 0.834240 0.859016
O O3 0.952925 0.098052 0.679529
O O4 0.728588 0.073900 0.009791
O O5 0.338925 0.833831 0.693993
O O6 0.690863 0.156431 0.737905
O O7 0.935388 0.638259 0.248153
O O8 0.919704 0.499766 0.358685
O O9 0.208328 0.614021 0.056929
O O10 0.624462 0.621227 0.396336
O O11 0.781024 0.683037 0.558853
O O12 0.426238 0.553966 0.271426
O O13 0.607188 0.476435 0.138385
O O14 0.326777 0.703165 0.420739
O O15 0.046280 0.396369 0.315926
O O16 0.458480 0.677201 0.115187
#
# Coordination Sequence:
#
# PCOD8005454 Si02
#       8
#     2   2   2   2   2   2   2   2
#     4   9  20  39  58  94 132 144 209 259 306 379
#     4   9  19  36  64  99 125 153 199 277 310 353
#     4   9  19  39  62  99 120 146 217 254 300 376
#     4  10  22  38  63  90 124 158 203 265 303 368
#     4  11  23  39  62  89 125 165 202 254 311 364
#     4  10  22  41  58  93 124 159 223 246 285 397
#     4  10  22  38  63  85 124 167 193 257 310 357
#     4  10  20  38  71  86 122 172 203 258 317 350
#
# _framework density 20.857423000000001
#
# number of rings (size 3 to 8) (size 9 to 14) (size 15 to 20)
#    0.000    2.250    1.250    1.125    5.250    1.000 
#    0.000   11.875    5.500    0.000    0.000    0.000 
#    0.000    0.000    0.000    0.000    0.000    0.000 
#
# Total GULP energy -198210.288859 kJ/mol
# GULP energy per Si atom -12388.143054 kJ/mol
# Density = 2.080995 g / cm^3
# Si number density = 20.857423 Si / 1000 Ang^3
#
#
#
# Elastic Constant Matrix: (Units=GPa)
#
#
# Indices 1 2 3 4 5 6 
#
# 1 108.9141 13.2941 15.2076 -3.7887 -9.2251 -4.5685
# 2 13.2941 32.6262 -17.0719 7.3421 -13.8524 7.7580
# 3 15.2076 -17.0719 40.4042 3.2056 -16.1089 0.7708
# 4 -3.7887 7.3421 3.2056 37.2825 -1.8792 9.9863
# 5 -9.2251 -13.8524 -16.1089 -1.8792 20.8726 -1.2437
# 6 -4.5685 7.7580 0.7708 9.9863 -1.2437 24.4816
#
#
#
# Elastic Compliance Matrix: (Units=1/GPa)
#
#
# Indices 1 2 3 4 5 6 
#
# 1 0.006936 0.017476 0.015452 -0.002057 0.026251 -0.002557
# 2 0.017476 -0.103539 -0.108756 0.017646 -0.141842 0.025092
# 3 0.015452 -0.108756 -0.077500 0.016280 -0.122090 0.026944
# 4 -0.002057 0.017646 0.016280 0.027383 0.024855 -0.016395
# 5 0.026251 -0.141842 -0.122090 0.024855 -0.124393 0.037233
# 6 -0.002557 0.025092 0.026944 -0.016395 0.037233 0.040149
#
#
# Mechanical properties :
#
#
# Convention : Reuss Voigt Hill
#
# Bulk Modulus (GPa) = -3.06973 22.75602 9.84314
# Shear Modulus (GPa) = -26.61079 27.89498 0.64210
#
# Velocity S-wave (km/s) = -3.57577 3.66103 0.55544
# Velocity P-wave (km/s) = 4.30385 5.36701 2.26735
#
# Compressibility (1/GPa) = -0.32576107
#
# Stress axis : x y z
#
# Youngs Moduli (GPa) = 144.18350 -9.65822 -12.90316
#
# Poissons Ratio (x) = 0.16878 0.19937
# Poissons Ratio (y) = -2.51971 -1.40330
# Poissons Ratio (z) = -2.22785 -1.05039
#
# Static dielectric constant tensor:
#      x y z
#    x 3.746720 -0.132750 0.052140 
#    y -0.132750 3.428860 -0.216140 
#    z 0.052140 -0.216140 3.952070 
# 
# 
# High freq. dielectric constant tensor:
#      x y z
#    x 1.810670 -0.014040 0.003010 
#    y -0.014040 1.780970 -0.015050 
#    z 0.003010 -0.015050 1.823920 
# 
# From -- ./inp_files/312497.got.cif
#   From: 2010.06.25/outbox.cif.g09.slc.cpg/sg2_157_cif.got.tgz:312497.got - 2010.06.27 13:26:56.
