data_PCOD8005663
_publ_section_title
;
Structure prediction by ZEFSAII (Michael W. Deem and Ramdas Pophale) SiO2 
 PCOD8005663
Probable space group: P -1
;
_chemical_formula_sum "Si O2"
_cell_formula_units_Z 16
_cell_length_a 22.964789
_cell_length_b 16.940993
_cell_length_c 6.726230
_cell_angle_alpha 100.850534
_cell_angle_beta 65.374187
_cell_angle_gamma 157.893398
_cell_volume 730.395251
_symmetry_space_group_name_H-M "P -1"
_symmetry_group_IT_number 2
_symmetry_cell_setting 'triclinic'
loop_
_space_group_symop_operation_xyz
x,y,z
-x,-y,-z
loop_
_atom_site_type_symbol
_atom_site_label
_atom_site_fract_x
_atom_site_fract_y
_atom_site_fract_z
Si Si1 0.812168 0.307731 0.307043
Si Si2 0.318925 0.018187 0.691566
Si Si3 0.379850 0.360449 0.898509
Si Si4 0.063217 0.148440 0.620542
Si Si5 0.851313 0.497762 0.103201
Si Si6 0.669721 0.395377 0.614955
Si Si7 0.411844 0.523611 0.608053
Si Si8 0.709587 0.292971 0.784592
O O1 0.717591 0.264558 0.278791
O O2 0.852908 0.402804 0.503539
O O3 0.673399 0.065121 0.441752
O O4 0.000000 0.500000 0.000000
O O5 0.442827 0.161304 0.791432
O O6 0.445004 0.226255 0.460989
O O7 0.091825 0.778359 0.949777
O O8 0.385086 0.456013 0.836165
O O9 0.469689 0.400844 0.649625
O O10 0.500000 0.500000 0.000000
O O11 0.143784 0.055014 0.113443
O O12 0.186837 0.359433 0.407918
O O13 0.195385 0.281780 0.691041
O O14 0.000000 0.000000 0.500000
O O15 0.760544 0.471460 0.309292
O O16 0.839138 0.476041 0.874624
O O17 0.658290 0.313533 0.754781
O O18 0.500000 0.000000 0.000000
#
# Coordination Sequence:
#
# PCOD8005663 Si02
#       8
#     2   2   2   2   2   2   2   2
#     4   9  20  38  61  88 129 166 202 256 313 365
#     4  10  20  39  61  89 121 161 206 252 306 371
#     4  11  22  41  64  87 120 163 205 258 313 372
#     4  11  22  43  64  91 126 166 208 260 319 379
#     4  10  21  40  63  89 125 170 208 254 313 370
#     4  10  23  42  61  89 129 165 205 261 316 368
#     4  10  23  41  62  91 123 162 207 259 314 370
#     4  11  22  39  64  96 126 167 214 257 312 379
#
# _framework density 21.905947000000001
#
# number of rings (size 3 to 8) (size 9 to 14) (size 15 to 20)
#    0.000    1.750    1.250    2.625    0.000    5.000 
#    9.000    7.500    0.000    0.000    0.000    0.000 
#    0.000    0.000    0.000    0.000    0.000    0.000 
#
# Total GULP energy -198244.771866 kJ/mol
# GULP energy per Si atom -12390.298242 kJ/mol
# Density = 2.185609 g / cm^3
# Si number density = 21.905947 Si / 1000 Ang^3
#
#
#
# Elastic Constant Matrix: (Units=GPa)
#
#
# Indices 1 2 3 4 5 6 
#
# 1 124.0902 67.9357 34.8415 -11.8688 30.0257 -2.3998
# 2 67.9357 128.9755 52.4980 -15.6837 14.7321 -0.3403
# 3 34.8415 52.4980 86.5861 3.3534 7.8431 11.4867
# 4 -11.8688 -15.6837 3.3534 35.6408 2.9487 -4.6591
# 5 30.0257 14.7321 7.8431 2.9487 39.2660 -8.8558
# 6 -2.3998 -0.3403 11.4867 -4.6591 -8.8558 43.0858
#
#
#
# Elastic Compliance Matrix: (Units=1/GPa)
#
#
# Indices 1 2 3 4 5 6 
#
# 1 0.013726 -0.005190 -0.001697 0.003119 -0.008497 -0.000233
# 2 -0.005190 0.013912 -0.006876 0.005319 0.000237 0.002278
# 3 -0.001697 -0.006876 0.017396 -0.005915 -0.000396 -0.005508
# 4 0.003119 0.005319 -0.005915 0.032955 -0.004683 0.004394
# 5 -0.008497 0.000237 -0.000396 -0.004683 0.033670 0.006048
# 6 -0.000233 0.002278 -0.005508 0.004394 0.006048 0.026401
#
#
# Mechanical properties :
#
#
# Convention : Reuss Voigt Hill
#
# Bulk Modulus (GPa) = 57.11425 72.24469 64.67947
# Shear Modulus (GPa) = 29.16756 35.89028 32.52892
#
# Velocity S-wave (km/s) = 3.65292 4.05208 3.85767
# Velocity P-wave (km/s) = 6.62728 7.41239 7.03080
#
# Compressibility (1/GPa) = 0.01750877
#
# Stress axis : x y z
#
# Youngs Moduli (GPa) = 72.85273 71.88157 57.48302
#
# Poissons Ratio (x) = 0.37309 0.09753
# Poissons Ratio (y) = 0.37813 0.39525
# Poissons Ratio (z) = 0.12360 0.49425
#
# Static dielectric constant tensor:
#      x y z
#    x 4.459510 -0.223740 0.151010 
#    y -0.223740 3.754570 -0.291450 
#    z 0.151010 -0.291450 4.052250 
# 
# 
# High freq. dielectric constant tensor:
#      x y z
#    x 1.881540 -0.008610 -0.004330 
#    y -0.008610 1.855140 -0.013330 
#    z -0.004330 -0.013330 1.850120 
# 
# From -- ./inp_files/124792.got.cif
#   From: 2010.06.25/outbox.cif.g09.slc.cpg/sg2_63_cif.got.tgz:124792.got - 2010.06.27 13:26:56.
