data_PCOD8005074
_publ_section_title
;
Structure prediction by ZEFSAII (Michael W. Deem and Ramdas Pophale) SiO2 
 PCOD8005074
Probable space group: P -1
;
_chemical_formula_sum "Si O2"
_cell_formula_units_Z 14
_cell_length_a 22.673008
_cell_length_b 6.718534
_cell_length_c 9.675157
_cell_angle_alpha 129.547076
_cell_angle_beta 30.564773
_cell_angle_gamma 123.846673
_cell_volume 577.759402
_symmetry_space_group_name_H-M "P -1"
_symmetry_group_IT_number 2
_symmetry_cell_setting 'triclinic'
loop_
_space_group_symop_operation_xyz
x,y,z
-x,-y,-z
loop_
_atom_site_type_symbol
_atom_site_label
_atom_site_fract_x
_atom_site_fract_y
_atom_site_fract_z
Si Si1 0.950807 0.464530 0.790784
Si Si2 0.530168 0.839294 0.211132
Si Si3 0.662219 0.804420 0.185223
Si Si4 0.636604 0.611128 0.638519
Si Si5 0.823849 0.380231 0.733642
Si Si6 0.821548 0.231964 0.180343
Si Si7 0.172438 0.040647 0.678505
O O1 0.854325 0.368917 0.829839
O O2 0.078471 0.438448 0.459256
O O3 0.936106 0.292861 0.883304
O O4 0.932507 0.763101 0.003844
O O5 0.648050 0.847752 0.067213
O O6 0.446592 0.616581 0.354763
O O7 0.462999 0.110699 0.463671
O O8 0.557618 0.780366 0.972154
O O9 0.764320 0.979831 0.117580
O O10 0.698502 0.511529 0.019991
O O11 0.739955 0.478113 0.455184
O O12 0.703136 0.801428 0.479017
O O13 0.822623 0.094304 0.542106
O O14 0.849155 0.180237 0.261266
#
# Coordination Sequence:
#
# PCOD8005074 Si02
#       7
#     2   2   2   2   2   2   2
#     4  10  24  44  63  95 132 163 211 265 310 380
#     4   9  19  39  63  95 125 166 209 266 312 370
#     4  10  20  38  64  92 129 161 215 255 316 377
#     4   9  20  39  64  89 128 163 210 261 315 372
#     4  11  23  42  66  96 126 169 213 257 321 375
#     4  10  21  40  66  90 132 165 207 264 314 374
#     4  11  22  42  66  95 126 169 211 262 312 381
#
# _framework density 24.231539000000001
#
# number of rings (size 3 to 8) (size 9 to 14) (size 15 to 20)
#    0.000    2.000    1.429    1.286    2.000    1.143 
#    0.000   12.857    0.000    0.000    0.000    0.000 
#    0.000    0.000    0.000    0.000    0.000    0.000 
#
# Total GULP energy -173500.747344 kJ/mol
# GULP energy per Si atom -12392.910525 kJ/mol
# Density = 2.417639 g / cm^3
# Si number density = 24.231539 Si / 1000 Ang^3
#
#
#
# Elastic Constant Matrix: (Units=GPa)
#
#
# Indices 1 2 3 4 5 6 
#
# 1 62.9053 10.5885 19.7143 17.1822 8.1411 -2.3614
# 2 10.5885 70.1053 25.7369 -8.7011 11.4467 -16.5933
# 3 19.7143 25.7369 95.1070 14.9562 9.8496 -4.6663
# 4 17.1822 -8.7011 14.9562 40.9314 5.4009 8.4949
# 5 8.1411 11.4467 9.8496 5.4009 34.6787 2.4761
# 6 -2.3614 -16.5933 -4.6663 8.4949 2.4761 27.7446
#
#
#
# Elastic Compliance Matrix: (Units=1/GPa)
#
#
# Indices 1 2 3 4 5 6 
#
# 1 0.019494 -0.002335 -0.001739 -0.008316 -0.002210 0.002714
# 2 -0.002335 0.020570 -0.004841 0.005891 -0.006503 0.010066
# 3 -0.001739 -0.004841 0.013136 -0.005141 -0.000983 0.000828
# 4 -0.008316 0.005891 -0.005141 0.033106 -0.003123 -0.007907
# 5 -0.002210 -0.006503 -0.000983 -0.003123 0.032710 -0.006205
# 6 0.002714 0.010066 0.000828 -0.007907 -0.006205 0.045408
#
#
# Mechanical properties :
#
#
# Convention : Reuss Voigt Hill
#
# Bulk Modulus (GPa) = 28.27336 37.79967 33.03652
# Shear Modulus (GPa) = 25.76731 32.14281 28.95506
#
# Velocity S-wave (km/s) = 3.26449 3.64605 3.46053
# Velocity P-wave (km/s) = 5.08945 5.77565 5.44337
#
# Compressibility (1/GPa) = 0.03536898
#
# Stress axis : x y z
#
# Youngs Moduli (GPa) = 51.29702 48.61547 76.12661
#
# Poissons Ratio (x) = 0.11350 0.13241
# Poissons Ratio (y) = 0.11976 0.36856
# Poissons Ratio (z) = 0.08922 0.23537
#
# Static dielectric constant tensor:
#      x y z
#    x 4.089480 0.173420 0.066870 
#    y 0.173420 4.298380 0.034430 
#    z 0.066870 0.034430 4.412890 
# 
# 
# High freq. dielectric constant tensor:
#      x y z
#    x 1.942790 0.017370 0.010570 
#    y 0.017370 1.941970 0.009260 
#    z 0.010570 0.009260 1.972620 
# 
# From -- ./inp_files/288615.got.cif
#   From: 2010.06.25/outbox.cif.g09.slc.cpg/sg2_145_cif.got.tgz:288615.got - 2010.06.27 13:26:56.
