data_PCOD8005221
_publ_section_title
;
Structure prediction by ZEFSAII (Michael W. Deem and Ramdas Pophale) SiO2 
 PCOD8005221
Probable space group: P -1
;
_chemical_formula_sum "Si O2"
_cell_formula_units_Z 16
_cell_length_a 8.898628
_cell_length_b 11.333301
_cell_length_c 14.995169
_cell_angle_alpha 56.126561
_cell_angle_beta 48.724093
_cell_angle_gamma 41.191385
_cell_volume 742.802191
_symmetry_space_group_name_H-M "P -1"
_symmetry_group_IT_number 2
_symmetry_cell_setting 'triclinic'
loop_
_space_group_symop_operation_xyz
x,y,z
-x,-y,-z
loop_
_atom_site_type_symbol
_atom_site_label
_atom_site_fract_x
_atom_site_fract_y
_atom_site_fract_z
Si Si1 0.853404 0.930585 0.051068
Si Si2 0.555035 0.600072 0.198244
Si Si3 0.365968 0.170162 0.043703
Si Si4 0.962569 0.871702 0.337365
Si Si5 0.899709 0.217768 0.170180
Si Si6 0.725080 0.493382 0.374865
Si Si7 0.116840 0.099665 0.437847
Si Si8 0.292785 0.194806 0.683254
O O1 0.862118 0.804893 0.174553
O O2 0.560628 0.107821 0.075341
O O3 0.998481 0.809279 0.958516
O O4 0.000000 0.000000 0.000000
O O5 0.254122 0.744903 0.247683
O O6 0.630866 0.413205 0.207512
O O7 0.649811 0.581548 0.269507
O O8 0.686027 0.661576 0.059589
O O9 0.099401 0.214092 0.158791
O O10 0.500000 0.000000 0.000000
O O11 0.927105 0.848052 0.463412
O O12 0.807131 0.823616 0.362915
O O13 0.854012 0.076054 0.275313
O O14 0.500000 0.500000 0.500000
O O15 0.760663 0.613586 0.374662
O O16 0.979531 0.286816 0.358894
O O17 0.410952 0.970376 0.352142
O O18 0.000000 0.000000 0.500000
#
# Coordination Sequence:
#
# PCOD8005221 Si02
#       8
#     2   2   2   2   2   2   2   2
#     4  11  22  46  68 100 142 179 228 280 346 408
#     4  12  23  43  69 101 140 177 235 284 345 404
#     4  10  20  38  65  94 133 179 223 283 332 400
#     4  12  25  46  68 101 143 181 226 285 347 413
#     4  11  24  40  71 101 133 184 228 283 346 407
#     4  12  25  44  69 103 137 179 233 291 333 408
#     4  12  26  46  74 101 135 185 236 283 344 409
#     4  12  27  46  71 100 143 185 225 288 350 411
#
# _framework density 21.540054000000001
#
# number of rings (size 3 to 8) (size 9 to 14) (size 15 to 20)
#    0.000    0.500    6.250    3.000    3.500    1.500 
#    0.000    1.250    0.000    0.000    0.000    0.000 
#    0.000    0.000    0.000    0.000    0.000    0.000 
#
# Total GULP energy -198450.785435 kJ/mol
# GULP energy per Si atom -12403.174090 kJ/mol
# Density = 2.149103 g / cm^3
# Si number density = 21.540054 Si / 1000 Ang^3
#
#
#
# Elastic Constant Matrix: (Units=GPa)
#
#
# Indices 1 2 3 4 5 6 
#
# 1 146.2712 35.1674 26.2982 -16.1187 -8.9974 14.2529
# 2 35.1674 124.4073 4.2854 -19.7609 -12.1597 16.8889
# 3 26.2982 4.2854 62.2270 -12.9888 -2.4923 14.1394
# 4 -16.1187 -19.7609 -12.9888 36.4666 3.7239 -3.1759
# 5 -8.9974 -12.1597 -2.4923 3.7239 36.9198 -5.6696
# 6 14.2529 16.8889 14.1394 -3.1759 -5.6696 25.0085
#
#
#
# Elastic Compliance Matrix: (Units=1/GPa)
#
#
# Indices 1 2 3 4 5 6 
#
# 1 0.008076 -0.001644 -0.002570 0.001533 0.000845 -0.001653
# 2 -0.001644 0.010243 0.002559 0.005007 0.001655 -0.006416
# 3 -0.002570 0.002559 0.020967 0.006805 -0.000811 -0.011437
# 4 0.001533 0.005007 0.006805 0.033021 -0.001501 -0.004250
# 5 0.000845 0.001655 -0.000811 -0.001501 0.028729 0.005182
# 6 -0.001653 -0.006416 -0.011437 -0.004250 0.005182 0.052363
#
#
# Mechanical properties :
#
#
# Convention : Reuss Voigt Hill
#
# Bulk Modulus (GPa) = 27.79731 51.60083 39.69907
# Shear Modulus (GPa) = 29.63825 37.48928 33.56376
#
# Velocity S-wave (km/s) = 3.71342 4.17639 3.95169
# Velocity P-wave (km/s) = 5.59633 6.87489 6.26829
#
# Compressibility (1/GPa) = 0.03597470
#
# Stress axis : x y z
#
# Youngs Moduli (GPa) = 123.82435 97.62936 47.69389
#
# Poissons Ratio (x) = 0.16049 0.12259
# Poissons Ratio (y) = 0.20355 -0.12203
# Poissons Ratio (z) = 0.31827 -0.24980
#
# Static dielectric constant tensor:
#      x y z
#    x 4.173800 -0.132820 -0.116370 
#    y -0.132820 4.076000 0.129650 
#    z -0.116370 0.129650 3.852930 
# 
# 
# High freq. dielectric constant tensor:
#      x y z
#    x 1.848150 0.001360 -0.001690 
#    y 0.001360 1.848850 -0.001840 
#    z -0.001690 -0.001840 1.851170 
# 
# From -- ./inp_files/499996.got.cif
#   From: 2010.06.25/outbox.cif.g09.slc.cpg/sg2_250_cif.got.tgz:499996.got - 2010.06.27 13:26:56.
