data_PCOD8005060
_publ_section_title
;
Structure prediction by ZEFSAII (Michael W. Deem and Ramdas Pophale) SiO2 
 PCOD8005060
Probable space group: P -1
;
_chemical_formula_sum "Si O2"
_cell_formula_units_Z 16
_cell_length_a 17.302957
_cell_length_b 19.429540
_cell_length_c 9.482532
_cell_angle_alpha 41.910909
_cell_angle_beta 142.820082
_cell_angle_gamma 156.966147
_cell_volume 752.989181
_symmetry_space_group_name_H-M "P -1"
_symmetry_group_IT_number 2
_symmetry_cell_setting 'triclinic'
loop_
_space_group_symop_operation_xyz
x,y,z
-x,-y,-z
loop_
_atom_site_type_symbol
_atom_site_label
_atom_site_fract_x
_atom_site_fract_y
_atom_site_fract_z
Si Si1 0.400360 0.060823 0.037842
Si Si2 0.312047 0.337296 0.163928
Si Si3 0.471588 0.324281 0.141637
Si Si4 0.820020 0.032124 0.865792
Si Si5 0.726026 0.102751 0.358667
Si Si6 0.941131 0.283175 0.110300
Si Si7 0.411601 0.625217 0.307252
Si Si8 0.330889 0.704255 0.336067
O O1 0.336464 0.012139 0.183329
O O2 0.613267 0.130607 0.215343
O O3 0.195871 0.892693 0.902009
O O4 0.457350 0.216620 0.850240
O O5 0.360670 0.307897 0.136811
O O6 0.424409 0.355987 0.431568
O O7 0.401940 0.512419 0.021490
O O8 0.053570 0.167764 0.070724
O O9 0.280302 0.144650 0.049174
O O10 0.645684 0.352376 0.405601
O O11 0.847762 0.120958 0.632196
O O12 0.903264 0.249125 0.275987
O O13 0.546513 0.914729 0.308070
O O14 0.196868 0.433553 0.215880
O O15 0.874611 0.354527 0.852538
O O16 0.307352 0.622169 0.287712
#
# Coordination Sequence:
#
# PCOD8005060 Si02
#       8
#     2   2   2   2   2   2   2   2
#     4  11  23  41  57  92 127 152 192 244 296 366
#     4  10  23  40  61  89 115 155 208 247 280 350
#     4   9  21  39  61  88 120 147 203 252 287 346
#     4  11  24  39  63  86 124 162 187 239 312 346
#     4  10  20  38  64  91 118 153 200 243 292 354
#     4  11  21  36  65  91 117 156 196 246 295 343
#     4  11  22  36  62  89 115 156 205 242 290 343
#     4   9  17  36  59  92 116 144 194 252 289 341
#
# _framework density 21.248645
#
# number of rings (size 3 to 8) (size 9 to 14) (size 15 to 20)
#    0.000    1.750    2.500    1.875    5.250    2.500 
#    0.000    1.250    0.000    6.000    0.000    0.000 
#    0.000    0.000    0.000    0.000    0.000    0.000 
#
# Total GULP energy -198465.451850 kJ/mol
# GULP energy per Si atom -12404.090741 kJ/mol
# Density = 2.120028 g / cm^3
# Si number density = 21.248645 Si / 1000 Ang^3
#
#
#
# Elastic Constant Matrix: (Units=GPa)
#
#
# Indices 1 2 3 4 5 6 
#
# 1 40.1137 20.1429 22.0302 -10.6886 1.6143 0.9876
# 2 20.1429 113.5622 60.0295 0.0988 12.0769 -0.2534
# 3 22.0302 60.0295 120.0855 -8.3507 18.3427 -0.7038
# 4 -10.6886 0.0988 -8.3507 35.3999 0.5664 6.0013
# 5 1.6143 12.0769 18.3427 0.5664 18.0673 -2.7414
# 6 0.9876 -0.2534 -0.7038 6.0013 -2.7414 11.5274
#
#
#
# Elastic Compliance Matrix: (Units=1/GPa)
#
#
# Indices 1 2 3 4 5 6 
#
# 1 0.031621 -0.004024 -0.003417 0.010046 0.001835 -0.007800
# 2 -0.004024 0.012625 -0.005394 -0.002676 -0.002349 0.001128
# 3 -0.003417 -0.005394 0.013387 0.002795 -0.010207 -0.002891
# 4 0.010046 -0.002676 0.002795 0.035564 -0.006208 -0.020740
# 5 0.001835 -0.002349 -0.010207 -0.006208 0.070209 0.019097
# 6 -0.007800 0.001128 -0.002891 -0.020740 0.019097 0.102606
#
#
# Mechanical properties :
#
#
# Convention : Reuss Voigt Hill
#
# Bulk Modulus (GPa) = 31.28492 53.12961 42.20727
# Shear Modulus (GPa) = 16.53788 24.43618 20.48703
#
# Velocity S-wave (km/s) = 2.79283 3.39486 3.10846
# Velocity P-wave (km/s) = 5.01549 6.35805 5.72625
#
# Compressibility (1/GPa) = 0.03196428
#
# Stress axis : x y z
#
# Youngs Moduli (GPa) = 31.62430 79.20629 74.69947
#
# Poissons Ratio (x) = 0.31871 0.25525
# Poissons Ratio (y) = 0.12725 0.40291
# Poissons Ratio (z) = 0.10806 0.42722
#
# Static dielectric constant tensor:
#      x y z
#    x 3.510840 -0.180330 0.099410 
#    y -0.180330 3.766250 -0.095090 
#    z 0.099410 -0.095090 3.953990 
# 
# 
# High freq. dielectric constant tensor:
#      x y z
#    x 1.806720 -0.012610 0.005570 
#    y -0.012610 1.836710 -0.002630 
#    z 0.005570 -0.002630 1.836620 
# 
# From -- ./inp_files/226521.got.cif
#   From: 2010.06.25/outbox.cif.g09.slc.cpg/sg2_114_cif.got.tgz:226521.got - 2010.06.27 13:26:56.
