data_PCOD8005418
_publ_section_title
;
Structure prediction by ZEFSAII (Michael W. Deem and Ramdas Pophale) SiO2 
 PCOD8005418
Probable space group: P -1
;
_chemical_formula_sum "Si O2"
_cell_formula_units_Z 16
_cell_length_a 6.310365
_cell_length_b 8.863605
_cell_length_c 16.497712
_cell_angle_alpha 84.399075
_cell_angle_beta 88.281436
_cell_angle_gamma 52.431849
_cell_volume 727.404161
_symmetry_space_group_name_H-M "P -1"
_symmetry_group_IT_number 2
_symmetry_cell_setting 'triclinic'
loop_
_space_group_symop_operation_xyz
x,y,z
-x,-y,-z
loop_
_atom_site_type_symbol
_atom_site_label
_atom_site_fract_x
_atom_site_fract_y
_atom_site_fract_z
Si Si1 0.450059 0.155478 0.679108
Si Si2 0.690310 0.275629 0.925044
Si Si3 0.364092 0.714592 0.463550
Si Si4 0.229076 0.980391 0.590211
Si Si5 0.178182 0.683846 0.903756
Si Si6 0.104329 0.193989 0.806851
Si Si7 0.389459 0.030057 0.087655
Si Si8 0.018259 0.929917 0.742326
O O1 0.492744 0.290277 0.620582
O O2 0.201202 0.287806 0.739775
O O3 0.404153 0.034166 0.626533
O O4 0.718604 0.993158 0.735286
O O5 0.381054 0.456009 0.909703
O O6 0.717127 0.098185 0.893271
O O7 0.880797 0.316374 0.873513
O O8 0.763453 0.237805 0.021521
O O9 0.500000 0.500000 0.500000
O O10 0.401409 0.831057 0.523721
O O11 0.048543 0.824970 0.448336
O O12 0.168087 0.864972 0.657485
O O13 0.200833 0.767553 0.815710
O O14 0.874683 0.750991 0.909179
O O15 0.379858 0.016413 0.852996
O O16 0.984408 0.121202 0.753332
O O17 0.500000 0.000000 0.000000
#
# Coordination Sequence:
#
# PCOD8005418 Si02
#       8
#     2   2   2   2   2   2   2   2
#     4  10  20  38  69  92 125 171 213 253 312 386
#     4  11  24  40  60  91 127 164 215 272 314 370
#     4  10  21  41  68  94 129 162 201 257 317 375
#     4   9  21  40  64  94 128 163 206 256 311 376
#     4  11  22  41  61  89 127 163 214 264 318 366
#     4  11  20  39  64  88 123 168 211 260 318 370
#     4  12  22  39  65  86 119 170 211 262 320 376
#     4  10  20  40  64  88 128 169 206 260 318 368
#
# _framework density 21.996026000000001
#
# number of rings (size 3 to 8) (size 9 to 14) (size 15 to 20)
#    0.000    1.500    3.750    1.500    0.000    1.000 
#   11.250    0.000    5.500    0.000    0.000    0.000 
#    0.000    0.000    0.000    0.000    0.000    0.000 
#
# Total GULP energy -198263.871197 kJ/mol
# GULP energy per Si atom -12391.491950 kJ/mol
# Density = 2.194596 g / cm^3
# Si number density = 21.996026 Si / 1000 Ang^3
#
#
#
# Elastic Constant Matrix: (Units=GPa)
#
#
# Indices 1 2 3 4 5 6 
#
# 1 104.5667 39.6014 38.2206 -3.1620 2.3679 -16.5362
# 2 39.6014 84.5031 38.6599 -12.8888 1.1928 -21.5928
# 3 38.2206 38.6599 123.5844 -9.6861 -8.0932 -10.1109
# 4 -3.1620 -12.8888 -9.6861 22.3227 -2.2763 -2.0421
# 5 2.3679 1.1928 -8.0932 -2.2763 54.8516 5.5825
# 6 -16.5362 -21.5928 -10.1109 -2.0421 5.5825 29.2166
#
#
#
# Elastic Compliance Matrix: (Units=1/GPa)
#
#
# Indices 1 2 3 4 5 6 
#
# 1 0.012543 -0.004079 -0.002527 -0.001495 -0.001228 0.003340
# 2 -0.004079 0.020044 -0.003269 0.010552 -0.001567 0.012411
# 3 -0.002527 -0.003269 0.010153 0.002299 0.001827 -0.000521
# 4 -0.001495 0.010552 0.002299 0.052826 0.001226 0.011206
# 5 -0.001228 -0.001567 0.001827 0.001226 0.019126 -0.004790
# 6 0.003340 0.012411 -0.000521 0.011206 -0.004790 0.046808
#
#
# Mechanical properties :
#
#
# Convention : Reuss Voigt Hill
#
# Bulk Modulus (GPa) = 43.49899 60.62423 52.06161
# Shear Modulus (GPa) = 26.46731 34.35635 30.41183
#
# Velocity S-wave (km/s) = 3.47259 3.95642 3.72237
# Velocity P-wave (km/s) = 5.99143 6.96364 6.49575
#
# Compressibility (1/GPa) = 0.02298904
#
# Stress axis : x y z
#
# Youngs Moduli (GPa) = 79.72838 49.89069 98.49314
#
# Poissons Ratio (x) = 0.20350 0.24892
# Poissons Ratio (y) = 0.32521 0.32196
# Poissons Ratio (z) = 0.20150 0.16309
#
# Static dielectric constant tensor:
#      x y z
#    x 4.208660 -0.265270 -0.112110 
#    y -0.265270 3.431240 0.106870 
#    z -0.112110 0.106870 4.580220 
# 
# 
# High freq. dielectric constant tensor:
#      x y z
#    x 1.872330 -0.024000 -0.002190 
#    y -0.024000 1.808500 0.009810 
#    z -0.002190 0.009810 1.898150 
# 
# From -- ./inp_files/53614.got.cif
#   From: 2010.06.25/outbox.cif.g09.slc.cpg/sg2_27_cif.got.tgz:53614.got - 2010.06.27 13:26:56.
