data_PCOD8005613
_publ_section_title
;
Structure prediction by ZEFSAII (Michael W. Deem and Ramdas Pophale) SiO2 
 PCOD8005613
Probable space group: P -1
;
_chemical_formula_sum "Si O2"
_cell_formula_units_Z 16
_cell_length_a 19.680108
_cell_length_b 20.119958
_cell_length_c 11.171792
_cell_angle_alpha 150.103811
_cell_angle_beta 31.133917
_cell_angle_gamma 158.669052
_cell_volume 772.897999
_symmetry_space_group_name_H-M "P -1"
_symmetry_group_IT_number 2
_symmetry_cell_setting 'triclinic'
loop_
_space_group_symop_operation_xyz
x,y,z
-x,-y,-z
loop_
_atom_site_type_symbol
_atom_site_label
_atom_site_fract_x
_atom_site_fract_y
_atom_site_fract_z
Si Si1 0.247539 0.638832 0.647513
Si Si2 0.098328 0.996115 0.989415
Si Si3 0.730068 0.937873 0.607695
Si Si4 0.268067 0.343807 0.127336
Si Si5 0.310357 0.706049 0.932350
Si Si6 0.680432 0.005423 0.532580
Si Si7 0.972727 0.663733 0.075963
Si Si8 0.060581 0.135059 0.729540
O O1 0.208740 0.453593 0.399890
O O2 0.451622 0.829633 0.578952
O O3 0.234628 0.663914 0.846286
O O4 0.087033 0.613649 0.788260
O O5 0.869107 0.821564 0.026996
O O6 0.211449 0.962199 0.698713
O O7 0.106342 0.983474 0.101031
O O8 0.203429 0.215703 0.144492
O O9 0.730313 0.946297 0.476619
O O10 0.749482 0.795560 0.391466
O O11 0.539590 0.860195 0.828981
O O12 0.906300 0.150573 0.729911
O O13 0.500000 0.500000 0.000000
O O14 0.249614 0.793926 0.230901
O O15 0.219549 0.513752 0.837273
O O16 0.905537 0.689691 0.096354
O O17 0.000000 0.000000 0.500000
#
# Coordination Sequence:
#
# PCOD8005613 Si02
#       8
#     2   2   2   2   2   2   2   2
#     4  11  21  38  65  97 131 156 208 266 312 379
#     4  11  24  42  64  91 134 166 205 261 323 369
#     4  10  20  39  60  93 129 155 206 265 308 370
#     4  11  23  39  66 102 126 158 206 267 325 371
#     4  11  22  35  67  98 125 161 206 264 322 362
#     4  11  20  40  66  97 128 157 201 274 326 361
#     4  11  22  39  60  89 124 170 215 243 307 373
#     4  10  25  43  63  86 128 177 214 253 302 382
#
# _framework density 20.701308000000001
#
# number of rings (size 3 to 8) (size 9 to 14) (size 15 to 20)
#    0.000    1.250    3.750    3.375    7.000    0.500 
#    0.000    5.625    0.000    0.000    0.000    0.000 
#    0.000    0.000    0.000    0.000    0.000    0.000 
#
# Total GULP energy -198311.305482 kJ/mol
# GULP energy per Si atom -12394.456593 kJ/mol
# Density = 2.065419 g / cm^3
# Si number density = 20.701308 Si / 1000 Ang^3
#
#
#
# Elastic Constant Matrix: (Units=GPa)
#
#
# Indices 1 2 3 4 5 6 
#
# 1 94.2042 40.9150 50.8709 -11.7951 -8.9502 -27.1789
# 2 40.9150 102.8832 33.2578 4.6049 4.4105 -20.1131
# 3 50.8709 33.2578 138.6681 -9.9926 -13.7367 -16.8365
# 4 -11.7951 4.6049 -9.9926 28.9128 -11.2388 3.3703
# 5 -8.9502 4.4105 -13.7367 -11.2388 37.6000 1.1106
# 6 -27.1789 -20.1131 -16.8365 3.3703 1.1106 26.3456
#
#
#
# Elastic Compliance Matrix: (Units=1/GPa)
#
#
# Indices 1 2 3 4 5 6 
#
# 1 0.020163 -0.004985 -0.003293 0.008801 0.006413 0.013495
# 2 -0.004985 0.014082 -0.002060 -0.008032 -0.006157 0.005579
# 3 -0.003293 -0.002060 0.009667 0.003868 0.004130 0.000539
# 4 0.008801 -0.008032 0.003868 0.048340 0.018945 -0.001563
# 5 0.006413 -0.006157 0.004130 0.018945 0.035998 0.000614
# 6 0.013495 0.005579 0.000539 -0.001563 0.000614 0.056656
#
#
# Mechanical properties :
#
#
# Convention : Reuss Voigt Hill
#
# Bulk Modulus (GPa) = 43.03681 65.09365 54.06523
# Shear Modulus (GPa) = 23.43809 32.61912 28.02860
#
# Velocity S-wave (km/s) = 3.36847 3.97382 3.68360
# Velocity P-wave (km/s) = 5.99695 7.25034 6.65323
#
# Compressibility (1/GPa) = 0.02323592
#
# Stress axis : x y z
#
# Youngs Moduli (GPa) = 49.59490 71.01210 103.44506
#
# Poissons Ratio (x) = 0.35398 0.34069
# Poissons Ratio (y) = 0.24722 0.21310
# Poissons Ratio (z) = 0.16334 0.14629
#
# Static dielectric constant tensor:
#      x y z
#    x 3.938140 -0.157640 -0.360230 
#    y -0.157640 3.831170 0.016500 
#    z -0.360230 0.016500 3.922850 
# 
# 
# High freq. dielectric constant tensor:
#      x y z
#    x 1.777620 -0.007570 -0.016030 
#    y -0.007570 1.809280 -0.003940 
#    z -0.016030 -0.003940 1.829220 
# 
# From -- ./inp_files/472679.got.cif
#   From: 2010.06.25/outbox.cif.g09.slc.cpg/sg2_237_cif.got.tgz:472679.got - 2010.06.27 13:26:56.
