data_PCOD8005987
_publ_section_title
;
Structure prediction by ZEFSAII (Michael W. Deem and Ramdas Pophale) SiO2 
 PCOD8005987
Probable space group: P -1
;
_chemical_formula_sum "Si O2"
_cell_formula_units_Z 16
_cell_length_a 12.578438
_cell_length_b 11.086764
_cell_length_c 13.700680
_cell_angle_alpha 122.138482
_cell_angle_beta 41.783437
_cell_angle_gamma 147.044626
_cell_volume 668.986007
_symmetry_space_group_name_H-M "P -1"
_symmetry_group_IT_number 2
_symmetry_cell_setting 'triclinic'
loop_
_space_group_symop_operation_xyz
x,y,z
-x,-y,-z
loop_
_atom_site_type_symbol
_atom_site_label
_atom_site_fract_x
_atom_site_fract_y
_atom_site_fract_z
Si Si1 0.220338 0.209130 0.266801
Si Si2 0.794517 0.528650 0.504017
Si Si3 0.200016 0.319658 0.634135
Si Si4 0.249136 0.793423 0.861064
Si Si5 0.749493 0.197890 0.352915
Si Si6 0.735806 0.874220 0.216553
Si Si7 0.253665 0.112258 0.000834
Si Si8 0.706092 0.432493 0.144208
O O1 0.127566 0.307751 0.391813
O O2 0.460974 0.342388 0.229798
O O3 0.324019 0.265010 0.108728
O O4 0.974866 0.942240 0.346131
O O5 0.884763 0.659723 0.397278
O O6 0.909604 0.445895 0.395930
O O7 0.484850 0.292341 0.622929
O O8 0.500000 0.500000 0.500000
O O9 0.149699 0.381743 0.788383
O O10 0.343335 0.821971 0.700241
O O11 0.384508 0.781370 0.839349
O O12 0.339637 0.013479 0.927355
O O13 0.936674 0.562950 0.967281
O O14 0.500000 0.000000 0.500000
O O15 0.881257 0.132597 0.230626
O O16 0.625415 0.764096 0.134955
O O17 0.942974 0.898721 0.110282
#
# Coordination Sequence:
#
# PCOD8005987 Si02
#       8
#     2   2   2   2   2   2   2   2
#     4  12  25  40  66 103 128 168 221 268 323 395
#     4  11  21  37  61  93 131 164 212 269 319 386
#     4  12  23  42  64  94 136 175 212 262 328 396
#     4  10  20  41  63  93 133 178 211 267 327 382
#     4   9  19  37  66  96 123 173 223 259 322 387
#     4   9  20  40  67  90 122 176 213 267 329 380
#     4  10  20  39  64  91 126 164 220 265 326 384
#     4  11  23  39  66  94 134 173 218 263 327 385
#
# _framework density 23.916792000000001
#
# number of rings (size 3 to 8) (size 9 to 14) (size 15 to 20)
#    0.000    1.500    3.750    1.875    0.000    1.000 
#    0.000    0.625    0.000    1.500    0.000    0.000 
#    0.000    0.000    0.000    0.000    0.000    0.000 
#
# Total GULP energy -198212.736987 kJ/mol
# GULP energy per Si atom -12388.296062 kJ/mol
# Density = 2.386236 g / cm^3
# Si number density = 23.916792 Si / 1000 Ang^3
#
#
#
# Elastic Constant Matrix: (Units=GPa)
#
#
# Indices 1 2 3 4 5 6 
#
# 1 54.5892 21.0149 28.6017 16.6197 17.6157 -6.2390
# 2 21.0149 98.3388 41.1725 39.9734 3.3717 -8.4459
# 3 28.6017 41.1725 114.7268 24.9368 27.0556 -5.7382
# 4 16.6197 39.9734 24.9368 54.8345 1.2427 -7.8912
# 5 17.6157 3.3717 27.0556 1.2427 36.1653 1.1015
# 6 -6.2390 -8.4459 -5.7382 -7.8912 1.1015 28.1715
#
#
#
# Elastic Compliance Matrix: (Units=1/GPa)
#
#
# Indices 1 2 3 4 5 6 
#
# 1 0.025377 -0.002114 -0.001869 -0.004516 -0.010725 0.003760
# 2 -0.002114 0.015915 -0.003772 -0.009182 0.002658 0.000859
# 3 -0.001869 -0.003772 0.013078 -0.002324 -0.008466 0.000799
# 4 -0.004516 -0.009182 -0.002324 0.027761 0.003737 0.003404
# 5 -0.010725 0.002658 -0.008466 0.003737 0.038947 -0.003779
# 6 0.003760 0.000859 0.000799 0.003404 -0.003779 0.037851
#
#
# Mechanical properties :
#
#
# Convention : Reuss Voigt Hill
#
# Bulk Modulus (GPa) = 25.73391 49.91478 37.82435
# Shear Modulus (GPa) = 26.68174 35.62530 31.15352
#
# Velocity S-wave (km/s) = 3.34369 3.86366 3.61304
# Velocity P-wave (km/s) = 5.06855 6.38900 5.76669
#
# Compressibility (1/GPa) = 0.03885923
#
# Stress axis : x y z
#
# Youngs Moduli (GPa) = 39.40517 62.83281 76.46589
#
# Poissons Ratio (x) = 0.13284 0.14291
# Poissons Ratio (y) = 0.08331 0.28846
# Poissons Ratio (z) = 0.07365 0.23703
#
# Static dielectric constant tensor:
#      x y z
#    x 4.232920 -0.624630 0.188430 
#    y -0.624630 4.452710 0.505760 
#    z 0.188430 0.505760 4.793800 
# 
# 
# High freq. dielectric constant tensor:
#      x y z
#    x 1.918910 -0.044440 0.018460 
#    y -0.044440 1.933680 0.016620 
#    z 0.018460 0.016620 1.971140 
# 
# From -- ./inp_files/532667.got.cif
#   From: 2010.06.25/outbox.cif.g09.slc.cpg/sg2_267_cif.got.tgz:532667.got - 2010.06.27 13:26:56.
