data_PCOD8005795
_publ_section_title
;
Structure prediction by ZEFSAII (Michael W. Deem and Ramdas Pophale) SiO2 
 PCOD8005795
Probable space group: P -1
;
_chemical_formula_sum "Si O2"
_cell_formula_units_Z 14
_cell_length_a 8.555413
_cell_length_b 15.262475
_cell_length_c 15.727815
_cell_angle_alpha 26.620601
_cell_angle_beta 109.877294
_cell_angle_gamma 126.168070
_cell_volume 635.182775
_symmetry_space_group_name_H-M "P -1"
_symmetry_group_IT_number 2
_symmetry_cell_setting 'triclinic'
loop_
_space_group_symop_operation_xyz
x,y,z
-x,-y,-z
loop_
_atom_site_type_symbol
_atom_site_label
_atom_site_fract_x
_atom_site_fract_y
_atom_site_fract_z
Si Si1 0.697527 0.469401 0.195760
Si Si2 0.946191 0.338714 0.045203
Si Si3 0.253403 0.028327 0.981045
Si Si4 0.973740 0.436501 0.395382
Si Si5 0.766431 0.852268 0.538068
Si Si6 0.075766 0.997495 0.148756
Si Si7 0.289221 0.576518 0.196732
O O1 0.422157 0.232375 0.352644
O O2 0.766029 0.395225 0.355191
O O3 0.816062 0.493962 0.108398
O O4 0.777105 0.758032 0.970265
O O5 0.822331 0.042477 0.306788
O O6 0.753796 0.286823 0.997880
O O7 0.000000 0.500000 0.000000
O O8 0.147465 0.727765 0.216733
O O9 0.187421 0.102265 0.986724
O O10 0.521485 0.215368 0.878874
O O11 0.174525 0.098989 0.823552
O O12 0.067363 0.381499 0.382424
O O13 0.910673 0.221994 0.638168
O O14 0.661284 0.579702 0.709925
O O15 0.000000 0.000000 0.500000
#
# Coordination Sequence:
#
# PCOD8005795 Si02
#       7
#     2   2   2   2   2   2   2
#     4  10  24  43  67  96 132 171 216 267 326 387
#     4  11  25  46  65  95 129 168 222 277 320 383
#     4  10  21  36  63  96 133 163 215 262 314 394
#     4  10  22  39  65  97 128 175 209 257 329 387
#     4  12  25  44  67  94 127 174 220 268 328 381
#     4  10  20  39  62  96 132 166 212 260 319 392
#     4  11  23  43  62  95 132 165 221 267 316 390
#
# _framework density 22.040900000000001
#
# number of rings (size 3 to 8) (size 9 to 14) (size 15 to 20)
#    0.000    1.429    2.857    1.714    2.000    2.857 
#    0.000    0.000    0.000    0.000    0.000    0.000 
#    0.000    0.000    0.000    0.000    0.000    0.000 
#
# Total GULP energy -173459.160705 kJ/mol
# GULP energy per Si atom -12389.940050 kJ/mol
# Density = 2.199073 g / cm^3
# Si number density = 22.040900 Si / 1000 Ang^3
#
#
#
# Elastic Constant Matrix: (Units=GPa)
#
#
# Indices 1 2 3 4 5 6 
#
# 1 107.8525 37.5357 53.0133 -4.2071 -9.2414 4.2608
# 2 37.5357 87.6283 37.9391 -10.2331 -7.4505 8.3279
# 3 53.0133 37.9391 106.0701 5.2767 5.5346 20.5626
# 4 -4.2071 -10.2331 5.2767 27.4592 1.6063 -4.2193
# 5 -9.2414 -7.4505 5.5346 1.6063 39.7410 0.8033
# 6 4.2608 8.3279 20.5626 -4.2193 0.8033 38.9009
#
#
#
# Elastic Compliance Matrix: (Units=1/GPa)
#
#
# Indices 1 2 3 4 5 6 
#
# 1 0.013850 -0.002622 -0.006863 0.002703 0.003517 0.002893
# 2 -0.002622 0.015507 -0.004693 0.006130 0.002702 0.000057
# 3 -0.006863 -0.004693 0.016596 -0.006915 -0.004353 -0.007676
# 4 0.002703 0.006130 -0.006915 0.041391 0.000936 0.006517
# 5 0.003517 0.002702 -0.004353 0.000936 0.027038 0.000880
# 6 0.002893 0.000057 -0.007676 0.006517 0.000880 0.030123
#
#
# Mechanical properties :
#
#
# Convention : Reuss Voigt Hill
#
# Bulk Modulus (GPa) = 56.82906 62.05856 59.44381
# Shear Modulus (GPa) = 27.97540 32.75776 30.36658
#
# Velocity S-wave (km/s) = 3.56652 3.85934 3.71582
# Velocity P-wave (km/s) = 6.54213 6.93373 6.74077
#
# Compressibility (1/GPa) = 0.01759663
#
# Stress axis : x y z
#
# Youngs Moduli (GPa) = 72.19973 64.48731 60.25573
#
# Poissons Ratio (x) = 0.16905 0.41356
# Poissons Ratio (y) = 0.18927 0.28280
# Poissons Ratio (z) = 0.49554 0.30266
#
# Static dielectric constant tensor:
#      x y z
#    x 4.299160 0.184690 0.119670 
#    y 0.184690 4.075630 0.192560 
#    z 0.119670 0.192560 3.947970 
# 
# 
# High freq. dielectric constant tensor:
#      x y z
#    x 1.882180 0.000560 0.011330 
#    y 0.000560 1.864940 0.002600 
#    z 0.011330 0.002600 1.849770 
# 
# From -- ./inp_files/196668.got.cif
#   From: 2010.06.25/outbox.cif.g09.slc.cpg/sg2_99_cif.got.tgz:196668.got - 2010.06.27 13:26:56.
