data_PCOD8005176
_publ_section_title
;
Structure prediction by ZEFSAII (Michael W. Deem and Ramdas Pophale) SiO2 
 PCOD8005176
Probable space group: P -1
;
_chemical_formula_sum "Si O2"
_cell_formula_units_Z 16
_cell_length_a 24.285555
_cell_length_b 5.284042
_cell_length_c 20.887817
_cell_angle_alpha 131.438844
_cell_angle_beta 159.390050
_cell_angle_gamma 56.354647
_cell_volume 685.252819
_symmetry_space_group_name_H-M "P -1"
_symmetry_group_IT_number 2
_symmetry_cell_setting 'triclinic'
loop_
_space_group_symop_operation_xyz
x,y,z
-x,-y,-z
loop_
_atom_site_type_symbol
_atom_site_label
_atom_site_fract_x
_atom_site_fract_y
_atom_site_fract_z
Si Si1 0.341730 0.598007 0.633937
Si Si2 0.067307 0.088644 0.765004
Si Si3 0.571365 0.828130 0.820137
Si Si4 0.457841 0.370640 0.503770
Si Si5 0.525062 0.545744 0.937054
Si Si6 0.250634 0.255636 0.678288
Si Si7 0.913644 0.793423 0.932541
Si Si8 0.007171 0.200441 0.226848
O O1 0.442491 0.532933 0.670674
O O2 0.476522 0.764269 0.862912
O O3 0.202588 0.251000 0.441545
O O4 0.249565 0.902495 0.578515
O O5 0.039892 0.432897 0.757978
O O6 0.051715 0.055156 0.819918
O O7 0.248042 0.089695 0.941979
O O8 0.938775 0.747303 0.537044
O O9 0.564466 0.677485 0.715804
O O10 0.515485 0.181010 0.829353
O O11 0.500000 0.500000 0.500000
O O12 0.271989 0.356666 0.313910
O O13 0.500000 0.000000 0.500000
O O14 0.382946 0.550567 0.834953
O O15 0.698746 0.717779 0.186874
O O16 0.000000 0.500000 0.000000
O O17 0.917189 0.042761 0.038267
O O18 0.000000 0.000000 0.000000
#
# Coordination Sequence:
#
# PCOD8005176 Si02
#       8
#     2   2   2   2   2   2   2   2
#     4  10  21  38  65  93 126 170 212 266 318 387
#     4  11  23  42  63  93 126 173 211 260 315 389
#     4  11  26  39  65  96 128 167 219 268 325 381
#     4  12  27  47  68  95 137 181 218 270 340 405
#     4  10  20  38  65  90 130 163 218 264 320 383
#     4   9  20  39  61  95 124 173 212 259 322 386
#     4  12  25  41  67  99 128 164 222 283 326 387
#     4  11  23  42  66  88 128 169 213 260 325 385
#
# _framework density 23.349045
#
# number of rings (size 3 to 8) (size 9 to 14) (size 15 to 20)
#    0.000    1.250    1.250    4.125    5.250    0.500 
#    0.000    0.625    0.000    0.000    0.000    0.000 
#    0.000    0.000    0.000    0.000    0.000    0.000 
#
# Total GULP energy -198210.139470 kJ/mol
# GULP energy per Si atom -12388.133717 kJ/mol
# Density = 2.329590 g / cm^3
# Si number density = 23.349045 Si / 1000 Ang^3
#
#
#
# Elastic Constant Matrix: (Units=GPa)
#
#
# Indices 1 2 3 4 5 6 
#
# 1 74.4679 23.3555 15.3345 -4.5495 2.3436 10.9787
# 2 23.3555 85.4988 21.3496 -10.0955 7.8466 8.5085
# 3 15.3345 21.3496 131.4966 -18.1659 3.0612 -7.6180
# 4 -4.5495 -10.0955 -18.1659 30.2967 -3.7901 -6.6139
# 5 2.3436 7.8466 3.0612 -3.7901 48.8872 -0.2988
# 6 10.9787 8.5085 -7.6180 -6.6139 -0.2988 30.1444
#
#
#
# Elastic Compliance Matrix: (Units=1/GPa)
#
#
# Indices 1 2 3 4 5 6 
#
# 1 0.015583 -0.003395 -0.001713 -0.001018 -0.000207 -0.005375
# 2 -0.003395 0.013718 -0.001619 0.002311 -0.001774 -0.002555
# 3 -0.001713 -0.001619 0.009120 0.005716 0.000242 0.004642
# 4 -0.001018 0.002311 0.005716 0.039508 0.002443 0.009855
# 5 -0.000207 -0.001774 0.000242 0.002443 0.020933 0.001381
# 6 -0.005375 -0.002555 0.004642 0.009855 0.001381 0.039202
#
#
# Mechanical properties :
#
#
# Convention : Reuss Voigt Hill
#
# Bulk Modulus (GPa) = 40.05349 45.72693 42.89021
# Shear Modulus (GPa) = 31.28126 37.29390 34.28758
#
# Velocity S-wave (km/s) = 3.66419 4.00088 3.83623
# Velocity P-wave (km/s) = 5.92395 6.40072 6.16695
#
# Compressibility (1/GPa) = 0.02496661
#
# Stress axis : x y z
#
# Youngs Moduli (GPa) = 64.17226 72.89855 109.64639
#
# Poissons Ratio (x) = 0.24751 0.18784
# Poissons Ratio (y) = 0.21788 0.17749
# Poissons Ratio (z) = 0.10994 0.11800
#
# Static dielectric constant tensor:
#      x y z
#    x 4.144880 0.109240 -0.003170 
#    y 0.109240 4.028860 -0.092390 
#    z -0.003170 -0.092390 4.754230 
# 
# 
# High freq. dielectric constant tensor:
#      x y z
#    x 1.914890 0.010980 -0.004720 
#    y 0.010980 1.906220 -0.010000 
#    z -0.004720 -0.010000 1.945510 
# 
# From -- ./inp_files/47109.got.cif
#   From: 2010.06.25/outbox.cif.g09.slc.cpg/sg2_24_cif.got.tgz:47109.got - 2010.06.27 13:26:56.
