data_PCOD8005813
_publ_section_title
;
Structure prediction by ZEFSAII (Michael W. Deem and Ramdas Pophale) SiO2 
 PCOD8005813
Probable space group: P -1
;
_chemical_formula_sum "Si O2"
_cell_formula_units_Z 14
_cell_length_a 8.801749
_cell_length_b 19.931230
_cell_length_c 6.699422
_cell_angle_alpha 69.610014
_cell_angle_beta 106.443377
_cell_angle_gamma 143.176095
_cell_volume 660.256922
_symmetry_space_group_name_H-M "P -1"
_symmetry_group_IT_number 2
_symmetry_cell_setting 'triclinic'
loop_
_space_group_symop_operation_xyz
x,y,z
-x,-y,-z
loop_
_atom_site_type_symbol
_atom_site_label
_atom_site_fract_x
_atom_site_fract_y
_atom_site_fract_z
Si Si1 0.658527 0.238017 0.484361
Si Si2 0.925445 0.791473 0.394345
Si Si3 0.040148 0.413773 0.752876
Si Si4 0.151450 0.980229 0.578619
Si Si5 0.053135 0.714473 0.810234
Si Si6 0.792599 0.116603 0.004770
Si Si7 0.387604 0.640208 0.446204
O O1 0.451294 0.102697 0.577985
O O2 0.752424 0.265706 0.263288
O O3 0.541365 0.275816 0.442767
O O4 0.895965 0.309623 0.650948
O O5 0.636691 0.714837 0.328062
O O6 0.898896 0.712305 0.608464
O O7 0.061740 0.817525 0.214921
O O8 0.092410 0.913703 0.426937
O O9 0.298566 0.535313 0.627565
O O10 0.843284 0.410877 0.723989
O O11 0.115884 0.400286 0.000949
O O12 0.000000 0.000000 0.500000
O O13 0.074519 0.905507 0.818955
O O14 0.203431 0.813569 0.924013
O O15 0.500000 0.000000 0.000000
#
# Coordination Sequence:
#
# PCOD8005813 Si02
#       7
#     2   2   2   2   2   2   2
#     4  10  20  39  63  85 119 154 201 242 292 356
#     4  11  23  40  58  93 124 151 196 249 293 350
#     4   9  20  41  62  88 114 159 201 239 301 348
#     4  11  21  37  61  90 117 151 195 246 296 344
#     4  11  22  37  63  85 117 160 199 238 297 352
#     4  11  24  39  58  88 125 161 194 236 298 360
#     4   9  21  42  62  85 122 152 199 253 291 345
#
# _framework density 21.203865
#
# number of rings (size 3 to 8) (size 9 to 14) (size 15 to 20)
#    0.857    0.857    1.429    3.429    0.000    5.143 
#    0.000    2.857    0.000    0.000    0.000    0.000 
#    0.000    0.000    0.000    0.000    0.000    0.000 
#
# Total GULP energy -173474.012768 kJ/mol
# GULP energy per Si atom -12391.000912 kJ/mol
# Density = 2.115560 g / cm^3
# Si number density = 21.203865 Si / 1000 Ang^3
#
#
#
# Elastic Constant Matrix: (Units=GPa)
#
#
# Indices 1 2 3 4 5 6 
#
# 1 84.4700 16.3990 43.0841 -1.1126 -14.4173 -3.5117
# 2 16.3990 64.6872 31.6623 -16.3110 -9.2361 7.3121
# 3 43.0841 31.6623 131.6213 -4.6918 -3.1942 -8.2230
# 4 -1.1126 -16.3110 -4.6918 27.6979 -3.4121 -1.0554
# 5 -14.4173 -9.2361 -3.1942 -3.4121 38.4398 -8.9910
# 6 -3.5117 7.3121 -8.2230 -1.0554 -8.9910 22.0215
#
#
#
# Elastic Compliance Matrix: (Units=1/GPa)
#
#
# Indices 1 2 3 4 5 6 
#
# 1 0.015512 -0.001371 -0.004370 -0.000043 0.005997 0.003744
# 2 -0.001371 0.022863 -0.004964 0.012773 0.003961 -0.007434
# 3 -0.004370 -0.004964 0.010421 -0.001299 -0.001064 0.004346
# 4 -0.000043 0.012773 -0.001299 0.044265 0.006924 0.000215
# 5 0.005997 0.003961 -0.001064 0.006924 0.032772 0.012956
# 6 0.003744 -0.007434 0.004346 0.000215 0.012956 0.055398
#
#
# Mechanical properties :
#
#
# Convention : Reuss Voigt Hill
#
# Bulk Modulus (GPa) = 36.51476 51.45215 43.98345
# Shear Modulus (GPa) = 23.61032 30.27404 26.94218
#
# Velocity S-wave (km/s) = 3.34052 3.78267 3.56845
# Velocity P-wave (km/s) = 5.66895 6.58758 6.14546
#
# Compressibility (1/GPa) = 0.02738619
#
# Stress axis : x y z
#
# Youngs Moduli (GPa) = 64.46479 43.73883 95.95596
#
# Poissons Ratio (x) = 0.05999 0.41932
# Poissons Ratio (y) = 0.08841 0.47632
# Poissons Ratio (z) = 0.28171 0.21712
#
# Static dielectric constant tensor:
#      x y z
#    x 3.802890 -0.217940 0.124340 
#    y -0.217940 3.755570 -0.085020 
#    z 0.124340 -0.085020 3.873140 
# 
# 
# High freq. dielectric constant tensor:
#      x y z
#    x 1.826560 -0.017870 0.006280 
#    y -0.017870 1.823770 -0.011890 
#    z 0.006280 -0.011890 1.821710 
# 
# From -- ./inp_files/52758.got.cif
#   From: 2010.06.25/outbox.cif.g09.slc.cpg/sg2_27_cif.got.tgz:52758.got - 2010.06.27 13:26:56.
