data_PCOD8005246
_publ_section_title
;
Structure prediction by ZEFSAII (Michael W. Deem and Ramdas Pophale) SiO2 
 PCOD8005246
Probable space group: P -1
;
_chemical_formula_sum "Si O2"
_cell_formula_units_Z 12
_cell_length_a 10.370516
_cell_length_b 13.174049
_cell_length_c 8.426442
_cell_angle_alpha 124.866417
_cell_angle_beta 135.122127
_cell_angle_gamma 33.280095
_cell_volume 445.100663
_symmetry_space_group_name_H-M "P -1"
_symmetry_group_IT_number 2
_symmetry_cell_setting 'triclinic'
loop_
_space_group_symop_operation_xyz
x,y,z
-x,-y,-z
loop_
_atom_site_type_symbol
_atom_site_label
_atom_site_fract_x
_atom_site_fract_y
_atom_site_fract_z
Si Si1 0.173995 0.176611 0.467436
Si Si2 0.730468 0.510533 0.818733
Si Si3 0.297957 0.489415 0.840712
Si Si4 0.284161 0.913844 0.112955
Si Si5 0.708990 0.801915 0.088247
Si Si6 0.152444 0.850123 0.635667
O O1 0.349482 0.168622 0.743584
O O2 0.947214 0.382392 0.384041
O O3 0.059892 0.120632 0.421808
O O4 0.321759 0.036919 0.319785
O O5 0.412008 0.632937 0.612065
O O6 0.968083 0.314825 0.755076
O O7 0.806918 0.453354 0.018916
O O8 0.722805 0.660204 0.894716
O O9 0.465761 0.282321 0.759075
O O10 0.500000 0.500000 0.000000
O O11 0.290690 0.888964 0.904174
O O12 0.000000 0.000000 0.000000
O O13 0.500000 0.000000 0.000000
O O14 0.000000 0.000000 0.500000
#
# Coordination Sequence:
#
# PCOD8005246 Si02
#       6
#     2   2   2   2   2   2
#     4  11  23  40  66  97 129 175 215 273 341 388
#     4  10  24  45  67  95 134 176 222 280 323 403
#     4  11  20  41  67  97 131 164 217 275 338 391
#     4   9  19  36  59  93 134 160 205 270 323 394
#     4  11  26  47  65  93 137 181 229 268 331 398
#     4  10  20  38  66 100 129 169 219 275 334 386
#
# _framework density 26.960194000000001
#
# number of rings (size 3 to 8) (size 9 to 14) (size 15 to 20)
#    0.000    1.667    5.000    1.000    0.000   10.667 
#    0.000    5.833    0.000    0.000    0.000    0.000 
#    0.000    0.000    0.000    0.000    0.000    0.000 
#
# Total GULP energy -148765.555591 kJ/mol
# GULP energy per Si atom -12397.129633 kJ/mol
# Density = 2.689883 g / cm^3
# Si number density = 26.960194 Si / 1000 Ang^3
#
#
#
# Elastic Constant Matrix: (Units=GPa)
#
#
# Indices 1 2 3 4 5 6 
#
# 1 88.1904 39.3694 14.2125 -16.0675 -15.9235 -3.7186
# 2 39.3694 215.7295 58.2834 -27.9610 -32.9139 -10.2821
# 3 14.2125 58.2834 118.7437 -31.9238 -15.2036 5.5365
# 4 -16.0675 -27.9610 -31.9238 42.8169 13.0429 -17.6713
# 5 -15.9235 -32.9139 -15.2036 13.0429 46.3936 -2.4722
# 6 -3.7186 -10.2821 5.5365 -17.6713 -2.4722 51.0498
#
#
#
# Elastic Compliance Matrix: (Units=1/GPa)
#
#
# Indices 1 2 3 4 5 6 
#
# 1 0.013313 -0.001492 0.000609 0.004675 0.002521 0.002344
# 2 -0.001492 0.006271 -0.002097 0.002037 0.002795 0.002222
# 3 0.000609 -0.002097 0.011452 0.007732 0.000358 0.001074
# 4 0.004675 0.002037 0.007732 0.039092 -0.004702 0.013217
# 5 0.002521 0.002795 0.000358 -0.004702 0.025860 0.000332
# 6 0.002344 0.002222 0.001074 0.013217 0.000332 0.024682
#
#
# Mechanical properties :
#
#
# Convention : Reuss Voigt Hill
#
# Bulk Modulus (GPa) = 39.87886 71.82155 55.85021
# Shear Modulus (GPa) = 37.04035 48.77197 42.90616
#
# Velocity S-wave (km/s) = 3.71062 4.25789 3.99364
# Velocity P-wave (km/s) = 5.76040 7.13236 6.48277
#
# Compressibility (1/GPa) = 0.02507594
#
# Stress axis : x y z
#
# Youngs Moduli (GPa) = 75.11654 159.47071 87.31721
#
# Poissons Ratio (x) = 0.23790 -0.05319
# Poissons Ratio (y) = 0.11206 0.18314
# Poissons Ratio (z) = -0.04576 0.33447
#
# Static dielectric constant tensor:
#      x y z
#    x 5.432420 -1.147500 0.198520 
#    y -1.147500 2.048120 0.665900 
#    z 0.198520 0.665900 5.949030 
# 
# 
# High freq. dielectric constant tensor:
#      x y z
#    x 2.118920 -0.026550 0.025290 
#    y -0.026550 2.099660 0.001000 
#    z 0.025290 0.001000 2.096770 
# 
# From -- ./inp_files/231390.got.cif
#   From: 2010.06.25/outbox.cif.g09.slc.cpg/sg2_116_cif.got.tgz:231390.got - 2010.06.27 13:26:56.
