data_PCOD8005250
_publ_section_title
;
Structure prediction by ZEFSAII (Michael W. Deem and Ramdas Pophale) SiO2 
 PCOD8005250
Probable space group: P -1
;
_chemical_formula_sum "Si O2"
_cell_formula_units_Z 16
_cell_length_a 11.814978
_cell_length_b 11.823073
_cell_length_c 12.191283
_cell_angle_alpha 60.077384
_cell_angle_beta 133.084380
_cell_angle_gamma 83.742010
_cell_volume 758.569592
_symmetry_space_group_name_H-M "P -1"
_symmetry_group_IT_number 2
_symmetry_cell_setting 'triclinic'
loop_
_space_group_symop_operation_xyz
x,y,z
-x,-y,-z
loop_
_atom_site_type_symbol
_atom_site_label
_atom_site_fract_x
_atom_site_fract_y
_atom_site_fract_z
Si Si1 0.610557 0.940771 0.366956
Si Si2 0.280152 0.434490 0.146524
Si Si3 0.499157 0.468167 0.886768
Si Si4 0.057150 0.843851 0.349162
Si Si5 0.122271 0.182171 0.962469
Si Si6 0.863437 0.539868 0.731080
Si Si7 0.282381 0.975238 0.393275
Si Si8 0.202571 0.951301 0.715400
O O1 0.670638 0.755652 0.464774
O O2 0.347352 0.115490 0.103806
O O3 0.707007 0.914294 0.564940
O O4 0.718500 0.974509 0.338086
O O5 0.351634 0.523021 0.089934
O O6 0.212720 0.502721 0.194943
O O7 0.470386 0.212401 0.382531
O O8 0.076232 0.499048 0.915633
O O9 0.247846 0.623526 0.604206
O O10 0.500000 0.500000 0.000000
O O11 0.593144 0.268137 0.026736
O O12 0.156455 0.928638 0.384809
O O13 0.866908 0.946421 0.263807
O O14 0.955330 0.879975 0.144915
O O15 0.155260 0.096172 0.143296
O O16 0.927273 0.405791 0.738239
O O17 0.000000 0.000000 0.500000
#
# Coordination Sequence:
#
# PCOD8005250 Si02
#       8
#     2   2   2   2   2   2   2   2
#     4  12  24  42  72  99 130 171 230 270 317 393
#     4  10  20  38  66 103 124 166 225 274 314 382
#     4  11  23  42  69  96 129 167 225 272 316 385
#     4  11  27  44  66  99 135 175 218 269 338 384
#     4  12  26  43  63  99 143 173 208 275 340 389
#     4  11  23  37  66  98 134 168 213 271 332 378
#     4  11  20  44  68  98 132 174 221 274 316 395
#     4  12  23  43  73  97 125 174 229 273 315 388
#
# _framework density 21.092328999999999
#
# number of rings (size 3 to 8) (size 9 to 14) (size 15 to 20)
#    0.000    0.750    5.000    3.750    1.750    1.500 
#    0.000    2.500    0.000    0.000    0.000    0.000 
#    0.000    0.000    0.000    0.000    0.000    0.000 
#
# Total GULP energy -198459.635367 kJ/mol
# GULP energy per Si atom -12403.727210 kJ/mol
# Density = 2.104432 g / cm^3
# Si number density = 21.092329 Si / 1000 Ang^3
#
#
#
# Elastic Constant Matrix: (Units=GPa)
#
#
# Indices 1 2 3 4 5 6 
#
# 1 109.1859 28.9245 29.5288 -8.6987 1.7721 -14.9553
# 2 28.9245 92.3676 35.1061 -12.2868 2.3274 -18.8819
# 3 29.5288 35.1061 81.5843 -14.0681 -3.6455 -12.0468
# 4 -8.6987 -12.2868 -14.0681 31.2737 -0.0076 2.9534
# 5 1.7721 2.3274 -3.6455 -0.0076 26.2758 -6.1757
# 6 -14.9553 -18.8819 -12.0468 2.9534 -6.1757 26.4001
#
#
#
# Elastic Compliance Matrix: (Units=1/GPa)
#
#
# Indices 1 2 3 4 5 6 
#
# 1 0.010845 -0.001533 -0.002556 0.000909 -0.000065 0.003764
# 2 -0.001533 0.014816 -0.004239 0.002782 -0.000040 0.007474
# 3 -0.002556 -0.004239 0.016479 0.004720 0.003625 0.003359
# 4 0.000909 0.002782 0.004720 0.035366 0.000553 0.000831
# 5 -0.000065 -0.000040 0.003625 0.000553 0.041192 0.011163
# 6 0.003764 0.007474 0.003359 0.000831 0.011163 0.049408
#
#
# Mechanical properties :
#
#
# Convention : Reuss Voigt Hill
#
# Bulk Modulus (GPa) = 39.24062 52.25073 45.74568
# Shear Modulus (GPa) = 25.87229 29.42848 27.65038
#
# Velocity S-wave (km/s) = 3.50611 3.73932 3.62459
# Velocity P-wave (km/s) = 5.91904 6.59314 6.26516
#
# Compressibility (1/GPa) = 0.02548379
#
# Stress axis : x y z
#
# Youngs Moduli (GPa) = 92.20812 67.49326 60.68505
#
# Poissons Ratio (x) = 0.10344 0.15512
# Poissons Ratio (y) = 0.14131 0.25726
# Poissons Ratio (z) = 0.23570 0.28613
#
# Static dielectric constant tensor:
#      x y z
#    x 3.961370 -0.218290 0.152860 
#    y -0.218290 3.854530 -0.429570 
#    z 0.152860 -0.429570 4.012910 
# 
# 
# High freq. dielectric constant tensor:
#      x y z
#    x 1.841620 -0.013190 0.004310 
#    y -0.013190 1.812640 -0.024080 
#    z 0.004310 -0.024080 1.823520 
# 
# From -- ./inp_files/272846.got.cif
#   From: 2010.06.25/outbox.cif.g09.slc.cpg/sg2_137_cif.got.tgz:272846.got - 2010.06.27 13:26:56.
