data_PCOD8005858
_publ_section_title
;
Structure prediction by ZEFSAII (Michael W. Deem and Ramdas Pophale) SiO2 
 PCOD8005858
Probable space group: P -1
;
_chemical_formula_sum "Si O2"
_cell_formula_units_Z 16
_cell_length_a 13.703500
_cell_length_b 11.549112
_cell_length_c 10.927064
_cell_angle_alpha 66.210572
_cell_angle_beta 80.588318
_cell_angle_gamma 136.132981
_cell_volume 764.962849
_symmetry_space_group_name_H-M "P -1"
_symmetry_group_IT_number 2
_symmetry_cell_setting 'triclinic'
loop_
_space_group_symop_operation_xyz
x,y,z
-x,-y,-z
loop_
_atom_site_type_symbol
_atom_site_label
_atom_site_fract_x
_atom_site_fract_y
_atom_site_fract_z
Si Si1 0.219766 0.956091 0.514591
Si Si2 0.326668 0.582039 0.258716
Si Si3 0.066464 0.944918 0.328149
Si Si4 0.896937 0.718406 0.814506
Si Si5 0.649223 0.145480 0.715807
Si Si6 0.251663 0.980190 0.087002
Si Si7 0.109812 0.557215 0.686780
Si Si8 0.626844 0.282428 0.238727
O O1 0.188273 0.006335 0.380487
O O2 0.082673 0.676976 0.655809
O O3 0.131765 0.935079 0.659040
O O4 0.455465 0.182145 0.376490
O O5 0.227015 0.478480 0.189729
O O6 0.389694 0.793710 0.198186
O O7 0.175263 0.344808 0.485242
O O8 0.539520 0.744077 0.138028
O O9 0.144641 0.984356 0.163992
O O10 0.118319 0.148721 0.243791
O O11 0.804156 0.566224 0.025107
O O12 0.703233 0.071461 0.794609
O O13 0.831201 0.401344 0.485109
O O14 0.460644 0.909766 0.764318
O O15 0.100981 0.750000 0.115858
O O16 0.283527 0.703298 0.678910
#
# Coordination Sequence:
#
# PCOD8005858 Si02
#       8
#     2   2   2   2   2   2   2   2
#     4  10  20  39  63  90 125 160 202 263 313 354
#     4  11  22  36  64  96 124 153 211 268 310 363
#     4  11  22  40  64  95 126 161 213 265 305 362
#     4  11  24  40  63  97 126 163 215 258 304 375
#     4  11  20  40  66  93 130 155 209 266 316 363
#     4  12  21  38  64  95 126 164 203 266 315 356
#     4  11  23  40  64  94 134 165 201 253 325 376
#     4  11  24  42  60  98 130 168 203 250 316 389
#
# _framework density 20.916049000000001
#
# number of rings (size 3 to 8) (size 9 to 14) (size 15 to 20)
#    0.000    1.000    5.000    5.250    1.750    3.500 
#    2.250    0.625    0.000    1.500    0.000    0.000 
#    0.000    0.000    0.000    0.000    0.000    0.000 
#
# Total GULP energy -198346.080593 kJ/mol
# GULP energy per Si atom -12396.630037 kJ/mol
# Density = 2.086844 g / cm^3
# Si number density = 20.916049 Si / 1000 Ang^3
#
#
#
# Elastic Constant Matrix: (Units=GPa)
#
#
# Indices 1 2 3 4 5 6 
#
# 1 94.9519 43.9561 41.4576 11.1065 -1.1707 -25.6153
# 2 43.9561 71.3917 18.6220 -0.3958 -4.2695 -3.0116
# 3 41.4576 18.6220 102.1964 -7.9205 -25.5538 -12.9235
# 4 11.1065 -0.3958 -7.9205 13.2791 -6.0918 -5.1105
# 5 -1.1707 -4.2695 -25.5538 -6.0918 25.2625 4.6380
# 6 -25.6153 -3.0116 -12.9235 -5.1105 4.6380 23.3847
#
#
#
# Elastic Compliance Matrix: (Units=1/GPa)
#
#
# Indices 1 2 3 4 5 6 
#
# 1 0.066616 -0.033226 -0.044406 -0.105547 -0.079670 0.036885
# 2 -0.033226 0.031315 0.019022 0.050684 0.038599 -0.018430
# 3 -0.044406 0.019022 0.049649 0.097907 0.077318 -0.012692
# 4 -0.105547 0.050684 0.097907 0.295537 0.178720 -0.025840
# 5 -0.079670 0.038599 0.077318 0.178720 0.170006 -0.034230
# 6 0.036885 -0.018430 -0.012692 -0.025840 -0.034230 0.074921
#
#
# Mechanical properties :
#
#
# Convention : Reuss Voigt Hill
#
# Bulk Modulus (GPa) = 32.93995 52.95682 42.94839
# Shear Modulus (GPa) = 6.13207 23.35222 14.74214
#
# Velocity S-wave (km/s) = 1.71409 3.34499 2.65773
# Velocity P-wave (km/s) = 4.43850 6.34763 5.47689
#
# Compressibility (1/GPa) = 0.03035828
#
# Stress axis : x y z
#
# Youngs Moduli (GPa) = 15.01143 31.93364 20.14133
#
# Poissons Ratio (x) = 1.06103 0.89440
# Poissons Ratio (y) = 0.49877 -0.38312
# Poissons Ratio (z) = 0.66660 -0.60743
#
# Static dielectric constant tensor:
#      x y z
#    x 3.614810 -0.110350 -0.298530 
#    y -0.110350 3.543510 -0.070130 
#    z -0.298530 -0.070130 4.110930 
# 
# 
# High freq. dielectric constant tensor:
#      x y z
#    x 1.802560 -0.014280 -0.017900 
#    y -0.014280 1.793540 -0.007290 
#    z -0.017900 -0.007290 1.830460 
# 
# From -- ./inp_files/390988.got.cif
#   From: 2010.06.25/outbox.cif.g09.slc.cpg/sg2_196_cif.got.tgz:390988.got - 2010.06.27 13:26:56.
