data_PCOD8005640
_publ_section_title
;
Structure prediction by ZEFSAII (Michael W. Deem and Ramdas Pophale) SiO2 
 PCOD8005640
Probable space group: P -1
;
_chemical_formula_sum "Si O2"
_cell_formula_units_Z 14
_cell_length_a 21.806113
_cell_length_b 9.022554
_cell_length_c 8.481246
_cell_angle_alpha 76.723027
_cell_angle_beta 76.363221
_cell_angle_gamma 141.983654
_cell_volume 719.018402
_symmetry_space_group_name_H-M "P -1"
_symmetry_group_IT_number 2
_symmetry_cell_setting 'triclinic'
loop_
_space_group_symop_operation_xyz
x,y,z
-x,-y,-z
loop_
_atom_site_type_symbol
_atom_site_label
_atom_site_fract_x
_atom_site_fract_y
_atom_site_fract_z
Si Si1 0.367426 0.118671 0.709882
Si Si2 0.060550 0.756203 0.515463
Si Si3 0.790897 0.341801 0.807750
Si Si4 0.855706 0.783117 0.833892
Si Si5 0.350396 0.756110 0.657627
Si Si6 0.151326 0.465948 0.614013
Si Si7 0.123243 0.701235 0.772161
O O1 0.500000 0.500000 0.500000
O O2 0.376780 0.980693 0.648584
O O3 0.250310 0.975138 0.745913
O O4 0.336992 0.017069 0.938245
O O5 0.153464 0.880398 0.564758
O O6 0.000000 0.500000 0.500000
O O7 0.932007 0.564173 0.723569
O O8 0.152424 0.071616 0.282846
O O9 0.806673 0.550946 0.797069
O O10 0.772820 0.292511 0.641695
O O11 0.746000 0.553608 0.097462
O O12 0.010972 0.081207 0.732439
O O13 0.263007 0.586432 0.588682
O O14 0.500000 0.000000 0.500000
O O15 0.101455 0.484309 0.767599
O O16 0.000000 0.500000 0.000000
#
# Coordination Sequence:
#
# PCOD8005640 Si02
#       7
#     2   2   2   2   2   2   2
#     4  10  23  42  57  83 120 157 195 240 290 342
#     4  11  19  35  60  91 118 146 193 242 290 345
#     4  10  20  39  61  86 122 148 191 246 289 344
#     4  10  21  39  61  87 119 151 190 243 295 341
#     4  10  23  42  57  82 119 156 198 238 288 349
#     4  10  20  39  63  88 116 153 195 241 293 343
#     4  11  21  36  61  91 120 151 193 242 291 346
#
# _framework density 19.47099
#
# number of rings (size 3 to 8) (size 9 to 14) (size 15 to 20)
#    0.000    1.714    4.286    2.143    0.000    2.286 
#   10.286    2.857    0.000    0.000    0.000    0.000 
#    0.000    0.000    0.000    0.000    0.000    0.000 
#
# Total GULP energy -173502.613080 kJ/mol
# GULP energy per Si atom -12393.043791 kJ/mol
# Density = 1.942667 g / cm^3
# Si number density = 19.470990 Si / 1000 Ang^3
#
#
#
# Elastic Constant Matrix: (Units=GPa)
#
#
# Indices 1 2 3 4 5 6 
#
# 1 124.8909 34.7821 64.5936 -5.4592 6.6270 15.8389
# 2 34.7821 62.4434 57.0295 1.1232 11.7694 7.4466
# 3 64.5936 57.0295 158.3477 -10.6342 17.3492 7.9206
# 4 -5.4592 1.1232 -10.6342 31.7200 -4.9363 2.6804
# 5 6.6270 11.7694 17.3492 -4.9363 35.4721 -9.2332
# 6 15.8389 7.4466 7.9206 2.6804 -9.2332 31.5798
#
#
#
# Elastic Compliance Matrix: (Units=1/GPa)
#
#
# Indices 1 2 3 4 5 6 
#
# 1 0.011026 -0.002610 -0.003191 0.001197 -0.000611 -0.004395
# 2 -0.002610 0.026426 -0.007863 -0.004619 -0.006216 -0.004376
# 3 -0.003191 -0.007863 0.010841 0.003105 -0.001669 -0.000016
# 4 0.001197 -0.004619 0.003105 0.033722 0.003964 -0.001993
# 5 -0.000611 -0.006216 -0.001669 0.003964 0.034873 0.012050
# 6 -0.004395 -0.004376 -0.000016 -0.001993 0.012050 0.038598
#
#
# Mechanical properties :
#
#
# Convention : Reuss Voigt Hill
#
# Bulk Modulus (GPa) = 47.69678 73.16581 60.43129
# Shear Modulus (GPa) = 26.34326 32.37283 29.35804
#
# Velocity S-wave (km/s) = 3.68224 4.08195 3.88723
# Velocity P-wave (km/s) = 6.52901 7.73788 7.15901
#
# Compressibility (1/GPa) = 0.02096577
#
# Stress axis : x y z
#
# Youngs Moduli (GPa) = 90.69326 37.84121 92.24312
#
# Poissons Ratio (x) = 0.09877 0.29432
# Poissons Ratio (y) = 0.23671 0.72531
# Poissons Ratio (z) = 0.28937 0.29755
#
# Static dielectric constant tensor:
#      x y z
#    x 3.587990 -0.032980 0.214080 
#    y -0.032980 3.425810 0.192150 
#    z 0.214080 0.192150 3.663340 
# 
# 
# High freq. dielectric constant tensor:
#      x y z
#    x 1.765980 -0.000890 0.012680 
#    y -0.000890 1.739790 0.018170 
#    z 0.012680 0.018170 1.758520 
# 
# From -- ./inp_files/154095.got.cif
#   From: 2010.06.25/outbox.cif.g09.slc.cpg/sg2_78_cif.got.tgz:154095.got - 2010.06.27 13:26:56.
