data_PCOD8005062
_publ_section_title
;
Structure prediction by ZEFSAII (Michael W. Deem and Ramdas Pophale) SiO2 
 PCOD8005062
Probable space group: P -1
;
_chemical_formula_sum "Si O2"
_cell_formula_units_Z 16
_cell_length_a 18.176583
_cell_length_b 15.324149
_cell_length_c 7.549605
_cell_angle_alpha 38.905573
_cell_angle_beta 50.578836
_cell_angle_gamma 35.014493
_cell_volume 757.771775
_symmetry_space_group_name_H-M "P -1"
_symmetry_group_IT_number 2
_symmetry_cell_setting 'triclinic'
loop_
_space_group_symop_operation_xyz
x,y,z
-x,-y,-z
loop_
_atom_site_type_symbol
_atom_site_label
_atom_site_fract_x
_atom_site_fract_y
_atom_site_fract_z
Si Si1 0.483101 0.233196 0.531972
Si Si2 0.763403 0.538964 0.242802
Si Si3 0.266437 0.141881 0.347973
Si Si4 0.796599 0.239260 0.474064
Si Si5 0.974912 0.802858 0.438872
Si Si6 0.987858 0.081578 0.136388
Si Si7 0.445194 0.898127 0.735273
Si Si8 0.433502 0.694662 0.382868
O O1 0.341247 0.321809 0.665852
O O2 0.477670 0.268192 0.271665
O O3 0.519594 0.328676 0.450695
O O4 0.601888 0.008178 0.733146
O O5 0.716721 0.446430 0.353796
O O6 0.905466 0.380144 0.352647
O O7 0.768202 0.662038 0.905216
O O8 0.147519 0.176724 0.389718
O O9 0.298404 0.057964 0.632620
O O10 0.903527 0.204891 0.239988
O O11 0.714545 0.207129 0.542415
O O12 0.864659 0.088891 0.766109
O O13 0.018206 0.782620 0.201496
O O14 0.931886 0.994587 0.275322
O O15 0.500000 0.000000 0.500000
O O16 0.452299 0.815751 0.043660
O O17 0.500000 0.500000 0.500000
#
# Coordination Sequence:
#
# PCOD8005062 Si02
#       8
#     2   2   2   2   2   2   2   2
#     4  10  24  42  64  95 130 174 207 265 331 382
#     4  11  21  39  62  93 128 168 210 271 318 384
#     4  10  22  41  64  88 130 169 220 254 329 386
#     4  10  21  38  61  90 127 164 213 262 329 377
#     4  10  20  38  64  91 120 165 219 262 320 386
#     4   9  20  39  61  86 126 167 203 267 331 386
#     4  10  25  42  66  91 130 177 214 259 324 395
#     4  12  23  39  65  96 129 164 218 271 311 380
#
# _framework density 21.114536000000001
#
# number of rings (size 3 to 8) (size 9 to 14) (size 15 to 20)
#    0.750    1.000    1.250    3.000    1.750    1.500 
#    0.000    0.625    0.000    0.000    0.000    0.000 
#    0.000    0.000    0.000    0.000    0.000    0.000 
#
# Total GULP energy -198227.221254 kJ/mol
# GULP energy per Si atom -12389.201328 kJ/mol
# Density = 2.106648 g / cm^3
# Si number density = 21.114536 Si / 1000 Ang^3
#
#
#
# Elastic Constant Matrix: (Units=GPa)
#
#
# Indices 1 2 3 4 5 6 
#
# 1 91.0859 20.0624 -0.1372 3.4434 -9.1374 2.1113
# 2 20.0624 80.0996 27.8454 0.0899 -3.3931 -0.7668
# 3 -0.1372 27.8454 66.4292 -5.8937 -3.2054 2.3547
# 4 3.4434 0.0899 -5.8937 22.2332 2.1270 -0.0845
# 5 -9.1374 -3.3931 -3.2054 2.1270 28.7196 7.5231
# 6 2.1113 -0.7668 2.3547 -0.0845 7.5231 33.9914
#
#
#
# Elastic Compliance Matrix: (Units=1/GPa)
#
#
# Indices 1 2 3 4 5 6 
#
# 1 0.012293 -0.003463 0.001586 -0.001890 0.004320 -0.001912
# 2 -0.003463 0.015703 -0.006751 -0.001295 -0.000186 0.001075
# 3 0.001586 -0.006751 0.018447 0.004478 0.001944 -0.001948
# 4 -0.001890 -0.001295 0.004478 0.046841 -0.003923 0.000763
# 5 0.004320 -0.000186 0.001944 -0.003923 0.039053 -0.009060
# 6 -0.001912 0.001075 -0.001948 0.000763 -0.009060 0.031704
#
#
# Mechanical properties :
#
#
# Convention : Reuss Voigt Hill
#
# Bulk Modulus (GPa) = 34.26445 37.01732 35.64089
# Shear Modulus (GPa) = 26.17425 29.64511 27.90968
#
# Velocity S-wave (km/s) = 3.52466 3.75108 3.63963
# Velocity P-wave (km/s) = 5.72952 6.02748 5.88039
#
# Compressibility (1/GPa) = 0.02918477
#
# Stress axis : x y z
#
# Youngs Moduli (GPa) = 81.34703 63.68283 54.20915
#
# Poissons Ratio (x) = 0.22056 -0.08596
# Poissons Ratio (y) = 0.28174 0.36598
# Poissons Ratio (z) = -0.12899 0.42994
#
# Static dielectric constant tensor:
#      x y z
#    x 4.069290 -0.082540 0.028160 
#    y -0.082540 3.709860 -0.007000 
#    z 0.028160 -0.007000 3.575930 
# 
# 
# High freq. dielectric constant tensor:
#      x y z
#    x 1.837380 -0.009100 0.002070 
#    y -0.009100 1.820870 -0.003920 
#    z 0.002070 -0.003920 1.804680 
# 
# From -- ./inp_files/348779.got.cif
#   From: 2010.06.25/outbox.cif.g09.slc.cpg/sg2_175_cif.got.tgz:348779.got - 2010.06.27 13:26:56.
