data_PCOD8005323
_publ_section_title
;
Structure prediction by ZEFSAII (Michael W. Deem and Ramdas Pophale) SiO2 
 PCOD8005323
Probable space group: P -1
;
_chemical_formula_sum "Si O2"
_cell_formula_units_Z 14
_cell_length_a 9.281415
_cell_length_b 8.849686
_cell_length_c 9.693872
_cell_angle_alpha 113.924409
_cell_angle_beta 113.563943
_cell_angle_gamma 73.863541
_cell_volume 660.727536
_symmetry_space_group_name_H-M "P -1"
_symmetry_group_IT_number 2
_symmetry_cell_setting 'triclinic'
loop_
_space_group_symop_operation_xyz
x,y,z
-x,-y,-z
loop_
_atom_site_type_symbol
_atom_site_label
_atom_site_fract_x
_atom_site_fract_y
_atom_site_fract_z
Si Si1 0.651473 0.863167 0.504578
Si Si2 0.957611 0.418716 0.812168
Si Si3 0.317238 0.306520 0.264114
Si Si4 0.221240 0.967958 0.997169
Si Si5 0.536939 0.318008 0.114216
Si Si6 0.096122 0.928027 0.223257
Si Si7 0.293796 0.389452 0.807275
O O1 0.638244 0.735152 0.576790
O O2 0.650023 0.768603 0.325073
O O3 0.500000 0.000000 0.500000
O O4 0.810289 0.948830 0.608018
O O5 0.809676 0.528049 0.723571
O O6 0.910290 0.236402 0.751124
O O7 0.105667 0.408873 0.761992
O O8 0.000000 0.500000 0.000000
O O9 0.477247 0.334676 0.255079
O O10 0.243796 0.157671 0.105622
O O11 0.378365 0.868666 0.953121
O O12 0.182945 0.877527 0.091724
O O13 0.077670 0.971643 0.835400
O O14 0.664317 0.443313 0.185871
O O15 0.381483 0.360857 0.976208
#
# Coordination Sequence:
#
# PCOD8005323 Si02
#       7
#     2   2   2   2   2   2   2
#     4  11  27  47  65  95 140 175 216 274 337 396
#     4  12  22  42  69 102 133 169 227 273 319 396
#     4  11  24  42  71  97 133 176 218 273 331 387
#     4  10  20  38  66  99 128 172 225 271 325 389
#     4  11  23  40  71  99 129 170 230 275 323 385
#     4  10  22  39  66  94 135 173 216 273 336 379
#     4  11  25  42  67 100 135 175 217 276 332 385
#
# _framework density 21.188763999999999
#
# number of rings (size 3 to 8) (size 9 to 14) (size 15 to 20)
#    0.000    1.143    2.857    3.000    8.000    2.857 
#    0.000    0.000    0.000    0.000    0.000    0.000 
#    0.000    0.000    0.000    0.000    0.000    0.000 
#
# Total GULP energy -173703.781264 kJ/mol
# GULP energy per Si atom -12407.412947 kJ/mol
# Density = 2.114054 g / cm^3
# Si number density = 21.188764 Si / 1000 Ang^3
#
#
#
# Elastic Constant Matrix: (Units=GPa)
#
#
# Indices 1 2 3 4 5 6 
#
# 1 127.4145 62.4582 9.1075 -8.3731 -20.2880 1.5572
# 2 62.4582 117.4433 24.6629 -10.1127 -4.5631 9.4249
# 3 9.1075 24.6629 50.8956 1.2524 -6.0066 8.2595
# 4 -8.3731 -10.1127 1.2524 30.7987 -3.2863 -1.2635
# 5 -20.2880 -4.5631 -6.0066 -3.2863 29.6814 1.2511
# 6 1.5572 9.4249 8.2595 -1.2635 1.2511 44.1627
#
#
#
# Elastic Compliance Matrix: (Units=1/GPa)
#
#
# Indices 1 2 3 4 5 6 
#
# 1 0.012280 -0.006450 0.001745 0.002017 0.007960 0.000449
# 2 -0.006450 0.013301 -0.005491 0.002443 -0.003145 -0.001425
# 3 0.001745 -0.005491 0.023185 -0.001881 0.004977 -0.003421
# 4 0.002017 0.002443 -0.001881 0.034472 0.005165 0.000599
# 5 0.007960 -0.003145 0.004977 0.005165 0.040292 -0.001534
# 6 0.000449 -0.001425 -0.003421 0.000599 -0.001534 0.023632
#
#
# Mechanical properties :
#
#
# Convention : Reuss Voigt Hill
#
# Bulk Modulus (GPa) = 35.24394 54.24563 44.74479
# Shear Modulus (GPa) = 28.24659 34.23021 31.23840
#
# Velocity S-wave (km/s) = 3.65512 4.02367 3.84381
# Velocity P-wave (km/s) = 5.87219 6.87338 6.39241
#
# Compressibility (1/GPa) = 0.02837367
#
# Stress axis : x y z
#
# Youngs Moduli (GPa) = 81.43276 75.18375 43.13068
#
# Poissons Ratio (x) = 0.48496 -0.07526
# Poissons Ratio (y) = 0.52526 0.23683
# Poissons Ratio (z) = -0.14210 0.41283
#
# Static dielectric constant tensor:
#      x y z
#    x 4.014790 0.115970 -0.000280 
#    y 0.115970 3.957380 -0.084340 
#    z -0.000280 -0.084340 3.631770 
# 
# 
# High freq. dielectric constant tensor:
#      x y z
#    x 1.843200 0.003310 0.001350 
#    y 0.003310 1.842620 -0.002360 
#    z 0.001350 -0.002360 1.808800 
# 
# From -- ./inp_files/158500.got.cif
#   From: 2010.06.25/outbox.cif.g09.slc.cpg/sg2_80_cif.got.tgz:158500.got - 2010.06.27 13:26:56.
