data_PCOD8005720
_publ_section_title
;
Structure prediction by ZEFSAII (Michael W. Deem and Ramdas Pophale) SiO2 
 PCOD8005720
Probable space group: P -1
;
_chemical_formula_sum "Si O2"
_cell_formula_units_Z 14
_cell_length_a 15.082149
_cell_length_b 7.622098
_cell_length_c 8.899037
_cell_angle_alpha 52.390940
_cell_angle_beta 101.778905
_cell_angle_gamma 70.735687
_cell_volume 642.826176
_symmetry_space_group_name_H-M "P -1"
_symmetry_group_IT_number 2
_symmetry_cell_setting 'triclinic'
loop_
_space_group_symop_operation_xyz
x,y,z
-x,-y,-z
loop_
_atom_site_type_symbol
_atom_site_label
_atom_site_fract_x
_atom_site_fract_y
_atom_site_fract_z
Si Si1 0.180722 0.243601 0.109433
Si Si2 0.015484 0.777017 0.940354
Si Si3 0.252121 0.334368 0.791650
Si Si4 0.646482 0.470658 0.064683
Si Si5 0.367946 0.194558 0.367273
Si Si6 0.606418 0.046227 0.205661
Si Si7 0.047797 0.646536 0.357202
O O1 0.113439 0.114337 0.190993
O O2 0.300445 0.087634 0.318799
O O3 0.202541 0.224315 0.947815
O O4 0.100188 0.565116 0.956074
O O5 0.025239 0.028380 0.805204
O O6 0.054736 0.611352 0.198549
O O7 0.272378 0.533015 0.784514
O O8 0.171356 0.504472 0.537339
O O9 0.363767 0.068551 0.893582
O O10 0.669549 0.178288 0.214056
O O11 0.672177 0.525186 0.876324
O O12 0.524008 0.716161 0.951284
O O13 0.500000 0.000000 0.500000
O O14 0.348550 0.210554 0.531244
O O15 0.000000 0.500000 0.500000
#
# Coordination Sequence:
#
# PCOD8005720 Si02
#       7
#     2   2   2   2   2   2   2
#     4  10  21  41  61  90 121 162 204 250 310 363
#     4  10  23  42  61  84 127 160 201 258 304 367
#     4  11  22  38  62  92 118 158 205 252 302 363
#     4   9  21  39  60  90 120 162 199 245 308 358
#     4   9  19  37  61  89 120 154 198 248 301 363
#     4  10  20  39  62  86 125 158 200 250 300 363
#     4  11  23  41  60  90 116 157 208 254 309 361
#
# _framework density 21.778825999999999
#
# number of rings (size 3 to 8) (size 9 to 14) (size 15 to 20)
#    0.000    2.000    1.429    1.286    2.000    2.857 
#    2.571    0.000    0.000    9.429    0.000    0.000 
#    0.000    0.000    0.000    0.000    0.000    0.000 
#
# Total GULP energy -173465.595078 kJ/mol
# GULP energy per Si atom -12390.399648 kJ/mol
# Density = 2.172926 g / cm^3
# Si number density = 21.778826 Si / 1000 Ang^3
#
#
#
# Elastic Constant Matrix: (Units=GPa)
#
#
# Indices 1 2 3 4 5 6 
#
# 1 116.0149 24.8881 41.5306 4.5718 -0.1279 7.0860
# 2 24.8881 91.7722 23.4640 13.5362 -21.4493 -9.8613
# 3 41.5306 23.4640 79.6078 12.1155 -4.4260 -8.3505
# 4 4.5718 13.5362 12.1155 20.6087 3.4397 -8.1042
# 5 -0.1279 -21.4493 -4.4260 3.4397 42.7262 6.3511
# 6 7.0860 -9.8613 -8.3505 -8.1042 6.3511 29.5401
#
#
#
# Elastic Compliance Matrix: (Units=1/GPa)
#
#
# Indices 1 2 3 4 5 6 
#
# 1 0.011568 -0.002546 -0.006001 0.000953 -0.001229 -0.004795
# 2 -0.002546 0.015360 -0.001142 -0.009858 0.008239 0.000940
# 3 -0.006001 -0.001142 0.017555 -0.006922 0.001211 0.003861
# 4 0.000953 -0.009858 -0.006922 0.067350 -0.013447 0.015892
# 5 -0.001229 0.008239 0.001211 -0.013447 0.029741 -0.006696
# 6 -0.004795 0.000940 0.003861 0.015892 -0.006696 0.042207
#
#
# Mechanical properties :
#
#
# Convention : Reuss Voigt Hill
#
# Bulk Modulus (GPa) = 39.83385 51.90668 45.87027
# Shear Modulus (GPa) = 23.63776 31.74247 27.69012
#
# Velocity S-wave (km/s) = 3.29805 3.82185 3.56957
# Velocity P-wave (km/s) = 5.72998 6.58489 6.17225
#
# Compressibility (1/GPa) = 0.02510428
#
# Stress axis : x y z
#
# Youngs Moduli (GPa) = 86.44612 65.10592 56.96508
#
# Poissons Ratio (x) = 0.16576 0.34184
# Poissons Ratio (y) = 0.22009 0.06506
# Poissons Ratio (z) = 0.51875 0.07435
#
# Static dielectric constant tensor:
#      x y z
#    x 4.269910 -0.003120 -0.002750 
#    y -0.003120 3.731260 0.311380 
#    z -0.002750 0.311380 3.967310 
# 
# 
# High freq. dielectric constant tensor:
#      x y z
#    x 1.874070 -0.006460 0.005280 
#    y -0.006460 1.833140 0.022690 
#    z 0.005280 0.022690 1.846870 
# 
# From -- ./inp_files/294095.got.cif
#   From: 2010.06.25/outbox.cif.g09.slc.cpg/sg2_148_cif.got.tgz:294095.got - 2010.06.27 13:26:56.
