data_PCOD8005759
_publ_section_title
;
Structure prediction by ZEFSAII (Michael W. Deem and Ramdas Pophale) SiO2 
 PCOD8005759
Probable space group: P -1
;
_chemical_formula_sum "Si O2"
_cell_formula_units_Z 14
_cell_length_a 15.389266
_cell_length_b 7.649372
_cell_length_c 14.706087
_cell_angle_alpha 123.593095
_cell_angle_beta 147.301079
_cell_angle_gamma 79.180087
_cell_volume 612.750697
_symmetry_space_group_name_H-M "P -1"
_symmetry_group_IT_number 2
_symmetry_cell_setting 'triclinic'
loop_
_space_group_symop_operation_xyz
x,y,z
-x,-y,-z
loop_
_atom_site_type_symbol
_atom_site_label
_atom_site_fract_x
_atom_site_fract_y
_atom_site_fract_z
Si Si1 0.105974 0.821335 0.617511
Si Si2 0.770285 0.391676 0.656482
Si Si3 0.167881 0.178730 0.274190
Si Si4 0.959983 0.280485 0.269042
Si Si5 0.768709 0.238710 0.803952
Si Si6 0.324061 0.355335 0.876344
Si Si7 0.413385 0.820397 0.191478
O O1 0.140948 0.880873 0.772818
O O2 0.119201 0.593718 0.527455
O O3 0.881600 0.726931 0.372773
O O4 0.287355 0.092659 0.805747
O O5 0.690869 0.533082 0.570862
O O6 0.754731 0.395755 0.754178
O O7 0.623935 0.080695 0.408935
O O8 0.010355 0.547350 0.889642
O O9 0.084073 0.200183 0.302298
O O10 0.265288 0.029764 0.339156
O O11 0.000000 0.000000 0.000000
O O12 0.777857 0.209027 0.024888
O O13 0.590904 0.145924 0.693482
O O14 0.500000 0.500000 0.000000
O O15 0.396333 0.560585 0.082055
#
# Coordination Sequence:
#
# PCOD8005759 Si02
#       7
#     2   2   2   2   2   2   2
#     4   9  22  43  64  85 123 168 198 261 311 367
#     4  10  22  38  63  87 127 167 197 259 302 364
#     4  10  20  39  62  91 123 162 203 251 307 374
#     4  10  20  42  63  87 126 163 208 251 315 368
#     4  10  22  42  58  91 127 165 209 241 317 374
#     4  10  23  40  63  93 118 154 216 256 312 373
#     4  11  22  39  60  90 123 157 205 260 305 372
#
# _framework density 22.847791000000001
#
# number of rings (size 3 to 8) (size 9 to 14) (size 15 to 20)
#    0.000    2.000    2.857    0.429    2.000    6.286 
#    5.143    2.143    0.000    0.000    0.000    0.000 
#    0.000    0.000    0.000    0.000    0.000    0.000 
#
# Total GULP energy -173512.809258 kJ/mol
# GULP energy per Si atom -12393.772090 kJ/mol
# Density = 2.279579 g / cm^3
# Si number density = 22.847791 Si / 1000 Ang^3
#
#
#
# Elastic Constant Matrix: (Units=GPa)
#
#
# Indices 1 2 3 4 5 6 
#
# 1 151.6192 57.4466 37.7889 17.4538 -9.0435 2.8369
# 2 57.4466 87.8182 24.3238 23.8560 5.2909 15.9857
# 3 37.7889 24.3238 71.7442 26.8641 5.5573 1.1486
# 4 17.4538 23.8560 26.8641 29.7000 11.3878 1.5307
# 5 -9.0435 5.2909 5.5573 11.3878 40.8215 7.0820
# 6 2.8369 15.9857 1.1486 1.5307 7.0820 37.4776
#
#
#
# Elastic Compliance Matrix: (Units=1/GPa)
#
#
# Indices 1 2 3 4 5 6 
#
# 1 0.009907 -0.006258 -0.003940 0.001603 0.002846 0.001437
# 2 -0.006258 0.020191 0.001801 -0.014173 0.001061 -0.007815
# 3 -0.003940 0.001801 0.022956 -0.020471 0.001590 -0.000638
# 4 0.001603 -0.014173 -0.020471 0.068104 -0.015171 0.006637
# 5 0.002846 0.001061 0.001590 -0.015171 0.030006 -0.005767
# 6 0.001437 -0.007815 -0.000638 0.006637 -0.005767 0.030746
#
#
# Mechanical properties :
#
#
# Convention : Reuss Voigt Hill
#
# Bulk Modulus (GPa) = 27.57962 61.14446 44.36204
# Shear Modulus (GPa) = 23.72031 34.37464 29.04748
#
# Velocity S-wave (km/s) = 3.22559 3.88300 3.56946
# Velocity P-wave (km/s) = 5.09606 6.85006 6.03710
#
# Compressibility (1/GPa) = 0.03625866
#
# Stress axis : x y z
#
# Youngs Moduli (GPa) = 100.94097 49.52735 43.56211
#
# Poissons Ratio (x) = 0.30993 0.17165
# Poissons Ratio (y) = 0.63166 -0.07844
# Poissons Ratio (z) = 0.39774 -0.08918
#
# Static dielectric constant tensor:
#      x y z
#    x 3.975680 0.160320 -0.109650 
#    y 0.160320 4.757970 0.272250 
#    z -0.109650 0.272250 4.265700 
# 
# 
# High freq. dielectric constant tensor:
#      x y z
#    x 1.890220 0.020050 -0.005330 
#    y 0.020050 1.902100 0.006860 
#    z -0.005330 0.006860 1.907280 
# 
# From -- ./inp_files/398698.got.cif
#   From: 2010.06.25/outbox.cif.g09.slc.cpg/sg2_200_cif.got.tgz:398698.got - 2010.06.27 13:26:56.
