data_PCOD8005560
_publ_section_title
;
Structure prediction by ZEFSAII (Michael W. Deem and Ramdas Pophale) SiO2 
 PCOD8005560
Probable space group: P -1
;
_chemical_formula_sum "Si O2"
_cell_formula_units_Z 12
_cell_length_a 8.666392
_cell_length_b 15.044333
_cell_length_c 11.994719
_cell_angle_alpha 28.812998
_cell_angle_beta 91.694226
_cell_angle_gamma 109.691296
_cell_volume 575.294458
_symmetry_space_group_name_H-M "P -1"
_symmetry_group_IT_number 2
_symmetry_cell_setting 'triclinic'
loop_
_space_group_symop_operation_xyz
x,y,z
-x,-y,-z
loop_
_atom_site_type_symbol
_atom_site_label
_atom_site_fract_x
_atom_site_fract_y
_atom_site_fract_z
Si Si1 0.104856 0.457020 0.909943
Si Si2 0.408204 0.648198 0.150033
Si Si3 0.308107 0.842961 0.317428
Si Si4 0.744132 0.602013 0.226885
Si Si5 0.028919 0.318972 0.654321
Si Si6 0.314761 0.729989 0.827434
O O1 0.168132 0.695865 0.585370
O O2 0.149428 0.317966 0.981071
O O3 0.240201 0.543828 0.928589
O O4 0.867989 0.277021 0.130820
O O5 0.573786 0.622289 0.207671
O O6 0.201193 0.434907 0.437681
O O7 0.378396 0.641869 0.024201
O O8 0.483310 0.901588 0.923246
O O9 0.355222 0.678503 0.442783
O O10 0.184964 0.888289 0.183206
O O11 0.914308 0.770256 0.142089
O O12 0.000000 0.500000 0.500000
O O13 0.500000 0.000000 0.500000
#
# Coordination Sequence:
#
# PCOD8005560 Si02
#       6
#     2   2   2   2   2   2
#     4   9  20  39  55  80 118 145 186 238 273 334
#     4  12  21  36  63  86 111 151 191 232 285 335
#     4   9  20  39  56  82 113 152 184 227 286 328
#     4   9  21  39  56  87 117 143 192 237 277 334
#     4  10  20  39  60  82 119 152 182 236 283 334
#     4  11  19  35  64  81 109 156 190 224 288 336
#
# _framework density 20.858882000000001
#
# number of rings (size 3 to 8) (size 9 to 14) (size 15 to 20)
#    1.000    1.000    3.333    0.500    0.000    4.000 
#    0.000    7.500    0.000    0.000    0.000    0.000 
#    0.000    0.000    0.000    0.000    0.000    0.000 
#
# Total GULP energy -148686.788000 kJ/mol
# GULP energy per Si atom -12390.565667 kJ/mol
# Density = 2.081141 g / cm^3
# Si number density = 20.858882 Si / 1000 Ang^3
#
#
#
# Elastic Constant Matrix: (Units=GPa)
#
#
# Indices 1 2 3 4 5 6 
#
# 1 80.5269 20.2371 6.6765 11.9044 6.2241 14.2249
# 2 20.2371 108.4739 10.6304 24.7904 5.5028 32.1398
# 3 6.6765 10.6304 35.6467 3.5208 -9.4997 -0.6143
# 4 11.9044 24.7904 3.5208 27.2291 0.8340 -4.2535
# 5 6.2241 5.5028 -9.4997 0.8340 26.1592 6.3570
# 6 14.2249 32.1398 -0.6143 -4.2535 6.3570 38.4378
#
#
#
# Elastic Compliance Matrix: (Units=1/GPa)
#
#
# Indices 1 2 3 4 5 6 
#
# 1 0.015201 0.002177 -0.003544 -0.009327 -0.003115 -0.008019
# 2 0.002177 0.020327 -0.004912 -0.021940 -0.000982 -0.020146
# 3 -0.003544 -0.004912 0.033531 0.001913 0.013017 0.004013
# 4 -0.009327 -0.021940 0.001913 0.065161 -0.001672 0.029315
# 5 -0.003115 -0.000982 0.013017 -0.001672 0.045291 -0.005493
# 6 -0.008019 -0.020146 0.004013 0.029315 -0.005493 0.050046
#
#
# Mechanical properties :
#
#
# Convention : Reuss Voigt Hill
#
# Bulk Modulus (GPa) = 17.69835 33.30395 25.50115
# Shear Modulus (GPa) = 19.16100 30.83878 24.99989
#
# Velocity S-wave (km/s) = 3.03413 3.84923 3.46573
# Velocity P-wave (km/s) = 4.55827 5.97967 5.31668
#
# Compressibility (1/GPa) = 0.05650244
#
# Stress axis : x y z
#
# Youngs Moduli (GPa) = 65.78466 49.19545 29.82353
#
# Poissons Ratio (x) = -0.10710 0.10568
# Poissons Ratio (y) = -0.14321 0.14648
# Poissons Ratio (z) = 0.23311 0.24163
#
# Static dielectric constant tensor:
#      x y z
#    x 3.623940 0.313890 -0.139760 
#    y 0.313890 4.277820 0.185410 
#    z -0.139760 0.185410 3.347720 
# 
# 
# High freq. dielectric constant tensor:
#      x y z
#    x 1.808920 0.016430 -0.018140 
#    y 0.016430 1.838840 0.014440 
#    z -0.018140 0.014440 1.775370 
# 
# From -- ./inp_files/37645.got.cif
#   From: 2010.06.25/outbox.cif.g09.slc.cpg/sg2_19_cif.got.tgz:37645.got - 2010.06.27 13:26:56.
