data_PCOD8005343
_publ_section_title
;
Structure prediction by ZEFSAII (Michael W. Deem and Ramdas Pophale) SiO2 
 PCOD8005343
Probable space group: P -1
;
_chemical_formula_sum "Si O2"
_cell_formula_units_Z 16
_cell_length_a 11.253430
_cell_length_b 18.947182
_cell_length_c 11.179247
_cell_angle_alpha 30.482680
_cell_angle_beta 65.809739
_cell_angle_gamma 45.447502
_cell_volume 725.811553
_symmetry_space_group_name_H-M "P -1"
_symmetry_group_IT_number 2
_symmetry_cell_setting 'triclinic'
loop_
_space_group_symop_operation_xyz
x,y,z
-x,-y,-z
loop_
_atom_site_type_symbol
_atom_site_label
_atom_site_fract_x
_atom_site_fract_y
_atom_site_fract_z
Si Si1 0.980045 0.122838 0.435069
Si Si2 0.795683 0.259793 0.955783
Si Si3 0.317943 0.248091 0.212139
Si Si4 0.638134 0.470314 0.227627
Si Si5 0.656694 0.785836 0.015045
Si Si6 0.204692 0.245312 0.507314
Si Si7 0.012202 0.664552 0.065609
Si Si8 0.163638 0.636286 0.452545
O O1 0.760860 0.295630 0.328222
O O2 0.025103 0.237924 0.193273
O O3 0.000000 0.000000 0.500000
O O4 0.131509 0.953249 0.724257
O O5 0.563682 0.452566 0.794796
O O6 0.904051 0.293448 0.936137
O O7 0.846035 0.236064 0.829940
O O8 0.233186 0.312167 0.018794
O O9 0.170265 0.312537 0.282944
O O10 0.500000 0.000000 0.500000
O O11 0.391907 0.345015 0.067668
O O12 0.747426 0.368533 0.458022
O O13 0.429487 0.013594 0.777746
O O14 0.690741 0.600979 0.317330
O O15 0.797775 0.782346 0.031207
O O16 0.165463 0.412933 0.359485
O O17 0.057780 0.240187 0.610890
#
# Coordination Sequence:
#
# PCOD8005343 Si02
#       8
#     2   2   2   2   2   2   2   2
#     4  10  24  40  62  94 127 169 214 256 314 385
#     4  11  26  43  60  90 136 174 214 257 308 389
#     4   9  19  35  63  96 120 158 208 265 325 365
#     4  11  23  41  68  91 129 172 211 268 320 374
#     4   9  21  36  64  95 124 161 210 269 320 377
#     4  10  20  38  67  91 127 163 208 272 323 365
#     4  10  22  39  62  93 126 163 213 263 318 378
#     4  10  24  42  62  95 126 169 219 257 314 386
#
# _framework density 22.044287000000001
#
# number of rings (size 3 to 8) (size 9 to 14) (size 15 to 20)
#    0.000    2.000    1.250    0.375    5.250   11.000 
#    0.000    1.250    0.000    0.000    0.000    0.000 
#    0.000    0.000    0.000    0.000    0.000    0.000 
#
# Total GULP energy -198317.312836 kJ/mol
# GULP energy per Si atom -12394.832052 kJ/mol
# Density = 2.199411 g / cm^3
# Si number density = 22.044287 Si / 1000 Ang^3
#
#
#
# Elastic Constant Matrix: (Units=GPa)
#
#
# Indices 1 2 3 4 5 6 
#
# 1 87.0951 27.1629 28.0660 -13.2052 6.1963 -10.1782
# 2 27.1629 102.2255 51.9541 -6.5980 3.3823 -11.0948
# 3 28.0660 51.9541 94.3195 0.4491 6.7600 -4.0469
# 4 -13.2052 -6.5980 0.4491 39.5802 -3.2129 1.8872
# 5 6.1963 3.3823 6.7600 -3.2129 18.8013 -5.0980
# 6 -10.1782 -11.0948 -4.0469 1.8872 -5.0980 28.1343
#
#
#
# Elastic Compliance Matrix: (Units=1/GPa)
#
#
# Indices 1 2 3 4 5 6 
#
# 1 0.014110 -0.001436 -0.003163 0.004208 -0.001583 0.003514
# 2 -0.001436 0.014536 -0.007552 0.001992 0.002100 0.004373
# 3 -0.003163 -0.007552 0.015931 -0.002740 -0.004461 -0.002455
# 4 0.004208 0.001992 -0.002740 0.027328 0.004135 0.000830
# 5 -0.001583 0.002100 -0.004461 0.004135 0.058328 0.009906
# 6 0.003514 0.004373 -0.002455 0.000830 0.009906 0.039926
#
#
# Mechanical properties :
#
#
# Convention : Reuss Voigt Hill
#
# Bulk Modulus (GPa) = 49.32416 55.33401 52.32908
# Shear Modulus (GPa) = 24.84853 29.06698 26.95776
#
# Velocity S-wave (km/s) = 3.36104 3.63515 3.50078
# Velocity P-wave (km/s) = 6.12256 6.54025 6.33485
#
# Compressibility (1/GPa) = 0.02027404
#
# Stress axis : x y z
#
# Youngs Moduli (GPa) = 70.87013 68.79671 62.77201
#
# Poissons Ratio (x) = 0.09880 0.19858
# Poissons Ratio (y) = 0.10178 0.47403
# Poissons Ratio (z) = 0.22419 0.51953
#
# Static dielectric constant tensor:
#      x y z
#    x 3.617750 -0.020540 -0.271650 
#    y -0.020540 4.015660 0.109550 
#    z -0.271650 0.109550 3.801500 
# 
# 
# High freq. dielectric constant tensor:
#      x y z
#    x 1.852360 -0.005710 -0.006280 
#    y -0.005710 1.862620 -0.001620 
#    z -0.006280 -0.001620 1.878200 
# 
# From -- ./inp_files/438330.got.cif
#   From: 2010.06.25/outbox.cif.g09.slc.cpg/sg2_220_cif.got.tgz:438330.got - 2010.06.27 13:26:56.
