data_PCOD8005455
_publ_section_title
;
Structure prediction by ZEFSAII (Michael W. Deem and Ramdas Pophale) SiO2 
 PCOD8005455
Probable space group: P -1
;
_chemical_formula_sum "Si O2"
_cell_formula_units_Z 16
_cell_length_a 10.584847
_cell_length_b 18.867561
_cell_length_c 9.482575
_cell_angle_alpha 116.583409
_cell_angle_beta 92.319976
_cell_angle_gamma 141.208276
_cell_volume 763.067806
_symmetry_space_group_name_H-M "P -1"
_symmetry_group_IT_number 2
_symmetry_cell_setting 'triclinic'
loop_
_space_group_symop_operation_xyz
x,y,z
-x,-y,-z
loop_
_atom_site_type_symbol
_atom_site_label
_atom_site_fract_x
_atom_site_fract_y
_atom_site_fract_z
Si Si1 0.317969 0.193329 0.641260
Si Si2 0.738631 0.298215 0.797268
Si Si3 0.906713 0.887568 0.711669
Si Si4 0.508938 0.435591 0.061401
Si Si5 0.051404 0.148459 0.017032
Si Si6 0.578919 0.920037 0.156304
Si Si7 0.876371 0.248142 0.537088
Si Si8 0.486878 0.907502 0.846968
O O1 0.472460 0.195618 0.629406
O O2 0.337537 0.249817 0.540529
O O3 0.476753 0.334171 0.890603
O O4 0.000000 0.000000 0.500000
O O5 0.794390 0.247524 0.674629
O O6 0.685447 0.246783 0.909980
O O7 0.000000 0.500000 0.000000
O O8 0.170345 0.000822 0.738336
O O9 0.833279 0.792582 0.761785
O O10 0.968564 0.013148 0.857993
O O11 0.272974 0.310668 0.061843
O O12 0.500000 0.500000 0.000000
O O13 0.801482 0.598589 0.305274
O O14 0.777349 0.050839 0.905733
O O15 0.679398 0.063280 0.334513
O O16 0.469995 0.841430 0.922852
O O17 0.790193 0.258048 0.411124
O O18 0.500000 0.000000 0.000000
#
# Coordination Sequence:
#
# PCOD8005455 Si02
#       8
#     2   2   2   2   2   2   2   2
#     4  12  22  42  66  90 129 172 218 264 318 384
#     4  12  24  41  63  96 134 166 216 272 317 379
#     4  10  20  38  71  92 120 170 222 264 311 385
#     4  12  26  41  62  99 133 164 215 275 320 379
#     4  10  21  41  66  96 123 167 222 263 322 389
#     4  10  21  42  67  91 127 174 215 259 327 386
#     4  11  24  42  63  95 131 170 211 266 327 385
#     4   9  21  42  66  90 124 170 216 260 319 393
#
# _framework density 20.967993
#
# number of rings (size 3 to 8) (size 9 to 14) (size 15 to 20)
#    0.000    1.250    3.750    1.875    0.000    2.000 
#    2.250    9.375    0.000    0.000    0.000    0.000 
#    0.000    0.000    0.000    0.000    0.000    0.000 
#
# Total GULP energy -198241.819342 kJ/mol
# GULP energy per Si atom -12390.113709 kJ/mol
# Density = 2.092027 g / cm^3
# Si number density = 20.967993 Si / 1000 Ang^3
#
#
#
# Elastic Constant Matrix: (Units=GPa)
#
#
# Indices 1 2 3 4 5 6 
#
# 1 106.8810 42.3335 24.4886 3.5355 11.9206 19.4942
# 2 42.3335 146.8054 64.9714 -6.9761 12.0990 7.8659
# 3 24.4886 64.9714 102.3484 -8.1874 28.4410 1.5175
# 4 3.5355 -6.9761 -8.1874 27.0777 -2.6270 -1.9833
# 5 11.9206 12.0990 28.4410 -2.6270 42.0073 -5.7201
# 6 19.4942 7.8659 1.5175 -1.9833 -5.7201 30.5738
#
#
#
# Elastic Compliance Matrix: (Units=1/GPa)
#
#
# Indices 1 2 3 4 5 6 
#
# 1 0.012628 -0.002945 -0.000214 -0.003457 -0.003929 -0.008242
# 2 -0.002945 0.010369 -0.006402 0.001344 0.002274 0.000041
# 3 -0.000214 -0.006402 0.016684 0.002473 -0.009322 -0.000628
# 4 -0.003457 0.001344 0.002473 0.039009 0.001991 0.004639
# 5 -0.003929 0.002274 -0.009322 0.001991 0.031855 0.008471
# 6 -0.008242 0.000041 -0.000628 0.004639 0.008471 0.039870
#
#
# Mechanical properties :
#
#
# Convention : Reuss Voigt Hill
#
# Bulk Modulus (GPa) = 48.64784 68.84686 58.74735
# Shear Modulus (GPa) = 28.34632 34.88119 31.61376
#
# Velocity S-wave (km/s) = 3.68079 4.08308 3.88714
# Velocity P-wave (km/s) = 6.42772 7.42525 6.94442
#
# Compressibility (1/GPa) = 0.02055590
#
# Stress axis : x y z
#
# Youngs Moduli (GPa) = 79.19029 96.44231 59.93929
#
# Poissons Ratio (x) = 0.28407 0.01284
# Poissons Ratio (y) = 0.23325 0.38376
# Poissons Ratio (z) = 0.01697 0.61746
#
# Static dielectric constant tensor:
#      x y z
#    x 4.279530 -0.263000 0.632230 
#    y -0.263000 4.042250 -0.792250 
#    z 0.632230 -0.792250 4.554180 
# 
# 
# High freq. dielectric constant tensor:
#      x y z
#    x 1.839990 0.008960 0.009830 
#    y 0.008960 1.809490 -0.030500 
#    z 0.009830 -0.030500 1.817710 
# 
# From -- ./inp_files/282108.got.cif
#   From: 2010.06.25/outbox.cif.g09.slc.cpg/sg2_142_cif.got.tgz:282108.got - 2010.06.27 13:26:56.
