data_PCOD8005371
_publ_section_title
;
Structure prediction by ZEFSAII (Michael W. Deem and Ramdas Pophale) SiO2 
 PCOD8005371
Probable space group: P -1
;
_chemical_formula_sum "Si O2"
_cell_formula_units_Z 16
_cell_length_a 25.578450
_cell_length_b 9.282255
_cell_length_c 9.513337
_cell_angle_alpha 133.609072
_cell_angle_beta 46.113646
_cell_angle_gamma 152.601301
_cell_volume 730.098752
_symmetry_space_group_name_H-M "P -1"
_symmetry_group_IT_number 2
_symmetry_cell_setting 'triclinic'
loop_
_space_group_symop_operation_xyz
x,y,z
-x,-y,-z
loop_
_atom_site_type_symbol
_atom_site_label
_atom_site_fract_x
_atom_site_fract_y
_atom_site_fract_z
Si Si1 0.467673 0.656414 0.322812
Si Si2 0.227548 0.533128 0.096843
Si Si3 0.321211 0.676278 0.519801
Si Si4 0.468415 0.215351 0.028929
Si Si5 0.064879 0.639533 0.119836
Si Si6 0.876877 0.671295 0.146368
Si Si7 0.970152 0.633273 0.559697
Si Si8 0.727141 0.653377 0.877756
O O1 0.348306 0.526868 0.450812
O O2 0.432905 0.362382 0.234811
O O3 0.558262 0.939890 0.458603
O O4 0.531500 0.806848 0.153858
O O5 0.165922 0.595842 0.323269
O O6 0.211882 0.302737 0.066772
O O7 0.367083 0.862961 0.046578
O O8 0.170205 0.360969 0.938109
O O9 0.225530 0.590072 0.727154
O O10 0.274663 0.532613 0.354534
O O11 0.594824 0.439830 0.010609
O O12 0.000400 0.654973 0.355396
O O13 0.198012 0.001583 0.090585
O O14 0.061398 0.410906 0.039473
O O15 0.000000 0.500000 0.000000
O O16 0.960840 0.023993 0.283446
O O17 0.000000 0.500000 0.500000
#
# Coordination Sequence:
#
# PCOD8005371 Si02
#       8
#     2   2   2   2   2   2   2   2
#     4   9  19  36  66  98 131 181 231 283 332 412
#     4  12  26  44  70 103 147 188 224 291 353 411
#     4  10  20  38  67  98 133 178 235 280 337 408
#     4  10  21  40  67 100 138 181 234 277 353 410
#     4  12  28  48  76 103 135 186 236 292 351 408
#     4  12  25  46  74 101 138 185 236 281 349 418
#     4  12  28  47  71 106 142 180 238 288 344 422
#     4  11  25  44  69 101 145 179 233 294 344 408
#
# _framework density 21.914845
#
# number of rings (size 3 to 8) (size 9 to 14) (size 15 to 20)
#    0.000    1.000    3.750    2.250    8.750    1.000 
#    0.000    0.625    0.000    0.000    0.000    0.000 
#    0.000    0.000    0.000    0.000    0.000    0.000 
#
# Total GULP energy -198415.078259 kJ/mol
# GULP energy per Si atom -12400.942391 kJ/mol
# Density = 2.186497 g / cm^3
# Si number density = 21.914845 Si / 1000 Ang^3
#
#
#
# Elastic Constant Matrix: (Units=GPa)
#
#
# Indices 1 2 3 4 5 6 
#
# 1 77.3052 28.2239 17.7015 8.6726 6.8485 0.7987
# 2 28.2239 84.0180 45.7152 1.1787 6.2408 5.1705
# 3 17.7015 45.7152 91.6260 4.9226 -4.9186 5.5385
# 4 8.6726 1.1787 4.9226 41.8996 5.1291 -6.1604
# 5 6.8485 6.2408 -4.9186 5.1291 36.6197 3.8144
# 6 0.7987 5.1705 5.5385 -6.1604 3.8144 33.7654
#
#
#
# Elastic Compliance Matrix: (Units=1/GPa)
#
#
# Indices 1 2 3 4 5 6 
#
# 1 0.015222 -0.004633 -0.000588 -0.002712 -0.001772 0.000151
# 2 -0.004633 0.018377 -0.008530 0.001802 -0.003604 -0.000570
# 3 -0.000588 -0.008530 0.015767 -0.002328 0.004233 -0.002169
# 4 -0.002712 0.001802 -0.002328 0.025972 -0.004312 0.005396
# 5 -0.001772 -0.003604 0.004233 -0.004312 0.029870 -0.004262
# 6 0.000151 -0.000570 -0.002169 0.005396 -0.004262 0.031521
#
#
# Mechanical properties :
#
#
# Convention : Reuss Voigt Hill
#
# Bulk Modulus (GPa) = 45.73659 48.47006 47.10333
# Shear Modulus (GPa) = 29.15151 33.21085 31.18118
#
# Velocity S-wave (km/s) = 3.65117 3.89710 3.77614
# Velocity P-wave (km/s) = 6.22014 6.51271 6.36810
#
# Compressibility (1/GPa) = 0.02186433
#
# Stress axis : x y z
#
# Youngs Moduli (GPa) = 65.69627 54.41512 63.42520
#
# Poissons Ratio (x) = 0.25212 0.03727
# Poissons Ratio (y) = 0.30439 0.54100
# Poissons Ratio (z) = 0.03860 0.46415
#
# Static dielectric constant tensor:
#      x y z
#    x 3.794100 0.117050 -0.160570 
#    y 0.117050 3.952660 -0.070360 
#    z -0.160570 -0.070360 4.243980 
# 
# 
# High freq. dielectric constant tensor:
#      x y z
#    x 1.851710 0.009500 -0.007980 
#    y 0.009500 1.861690 0.002900 
#    z -0.007980 0.002900 1.867820 
# 
# From -- ./inp_files/352412.got.cif
#   From: 2010.06.25/outbox.cif.g09.slc.cpg/sg2_177_cif.got.tgz:352412.got - 2010.06.27 13:26:56.
