data_PCOD8005369
_publ_section_title
;
Structure prediction by ZEFSAII (Michael W. Deem and Ramdas Pophale) SiO2 
 PCOD8005369
Probable space group: P -1
;
_chemical_formula_sum "Si O2"
_cell_formula_units_Z 16
_cell_length_a 9.075537
_cell_length_b 18.123439
_cell_length_c 5.230568
_cell_angle_alpha 97.906478
_cell_angle_beta 98.431714
_cell_angle_gamma 53.332204
_cell_volume 681.260211
_symmetry_space_group_name_H-M "P -1"
_symmetry_group_IT_number 2
_symmetry_cell_setting 'triclinic'
loop_
_space_group_symop_operation_xyz
x,y,z
-x,-y,-z
loop_
_atom_site_type_symbol
_atom_site_label
_atom_site_fract_x
_atom_site_fract_y
_atom_site_fract_z
Si Si1 0.126747 0.044344 0.365305
Si Si2 0.257202 0.590309 0.247119
Si Si3 0.507612 0.609807 0.670309
Si Si4 0.261991 0.733073 0.055970
Si Si5 0.651282 0.710218 0.589349
Si Si6 0.264184 0.856792 0.520349
Si Si7 0.172509 0.282020 0.874541
Si Si8 0.151988 0.124596 0.933983
O O1 0.234754 0.056154 0.169662
O O2 0.902342 0.104561 0.297490
O O3 0.208104 0.937333 0.341962
O O4 0.163035 0.070090 0.662358
O O5 0.349359 0.601141 0.524663
O O6 0.341582 0.483319 0.178862
O O7 0.308588 0.630943 0.051588
O O8 0.036974 0.652315 0.245627
O O9 0.621194 0.629103 0.511725
O O10 0.404430 0.707337 0.851247
O O11 0.300885 0.769073 0.334882
O O12 0.049760 0.802589 0.966760
O O13 0.465446 0.812154 0.670561
O O14 0.710791 0.722042 0.333571
O O15 0.799531 0.679339 0.839482
O O16 0.239673 0.177949 0.910496
#
# Coordination Sequence:
#
# PCOD8005369 Si02
#       8
#     2   2   2   2   2   2   2   2
#     4  10  22  40  68 104 129 170 224 284 329 384
#     4  10  24  43  66 102 129 180 222 283 325 402
#     4  11  23  41  72  98 134 167 237 279 330 384
#     4  10  20  38  67  97 131 171 220 278 331 388
#     4  12  25  44  66 100 134 182 218 275 333 404
#     4  10  22  41  66 101 139 167 221 280 340 388
#     4  11  27  45  67  95 142 182 220 264 345 402
#     4  10  22  40  66  93 132 178 222 263 330 402
#
# _framework density 23.485887000000002
#
# number of rings (size 3 to 8) (size 9 to 14) (size 15 to 20)
#    0.000    1.500    1.250    2.625    7.000    8.500 
#    0.000    3.750    0.000    0.000    0.000    0.000 
#    0.000    0.000    0.000    0.000    0.000    0.000 
#
# Total GULP energy -198214.358253 kJ/mol
# GULP energy per Si atom -12388.397391 kJ/mol
# Density = 2.343243 g / cm^3
# Si number density = 23.485887 Si / 1000 Ang^3
#
#
#
# Elastic Constant Matrix: (Units=GPa)
#
#
# Indices 1 2 3 4 5 6 
#
# 1 93.8440 48.3305 34.7187 -8.3001 -4.2844 14.0653
# 2 48.3305 71.0464 18.4365 -4.5546 -5.9222 14.9139
# 3 34.7187 18.4365 108.3009 -12.1013 -16.7844 10.6518
# 4 -8.3001 -4.5546 -12.1013 20.2112 2.9743 -4.3893
# 5 -4.2844 -5.9222 -16.7844 2.9743 33.2173 -10.2611
# 6 14.0653 14.9139 10.6518 -4.3893 -10.2611 32.5027
#
#
#
# Elastic Compliance Matrix: (Units=1/GPa)
#
#
# Indices 1 2 3 4 5 6 
#
# 1 0.018136 -0.010962 -0.003834 0.002607 -0.002393 -0.001965
# 2 -0.010962 0.022660 0.000309 -0.000567 0.001143 -0.005471
# 3 -0.003834 0.000309 0.011731 0.004758 0.005033 -0.000096
# 4 0.002607 -0.000567 0.004758 0.054399 -0.000789 0.004670
# 5 -0.002393 0.001143 0.005033 -0.000789 0.035712 0.010029
# 6 -0.001965 -0.005471 -0.000096 0.004670 0.010029 0.037955
#
#
# Mechanical properties :
#
#
# Convention : Reuss Voigt Hill
#
# Bulk Modulus (GPa) = 42.46037 52.90696 47.68366
# Shear Modulus (GPa) = 22.99711 28.63330 25.81520
#
# Velocity S-wave (km/s) = 3.13259 3.49545 3.31898
# Velocity P-wave (km/s) = 5.58592 6.23433 5.91901
#
# Compressibility (1/GPa) = 0.02355138
#
# Stress axis : x y z
#
# Youngs Moduli (GPa) = 55.13925 44.13124 85.24375
#
# Poissons Ratio (x) = 0.48377 0.32683
# Poissons Ratio (y) = 0.60444 -0.02630
# Poissons Ratio (z) = 0.21141 -0.01362
#
# Static dielectric constant tensor:
#      x y z
#    x 4.284660 0.109150 -0.046380 
#    y 0.109150 4.432470 -0.293760 
#    z -0.046380 -0.293760 3.876850 
# 
# 
# High freq. dielectric constant tensor:
#      x y z
#    x 1.919700 0.012680 -0.012050 
#    y 0.012680 1.939750 -0.024000 
#    z -0.012050 -0.024000 1.919770 
# 
# From -- ./inp_files/47868.got.cif
#   From: 2010.06.25/outbox.cif.g09.slc.cpg/sg2_24_cif.got.tgz:47868.got - 2010.06.27 13:26:56.
