data_PCOD8005539
_publ_section_title
;
Structure prediction by ZEFSAII (Michael W. Deem and Ramdas Pophale) SiO2 
 PCOD8005539
Probable space group: P -1
;
_chemical_formula_sum "Si O2"
_cell_formula_units_Z 16
_cell_length_a 7.605998
_cell_length_b 18.207334
_cell_length_c 9.551746
_cell_angle_alpha 120.601741
_cell_angle_beta 131.144921
_cell_angle_gamma 91.668547
_cell_volume 709.353661
_symmetry_space_group_name_H-M "P -1"
_symmetry_group_IT_number 2
_symmetry_cell_setting 'triclinic'
loop_
_space_group_symop_operation_xyz
x,y,z
-x,-y,-z
loop_
_atom_site_type_symbol
_atom_site_label
_atom_site_fract_x
_atom_site_fract_y
_atom_site_fract_z
Si Si1 0.335655 0.685329 0.332959
Si Si2 0.324982 0.411790 0.610872
Si Si3 0.122141 0.690220 0.949918
Si Si4 0.322502 0.593935 0.772393
Si Si5 0.539178 0.921881 0.360365
Si Si6 0.134752 0.100588 0.262535
Si Si7 0.401610 0.911114 0.974083
Si Si8 0.221530 0.695054 0.591501
O O1 0.439475 0.611897 0.276632
O O2 0.095215 0.663117 0.073824
O O3 0.587443 0.805834 0.575656
O O4 0.188136 0.657966 0.379220
O O5 0.485184 0.537549 0.829322
O O6 0.086836 0.353988 0.550151
O O7 0.180572 0.375876 0.346762
O O8 0.247259 0.809689 0.106384
O O9 0.347980 0.667417 0.982973
O O10 0.401398 0.659060 0.732921
O O11 0.000000 0.500000 0.500000
O O12 0.792452 0.921071 0.565393
O O13 0.500000 0.000000 0.500000
O O14 0.599985 0.953358 0.258351
O O15 0.918496 0.133671 0.194242
O O16 0.000000 0.000000 0.000000
O O17 0.405321 0.818974 0.816639
O O18 0.500000 0.000000 0.000000
#
# Coordination Sequence:
#
# PCOD8005539 Si02
#       8
#     2   2   2   2   2   2   2   2
#     4  11  22  36  63  89 117 158 201 247 296 355
#     4  10  20  42  64  84 122 163 193 247 308 346
#     4   9  19  38  58  88 120 155 202 240 296 361
#     4   8  17  37  64  83 118 163 192 244 308 348
#     4  11  21  36  62  86 119 160 199 247 297 356
#     4  11  22  38  59  87 117 160 203 236 303 357
#     4  12  23  40  60  87 123 157 200 252 296 353
#     4  10  20  39  59  88 123 154 200 249 291 354
#
# _framework density 22.555745000000002
#
# number of rings (size 3 to 8) (size 9 to 14) (size 15 to 20)
#    0.000    2.000    5.000    0.750    1.750    1.500 
#    0.000    9.375    0.000    0.000    0.000    0.000 
#    0.000    0.000    0.000    0.000    0.000    0.000 
#
# Total GULP energy -198325.248105 kJ/mol
# GULP energy per Si atom -12395.328007 kJ/mol
# Density = 2.250441 g / cm^3
# Si number density = 22.555745 Si / 1000 Ang^3
#
#
#
# Elastic Constant Matrix: (Units=GPa)
#
#
# Indices 1 2 3 4 5 6 
#
# 1 66.8971 33.7031 13.8386 -8.6096 -21.9832 5.2084
# 2 33.7031 155.0617 29.4755 -3.4487 -24.7272 -2.7525
# 3 13.8386 29.4755 47.5098 -16.1646 -13.8591 3.7858
# 4 -8.6096 -3.4487 -16.1646 48.2521 -1.4075 -19.2211
# 5 -21.9832 -24.7272 -13.8591 -1.4075 32.8474 -6.3364
# 6 5.2084 -2.7525 3.7858 -19.2211 -6.3364 36.4615
#
#
#
# Elastic Compliance Matrix: (Units=1/GPa)
#
#
# Indices 1 2 3 4 5 6 
#
# 1 0.020751 -0.002470 0.000723 0.004741 0.012826 0.001502
# 2 -0.002470 0.008239 -0.003648 -0.000260 0.003346 0.001798
# 3 0.000723 -0.003648 0.030473 0.012479 0.012122 0.005142
# 4 0.004741 -0.000260 0.012479 0.033199 0.013095 0.017784
# 5 0.012826 0.003346 0.012122 0.013095 0.049671 0.012697
# 6 0.001502 0.001798 0.005142 0.017784 0.012697 0.038395
#
#
# Mechanical properties :
#
#
# Convention : Reuss Voigt Hill
#
# Bulk Modulus (GPa) = 20.54526 47.05592 33.80059
# Shear Modulus (GPa) = 24.06822 36.34229 30.20525
#
# Velocity S-wave (km/s) = 3.27012 4.01836 3.66339
# Velocity P-wave (km/s) = 4.83598 6.51436 5.73688
#
# Compressibility (1/GPa) = 0.04867303
#
# Stress axis : x y z
#
# Youngs Moduli (GPa) = 48.18955 121.37358 32.81603
#
# Poissons Ratio (x) = 0.29983 -0.02373
# Poissons Ratio (y) = 0.11904 0.11971
# Poissons Ratio (z) = -0.03484 0.44276
#
# Static dielectric constant tensor:
#      x y z
#    x 3.923830 -0.488600 -0.396170 
#    y -0.488600 4.766660 -0.007190 
#    z -0.396170 -0.007190 4.049300 
# 
# 
# High freq. dielectric constant tensor:
#      x y z
#    x 1.850180 -0.016640 -0.030810 
#    y -0.016640 1.915970 -0.005410 
#    z -0.030810 -0.005410 1.881590 
# 
# From -- ./inp_files/218114.got.cif
#   From: 2010.06.25/outbox.cif.g09.slc.cpg/sg2_110_cif.got.tgz:218114.got - 2010.06.27 13:26:56.
