data_PCOD8005983
_publ_section_title
;
Structure prediction by ZEFSAII (Michael W. Deem and Ramdas Pophale) SiO2 
 PCOD8005983
Probable space group: P -1
;
_chemical_formula_sum "Si O2"
_cell_formula_units_Z 16
_cell_length_a 7.026908
_cell_length_b 10.083502
_cell_length_c 17.126746
_cell_angle_alpha 54.992369
_cell_angle_beta 82.923327
_cell_angle_gamma 121.250869
_cell_volume 679.182349
_symmetry_space_group_name_H-M "P -1"
_symmetry_group_IT_number 2
_symmetry_cell_setting 'triclinic'
loop_
_space_group_symop_operation_xyz
x,y,z
-x,-y,-z
loop_
_atom_site_type_symbol
_atom_site_label
_atom_site_fract_x
_atom_site_fract_y
_atom_site_fract_z
Si Si1 0.250130 0.740586 0.947804
Si Si2 0.912442 0.978191 0.251244
Si Si3 0.012887 0.261022 0.375195
Si Si4 0.753529 0.779145 0.484347
Si Si5 0.323886 0.489631 0.130141
Si Si6 0.211982 0.625163 0.555428
Si Si7 0.369177 0.837974 0.316247
Si Si8 0.058689 0.132240 0.031325
O O1 0.159621 0.855273 0.952083
O O2 0.492557 0.916007 0.810928
O O3 0.360127 0.692529 0.026567
O O4 0.000000 0.500000 0.000000
O O5 0.100385 0.249078 0.174157
O O6 0.028714 0.992591 0.156025
O O7 0.905785 0.845569 0.369015
O O8 0.592561 0.830042 0.303825
O O9 0.172125 0.322005 0.428513
O O10 0.238056 0.456533 0.235499
O O11 0.793506 0.271704 0.399482
O O12 0.849388 0.007822 0.437667
O O13 0.419295 0.597069 0.556723
O O14 0.631778 0.599896 0.075530
O O15 0.291121 0.802939 0.423403
O O16 0.903107 0.367002 0.650232
O O17 0.000000 0.000000 0.000000
#
# Coordination Sequence:
#
# PCOD8005983 Si02
#       8
#     2   2   2   2   2   2   2   2
#     4  11  23  45  72  98 132 180 230 272 333 411
#     4   9  19  41  69  91 132 173 225 272 330 405
#     4  10  22  38  64  94 134 169 222 279 323 397
#     4   9  20  41  62  96 123 175 226 266 331 397
#     4  11  23  42  68  94 134 182 219 273 337 406
#     4  10  20  39  64  90 133 168 211 283 339 385
#     4   9  20  39  65  96 123 166 227 273 331 398
#     4  11  25  42  66 103 136 170 224 284 336 399
#
# _framework density 23.557739999999999
#
# number of rings (size 3 to 8) (size 9 to 14) (size 15 to 20)
#    0.000    2.000    2.500    0.750    3.500    2.500 
#    6.750    5.625    0.000    0.000    0.000    0.000 
#    0.000    0.000    0.000    0.000    0.000    0.000 
#
# Total GULP energy -198297.233521 kJ/mol
# GULP energy per Si atom -12393.577095 kJ/mol
# Density = 2.350412 g / cm^3
# Si number density = 23.557740 Si / 1000 Ang^3
#
#
#
# Elastic Constant Matrix: (Units=GPa)
#
#
# Indices 1 2 3 4 5 6 
#
# 1 38.4237 15.2529 24.4610 1.7554 0.8956 11.5941
# 2 15.2529 95.8417 47.8431 19.8153 -11.8780 5.5821
# 3 24.4610 47.8431 167.6703 20.0179 -9.0219 13.9184
# 4 1.7554 19.8153 20.0179 48.0523 8.8456 -8.2956
# 5 0.8956 -11.8780 -9.0219 8.8456 40.5998 3.8638
# 6 11.5941 5.5821 13.9184 -8.2956 3.8638 31.1908
#
#
#
# Elastic Compliance Matrix: (Units=1/GPa)
#
#
# Indices 1 2 3 4 5 6 
#
# 1 0.032252 -0.003198 -0.003038 -0.000052 -0.001368 -0.009905
# 2 -0.003198 0.014202 -0.002345 -0.006189 0.005301 -0.002609
# 3 -0.003038 -0.002345 0.007805 -0.003074 0.002071 -0.003008
# 4 -0.000052 -0.006189 -0.003074 0.028382 -0.009747 0.011255
# 5 -0.001368 0.005301 0.002071 -0.009747 0.029520 -0.007614
# 6 -0.009905 -0.002609 -0.003008 0.011255 -0.007614 0.041488
#
#
# Mechanical properties :
#
#
# Convention : Reuss Voigt Hill
#
# Bulk Modulus (GPa) = 26.95686 53.00550 39.98118
# Shear Modulus (GPa) = 27.29594 38.26052 32.77823
#
# Velocity S-wave (km/s) = 3.40764 4.03441 3.73419
# Velocity P-wave (km/s) = 5.19137 6.65214 5.96663
#
# Compressibility (1/GPa) = 0.03709631
#
# Stress axis : x y z
#
# Youngs Moduli (GPa) = 31.00567 70.41244 128.13111
#
# Poissons Ratio (x) = 0.22520 0.38923
# Poissons Ratio (y) = 0.09917 0.30048
# Poissons Ratio (z) = 0.09419 0.16512
#
# Static dielectric constant tensor:
#      x y z
#    x 4.301230 0.261720 -0.050200 
#    y 0.261720 4.056730 0.249740 
#    z -0.050200 0.249740 4.716490 
# 
# 
# High freq. dielectric constant tensor:
#      x y z
#    x 1.918790 0.014690 -0.013510 
#    y 0.014690 1.920800 0.007280 
#    z -0.013510 0.007280 1.953200 
# 
# From -- ./inp_files/559828.got.cif
#   From: 2010.06.25/outbox.cif.g09.slc.cpg/sg2_280_cif.got.tgz:559828.got - 2010.06.27 13:26:56.
