data_PCOD8005468
_publ_section_title
;
Structure prediction by ZEFSAII (Michael W. Deem and Ramdas Pophale) SiO2 
 PCOD8005468
Probable space group: P -1
;
_chemical_formula_sum "Si O2"
_cell_formula_units_Z 16
_cell_length_a 13.365714
_cell_length_b 15.459299
_cell_length_c 8.960755
_cell_angle_alpha 73.060061
_cell_angle_beta 78.124071
_cell_angle_gamma 24.922630
_cell_volume 738.477473
_symmetry_space_group_name_H-M "P -1"
_symmetry_group_IT_number 2
_symmetry_cell_setting 'triclinic'
loop_
_space_group_symop_operation_xyz
x,y,z
-x,-y,-z
loop_
_atom_site_type_symbol
_atom_site_label
_atom_site_fract_x
_atom_site_fract_y
_atom_site_fract_z
Si Si1 0.841801 0.285652 0.070516
Si Si2 0.269334 0.936100 0.920441
Si Si3 0.567340 0.340230 0.217794
Si Si4 0.060078 0.512545 0.646979
Si Si5 0.399183 0.178514 0.476514
Si Si6 0.287948 0.450752 0.832623
Si Si7 0.888971 0.831880 0.401197
Si Si8 0.619744 0.501061 0.489933
O O1 0.729487 0.299987 0.205632
O O2 0.879182 0.345321 0.128910
O O3 0.674015 0.439823 0.903753
O O4 0.092119 0.047525 0.050815
O O5 0.281920 0.853048 0.825256
O O6 0.160118 0.113953 0.788283
O O7 0.526778 0.744571 0.013259
O O8 0.497407 0.361668 0.393542
O O9 0.298427 0.273761 0.627490
O O10 0.117137 0.507880 0.793860
O O11 0.833338 0.624245 0.663282
O O12 0.984049 0.654315 0.485615
O O13 0.500000 0.000000 0.500000
O O14 0.625651 0.063806 0.439621
O O15 0.427485 0.392146 0.686059
O O16 0.090654 0.738891 0.452803
O O17 0.500000 0.500000 0.500000
#
# Coordination Sequence:
#
# PCOD8005468 Si02
#       8
#     2   2   2   2   2   2   2   2
#     4  10  20  39  56  79 121 169 203 247 296 354
#     4  11  23  37  58  87 118 169 206 243 294 364
#     4  10  21  37  58  78 120 167 212 243 297 350
#     4   9  20  40  65  91 124 150 194 255 303 359
#     4   9  19  39  68  95 116 154 198 240 308 365
#     4  10  23  37  60  90 123 156 197 259 305 344
#     4  10  22  36  62  87 118 161 203 237 294 371
#     4  11  21  40  58  88 124 161 203 261 302 338
#
# _framework density 21.666198000000001
#
# number of rings (size 3 to 8) (size 9 to 14) (size 15 to 20)
#    0.000    2.000    2.500    0.375    3.500    4.000 
#    0.000    1.875    0.000    7.500    0.000    0.000 
#    0.000    0.000    0.000    0.000    0.000    0.000 
#
# Total GULP energy -198239.215492 kJ/mol
# GULP energy per Si atom -12389.950968 kJ/mol
# Density = 2.161688 g / cm^3
# Si number density = 21.666198 Si / 1000 Ang^3
#
#
#
# Elastic Constant Matrix: (Units=GPa)
#
#
# Indices 1 2 3 4 5 6 
#
# 1 79.7125 49.1662 18.6442 3.4938 33.3744 -17.9605
# 2 49.1662 128.4241 34.9085 22.2472 15.3919 -13.6215
# 3 18.6442 34.9085 82.5066 -3.0186 12.9282 -0.8633
# 4 3.4938 22.2472 -3.0186 42.4428 6.5139 -0.3314
# 5 33.3744 15.3919 12.9282 6.5139 35.2778 -0.3951
# 6 -17.9605 -13.6215 -0.8633 -0.3314 -0.3951 35.4405
#
#
#
# Elastic Compliance Matrix: (Units=1/GPa)
#
#
# Indices 1 2 3 4 5 6 
#
# 1 0.032102 -0.009126 0.001364 0.006629 -0.027972 0.012545
# 2 -0.009126 0.013158 -0.004711 -0.007398 0.005989 0.000315
# 3 0.001364 -0.004711 0.014807 0.004241 -0.005453 -0.000780
# 4 0.006629 -0.007398 0.004241 0.028719 -0.009892 0.000778
# 5 -0.027972 0.005989 -0.005453 -0.009892 0.055893 -0.011476
# 6 0.012545 0.000315 -0.000780 0.000778 -0.011476 0.034555
#
#
# Mechanical properties :
#
#
# Convention : Reuss Voigt Hill
#
# Bulk Modulus (GPa) = 28.47291 55.12011 41.79651
# Shear Modulus (GPa) = 23.16024 35.16049 29.16037
#
# Velocity S-wave (km/s) = 3.27304 4.03280 3.67262
# Velocity P-wave (km/s) = 5.23964 6.86881 6.10878
#
# Compressibility (1/GPa) = 0.03512110
#
# Stress axis : x y z
#
# Youngs Moduli (GPa) = 31.15022 75.99789 67.53759
#
# Poissons Ratio (x) = 0.69357 -0.09211
# Poissons Ratio (y) = 0.28428 0.31815
# Poissons Ratio (z) = -0.04248 0.35800
#
# Static dielectric constant tensor:
#      x y z
#    x 4.025550 -0.377810 0.033500 
#    y -0.377810 4.199620 0.106120 
#    z 0.033500 0.106120 3.848720 
# 
# 
# High freq. dielectric constant tensor:
#      x y z
#    x 1.839000 -0.008470 0.013030 
#    y -0.008470 1.855250 0.008200 
#    z 0.013030 0.008200 1.831420 
# 
# From -- ./inp_files/54984.got.cif
#   From: 2010.06.25/outbox.cif.g09.slc.cpg/sg2_28_cif.got.tgz:54984.got - 2010.06.27 13:26:56.
