data_PCOD8005474
_publ_section_title
;
Structure prediction by ZEFSAII (Michael W. Deem and Ramdas Pophale) SiO2 
 PCOD8005474
Probable space group: P -1
;
_chemical_formula_sum "Si O2"
_cell_formula_units_Z 14
_cell_length_a 8.951663
_cell_length_b 17.487505
_cell_length_c 20.398313
_cell_angle_alpha 19.793205
_cell_angle_beta 39.147989
_cell_angle_gamma 49.848618
_cell_volume 626.524387
_symmetry_space_group_name_H-M "P -1"
_symmetry_group_IT_number 2
_symmetry_cell_setting 'triclinic'
loop_
_space_group_symop_operation_xyz
x,y,z
-x,-y,-z
loop_
_atom_site_type_symbol
_atom_site_label
_atom_site_fract_x
_atom_site_fract_y
_atom_site_fract_z
Si Si1 0.909975 0.254016 0.184836
Si Si2 0.819867 0.677714 0.179466
Si Si3 0.248942 0.100352 0.100299
Si Si4 0.700551 0.739360 0.320421
Si Si5 0.457990 0.274637 0.244522
Si Si6 0.218944 0.750546 0.149783
Si Si7 0.873614 0.583550 0.663883
O O1 0.731945 0.271142 0.171668
O O2 0.158151 0.235833 0.080007
O O3 0.745998 0.000575 0.486779
O O4 0.000000 0.500000 0.000000
O O5 0.753481 0.743142 0.221045
O O6 0.573690 0.460915 0.405001
O O7 0.067914 0.607432 0.154478
O O8 0.874847 0.892041 0.934781
O O9 0.561405 0.202491 0.907912
O O10 0.149270 0.811999 0.381846
O O11 0.926587 0.691130 0.323302
O O12 0.709397 0.008664 0.116219
O O13 0.345703 0.336095 0.299922
O O14 0.500000 0.500000 0.000000
O O15 0.220939 0.527868 0.285061
#
# Coordination Sequence:
#
# PCOD8005474 Si02
#       7
#     2   2   2   2   2   2   2
#     4  10  22  40  59  88 123 148 192 245 287 345
#     4  10  20  39  59  81 116 151 190 233 287 331
#     4  11  22  38  61  84 112 153 190 233 287 340
#     4   9  20  39  57  80 118 151 185 243 279 333
#     4  10  21  39  62  86 117 157 191 235 296 349
#     4  10  20  39  57  82 115 150 187 235 285 327
#     4  10  21  40  58  83 118 148 188 237 284 336
#
# _framework density 22.345499
#
# number of rings (size 3 to 8) (size 9 to 14) (size 15 to 20)
#    0.000    2.000    1.429    1.714    0.000    1.714 
#   10.286    0.000    0.000    0.000    0.000    0.000 
#    0.000    0.000    0.000    0.000    0.000    0.000 
#
# Total GULP energy -173475.168543 kJ/mol
# GULP energy per Si atom -12391.083467 kJ/mol
# Density = 2.229464 g / cm^3
# Si number density = 22.345499 Si / 1000 Ang^3
#
#
#
# Elastic Constant Matrix: (Units=GPa)
#
#
# Indices 1 2 3 4 5 6 
#
# 1 84.8968 7.0679 14.7739 -0.8350 1.2776 -17.3073
# 2 7.0679 61.4822 17.4190 -20.4906 -7.5445 -4.0805
# 3 14.7739 17.4190 81.2843 -16.0928 -2.5415 3.2600
# 4 -0.8350 -20.4906 -16.0928 32.1991 -2.1101 -6.3973
# 5 1.2776 -7.5445 -2.5415 -2.1101 36.4707 -0.8098
# 6 -17.3073 -4.0805 3.2600 -6.3973 -0.8098 31.6570
#
#
#
# Elastic Compliance Matrix: (Units=1/GPa)
#
#
# Indices 1 2 3 4 5 6 
#
# 1 0.013899 -0.000236 -0.002734 0.000382 -0.000528 0.007914
# 2 -0.000236 0.023060 -0.001941 0.015319 0.005669 0.006284
# 3 -0.002734 -0.001941 0.014429 0.005556 0.000975 -0.002083
# 4 0.000382 0.015319 0.005556 0.046224 0.006464 0.011117
# 5 -0.000528 0.005669 0.000975 0.006464 0.029106 0.002392
# 6 0.007914 0.006284 -0.002083 0.011117 0.002392 0.039247
#
#
# Mechanical properties :
#
#
# Convention : Reuss Voigt Hill
#
# Bulk Modulus (GPa) = 24.05730 34.02053 29.03892
# Shear Modulus (GPa) = 26.36539 32.62556 29.49548
#
# Velocity S-wave (km/s) = 3.43869 3.82521 3.63709
# Velocity P-wave (km/s) = 5.15321 5.89639 5.53728
#
# Compressibility (1/GPa) = 0.04156743
#
# Stress axis : x y z
#
# Youngs Moduli (GPa) = 71.94525 43.36547 69.30343
#
# Poissons Ratio (x) = 0.01022 0.18949
# Poissons Ratio (y) = 0.01695 0.13450
# Poissons Ratio (z) = 0.19671 0.08416
#
# Static dielectric constant tensor:
#      x y z
#    x 3.779750 -0.305830 -0.201030 
#    y -0.305830 3.907210 -0.215620 
#    z -0.201030 -0.215620 4.200420 
# 
# 
# High freq. dielectric constant tensor:
#      x y z
#    x 1.868680 -0.028450 -0.013540 
#    y -0.028450 1.869550 -0.021850 
#    z -0.013540 -0.021850 1.883100 
# 
# From -- ./inp_files/47178.got.cif
#   From: 2010.06.25/outbox.cif.g09.slc.cpg/sg2_24_cif.got.tgz:47178.got - 2010.06.27 13:26:56.
