data_PCOD8005579
_publ_section_title
;
Structure prediction by ZEFSAII (Michael W. Deem and Ramdas Pophale) SiO2 
 PCOD8005579
Probable space group: P -1
;
_chemical_formula_sum "Si O2"
_cell_formula_units_Z 14
_cell_length_a 9.147342
_cell_length_b 8.516852
_cell_length_c 14.189021
_cell_angle_alpha 136.516505
_cell_angle_beta 76.093946
_cell_angle_gamma 97.404746
_cell_volume 736.678471
_symmetry_space_group_name_H-M "P -1"
_symmetry_group_IT_number 2
_symmetry_cell_setting 'triclinic'
loop_
_space_group_symop_operation_xyz
x,y,z
-x,-y,-z
loop_
_atom_site_type_symbol
_atom_site_label
_atom_site_fract_x
_atom_site_fract_y
_atom_site_fract_z
Si Si1 0.459563 0.284305 0.028050
Si Si2 0.225909 0.939730 0.593291
Si Si3 0.448192 0.228640 0.791835
Si Si4 0.703944 0.875674 0.532227
Si Si5 0.331563 0.144411 0.167139
Si Si6 0.071868 0.247476 0.391603
Si Si7 0.531100 0.455582 0.584289
O O1 0.398273 0.274436 0.927165
O O2 0.609875 0.118185 0.944972
O O3 0.504159 0.536975 0.159768
O O4 0.325859 0.211874 0.086623
O O5 0.311931 0.693214 0.489550
O O6 0.056594 0.931178 0.654699
O O7 0.304944 0.140369 0.721841
O O8 0.218201 0.990394 0.504834
O O9 0.590686 0.044723 0.683855
O O10 0.825662 0.760357 0.534356
O O11 0.607472 0.681236 0.413737
O O12 0.167291 0.179084 0.253810
O O13 0.455847 0.300831 0.262637
O O14 0.000000 0.500000 0.500000
O O15 0.500000 0.500000 0.500000
#
# Coordination Sequence:
#
# PCOD8005579 Si02
#       7
#     2   2   2   2   2   2   2
#     4  10  21  36  63  81 114 154 199 238 270 340
#     4  11  22  36  58  88 121 151 188 243 299 345
#     4  10  20  39  60  87 110 152 201 237 281 334
#     4  11  21  37  60  89 117 152 192 246 291 342
#     4  11  20  37  57  89 115 152 193 235 289 340
#     4  12  23  38  56  89 125 150 184 239 308 353
#     4  11  18  35  61  89 116 146 193 249 285 332
#
# _framework density 19.004218999999999
#
# number of rings (size 3 to 8) (size 9 to 14) (size 15 to 20)
#    0.000    1.143    4.286    4.714    0.000    0.000 
#    0.000    1.429    0.000    0.000    0.000    0.000 
#    0.000    0.000    0.000    0.000    0.000    0.000 
#
# Total GULP energy -173629.044646 kJ/mol
# GULP energy per Si atom -12402.074618 kJ/mol
# Density = 1.896097 g / cm^3
# Si number density = 19.004219 Si / 1000 Ang^3
#
#
#
# Elastic Constant Matrix: (Units=GPa)
#
#
# Indices 1 2 3 4 5 6 
#
# 1 104.4998 44.4364 40.9246 -1.1155 -10.9390 10.5904
# 2 44.4364 110.6928 36.2296 -9.0741 -15.7818 2.7389
# 3 40.9246 36.2296 72.7687 0.2035 -2.8476 1.5956
# 4 -1.1155 -9.0741 0.2035 42.3575 6.8710 -5.2046
# 5 -10.9390 -15.7818 -2.8476 6.8710 27.1432 -1.5924
# 6 10.5904 2.7389 1.5956 -5.2046 -1.5924 33.1666
#
#
#
# Elastic Compliance Matrix: (Units=1/GPa)
#
#
# Indices 1 2 3 4 5 6 
#
# 1 0.014040 -0.003186 -0.006092 -0.001301 0.003263 -0.003975
# 2 -0.003186 0.012590 -0.004296 0.001888 0.005150 0.000728
# 3 -0.006092 -0.004296 0.019177 -0.000589 -0.002724 0.001154
# 4 -0.001301 0.001888 -0.000589 0.025395 -0.005682 0.004000
# 5 0.003263 0.005150 -0.002724 -0.005682 0.042292 -0.000197
# 6 -0.003975 0.000728 0.001154 0.004000 -0.000197 0.031923
#
#
# Mechanical properties :
#
#
# Convention : Reuss Voigt Hill
#
# Bulk Modulus (GPa) = 53.59073 59.01583 56.30328
# Shear Modulus (GPa) = 27.96674 31.62485 29.79580
#
# Velocity S-wave (km/s) = 3.84031 4.08376 3.96391
# Velocity P-wave (km/s) = 6.92276 7.30463 7.11626
#
# Compressibility (1/GPa) = 0.01865995
#
# Stress axis : x y z
#
# Youngs Moduli (GPa) = 71.22467 79.42754 52.14619
#
# Poissons Ratio (x) = 0.25302 0.31765
# Poissons Ratio (y) = 0.22689 0.22404
# Poissons Ratio (z) = 0.43387 0.34126
#
# Static dielectric constant tensor:
#      x y z
#    x 3.347640 0.119930 0.064000 
#    y 0.119930 3.841070 0.021750 
#    z 0.064000 0.021750 3.496960 
# 
# 
# High freq. dielectric constant tensor:
#      x y z
#    x 1.709740 -0.000510 0.006320 
#    y -0.000510 1.771100 -0.000150 
#    z 0.006320 -0.000150 1.731610 
# 
# From -- ./inp_files/154229.got.cif
#   From: 2010.06.25/outbox.cif.g09.slc.cpg/sg2_78_cif.got.tgz:154229.got - 2010.06.27 13:26:56.
