data_PCOD8005239
_publ_section_title
;
Structure prediction by ZEFSAII (Michael W. Deem and Ramdas Pophale) SiO2 
 PCOD8005239
Probable space group: P -1
;
_chemical_formula_sum "Si O2"
_cell_formula_units_Z 14
_cell_length_a 15.400462
_cell_length_b 6.028393
_cell_length_c 8.125206
_cell_angle_alpha 87.916946
_cell_angle_beta 61.855291
_cell_angle_gamma 109.875979
_cell_volume 607.670888
_symmetry_space_group_name_H-M "P -1"
_symmetry_group_IT_number 2
_symmetry_cell_setting 'triclinic'
loop_
_space_group_symop_operation_xyz
x,y,z
-x,-y,-z
loop_
_atom_site_type_symbol
_atom_site_label
_atom_site_fract_x
_atom_site_fract_y
_atom_site_fract_z
Si Si1 0.201569 0.423907 0.542226
Si Si2 0.012501 0.950335 0.677655
Si Si3 0.107444 0.692168 0.815108
Si Si4 0.378306 0.269244 0.280889
Si Si5 0.271576 0.797090 0.197038
Si Si6 0.803735 0.927787 0.994487
Si Si7 0.615435 0.469073 0.071386
O O1 0.200452 0.597582 0.689597
O O2 0.296628 0.326849 0.473719
O O3 0.203875 0.544726 0.357409
O O4 0.085777 0.210035 0.679843
O O5 0.070832 0.770245 0.671457
O O6 0.898346 0.840402 0.874624
O O7 0.000000 0.000000 0.500000
O O8 0.170927 0.926691 0.862869
O O9 0.000000 0.500000 0.000000
O O10 0.495496 0.354798 0.260585
O O11 0.337999 0.986147 0.275471
O O12 0.389332 0.418555 0.102459
O O13 0.196723 0.900855 0.163097
O O14 0.346360 0.748852 0.991919
O O15 0.694340 0.682971 0.113930
#
# Coordination Sequence:
#
# PCOD8005239 Si02
#       7
#     2   2   2   2   2   2   2
#     4  11  23  39  64  90 133 168 214 266 315 380
#     4  12  25  42  66  94 127 165 219 269 321 379
#     4  12  27  43  63  94 131 180 212 259 322 386
#     4   9  18  37  60  97 126 169 215 265 321 372
#     4  10  20  38  65  98 126 167 214 268 316 386
#     4  11  24  39  62  96 130 166 220 258 324 382
#     4   9  19  35  64  92 132 165 212 271 317 379
#
# _framework density 23.038786999999999
#
# number of rings (size 3 to 8) (size 9 to 14) (size 15 to 20)
#    0.000    1.429    1.429    5.143    4.000    2.286 
#    0.000    0.714    0.000    4.286    0.000    0.000 
#    0.000    0.000    0.000    0.000    0.000    0.000 
#
# Total GULP energy -173524.479058 kJ/mol
# GULP energy per Si atom -12394.605647 kJ/mol
# Density = 2.298635 g / cm^3
# Si number density = 23.038787 Si / 1000 Ang^3
#
#
#
# Elastic Constant Matrix: (Units=GPa)
#
#
# Indices 1 2 3 4 5 6 
#
# 1 96.1042 59.3044 48.5871 6.1294 -28.6128 16.5913
# 2 59.3044 115.2368 36.5340 25.1768 -14.1916 4.5762
# 3 48.5871 36.5340 77.0671 22.8923 -14.0584 5.2408
# 4 6.1294 25.1768 22.8923 46.4990 -11.7267 0.4089
# 5 -28.6128 -14.1916 -14.0584 -11.7267 36.7659 -1.0546
# 6 16.5913 4.5762 5.2408 0.4089 -1.0546 34.4192
#
#
#
# Elastic Compliance Matrix: (Units=1/GPa)
#
#
# Indices 1 2 3 4 5 6 
#
# 1 0.031738 -0.012165 -0.014304 0.014277 0.018770 -0.011098
# 2 -0.012165 0.015548 0.001750 -0.009121 -0.005606 0.003467
# 3 -0.014304 0.001750 0.023577 -0.012003 -0.005182 0.003057
# 4 0.014277 -0.009121 -0.012003 0.033966 0.013725 -0.003825
# 5 0.018770 -0.005606 -0.005182 0.013725 0.041855 -0.006394
# 6 -0.011098 0.003467 0.003057 -0.003825 -0.006394 0.033326
#
#
# Mechanical properties :
#
#
# Convention : Reuss Voigt Hill
#
# Bulk Modulus (GPa) = 46.67935 64.13991 55.40963
# Shear Modulus (GPa) = 21.13355 33.13565 27.13460
#
# Velocity S-wave (km/s) = 3.03199 3.79655 3.43560
# Velocity P-wave (km/s) = 5.70635 6.86431 6.31194
#
# Compressibility (1/GPa) = 0.02142275
#
# Stress axis : x y z
#
# Youngs Moduli (GPa) = 31.50828 64.31608 42.41490
#
# Poissons Ratio (x) = 0.78241 0.60672
# Poissons Ratio (y) = 0.38330 -0.07421
# Poissons Ratio (z) = 0.45071 -0.11253
#
# Static dielectric constant tensor:
#      x y z
#    x 4.416560 -0.022560 -0.438650 
#    y -0.022560 4.430240 -0.057970 
#    z -0.438650 -0.057970 4.083180 
# 
# 
# High freq. dielectric constant tensor:
#      x y z
#    x 1.895950 -0.009350 -0.017930 
#    y -0.009350 1.921270 0.001930 
#    z -0.017930 0.001930 1.890930 
# 
# From -- ./inp_files/27031.got.cif
#   From: 2010.06.25/outbox.cif.g09.slc.cpg/sg2_14_cif.got.tgz:27031.got - 2010.06.27 13:26:56.
