data_PCOD8005986
_publ_section_title
;
Structure prediction by ZEFSAII (Michael W. Deem and Ramdas Pophale) SiO2 
 PCOD8005986
Probable space group: P -1
;
_chemical_formula_sum "Si O2"
_cell_formula_units_Z 16
_cell_length_a 10.589750
_cell_length_b 16.116534
_cell_length_c 10.373840
_cell_angle_alpha 39.927469
_cell_angle_beta 77.622640
_cell_angle_gamma 106.282937
_cell_volume 782.224148
_symmetry_space_group_name_H-M "P -1"
_symmetry_group_IT_number 2
_symmetry_cell_setting 'triclinic'
loop_
_space_group_symop_operation_xyz
x,y,z
-x,-y,-z
loop_
_atom_site_type_symbol
_atom_site_label
_atom_site_fract_x
_atom_site_fract_y
_atom_site_fract_z
Si Si1 0.881920 0.530805 0.931424
Si Si2 0.050175 0.892463 0.345951
Si Si3 0.618565 0.438276 0.312721
Si Si4 0.273779 0.349805 0.499964
Si Si5 0.872145 0.772129 0.048945
Si Si6 0.857248 0.222219 0.880484
Si Si7 0.597896 0.935438 0.083494
Si Si8 0.819587 0.449122 0.751770
O O1 0.709504 0.435484 0.173636
O O2 0.817708 0.433219 0.924064
O O3 0.000000 0.500000 0.000000
O O4 0.989425 0.742877 0.641965
O O5 0.911604 0.797948 0.366856
O O6 0.954236 0.968729 0.752395
O O7 0.256233 0.000012 0.133731
O O8 0.442986 0.392367 0.351775
O O9 0.751215 0.630431 0.129046
O O10 0.557442 0.284163 0.609924
O O11 0.243473 0.276825 0.738358
O O12 0.321895 0.537209 0.273027
O O13 0.026989 0.776507 0.042603
O O14 0.757390 0.269851 0.918104
O O15 0.978746 0.366734 0.564574
O O16 0.702028 0.019794 0.097482
O O17 0.500000 0.000000 0.000000
#
# Coordination Sequence:
#
# PCOD8005986 Si02
#       8
#     2   2   2   2   2   2   2   2
#     4  11  23  43  60  89 132 166 202 252 312 374
#     4  11  22  42  65  86 123 173 202 251 317 365
#     4  12  26  36  62  98 127 161 203 263 312 354
#     4  10  20  39  64  91 125 155 209 262 305 359
#     4  11  21  38  65  92 127 158 209 260 304 366
#     4  10  20  39  66  94 117 164 213 249 309 366
#     4  12  24  37  61  95 122 158 210 260 302 365
#     4   9  20  36  67  86 118 166 208 246 301 370
#
# _framework density 20.454495999999999
#
# number of rings (size 3 to 8) (size 9 to 14) (size 15 to 20)
#    0.000    1.250    5.000    3.000    5.250    2.500 
#    0.000    0.625    0.000    1.500    0.000    0.000 
#    0.000    0.000    0.000    0.000    0.000    0.000 
#
# Total GULP energy -198385.530800 kJ/mol
# GULP energy per Si atom -12399.095675 kJ/mol
# Density = 2.040794 g / cm^3
# Si number density = 20.454496 Si / 1000 Ang^3
#
#
#
# Elastic Constant Matrix: (Units=GPa)
#
#
# Indices 1 2 3 4 5 6 
#
# 1 141.2566 12.8706 39.4715 4.4920 -4.9308 -15.3765
# 2 12.8706 64.7460 13.0786 -5.0171 -2.6487 -7.6560
# 3 39.4715 13.0786 69.8818 6.8911 -1.5136 -3.9266
# 4 4.4920 -5.0171 6.8911 27.8096 -9.2991 5.5121
# 5 -4.9308 -2.6487 -1.5136 -9.2991 35.2424 1.1204
# 6 -15.3765 -7.6560 -3.9266 5.5121 1.1204 32.2312
#
#
#
# Elastic Compliance Matrix: (Units=1/GPa)
#
#
# Indices 1 2 3 4 5 6 
#
# 1 0.008861 -0.000434 -0.004616 -0.000876 0.000660 0.003689
# 2 -0.000434 0.016873 -0.003118 0.004048 0.002057 0.002657
# 3 -0.004616 -0.003118 0.017944 -0.004739 -0.001363 0.000101
# 4 -0.000876 0.004048 -0.004739 0.043479 0.011701 -0.007876
# 5 0.000660 0.002057 -0.001363 0.011701 0.031729 -0.002466
# 6 0.003689 0.002657 0.000101 -0.007876 -0.002466 0.034862
#
#
# Mechanical properties :
#
#
# Convention : Reuss Voigt Hill
#
# Bulk Modulus (GPa) = 36.57273 45.19178 40.88225
# Shear Modulus (GPa) = 27.90207 33.08754 30.49481
#
# Velocity S-wave (km/s) = 3.69739 4.02632 3.86536
# Velocity P-wave (km/s) = 6.01219 6.61489 6.32073
#
# Compressibility (1/GPa) = 0.02734278
#
# Stress axis : x y z
#
# Youngs Moduli (GPa) = 112.85242 59.26595 55.72837
#
# Poissons Ratio (x) = 0.02571 0.25724
# Poissons Ratio (y) = 0.04895 0.17377
# Poissons Ratio (z) = 0.52092 0.18480
#
# Static dielectric constant tensor:
#      x y z
#    x 4.010650 -0.263140 0.068340 
#    y -0.263140 3.634010 -0.076180 
#    z 0.068340 -0.076180 3.568050 
# 
# 
# High freq. dielectric constant tensor:
#      x y z
#    x 1.823970 -0.019160 0.007760 
#    y -0.019160 1.789710 -0.004680 
#    z 0.007760 -0.004680 1.767970 
# 
# From -- ./inp_files/279036.got.cif
#   From: 2010.06.25/outbox.cif.g09.slc.cpg/sg2_140_cif.got.tgz:279036.got - 2010.06.27 13:26:56.
