data_PCOD8005516
_publ_section_title
;
Structure prediction by ZEFSAII (Michael W. Deem and Ramdas Pophale) SiO2 
 PCOD8005516
Probable space group: P -1
;
_chemical_formula_sum "Si O2"
_cell_formula_units_Z 14
_cell_length_a 16.274105
_cell_length_b 16.196361
_cell_length_c 10.625795
_cell_angle_alpha 128.627221
_cell_angle_beta 157.133236
_cell_angle_gamma 40.953887
_cell_volume 684.564409
_symmetry_space_group_name_H-M "P -1"
_symmetry_group_IT_number 2
_symmetry_cell_setting 'triclinic'
loop_
_space_group_symop_operation_xyz
x,y,z
-x,-y,-z
loop_
_atom_site_type_symbol
_atom_site_label
_atom_site_fract_x
_atom_site_fract_y
_atom_site_fract_z
Si Si1 0.904493 0.888122 0.083707
Si Si2 0.431849 0.065186 0.758728
Si Si3 0.180615 0.017346 0.567646
Si Si4 0.342463 0.387056 0.718321
Si Si5 0.194402 0.732783 0.581491
Si Si6 0.029224 0.282221 0.217165
Si Si7 0.458359 0.555654 0.165970
O O1 0.135376 0.783490 0.404088
O O2 0.964597 0.990019 0.223546
O O3 0.896004 0.816712 0.883683
O O4 0.618729 0.966289 0.817762
O O5 0.305784 0.002005 0.593589
O O6 0.198060 0.203766 0.503568
O O7 0.598889 0.082955 0.113949
O O8 0.052799 0.164329 0.580927
O O9 0.091795 0.384609 0.361000
O O10 0.274778 0.528343 0.798509
O O11 0.556571 0.277372 0.016313
O O12 0.470579 0.360240 0.733454
O O13 0.269484 0.585256 0.546204
O O14 0.719029 0.361521 0.884994
#
# Coordination Sequence:
#
# PCOD8005516 Si02
#       7
#     2   2   2   2   2   2   2
#     4  11  23  36  54  84 117 145 174 223 279 323
#     4  10  22  36  58  82 108 146 190 219 264 323
#     4  10  20  39  59  81 106 146 188 225 266 315
#     4   9  19  38  58  81 105 140 189 225 263 318
#     4   9  18  38  60  77 110 142 185 226 263 321
#     4  12  22  35  57  85 114 142 178 223 278 330
#     4   9  21  37  60  82 104 144 187 224 273 313
#
# _framework density 20.450962000000001
#
# number of rings (size 3 to 8) (size 9 to 14) (size 15 to 20)
#    0.857    1.143    0.000    5.143    0.000    2.286 
#    0.000    0.714    0.000    0.000    0.000    0.000 
#    0.000    0.000    0.000    0.000    0.000    0.000 
#
# Total GULP energy -173473.769948 kJ/mol
# GULP energy per Si atom -12390.983568 kJ/mol
# Density = 2.040441 g / cm^3
# Si number density = 20.450962 Si / 1000 Ang^3
#
#
#
# Elastic Constant Matrix: (Units=GPa)
#
#
# Indices 1 2 3 4 5 6 
#
# 1 116.3219 38.0054 33.0576 5.2484 24.4089 -1.2420
# 2 38.0054 65.5734 22.8405 -8.7173 2.4783 2.6559
# 3 33.0576 22.8405 49.5269 -9.4977 6.3348 8.3594
# 4 5.2484 -8.7173 -9.4977 24.0051 -2.0211 -0.0899
# 5 24.4089 2.4783 6.3348 -2.0211 20.5553 -6.7425
# 6 -1.2420 2.6559 8.3594 -0.0899 -6.7425 24.0828
#
#
#
# Elastic Compliance Matrix: (Units=1/GPa)
#
#
# Indices 1 2 3 4 5 6 
#
# 1 0.018358 -0.008714 -0.007825 -0.011947 -0.019831 -0.000973
# 2 -0.008714 0.022618 -0.004432 0.009247 0.010401 0.001541
# 3 -0.007825 -0.004432 0.032214 0.012572 -0.002742 -0.011817
# 4 -0.011947 0.009247 0.012572 0.053761 0.013854 -0.001920
# 5 -0.019831 0.010401 -0.002742 0.013854 0.080127 0.021267
# 6 -0.000973 0.001541 -0.011817 -0.001920 0.021267 0.051352
#
#
# Mechanical properties :
#
#
# Convention : Reuss Voigt Hill
#
# Bulk Modulus (GPa) = 32.00170 46.58103 39.29136
# Shear Modulus (GPa) = 16.08818 22.89654 19.49236
#
# Velocity S-wave (km/s) = 2.80781 3.34965 3.09062
# Velocity P-wave (km/s) = 5.11798 6.14708 5.65598
#
# Compressibility (1/GPa) = 0.03124834
#
# Stress axis : x y z
#
# Youngs Moduli (GPa) = 54.47355 44.21293 31.04238
#
# Poissons Ratio (x) = 0.38525 0.24291
# Poissons Ratio (y) = 0.47466 0.13758
# Poissons Ratio (z) = 0.42626 0.19595
#
# Static dielectric constant tensor:
#      x y z
#    x 3.735470 0.058150 0.068760 
#    y 0.058150 3.375710 -0.179180 
#    z 0.068760 -0.179180 3.488070 
# 
# 
# High freq. dielectric constant tensor:
#      x y z
#    x 1.807160 0.007310 0.009500 
#    y 0.007310 1.775440 -0.018180 
#    z 0.009500 -0.018180 1.773920 
# 
# From -- ./inp_files/466366.got.cif
#   From: 2010.06.25/outbox.cif.g09.slc.cpg/sg2_234_cif.got.tgz:466366.got - 2010.06.27 13:26:56.
