data_PCOD8005878
_publ_section_title
;
Structure prediction by ZEFSAII (Michael W. Deem and Ramdas Pophale) SiO2 
 PCOD8005878
Probable space group: P -1
;
_chemical_formula_sum "Si O2"
_cell_formula_units_Z 14
_cell_length_a 24.813949
_cell_length_b 5.958884
_cell_length_c 22.336272
_cell_angle_alpha 104.728797
_cell_angle_beta 10.519125
_cell_angle_gamma 104.048738
_cell_volume 582.655111
_symmetry_space_group_name_H-M "P -1"
_symmetry_group_IT_number 2
_symmetry_cell_setting 'triclinic'
loop_
_space_group_symop_operation_xyz
x,y,z
-x,-y,-z
loop_
_atom_site_type_symbol
_atom_site_label
_atom_site_fract_x
_atom_site_fract_y
_atom_site_fract_z
Si Si1 0.308491 0.289260 0.677518
Si Si2 0.243701 0.062505 0.556400
Si Si3 0.806560 0.224955 0.742712
Si Si4 0.618227 0.902196 0.246534
Si Si5 0.528347 0.922369 0.112244
Si Si6 0.132975 0.653351 0.443934
Si Si7 0.197409 0.519228 0.693619
O O1 0.500000 0.500000 0.500000
O O2 0.165173 0.348895 0.773922
O O3 0.496205 0.047585 0.447822
O O4 0.060598 0.275976 0.000719
O O5 0.150577 0.340014 0.677776
O O6 0.505393 0.010121 0.314229
O O7 0.351787 0.002643 0.368526
O O8 0.972472 0.900882 0.858274
O O9 0.703481 0.340349 0.799616
O O10 0.002382 0.400555 0.578816
O O11 0.000000 0.000000 0.500000
O O12 0.532695 0.142413 0.076518
O O13 0.511202 0.639508 0.352871
O O14 0.368590 0.705835 0.241638
O O15 0.863134 0.844133 0.757141
#
# Coordination Sequence:
#
# PCOD8005878 Si02
#       7
#     2   2   2   2   2   2   2
#     4  10  20  39  63  92 119 149 207 258 307 366
#     4  11  25  41  58  89 124 162 211 244 291 374
#     4   9  21  40  66  95 123 158 199 254 306 350
#     4  11  24  41  63  87 122 163 203 253 310 356
#     4  11  23  40  61  88 126 165 201 249 299 356
#     4  10  22  40  64  94 123 155 206 251 300 361
#     4  10  23  40  61  89 122 159 198 259 308 357
#
# _framework density 24.027937999999999
#
# number of rings (size 3 to 8) (size 9 to 14) (size 15 to 20)
#    0.000    1.714    1.429    1.714    2.000   10.286 
#    0.000    0.000    0.000    0.000    0.000    0.000 
#    0.000    0.000    0.000    0.000    0.000    0.000 
#
# Total GULP energy -173574.412437 kJ/mol
# GULP energy per Si atom -12398.172317 kJ/mol
# Density = 2.397325 g / cm^3
# Si number density = 24.027938 Si / 1000 Ang^3
#
#
#
# Elastic Constant Matrix: (Units=GPa)
#
#
# Indices 1 2 3 4 5 6 
#
# 1 82.0135 20.5581 22.1612 -4.0586 26.3302 27.8131
# 2 20.5581 105.5338 20.9969 -27.1914 28.0741 24.4853
# 3 22.1612 20.9969 90.5278 -17.5715 27.2661 15.1688
# 4 -4.0586 -27.1914 -17.5715 38.5114 4.0888 -4.4145
# 5 26.3302 28.0741 27.2661 4.0888 45.2740 2.1116
# 6 27.8131 24.4853 15.1688 -4.4145 2.1116 33.5322
#
#
#
# Elastic Compliance Matrix: (Units=1/GPa)
#
#
# Indices 1 2 3 4 5 6 
#
# 1 0.026383 0.009991 0.005775 0.011809 -0.024746 -0.028678
# 2 0.009991 0.024779 0.008658 0.022452 -0.027223 -0.025627
# 3 0.005775 0.008658 0.020044 0.016235 -0.021487 -0.016689
# 4 0.011809 0.022452 0.016235 0.051261 -0.034048 -0.024641
# 5 -0.024746 -0.027223 -0.021487 -0.034048 0.067444 0.041394
# 6 -0.028678 -0.025627 -0.016689 -0.024641 0.041394 0.074021
#
#
# Mechanical properties :
#
#
# Convention : Reuss Voigt Hill
#
# Bulk Modulus (GPa) = 8.32961 45.05639 26.69300
# Shear Modulus (GPa) = 19.60002 37.75411 28.67706
#
# Velocity S-wave (km/s) = 2.85918 3.96821 3.45844
# Velocity P-wave (km/s) = 3.79131 6.30777 5.20394
#
# Compressibility (1/GPa) = 0.12005357
#
# Stress axis : x y z
#
# Youngs Moduli (GPa) = 37.90370 40.35625 49.89107
#
# Poissons Ratio (x) = -0.40320 -0.28811
# Poissons Ratio (y) = -0.37869 -0.43197
# Poissons Ratio (z) = -0.21889 -0.34941
#
# Static dielectric constant tensor:
#      x y z
#    x 4.627370 -0.080140 0.339260 
#    y -0.080140 4.552480 -0.131910 
#    z 0.339260 -0.131910 4.408220 
# 
# 
# High freq. dielectric constant tensor:
#      x y z
#    x 1.939420 0.011370 0.000670 
#    y 0.011370 1.958930 -0.008440 
#    z 0.000670 -0.008440 1.947550 
# 
# From -- ./inp_files/7666.got.cif
#   From: 2010.06.25/outbox.cif.g09.slc.cpg/sg2_4_cif.got.tgz:7666.got - 2010.06.27 13:26:56.
