data_PCOD8005329
_publ_section_title
;
Structure prediction by ZEFSAII (Michael W. Deem and Ramdas Pophale) SiO2 
 PCOD8005329
Probable space group: P -1
;
_chemical_formula_sum "Si O2"
_cell_formula_units_Z 16
_cell_length_a 14.649004
_cell_length_b 11.989427
_cell_length_c 9.551365
_cell_angle_alpha 37.111200
_cell_angle_beta 48.900580
_cell_angle_gamma 64.282062
_cell_volume 747.547890
_symmetry_space_group_name_H-M "P -1"
_symmetry_group_IT_number 2
_symmetry_cell_setting 'triclinic'
loop_
_space_group_symop_operation_xyz
x,y,z
-x,-y,-z
loop_
_atom_site_type_symbol
_atom_site_label
_atom_site_fract_x
_atom_site_fract_y
_atom_site_fract_z
Si Si1 0.143884 0.104613 0.735482
Si Si2 0.270424 0.219054 0.203283
Si Si3 0.899401 0.532650 0.460086
Si Si4 0.528972 0.157349 0.931981
Si Si5 0.722806 0.424921 0.318442
Si Si6 0.856792 0.084373 0.564373
Si Si7 0.057893 0.362682 0.981830
Si Si8 0.241076 0.863806 0.097353
O O1 0.187427 0.126965 0.508697
O O2 0.171788 0.313790 0.560494
O O3 0.233137 0.995588 0.840601
O O4 0.000000 0.000000 0.000000
O O5 0.207172 0.117255 0.229311
O O6 0.408694 0.182948 0.112863
O O7 0.278554 0.445967 0.949263
O O8 0.800427 0.348329 0.703385
O O9 0.000000 0.500000 0.500000
O O10 0.979224 0.618419 0.159635
O O11 0.588213 0.350021 0.596671
O O12 0.621658 0.103052 0.009971
O O13 0.500000 0.000000 0.000000
O O14 0.786773 0.244598 0.407920
O O15 0.795091 0.570199 0.216720
O O16 0.849801 0.089098 0.735479
O O17 0.001596 0.147674 0.305155
O O18 0.000000 0.500000 0.000000
#
# Coordination Sequence:
#
# PCOD8005329 Si02
#       8
#     2   2   2   2   2   2   2   2
#     4  12  29  44  67 107 146 189 230 275 360 432
#     4  12  26  43  71 106 137 187 239 284 347 424
#     4  12  24  43  66  95 149 186 215 289 354 420
#     4  11  22  49  75 103 136 182 239 306 348 392
#     4  10  22  39  70 102 135 168 233 299 348 396
#     4  10  22  40  69 105 134 177 232 298 352 398
#     4  10  20  38  67 100 131 174 235 282 354 406
#     4  11  24  46  69  99 142 180 233 288 349 410
#
# _framework density 21.403312
#
# number of rings (size 3 to 8) (size 9 to 14) (size 15 to 20)
#    0.000    1.000    7.500    1.125    7.000    1.000 
#    2.250    0.625    0.000    0.000    0.000    0.000 
#    0.000    0.000    0.000    0.000    0.000    0.000 
#
# Total GULP energy -198311.284371 kJ/mol
# GULP energy per Si atom -12394.455273 kJ/mol
# Density = 2.135460 g / cm^3
# Si number density = 21.403312 Si / 1000 Ang^3
#
#
#
# Elastic Constant Matrix: (Units=GPa)
#
#
# Indices 1 2 3 4 5 6 
#
# 1 114.3080 22.2802 50.7636 -1.2150 0.7181 8.9990
# 2 22.2802 86.3967 41.3201 -6.5534 0.3560 16.7190
# 3 50.7636 41.3201 144.2908 2.1359 4.4866 0.7958
# 4 -1.2150 -6.5534 2.1359 41.3868 -2.3725 -0.7227
# 5 0.7181 0.3560 4.4866 -2.3725 47.7713 -2.1811
# 6 8.9990 16.7190 0.7958 -0.7227 -2.1811 27.3252
#
#
#
# Elastic Compliance Matrix: (Units=1/GPa)
#
#
# Indices 1 2 3 4 5 6 
#
# 1 0.010693 -0.000370 -0.003646 0.000391 0.000059 -0.003174
# 2 -0.000370 0.015757 -0.004368 0.002547 -0.000001 -0.009324
# 3 -0.003646 -0.004368 0.009486 -0.001267 -0.000706 0.003507
# 4 0.000391 0.002547 -0.001267 0.024700 0.001280 -0.000895
# 5 0.000059 -0.000001 -0.000706 0.001280 0.021141 0.001723
# 6 -0.003174 -0.009324 0.003507 -0.000895 0.001723 0.043358
#
#
# Mechanical properties :
#
#
# Convention : Reuss Voigt Hill
#
# Bulk Modulus (GPa) = 52.17453 63.74703 57.96078
# Shear Modulus (GPa) = 33.71706 38.67210 36.19458
#
# Velocity S-wave (km/s) = 3.97334 4.25529 4.11673
# Velocity P-wave (km/s) = 6.74386 7.34791 7.05235
#
# Compressibility (1/GPa) = 0.01916644
#
# Stress axis : x y z
#
# Youngs Moduli (GPa) = 93.51596 63.46512 105.42376
#
# Poissons Ratio (x) = 0.02349 0.38440
# Poissons Ratio (y) = 0.03461 0.46051
# Poissons Ratio (z) = 0.34098 0.27723
#
# Static dielectric constant tensor:
#      x y z
#    x 4.028130 0.112020 -0.292100 
#    y 0.112020 3.871190 -0.219470 
#    z -0.292100 -0.219470 4.313620 
# 
# 
# High freq. dielectric constant tensor:
#      x y z
#    x 1.839760 -0.002200 0.004600 
#    y -0.002200 1.832650 -0.020980 
#    z 0.004600 -0.020980 1.850510 
# 
# From -- ./inp_files/306165.got.cif
#   From: 2010.06.25/outbox.cif.g09.slc.cpg/sg2_154_cif.got.tgz:306165.got - 2010.06.27 13:26:56.
