data_PCOD8005924
_publ_section_title
;
Structure prediction by ZEFSAII (Michael W. Deem and Ramdas Pophale) SiO2 
 PCOD8005924
Probable space group: P -1
;
_chemical_formula_sum "Si O2"
_cell_formula_units_Z 16
_cell_length_a 11.273320
_cell_length_b 9.433843
_cell_length_c 11.908495
_cell_angle_alpha 104.472348
_cell_angle_beta 125.602813
_cell_angle_gamma 48.066403
_cell_volume 745.501701
_symmetry_space_group_name_H-M "P -1"
_symmetry_group_IT_number 2
_symmetry_cell_setting 'triclinic'
loop_
_space_group_symop_operation_xyz
x,y,z
-x,-y,-z
loop_
_atom_site_type_symbol
_atom_site_label
_atom_site_fract_x
_atom_site_fract_y
_atom_site_fract_z
Si Si1 0.394834 0.391186 0.673322
Si Si2 0.207573 0.282622 0.839888
Si Si3 0.632765 0.957037 0.907879
Si Si4 0.826305 0.373516 0.183070
Si Si5 0.553022 0.966781 0.393675
Si Si6 0.107949 0.727932 0.431777
Si Si7 0.882100 0.966936 0.572878
Si Si8 0.220774 0.845153 0.049880
O O1 0.315828 0.519681 0.767916
O O2 0.332577 0.261279 0.615281
O O3 0.313113 0.515010 0.537375
O O4 0.631055 0.248724 0.779900
O O5 0.131077 0.497337 0.822017
O O6 0.037571 0.287667 0.709157
O O7 0.405976 0.117616 0.850216
O O8 0.247707 0.232521 0.984713
O O9 0.633509 0.898791 0.767313
O O10 0.732410 0.050300 0.986748
O O11 0.029178 0.162224 0.290496
O O12 0.733136 0.333128 0.028648
O O13 0.678249 0.025933 0.446822
O O14 0.500000 0.000000 0.500000
O O15 0.025917 0.841077 0.525419
O O16 0.147467 0.838255 0.392143
O O17 0.000000 0.000000 0.000000
#
# Coordination Sequence:
#
# PCOD8005924 Si02
#       8
#     2   2   2   2   2   2   2   2
#     4  10  22  41  65  97 127 171 232 262 320 392
#     4  11  20  39  68  97 131 162 223 282 314 381
#     4  10  23  40  64  97 132 171 217 269 334 377
#     4  11  21  38  70  95 125 171 225 269 320 384
#     4  11  22  40  64  91 135 173 215 261 325 400
#     4  10  20  39  63  98 130 159 215 290 317 374
#     4  10  21  35  64  98 127 167 217 267 337 371
#     4  11  24  42  63  95 138 169 212 270 335 398
#
# _framework density 21.462059
#
# number of rings (size 3 to 8) (size 9 to 14) (size 15 to 20)
#    0.000    1.500    3.750    1.875    3.500    3.000 
#    0.000    1.250    5.500    0.000    0.000    0.000 
#    0.000    0.000    0.000    0.000    0.000    0.000 
#
# Total GULP energy -198349.502739 kJ/mol
# GULP energy per Si atom -12396.843921 kJ/mol
# Density = 2.141321 g / cm^3
# Si number density = 21.462059 Si / 1000 Ang^3
#
#
#
# Elastic Constant Matrix: (Units=GPa)
#
#
# Indices 1 2 3 4 5 6 
#
# 1 91.1691 66.1289 66.1010 -5.4107 17.4315 26.9065
# 2 66.1289 100.9361 72.3127 -19.1492 9.0185 38.7733
# 3 66.1010 72.3127 147.4084 -18.7164 3.6070 28.8725
# 4 -5.4107 -19.1492 -18.7164 43.7631 9.1259 -6.1870
# 5 17.4315 9.0185 3.6070 9.1259 41.9840 2.1609
# 6 26.9065 38.7733 28.8725 -6.1870 2.1609 47.8696
#
#
#
# Elastic Compliance Matrix: (Units=1/GPa)
#
#
# Indices 1 2 3 4 5 6 
#
# 1 0.025067 -0.012268 -0.005265 -0.003313 -0.006543 -0.001110
# 2 -0.012268 0.027020 -0.004634 0.006998 -0.001255 -0.011234
# 3 -0.005265 -0.004634 0.011646 0.001912 0.001773 -0.000144
# 4 -0.003313 0.006998 0.001912 0.027454 -0.006201 -0.001131
# 5 -0.006543 -0.001255 0.001773 -0.006201 0.027920 0.001563
# 6 -0.001110 -0.011234 -0.000144 -0.001131 0.001563 0.030483
#
#
# Mechanical properties :
#
#
# Convention : Reuss Voigt Hill
#
# Bulk Modulus (GPa) = 51.55409 83.17764 67.36586
# Shear Modulus (GPa) = 24.95149 35.72142 30.33646
#
# Velocity S-wave (km/s) = 3.41337 4.08413 3.76372
# Velocity P-wave (km/s) = 6.29349 7.81537 7.09535
#
# Compressibility (1/GPa) = 0.01939710
#
# Stress axis : x y z
#
# Youngs Moduli (GPa) = 39.89380 37.01015 85.86761
#
# Poissons Ratio (x) = 0.45404 0.45213
# Poissons Ratio (y) = 0.48942 0.39791
# Poissons Ratio (z) = 0.21006 0.17151
#
# Static dielectric constant tensor:
#      x y z
#    x 4.699790 0.090420 0.815520 
#    y 0.090420 3.994070 -0.382820 
#    z 0.815520 -0.382820 4.939820 
# 
# 
# High freq. dielectric constant tensor:
#      x y z
#    x 1.824820 0.024000 0.005750 
#    y 0.024000 1.827450 -0.004750 
#    z 0.005750 -0.004750 1.858250 
# 
# From -- ./inp_files/419622.got.cif
#   From: 2010.06.25/outbox.cif.g09.slc.cpg/sg2_210_cif.got.tgz:419622.got - 2010.06.27 13:26:56.
