data_PCOD8005010
_publ_section_title
;
Structure prediction by ZEFSAII (Michael W. Deem and Ramdas Pophale) SiO2 
 PCOD8005010
Probable space group: P -1
;
_chemical_formula_sum "Si O2"
_cell_formula_units_Z 16
_cell_length_a 15.664446
_cell_length_b 15.526326
_cell_length_c 12.214362
_cell_angle_alpha 38.991396
_cell_angle_beta 25.894067
_cell_angle_gamma 43.616683
_cell_volume 812.955472
_symmetry_space_group_name_H-M "P -1"
_symmetry_group_IT_number 2
_symmetry_cell_setting 'triclinic'
loop_
_space_group_symop_operation_xyz
x,y,z
-x,-y,-z
loop_
_atom_site_type_symbol
_atom_site_label
_atom_site_fract_x
_atom_site_fract_y
_atom_site_fract_z
Si Si1 0.698875 0.434080 0.387460
Si Si2 0.210106 0.961773 0.043662
Si Si3 0.943980 0.530056 0.191517
Si Si4 0.831121 0.743140 0.290357
Si Si5 0.933962 0.351630 0.697281
Si Si6 0.094344 0.244447 0.398674
Si Si7 0.464748 0.773873 0.063492
Si Si8 0.435641 0.737993 0.888003
O O1 0.500000 0.500000 0.500000
O O2 0.786687 0.542523 0.262054
O O3 0.662823 0.297143 0.629810
O O4 0.859017 0.400394 0.139998
O O5 0.358952 0.926382 0.009448
O O6 0.009217 0.893636 0.369998
O O7 0.312236 0.889468 0.887738
O O8 0.170028 0.123576 0.916146
O O9 0.847879 0.607992 0.329804
O O10 0.997236 0.369310 0.314643
O O11 0.634315 0.743854 0.587367
O O12 0.019476 0.739637 0.156904
O O13 0.000000 0.500000 0.500000
O O14 0.073544 0.283121 0.511046
O O15 0.704374 0.360475 0.918468
O O16 0.323647 0.214168 0.139557
O O17 0.472286 0.688921 0.021516
#
# Coordination Sequence:
#
# PCOD8005010 Si02
#       8
#     2   2   2   2   2   2   2   2
#     4  11  22  41  66  87 116 155 201 253 304 360
#     4   9  22  39  59  87 125 166 195 240 293 368
#     4  11  24  38  63  95 117 148 205 253 304 350
#     4  12  23  38  61  92 128 155 200 250 294 352
#     4  11  21  34  55  90 126 157 193 243 296 346
#     4  11  19  39  61  87 120 161 199 242 298 357
#     4  10  20  38  64  84 113 161 207 238 294 361
#     4   9  22  37  60  84 127 167 195 230 297 364
#
# _framework density 19.681273999999998
#
# number of rings (size 3 to 8) (size 9 to 14) (size 15 to 20)
#    0.750    0.750    5.000    0.375    0.000    5.500 
#    0.000    0.625    0.000    1.500    0.000    0.000 
#    0.000    0.000    0.000    0.000    0.000    0.000 
#
# Total GULP energy -198289.076775 kJ/mol
# GULP energy per Si atom -12393.067298 kJ/mol
# Density = 1.963648 g / cm^3
# Si number density = 19.681274 Si / 1000 Ang^3
#
#
#
# Elastic Constant Matrix: (Units=GPa)
#
#
# Indices 1 2 3 4 5 6 
#
# 1 97.4796 23.6692 29.6049 -0.0894 -6.7211 -26.2096
# 2 23.6692 34.2960 24.3258 -4.7681 -1.4120 -20.0270
# 3 29.6049 24.3258 105.4526 3.9865 1.6462 -17.5994
# 4 -0.0894 -4.7681 3.9865 27.6955 -6.2870 6.4167
# 5 -6.7211 -1.4120 1.6462 -6.2870 39.4950 1.1009
# 6 -26.2096 -20.0270 -17.5994 6.4167 1.1009 28.4111
#
#
#
# Elastic Compliance Matrix: (Units=1/GPa)
#
#
# Indices 1 2 3 4 5 6 
#
# 1 0.014442 -0.002782 -0.001538 -0.002332 0.001748 0.010868
# 2 -0.002782 0.054377 -0.006797 0.003552 0.001464 0.030695
# 3 -0.001538 -0.006797 0.012010 -0.003780 -0.001667 0.002148
# 4 -0.002332 0.003552 -0.003780 0.041496 0.006817 -0.011625
# 5 0.001748 0.001464 -0.001667 0.006817 0.026851 -0.000968
# 6 0.010868 0.030695 0.002148 -0.011625 -0.000968 0.070854
#
#
# Mechanical properties :
#
#
# Convention : Reuss Voigt Hill
#
# Bulk Modulus (GPa) = 17.06635 43.60310 30.33472
# Shear Modulus (GPa) = 19.09893 29.76223 24.43058
#
# Velocity S-wave (km/s) = 3.11852 3.89293 3.52705
# Velocity P-wave (km/s) = 4.65372 6.51224 5.65979
#
# Compressibility (1/GPa) = 0.05859484
#
# Stress axis : x y z
#
# Youngs Moduli (GPa) = 69.24459 18.39010 83.26363
#
# Poissons Ratio (x) = 0.05116 0.12806
# Poissons Ratio (y) = 0.19263 0.56594
# Poissons Ratio (z) = 0.10650 0.12500
#
# Static dielectric constant tensor:
#      x y z
#    x 3.890600 -0.218220 -0.050820 
#    y -0.218220 3.198610 0.125850 
#    z -0.050820 0.125850 3.627070 
# 
# 
# High freq. dielectric constant tensor:
#      x y z
#    x 1.773110 -0.021630 -0.003510 
#    y -0.021630 1.725270 0.009870 
#    z -0.003510 0.009870 1.772460 
# 
# From -- ./inp_files/454478.got.cif
#   From: 2010.06.25/outbox.cif.g09.slc.cpg/sg2_228_cif.got.tgz:454478.got - 2010.06.27 13:26:56.
