data_PCOD8005181
_publ_section_title
;
Structure prediction by ZEFSAII (Michael W. Deem and Ramdas Pophale) SiO2 
 PCOD8005181
Probable space group: P -1
;
_chemical_formula_sum "Si O2"
_cell_formula_units_Z 12
_cell_length_a 5.288090
_cell_length_b 11.869642
_cell_length_c 12.153884
_cell_angle_alpha 133.357541
_cell_angle_beta 71.224891
_cell_angle_gamma 96.932214
_cell_volume 519.555849
_symmetry_space_group_name_H-M "P -1"
_symmetry_group_IT_number 2
_symmetry_cell_setting 'triclinic'
loop_
_space_group_symop_operation_xyz
x,y,z
-x,-y,-z
loop_
_atom_site_type_symbol
_atom_site_label
_atom_site_fract_x
_atom_site_fract_y
_atom_site_fract_z
Si Si1 0.662386 0.801584 0.729867
Si Si2 0.769705 0.908298 0.014577
Si Si3 0.217779 0.601647 0.138006
Si Si4 0.904679 0.360363 0.581509
Si Si5 0.607928 0.453766 0.324975
Si Si6 0.932833 0.308643 0.002493
O O1 0.925946 0.787058 0.604962
O O2 0.496481 0.652293 0.632142
O O3 0.498667 0.971320 0.841055
O O4 0.736536 0.787934 0.839865
O O5 0.838986 0.818707 0.060241
O O6 0.000000 0.000000 0.000000
O O7 0.139123 0.733484 0.141709
O O8 0.200691 0.689395 0.317420
O O9 0.500000 0.500000 0.000000
O O10 0.003997 0.482837 0.098958
O O11 0.107245 0.490833 0.646228
O O12 0.635341 0.413434 0.585549
O O13 0.669497 0.329075 0.131328
#
# Coordination Sequence:
#
# PCOD8005181 Si02
#       6
#     2   2   2   2   2   2
#     4  11  24  39  60  94 128 171 212 259 325 378
#     4  11  24  41  63  88 131 175 213 257 310 395
#     4  10  20  38  65  91 125 162 211 268 313 375
#     4  11  24  38  65  97 130 165 210 271 323 375
#     4  11  21  38  64  96 130 162 208 271 324 377
#     4  10  21  38  63  94 121 166 216 255 318 375
#
# _framework density 23.096651999999999
#
# number of rings (size 3 to 8) (size 9 to 14) (size 15 to 20)
#    0.000    1.333    3.333    3.000    2.333    0.000 
#    0.000    0.833    0.000    2.000    0.000    0.000 
#    0.000    0.000    0.000    0.000    0.000    0.000 
#
# Total GULP energy -148687.219625 kJ/mol
# GULP energy per Si atom -12390.601635 kJ/mol
# Density = 2.304408 g / cm^3
# Si number density = 23.096652 Si / 1000 Ang^3
#
#
#
# Elastic Constant Matrix: (Units=GPa)
#
#
# Indices 1 2 3 4 5 6 
#
# 1 87.2370 23.1484 26.9094 -5.8073 -11.0403 -21.6638
# 2 23.1484 100.1515 28.1767 -18.7272 -2.2271 -47.0668
# 3 26.9094 28.1767 111.7646 -16.1434 -35.9001 -32.6593
# 4 -5.8073 -18.7272 -16.1434 30.6032 1.5147 1.0728
# 5 -11.0403 -2.2271 -35.9001 1.5147 38.3036 1.2290
# 6 -21.6638 -47.0668 -32.6593 1.0728 1.2290 46.9783
#
#
#
# Elastic Compliance Matrix: (Units=1/GPa)
#
#
# Indices 1 2 3 4 5 6 
#
# 1 0.013601 0.000576 0.000154 0.002590 0.003778 0.006799
# 2 0.000576 0.025556 0.006859 0.017995 0.006404 0.030060
# 3 0.000154 0.006859 0.021638 0.013934 0.019493 0.021157
# 4 0.002590 0.017995 0.013934 0.049974 0.011995 0.027455
# 5 0.003778 0.006404 0.019493 0.011995 0.044714 0.020266
# 6 0.006799 0.030060 0.021157 0.027455 0.020266 0.068089
#
#
# Mechanical properties :
#
#
# Convention : Reuss Voigt Hill
#
# Bulk Modulus (GPa) = 13.16255 50.62469 31.89362
# Shear Modulus (GPa) = 21.39328 37.90491 29.64909
#
# Velocity S-wave (km/s) = 3.04674 4.05550 3.58676
# Velocity P-wave (km/s) = 4.25301 6.62538 5.56703
#
# Compressibility (1/GPa) = 0.07597311
#
# Stress axis : x y z
#
# Youngs Moduli (GPa) = 73.52177 39.12965 46.21579
#
# Poissons Ratio (x) = -0.02255 -0.00712
# Poissons Ratio (y) = -0.04237 -0.31697
# Poissons Ratio (z) = -0.01133 -0.26837
#
# Static dielectric constant tensor:
#      x y z
#    x 4.470550 0.009730 -0.047600 
#    y 0.009730 4.588590 -0.830690 
#    z -0.047600 -0.830690 4.797520 
# 
# 
# High freq. dielectric constant tensor:
#      x y z
#    x 1.922090 -0.010180 -0.012060 
#    y -0.010180 1.887630 -0.031030 
#    z -0.012060 -0.031030 1.912530 
# 
# From -- ./inp_files/19665.got.cif
#   From: 2010.06.25/outbox.cif.g09.slc.cpg/sg2_10_cif.got.tgz:19665.got - 2010.06.27 13:26:56.
