data_PCOD8005955
_publ_section_title
;
Structure prediction by ZEFSAII (Michael W. Deem and Ramdas Pophale) SiO2 
 PCOD8005955
Probable space group: P -1
;
_chemical_formula_sum "Si O2"
_cell_formula_units_Z 16
_cell_length_a 18.769649
_cell_length_b 9.363514
_cell_length_c 22.167105
_cell_angle_alpha 27.899638
_cell_angle_beta 26.533389
_cell_angle_gamma 31.130360
_cell_volume 773.588734
_symmetry_space_group_name_H-M "P -1"
_symmetry_group_IT_number 2
_symmetry_cell_setting 'triclinic'
loop_
_space_group_symop_operation_xyz
x,y,z
-x,-y,-z
loop_
_atom_site_type_symbol
_atom_site_label
_atom_site_fract_x
_atom_site_fract_y
_atom_site_fract_z
Si Si1 0.173307 0.282142 0.976627
Si Si2 0.682528 0.347492 0.683883
Si Si3 0.997795 0.833683 0.307870
Si Si4 0.300917 0.662924 0.831589
Si Si5 0.221099 0.400806 0.110653
Si Si6 0.747628 0.679607 0.625955
Si Si7 0.421071 0.742318 0.915583
Si Si8 0.885565 0.677551 0.327186
O O1 0.277406 0.479152 0.857652
O O2 0.292720 0.073779 0.912150
O O3 0.000000 0.500000 0.000000
O O4 0.113786 0.054746 0.153083
O O5 0.494722 0.578111 0.731991
O O6 0.746157 0.411443 0.677426
O O7 0.790803 0.439582 0.514520
O O8 0.685953 0.980062 0.816055
O O9 0.820794 0.938296 0.439974
O O10 0.959226 0.847773 0.260706
O O11 0.113769 0.474523 0.370422
O O12 0.233020 0.044734 0.729043
O O13 0.203594 0.553590 0.000341
O O14 0.035261 0.461087 0.253850
O O15 0.329605 0.565995 0.006451
O O16 0.566577 0.838880 0.733385
O O17 0.500000 0.500000 0.000000
#
# Coordination Sequence:
#
# PCOD8005955 Si02
#       8
#     2   2   2   2   2   2   2   2
#     4  12  23  41  63  92 126 170 208 254 316 385
#     4  11  24  40  66  94 131 164 216 265 324 374
#     4  10  20  39  64  88 126 169 207 256 318 377
#     4  12  24  41  66  95 132 167 212 263 328 379
#     4  12  23  40  65 101 124 167 220 267 309 380
#     4  10  21  39  64  93 124 166 211 264 316 371
#     4  12  22  39  66  93 127 162 217 264 309 374
#     4  11  23  43  63  93 131 173 208 261 326 385
#
# _framework density 20.682825000000001
#
# number of rings (size 3 to 8) (size 9 to 14) (size 15 to 20)
#    0.000    0.750    5.000    3.000    0.000    0.000 
#    0.000    4.375    0.000    0.000    0.000    0.000 
#    0.000    0.000    0.000    0.000    0.000    0.000 
#
# Total GULP energy -198385.323899 kJ/mol
# GULP energy per Si atom -12399.082744 kJ/mol
# Density = 2.063575 g / cm^3
# Si number density = 20.682825 Si / 1000 Ang^3
#
#
#
# Elastic Constant Matrix: (Units=GPa)
#
#
# Indices 1 2 3 4 5 6 
#
# 1 74.5762 29.0776 17.3905 0.2391 8.8464 -8.6124
# 2 29.0776 110.6569 42.2518 21.8349 13.1657 -10.5322
# 3 17.3905 42.2518 116.3624 31.1041 10.6669 6.5440
# 4 0.2391 21.8349 31.1041 42.7627 -0.8404 1.4534
# 5 8.8464 13.1657 10.6669 -0.8404 31.9006 -2.9597
# 6 -8.6124 -10.5322 6.5440 1.4534 -2.9597 28.1095
#
#
#
# Elastic Compliance Matrix: (Units=1/GPa)
#
#
# Indices 1 2 3 4 5 6 
#
# 1 0.015834 -0.003418 -0.001931 0.002899 -0.001918 0.003668
# 2 -0.003418 0.012698 -0.002825 -0.004615 -0.003072 0.004283
# 3 -0.001931 -0.002825 0.012450 -0.007510 -0.003075 -0.004484
# 4 0.002899 -0.004615 -0.007510 0.031283 0.004414 -0.000246
# 5 -0.001918 -0.003072 -0.003075 0.004414 0.034513 0.002383
# 6 0.003668 0.004283 -0.004484 -0.000246 0.002383 0.039611
#
#
# Mechanical properties :
#
#
# Convention : Reuss Voigt Hill
#
# Bulk Modulus (GPa) = 40.59526 53.22615 46.91071
# Shear Modulus (GPa) = 29.24858 34.74624 31.99741
#
# Velocity S-wave (km/s) = 3.76460 4.10317 3.93753
# Velocity P-wave (km/s) = 6.21018 6.94539 6.58805
#
# Compressibility (1/GPa) = 0.02463342
#
# Stress axis : x y z
#
# Youngs Moduli (GPa) = 63.15561 78.75338 80.32214
#
# Poissons Ratio (x) = 0.26920 0.15506
# Poissons Ratio (y) = 0.21588 0.22694
# Poissons Ratio (z) = 0.12192 0.22251
#
# Static dielectric constant tensor:
#      x y z
#    x 4.437520 -0.628680 3.085360 
#    y -0.628680 4.301240 -3.120080 
#    z 3.085360 -3.120080 20.977730 
# 
# 
# High freq. dielectric constant tensor:
#      x y z
#    x 1.813630 -0.012480 0.002360 
#    y -0.012480 1.795290 0.015550 
#    z 0.002360 0.015550 1.825240 
# 
# From -- ./inp_files/205158.got.cif
#   From: 2010.06.25/outbox.cif.g09.slc.cpg/sg2_103_cif.got.tgz:205158.got - 2010.06.27 13:26:56.
