data_PCOD8005484
_publ_section_title
;
Structure prediction by ZEFSAII (Michael W. Deem and Ramdas Pophale) SiO2 
 PCOD8005484
Probable space group: P -1
;
_chemical_formula_sum "Si O2"
_cell_formula_units_Z 16
_cell_length_a 12.027789
_cell_length_b 14.913800
_cell_length_c 14.441973
_cell_angle_alpha 50.520090
_cell_angle_beta 71.679054
_cell_angle_gamma 29.712744
_cell_volume 776.206263
_symmetry_space_group_name_H-M "P -1"
_symmetry_group_IT_number 2
_symmetry_cell_setting 'triclinic'
loop_
_space_group_symop_operation_xyz
x,y,z
-x,-y,-z
loop_
_atom_site_type_symbol
_atom_site_label
_atom_site_fract_x
_atom_site_fract_y
_atom_site_fract_z
Si Si1 0.358916 0.772607 0.262805
Si Si2 0.159662 0.624474 0.054089
Si Si3 0.616439 0.505132 0.563005
Si Si4 0.608765 0.671301 0.632558
Si Si5 0.752222 0.027524 0.310496
Si Si6 0.136395 0.323934 0.987051
Si Si7 0.701322 0.684720 0.220756
Si Si8 0.844851 0.694962 0.498298
O O1 0.393590 0.743969 0.384610
O O2 0.460417 0.554788 0.341086
O O3 0.552884 0.699005 0.217530
O O4 0.029475 0.091174 0.107428
O O5 0.143009 0.603468 0.182361
O O6 0.497799 0.337799 0.128660
O O7 0.044767 0.625133 0.020983
O O8 0.612155 0.604232 0.578235
O O9 0.938302 0.201195 0.639079
O O10 0.645222 0.777223 0.541650
O O11 0.300238 0.930224 0.591650
O O12 0.684445 0.957658 0.335173
O O13 0.471474 0.983773 0.127975
O O14 0.120836 0.430614 0.838039
O O15 0.000000 0.500000 0.000000
O O16 0.922391 0.460628 0.391314
O O17 0.000000 0.500000 0.500000
#
# Coordination Sequence:
#
# PCOD8005484 Si02
#       8
#     2   2   2   2   2   2   2   2
#     4  10  22  43  63  89 126 167 206 261 300 366
#     4   9  22  41  59  92 129 153 203 261 309 361
#     4  11  22  43  68  85 122 169 215 248 308 369
#     4  10  22  39  63  94 123 157 208 258 309 370
#     4  10  22  39  61  90 124 157 203 258 304 364
#     4  10  21  36  60  89 124 160 194 250 321 371
#     4  10  20  39  57  87 126 157 200 252 300 375
#     4  12  20  36  66  92 122 164 200 250 321 372
#
# _framework density 20.613078000000002
#
# number of rings (size 3 to 8) (size 9 to 14) (size 15 to 20)
#    0.750    1.000    3.750    0.375    1.750    1.000 
#    4.500    5.000    0.000    0.000    0.000    0.000 
#    0.000    0.000    0.000    0.000    0.000    0.000 
#
# Total GULP energy -198228.921934 kJ/mol
# GULP energy per Si atom -12389.307621 kJ/mol
# Density = 2.056616 g / cm^3
# Si number density = 20.613078 Si / 1000 Ang^3
#
#
#
# Elastic Constant Matrix: (Units=GPa)
#
#
# Indices 1 2 3 4 5 6 
#
# 1 61.8367 0.9948 10.7332 -0.3538 -3.1799 4.4220
# 2 0.9948 80.3925 0.6248 1.5951 5.2011 -0.0974
# 3 10.7332 0.6248 75.5411 -3.0798 -3.4835 8.6932
# 4 -0.3538 1.5951 -3.0798 20.2060 -1.1440 3.1790
# 5 -3.1799 5.2011 -3.4835 -1.1440 29.2575 4.2766
# 6 4.4220 -0.0974 8.6932 3.1790 4.2766 21.9629
#
#
#
# Elastic Compliance Matrix: (Units=1/GPa)
#
#
# Indices 1 2 3 4 5 6 
#
# 1 0.016847 -0.000350 -0.001902 0.000651 0.002153 -0.003154
# 2 -0.000350 0.012636 -0.000334 -0.001345 -0.002515 0.000943
# 3 -0.001902 -0.000334 0.014501 0.003353 0.002640 -0.006357
# 4 0.000651 -0.001345 0.003353 0.051895 0.004169 -0.009787
# 5 0.002153 -0.002515 0.002640 0.004169 0.036688 -0.009237
# 6 -0.003154 0.000943 -0.006357 -0.009787 -0.009237 0.051902
#
#
# Mechanical properties :
#
#
# Convention : Reuss Voigt Hill
#
# Bulk Modulus (GPa) = 25.76472 26.94178 26.35325
# Shear Modulus (GPa) = 24.68172 27.97977 26.33075
#
# Velocity S-wave (km/s) = 3.46407 3.68826 3.57792
# Velocity P-wave (km/s) = 5.34098 5.58894 5.46637
#
# Compressibility (1/GPa) = 0.03881277
#
# Stress axis : x y z
#
# Youngs Moduli (GPa) = 59.35631 79.13636 68.96141
#
# Poissons Ratio (x) = 0.02768 0.13117
# Poissons Ratio (y) = 0.02076 0.02304
# Poissons Ratio (z) = 0.11290 0.02644
#
# Static dielectric constant tensor:
#      x y z
#    x 3.654040 -0.071690 -0.165990 
#    y -0.071690 3.542300 -0.102880 
#    z -0.165990 -0.102880 3.937930 
# 
# 
# High freq. dielectric constant tensor:
#      x y z
#    x 1.801900 -0.004640 -0.005070 
#    y -0.004640 1.783700 -0.006440 
#    z -0.005070 -0.006440 1.809700 
# 
# From -- ./inp_files/521551.got.cif
#   From: 2010.06.25/outbox.cif.g09.slc.cpg/sg2_261_cif.got.tgz:521551.got - 2010.06.27 13:26:56.
