data_PCOD8005914
_publ_section_title
;
Structure prediction by ZEFSAII (Michael W. Deem and Ramdas Pophale) SiO2 
 PCOD8005914
Probable space group: P -1
;
_chemical_formula_sum "Si O2"
_cell_formula_units_Z 16
_cell_length_a 9.185951
_cell_length_b 12.685578
_cell_length_c 10.986489
_cell_angle_alpha 102.882479
_cell_angle_beta 103.132187
_cell_angle_gamma 34.647626
_cell_volume 707.317030
_symmetry_space_group_name_H-M "P -1"
_symmetry_group_IT_number 2
_symmetry_cell_setting 'triclinic'
loop_
_space_group_symop_operation_xyz
x,y,z
-x,-y,-z
loop_
_atom_site_type_symbol
_atom_site_label
_atom_site_fract_x
_atom_site_fract_y
_atom_site_fract_z
Si Si1 0.254070 0.075747 0.505074
Si Si2 0.076589 0.538619 0.419785
Si Si3 0.756443 0.327673 0.843127
Si Si4 0.599016 0.153663 0.317337
Si Si5 0.735691 0.265752 0.086736
Si Si6 0.923902 0.004319 0.715287
Si Si7 0.930255 0.664041 0.160017
Si Si8 0.409310 0.260765 0.048005
O O1 0.242419 0.979967 0.390607
O O2 0.993618 0.300198 0.502381
O O3 0.500000 0.000000 0.500000
O O4 0.295896 0.011857 0.634210
O O5 0.374725 0.347992 0.397890
O O6 0.000000 0.500000 0.500000
O O7 0.916844 0.621980 0.283354
O O8 0.479115 0.545560 0.824036
O O9 0.994060 0.252757 0.806515
O O10 0.748867 0.212737 0.755426
O O11 0.808521 0.291050 0.988390
O O12 0.508464 0.159561 0.171387
O O13 0.815778 0.117102 0.336613
O O14 0.626933 0.210298 0.017257
O O15 0.996594 0.099335 0.169828
O O16 0.156643 0.480342 0.075345
O O17 0.661077 0.795286 0.073474
#
# Coordination Sequence:
#
# PCOD8005914 Si02
#       8
#     2   2   2   2   2   2   2   2
#     4  12  26  43  62  95 125 170 223 269 324 388
#     4  11  23  44  66  90 133 170 217 277 319 383
#     4  10  20  39  63  95 131 168 209 268 320 383
#     4  10  22  43  67  92 132 171 214 270 324 388
#     4   9  20  39  61  94 132 169 212 260 322 386
#     4  11  24  41  64  92 132 171 217 266 321 394
#     4   9  18  35  65  94 121 166 211 256 321 376
#     4   8  17  36  62  94 126 160 208 262 313 380
#
# _framework density 22.620688999999999
#
# number of rings (size 3 to 8) (size 9 to 14) (size 15 to 20)
#    0.000    2.000    1.250    2.250    0.000    3.500 
#    6.750    5.625    0.000    0.000    0.000    0.000 
#    0.000    0.000    0.000    0.000    0.000    0.000 
#
# Total GULP energy -198352.648842 kJ/mol
# GULP energy per Si atom -12397.040553 kJ/mol
# Density = 2.256920 g / cm^3
# Si number density = 22.620689 Si / 1000 Ang^3
#
#
#
# Elastic Constant Matrix: (Units=GPa)
#
#
# Indices 1 2 3 4 5 6 
#
# 1 100.7895 33.0152 70.7252 -12.0659 5.8619 9.0015
# 2 33.0152 100.9255 25.4496 1.9969 0.9915 19.1880
# 3 70.7252 25.4496 107.7806 -14.8226 -0.1767 8.4905
# 4 -12.0659 1.9969 -14.8226 40.3961 4.0352 -5.5793
# 5 5.8619 0.9915 -0.1767 4.0352 41.8761 0.5266
# 6 9.0015 19.1880 8.4905 -5.5793 0.5266 31.3925
#
#
#
# Elastic Compliance Matrix: (Units=1/GPa)
#
#
# Indices 1 2 3 4 5 6 
#
# 1 0.019849 -0.003514 -0.011927 0.002033 -0.002943 0.000093
# 2 -0.003514 0.012580 -0.000504 -0.002889 0.000559 -0.007068
# 3 -0.011927 -0.000504 0.017645 0.002705 0.001503 -0.000588
# 4 0.002033 -0.002889 0.002705 0.027535 -0.002926 0.005394
# 5 -0.002943 0.000559 0.001503 -0.002926 0.024577 -0.000837
# 6 0.000093 -0.007068 -0.000588 0.005394 -0.000837 0.037280
#
#
# Mechanical properties :
#
#
# Convention : Reuss Voigt Hill
#
# Bulk Modulus (GPa) = 54.99840 63.09728 59.04784
# Shear Modulus (GPa) = 28.18203 34.75332 31.46768
#
# Velocity S-wave (km/s) = 3.53349 3.92388 3.73379
# Velocity P-wave (km/s) = 6.40418 6.96300 6.68943
#
# Compressibility (1/GPa) = 0.01818235
#
# Stress axis : x y z
#
# Youngs Moduli (GPa) = 50.38158 79.48811 56.67441
#
# Poissons Ratio (x) = 0.27935 0.67597
# Poissons Ratio (y) = 0.17706 0.02856
# Poissons Ratio (z) = 0.60092 0.04006
#
# Static dielectric constant tensor:
#      x y z
#    x 4.003290 0.104010 -0.150880 
#    y 0.104010 4.321520 -0.099470 
#    z -0.150880 -0.099470 4.064550 
# 
# 
# High freq. dielectric constant tensor:
#      x y z
#    x 1.872640 0.005070 -0.020680 
#    y 0.005070 1.901520 -0.001430 
#    z -0.020680 -0.001430 1.888140 
# 
# From -- ./inp_files/390209.got.cif
#   From: 2010.06.25/outbox.cif.g09.slc.cpg/sg2_196_cif.got.tgz:390209.got - 2010.06.27 13:26:56.
