data_PCOD8005766
_publ_section_title
;
Structure prediction by ZEFSAII (Michael W. Deem and Ramdas Pophale) SiO2 
 PCOD8005766
Probable space group: P -1
;
_chemical_formula_sum "Si O2"
_cell_formula_units_Z 16
_cell_length_a 11.756135
_cell_length_b 10.445858
_cell_length_c 19.178359
_cell_angle_alpha 147.225112
_cell_angle_beta 38.265141
_cell_angle_gamma 146.746472
_cell_volume 671.883822
_symmetry_space_group_name_H-M "P -1"
_symmetry_group_IT_number 2
_symmetry_cell_setting 'triclinic'
loop_
_space_group_symop_operation_xyz
x,y,z
-x,-y,-z
loop_
_atom_site_type_symbol
_atom_site_label
_atom_site_fract_x
_atom_site_fract_y
_atom_site_fract_z
Si Si1 0.152488 0.508950 0.369159
Si Si2 0.525365 0.508802 0.701351
Si Si3 0.972807 0.002461 0.895012
Si Si4 0.515048 0.133867 0.283283
Si Si5 0.282800 0.074703 0.501168
Si Si6 0.864070 0.059748 0.717181
Si Si7 0.193958 0.605984 0.863943
Si Si8 0.706863 0.773363 0.049539
O O1 0.385433 0.569023 0.310232
O O2 0.019690 0.200268 0.257901
O O3 0.211549 0.751675 0.396238
O O4 0.000000 0.500000 0.500000
O O5 0.736849 0.770881 0.686628
O O6 0.344013 0.589218 0.844727
O O7 0.407066 0.237343 0.585329
O O8 0.875606 0.826895 0.931990
O O9 0.209026 0.244159 0.921042
O O10 0.834794 0.132913 0.991942
O O11 0.291664 0.912347 0.249914
O O12 0.670128 0.374785 0.263637
O O13 0.445342 0.232297 0.430411
O O14 0.653927 0.012202 0.187877
O O15 0.065751 0.072775 0.588419
O O16 0.959773 0.323470 0.844816
O O17 0.500000 0.500000 0.000000
#
# Coordination Sequence:
#
# PCOD8005766 Si02
#       8
#     2   2   2   2   2   2   2   2
#     4  12  25  44  65  91 131 175 218 260 312 378
#     4  10  23  42  64  88 129 170 221 258 310 379
#     4  10  23  41  65  94 128 166 210 266 318 377
#     4  10  21  34  62  95 125 160 209 258 327 381
#     4  11  23  39  63  92 129 173 211 265 317 374
#     4  10  20  39  62  91 132 164 207 265 317 384
#     4   9  21  41  64  93 126 160 211 267 321 378
#     4  10  20  39  62  95 127 163 209 261 326 379
#
# _framework density 23.813642000000002
#
# number of rings (size 3 to 8) (size 9 to 14) (size 15 to 20)
#    0.000    1.750    1.250    2.250    1.750    8.000 
#    2.250    0.625    0.000    0.000    0.000    0.000 
#    0.000    0.000    0.000    0.000    0.000    0.000 
#
# Total GULP energy -198271.995358 kJ/mol
# GULP energy per Si atom -12391.999710 kJ/mol
# Density = 2.375944 g / cm^3
# Si number density = 23.813642 Si / 1000 Ang^3
#
#
#
# Elastic Constant Matrix: (Units=GPa)
#
#
# Indices 1 2 3 4 5 6 
#
# 1 110.4201 16.7706 30.2111 -1.1010 -17.4445 34.1814
# 2 16.7706 82.8822 27.5380 8.3696 1.8555 17.4098
# 3 30.2111 27.5380 107.5703 6.1393 -3.4594 11.7254
# 4 -1.1010 8.3696 6.1393 32.3008 3.0609 3.1601
# 5 -17.4445 1.8555 -3.4594 3.0609 31.9772 3.5836
# 6 34.1814 17.4098 11.7254 3.1601 3.5836 40.8243
#
#
#
# Elastic Compliance Matrix: (Units=1/GPa)
#
#
# Indices 1 2 3 4 5 6 
#
# 1 0.015299 0.000194 -0.002701 0.001373 0.009373 -0.013045
# 2 0.000194 0.014396 -0.003030 -0.002617 -0.000223 -0.005209
# 3 -0.002701 -0.003030 0.010850 -0.001418 -0.000050 0.000552
# 4 0.001373 -0.002617 -0.001418 0.032345 -0.002131 -0.001943
# 5 0.009373 -0.000223 -0.000050 -0.002131 0.037818 -0.010893
# 6 -0.013045 -0.005209 0.000552 -0.001943 -0.010893 0.038587
#
#
# Mechanical properties :
#
#
# Convention : Reuss Voigt Hill
#
# Bulk Modulus (GPa) = 33.93301 49.99023 41.96162
# Shear Modulus (GPa) = 29.37842 36.11067 32.74454
#
# Velocity S-wave (km/s) = 3.51619 3.89830 3.71217
# Velocity P-wave (km/s) = 5.54663 6.42652 6.00272
#
# Compressibility (1/GPa) = 0.02946983
#
# Stress axis : x y z
#
# Youngs Moduli (GPa) = 65.36552 69.46234 92.16836
#
# Poissons Ratio (x) = -0.01345 0.24896
# Poissons Ratio (y) = -0.01266 0.27926
# Poissons Ratio (z) = 0.17656 0.21046
#
# Static dielectric constant tensor:
#      x y z
#    x 4.044290 0.177840 -0.038230 
#    y 0.177840 4.424730 0.075010 
#    z -0.038230 0.075010 3.987390 
# 
# 
# High freq. dielectric constant tensor:
#      x y z
#    x 1.947790 0.017550 -0.021630 
#    y 0.017550 1.943220 0.005110 
#    z -0.021630 0.005110 1.930970 
# 
# From -- ./inp_files/365299.got.cif
#   From: 2010.06.25/outbox.cif.g09.slc.cpg/sg2_183_cif.got.tgz:365299.got - 2010.06.27 13:26:56.
