data_PCOD8005779
_publ_section_title
;
Structure prediction by ZEFSAII (Michael W. Deem and Ramdas Pophale) SiO2 
 PCOD8005779
Probable space group: P -1
;
_chemical_formula_sum "Si O2"
_cell_formula_units_Z 16
_cell_length_a 15.708863
_cell_length_b 12.539685
_cell_length_c 8.767754
_cell_angle_alpha 78.301917
_cell_angle_beta 92.045674
_cell_angle_gamma 151.478328
_cell_volume 769.160049
_symmetry_space_group_name_H-M "P -1"
_symmetry_group_IT_number 2
_symmetry_cell_setting 'triclinic'
loop_
_space_group_symop_operation_xyz
x,y,z
-x,-y,-z
loop_
_atom_site_type_symbol
_atom_site_label
_atom_site_fract_x
_atom_site_fract_y
_atom_site_fract_z
Si Si1 0.339432 0.799949 0.927375
Si Si2 0.127817 0.445627 0.255396
Si Si3 0.031611 0.922136 0.834350
Si Si4 0.842764 0.087616 0.585256
Si Si5 0.085317 0.229770 0.788479
Si Si6 0.501802 0.844498 0.349032
Si Si7 0.367902 0.249582 0.583272
Si Si8 0.465499 0.772734 0.694823
O O1 0.395484 0.762808 0.834467
O O2 0.325171 0.893880 0.797229
O O3 0.149886 0.554880 0.081310
O O4 0.500000 0.000000 0.000000
O O5 0.314363 0.659755 0.303008
O O6 0.102734 0.294685 0.229752
O O7 0.956978 0.286226 0.403176
O O8 0.022224 0.041328 0.772538
O O9 0.242762 0.123997 0.760963
O O10 0.987727 0.838533 0.026636
O O11 0.987782 0.211131 0.684772
O O12 0.750911 0.884764 0.542506
O O13 0.673388 0.961740 0.689951
O O14 0.310707 0.501843 0.726959
O O15 0.528297 0.745736 0.384922
O O16 0.484626 0.867007 0.515566
O O17 0.500000 0.500000 0.500000
#
# Coordination Sequence:
#
# PCOD8005779 Si02
#       8
#     2   2   2   2   2   2   2   2
#     4  10  22  40  66  89 127 170 210 263 318 370
#     4  10  20  39  62  93 127 169 209 259 315 371
#     4  10  22  38  59  92 132 163 215 256 311 382
#     4  10  23  38  66  94 127 162 216 253 315 382
#     4  11  22  40  63  94 128 173 204 262 320 368
#     4  10  21  38  66  92 124 170 212 255 322 367
#     4  10  22  39  62  97 129 164 212 259 309 380
#     4  11  21  43  65  92 127 165 210 262 311 382
#
# _framework density 20.801912000000002
#
# number of rings (size 3 to 8) (size 9 to 14) (size 15 to 20)
#    0.000    1.750    2.500    1.875    1.750    3.000 
#    0.000   10.000   11.000    0.000    0.000    0.000 
#    0.000    0.000    0.000    0.000    0.000    0.000 
#
# Total GULP energy -198221.591875 kJ/mol
# GULP energy per Si atom -12388.849492 kJ/mol
# Density = 2.075457 g / cm^3
# Si number density = 20.801912 Si / 1000 Ang^3
#
#
#
# Elastic Constant Matrix: (Units=GPa)
#
#
# Indices 1 2 3 4 5 6 
#
# 1 61.9162 26.0360 39.0395 -14.0475 3.0538 -2.2663
# 2 26.0360 73.2210 27.1070 -15.3795 8.1390 2.2621
# 3 39.0395 27.1070 120.7368 -22.0898 7.1971 3.8134
# 4 -14.0475 -15.3795 -22.0898 36.8663 -1.7529 0.5140
# 5 3.0538 8.1390 7.1971 -1.7529 27.6239 -7.7166
# 6 -2.2663 2.2621 3.8134 0.5140 -7.7166 25.7371
#
#
#
# Elastic Compliance Matrix: (Units=1/GPa)
#
#
# Indices 1 2 3 4 5 6 
#
# 1 0.022948 -0.005726 -0.005845 0.002891 0.001951 0.003917
# 2 -0.005726 0.017622 -0.000879 0.004453 -0.005031 -0.003520
# 3 -0.005845 -0.000879 0.011379 0.004141 -0.002634 -0.002996
# 4 0.002891 0.004453 0.004141 0.032535 -0.001132 -0.001739
# 5 0.001951 -0.005031 -0.002634 -0.001132 0.041876 0.013582
# 6 0.003917 -0.003520 -0.002996 -0.001739 0.013582 0.044060
#
#
# Mechanical properties :
#
#
# Convention : Reuss Voigt Hill
#
# Bulk Modulus (GPa) = 36.97289 48.91544 42.94416
# Shear Modulus (GPa) = 24.46938 28.95823 26.71381
#
# Velocity S-wave (km/s) = 3.43345 3.73513 3.58746
# Velocity P-wave (km/s) = 5.79055 6.49365 6.15215
#
# Compressibility (1/GPa) = 0.02704685
#
# Stress axis : x y z
#
# Youngs Moduli (GPa) = 43.57766 56.74689 87.88023
#
# Poissons Ratio (x) = 0.32496 0.51370
# Poissons Ratio (y) = 0.24954 0.07726
# Poissons Ratio (z) = 0.25473 0.04989
#
# Static dielectric constant tensor:
#      x y z
#    x 3.964490 -0.467940 0.818580 
#    y -0.467940 4.205410 -0.737760 
#    z 0.818580 -0.737760 5.760500 
# 
# 
# High freq. dielectric constant tensor:
#      x y z
#    x 1.779420 -0.010920 -0.008130 
#    y -0.010920 1.821320 -0.011850 
#    z -0.008130 -0.011850 1.839830 
# 
# From -- ./inp_files/294863.got.cif
#   From: 2010.06.25/outbox.cif.g09.slc.cpg/sg2_148_cif.got.tgz:294863.got - 2010.06.27 13:26:56.
