data_PCOD8005692
_publ_section_title
;
Structure prediction by ZEFSAII (Michael W. Deem and Ramdas Pophale) SiO2 
 PCOD8005692
Probable space group: P -1
;
_chemical_formula_sum "Si O2"
_cell_formula_units_Z 14
_cell_length_a 14.064516
_cell_length_b 8.465088
_cell_length_c 19.801316
_cell_angle_alpha 35.193172
_cell_angle_beta 29.991967
_cell_angle_gamma 42.738796
_cell_volume 676.271128
_symmetry_space_group_name_H-M "P -1"
_symmetry_group_IT_number 2
_symmetry_cell_setting 'triclinic'
loop_
_space_group_symop_operation_xyz
x,y,z
-x,-y,-z
loop_
_atom_site_type_symbol
_atom_site_label
_atom_site_fract_x
_atom_site_fract_y
_atom_site_fract_z
Si Si1 0.281471 0.272333 0.095660
Si Si2 0.778809 0.971351 0.643174
Si Si3 0.932232 0.705500 0.157157
Si Si4 0.771873 0.430484 0.220930
Si Si5 0.367403 0.553214 0.127365
Si Si6 0.156519 0.117354 0.083377
Si Si7 0.400346 0.464951 0.503386
O O1 0.301567 0.062398 0.219881
O O2 0.235717 0.110093 0.113379
O O3 0.114801 0.505224 0.136259
O O4 0.485756 0.403263 0.916290
O O5 0.747320 0.715960 0.701016
O O6 0.667656 0.237244 0.587060
O O7 0.000000 0.000000 0.500000
O O8 0.840871 0.605302 0.179945
O O9 0.779224 0.714011 0.310406
O O10 0.000000 0.000000 0.000000
O O11 0.563122 0.324793 0.401214
O O12 0.925130 0.167655 0.205966
O O13 0.755884 0.630823 0.096217
O O14 0.217188 0.822299 0.115781
O O15 0.500000 0.500000 0.000000
O O16 0.500000 0.500000 0.500000
#
# Coordination Sequence:
#
# PCOD8005692 Si02
#       7
#     2   2   2   2   2   2   2
#     4  10  21  38  61  96 128 168 211 264 319 381
#     4  11  22  39  64  95 129 163 211 272 321 371
#     4  10  21  34  63  97 125 162 219 268 313 379
#     4   9  20  36  63  88 129 178 205 257 324 376
#     4  10  22  35  63  90 121 162 216 258 315 386
#     4  10  20  39  61  95 133 170 215 261 321 382
#     4  10  21  38  62  91 125 164 212 264 319 375
#
# _framework density 20.701754999999999
#
# number of rings (size 3 to 8) (size 9 to 14) (size 15 to 20)
#    0.000    2.000    1.429    2.143    8.000    0.000 
#    0.000    0.714    0.000   18.857    0.000    0.000 
#    0.000    0.000    0.000    0.000    0.000    0.000 
#
# Total GULP energy -173525.317337 kJ/mol
# GULP energy per Si atom -12394.665524 kJ/mol
# Density = 2.065464 g / cm^3
# Si number density = 20.701755 Si / 1000 Ang^3
#
#
#
# Elastic Constant Matrix: (Units=GPa)
#
#
# Indices 1 2 3 4 5 6 
#
# 1 75.4728 36.3907 39.5270 -7.3512 12.1463 -22.0755
# 2 36.3907 148.6374 70.6695 15.2976 -4.2057 -14.1971
# 3 39.5270 70.6695 139.0031 8.1401 -6.8805 -10.9678
# 4 -7.3512 15.2976 8.1401 33.1833 -5.2479 -1.0322
# 5 12.1463 -4.2057 -6.8805 -5.2479 35.1064 1.0733
# 6 -22.0755 -14.1971 -10.9678 -1.0322 1.0733 28.1065
#
#
#
# Elastic Compliance Matrix: (Units=1/GPa)
#
#
# Indices 1 2 3 4 5 6 
#
# 1 0.024151 -0.003008 -0.004927 0.007004 -0.009128 0.016132
# 2 -0.003008 0.009789 -0.003767 -0.004094 0.000835 0.000930
# 3 -0.004927 -0.003767 0.010613 -0.001514 0.003162 -0.001808
# 4 0.007004 -0.004094 -0.001514 0.034357 0.001802 0.004035
# 5 -0.009128 0.000835 0.003162 0.001802 0.032837 -0.006701
# 6 0.016132 0.000930 -0.001808 0.004035 -0.006701 0.048418
#
#
# Mechanical properties :
#
#
# Convention : Reuss Voigt Hill
#
# Bulk Modulus (GPa) = 47.28655 72.92084 60.10370
# Shear Modulus (GPa) = 26.23051 33.71433 29.97242
#
# Velocity S-wave (km/s) = 3.56345 4.03994 3.80915
# Velocity P-wave (km/s) = 6.31049 7.55397 6.96005
#
# Compressibility (1/GPa) = 0.02114766
#
# Stress axis : x y z
#
# Youngs Moduli (GPa) = 41.40695 102.15467 94.22564
#
# Poissons Ratio (x) = 0.30733 0.46426
# Poissons Ratio (y) = 0.12457 0.35494
# Poissons Ratio (z) = 0.20401 0.38480
#
# Static dielectric constant tensor:
#      x y z
#    x 4.103420 -0.196390 -0.289080 
#    y -0.196390 3.826360 0.433150 
#    z -0.289080 0.433150 4.250380 
# 
# 
# High freq. dielectric constant tensor:
#      x y z
#    x 1.809920 -0.024750 0.000820 
#    y -0.024750 1.809390 0.017810 
#    z 0.000820 0.017810 1.800680 
# 
# From -- ./inp_files/157123.got.cif
#   From: 2010.06.25/outbox.cif.g09.slc.cpg/sg2_79_cif.got.tgz:157123.got - 2010.06.27 13:26:56.
