data_PCOD8005958
_publ_section_title
;
Structure prediction by ZEFSAII (Michael W. Deem and Ramdas Pophale) SiO2 
 PCOD8005958
Probable space group: P -1
;
_chemical_formula_sum "Si O2"
_cell_formula_units_Z 16
_cell_length_a 13.466440
_cell_length_b 9.444720
_cell_length_c 14.488439
_cell_angle_alpha 119.331104
_cell_angle_beta 118.390261
_cell_angle_gamma 28.445217
_cell_volume 760.749873
_symmetry_space_group_name_H-M "P -1"
_symmetry_group_IT_number 2
_symmetry_cell_setting 'triclinic'
loop_
_space_group_symop_operation_xyz
x,y,z
-x,-y,-z
loop_
_atom_site_type_symbol
_atom_site_label
_atom_site_fract_x
_atom_site_fract_y
_atom_site_fract_z
Si Si1 0.075768 0.471509 0.404894
Si Si2 0.486183 0.872642 0.125020
Si Si3 0.098014 0.649730 0.761791
Si Si4 0.849120 0.985248 0.944238
Si Si5 0.695934 0.013563 0.513324
Si Si6 0.228346 0.757196 0.289892
Si Si7 0.275631 0.556997 0.058608
Si Si8 0.672829 0.651387 0.675740
O O1 0.162499 0.442052 0.339685
O O2 0.917204 0.511824 0.337042
O O3 0.270561 0.175900 0.459919
O O4 0.917118 0.788013 0.486922
O O5 0.661478 0.600055 0.189048
O O6 0.289776 0.992430 0.074675
O O7 0.413421 0.139805 0.209011
O O8 0.579572 0.759711 0.024950
O O9 0.951841 0.815838 0.839032
O O10 0.004895 0.899083 0.731683
O O11 0.714490 0.312246 0.973343
O O12 0.033970 0.791129 0.038578
O O13 0.636639 0.251249 0.617857
O O14 0.511390 0.190550 0.419647
O O15 0.350892 0.529398 0.182927
O O16 0.206382 0.649584 0.325373
#
# Coordination Sequence:
#
# PCOD8005958 Si02
#       8
#     2   2   2   2   2   2   2   2
#     4  10  20  39  64  89 114 152 206 245 292 347
#     4  11  20  34  67  91 116 154 210 242 286 353
#     4   9  18  38  61  84 120 156 193 247 291 344
#     4   9  17  35  60  89 113 155 206 248 277 345
#     4  10  22  42  63  85 119 161 197 247 295 352
#     4  10  23  41  58  86 131 159 190 245 304 352
#     4   9  20  37  57  86 126 159 192 242 301 343
#     4  12  23  38  63  95 120 152 199 249 299 354
#
# _framework density 21.031879
#
# number of rings (size 3 to 8) (size 9 to 14) (size 15 to 20)
#    0.000    2.000    2.500    1.875    0.000    1.000 
#    0.000    5.625    0.000    0.000    0.000    0.000 
#    0.000    0.000    0.000    0.000    0.000    0.000 
#
# Total GULP energy -198291.742511 kJ/mol
# GULP energy per Si atom -12393.233907 kJ/mol
# Density = 2.098401 g / cm^3
# Si number density = 21.031879 Si / 1000 Ang^3
#
#
#
# Elastic Constant Matrix: (Units=GPa)
#
#
# Indices 1 2 3 4 5 6 
#
# 1 91.4152 48.0045 42.2859 -7.8670 3.2015 8.4034
# 2 48.0045 61.6193 33.2601 -2.2058 1.0210 7.4534
# 3 42.2859 33.2601 128.1581 10.5136 15.0837 -1.4422
# 4 -7.8670 -2.2058 10.5136 20.7584 -5.9447 -1.3543
# 5 3.2015 1.0210 15.0837 -5.9447 30.7925 -3.8134
# 6 8.4034 7.4534 -1.4422 -1.3543 -3.8134 20.5580
#
#
#
# Elastic Compliance Matrix: (Units=1/GPa)
#
#
# Indices 1 2 3 4 5 6 
#
# 1 0.020982 -0.013248 -0.004485 0.009133 0.001828 -0.003147
# 2 -0.013248 0.028938 -0.003345 -0.000183 0.001394 -0.005064
# 3 -0.004485 -0.003345 0.011789 -0.009863 -0.006860 0.001951
# 4 0.009133 -0.000183 -0.009863 0.061386 0.016069 0.002665
# 5 0.001828 0.001394 -0.006860 0.016069 0.039526 0.006657
# 6 -0.003147 -0.005064 0.001951 0.002665 0.006657 0.053313
#
#
# Mechanical properties :
#
#
# Convention : Reuss Voigt Hill
#
# Bulk Modulus (GPa) = 51.14076 58.69929 54.92003
# Shear Modulus (GPa) = 18.89598 24.93127 21.91362
#
# Velocity S-wave (km/s) = 3.00066 3.44670 3.23139
# Velocity P-wave (km/s) = 6.03108 6.61891 6.33182
#
# Compressibility (1/GPa) = 0.01955387
#
# Stress axis : x y z
#
# Youngs Moduli (GPa) = 47.66097 34.55696 84.82312
#
# Poissons Ratio (x) = 0.45780 0.38040
# Poissons Ratio (y) = 0.63139 0.28374
# Poissons Ratio (z) = 0.21374 0.11560
#
# Static dielectric constant tensor:
#      x y z
#    x 3.363110 0.085680 0.187620 
#    y 0.085680 3.696980 0.180030 
#    z 0.187620 0.180030 4.212660 
# 
# 
# High freq. dielectric constant tensor:
#      x y z
#    x 1.785470 0.003720 0.016410 
#    y 0.003720 1.805770 0.012650 
#    z 0.016410 0.012650 1.849920 
# 
# From -- ./inp_files/216029.got.cif
#   From: 2010.06.25/outbox.cif.g09.slc.cpg/sg2_109_cif.got.tgz:216029.got - 2010.06.27 13:26:56.
