data_PCOD8005373
_publ_section_title
;
Structure prediction by ZEFSAII (Michael W. Deem and Ramdas Pophale) SiO2 
 PCOD8005373
Probable space group: P -1
;
_chemical_formula_sum "Si O2"
_cell_formula_units_Z 14
_cell_length_a 8.892417
_cell_length_b 20.194974
_cell_length_c 8.926744
_cell_angle_alpha 134.257342
_cell_angle_beta 147.768715
_cell_angle_gamma 42.464306
_cell_volume 564.952316
_symmetry_space_group_name_H-M "P -1"
_symmetry_group_IT_number 2
_symmetry_cell_setting 'triclinic'
loop_
_space_group_symop_operation_xyz
x,y,z
-x,-y,-z
loop_
_atom_site_type_symbol
_atom_site_label
_atom_site_fract_x
_atom_site_fract_y
_atom_site_fract_z
Si Si1 0.391965 0.299430 0.977861
Si Si2 0.037330 0.566097 0.927023
Si Si3 0.641262 0.452565 0.391198
Si Si4 0.508641 0.783685 0.375794
Si Si5 0.064046 0.999278 0.229275
Si Si6 0.950406 0.754379 0.967537
Si Si7 0.596243 0.885929 0.135207
O O1 0.672939 0.336620 0.244513
O O2 0.293523 0.276811 0.694416
O O3 0.505204 0.199381 0.013498
O O4 0.107317 0.387028 0.957516
O O5 0.401477 0.515772 0.161571
O O6 0.946201 0.473267 0.652524
O O7 0.925086 0.652955 0.845772
O O8 0.500000 0.500000 0.500000
O O9 0.748128 0.792900 0.710235
O O10 0.269003 0.891167 0.291596
O O11 0.304940 0.729008 0.192829
O O12 0.240360 0.071731 0.534562
O O13 0.725534 0.033888 0.073109
O O14 0.000000 0.000000 0.000000
O O15 0.832842 0.842059 0.130550
#
# Coordination Sequence:
#
# PCOD8005373 Si02
#       7
#     2   2   2   2   2   2   2
#     4  10  23  40  67  97 124 168 217 264 322 366
#     4  10  22  43  66  92 132 168 215 263 315 385
#     4  10  20  38  67  99 125 163 219 269 308 377
#     4  12  26  42  65  95 134 165 217 272 315 385
#     4  12  25  43  68  99 129 161 220 273 322 366
#     4  11  26  45  64  96 132 176 213 256 327 385
#     4  11  25  44  69  91 131 175 213 263 320 387
#
# _framework density 24.780853
#
# number of rings (size 3 to 8) (size 9 to 14) (size 15 to 20)
#    0.000    1.143    1.429    4.714    2.000   13.714 
#    0.000    4.286    0.000    0.000    0.000    0.000 
#    0.000    0.000    0.000    0.000    0.000    0.000 
#
# Total GULP energy -173541.832131 kJ/mol
# GULP energy per Si atom -12395.845152 kJ/mol
# Density = 2.472445 g / cm^3
# Si number density = 24.780853 Si / 1000 Ang^3
#
#
#
# Elastic Constant Matrix: (Units=GPa)
#
#
# Indices 1 2 3 4 5 6 
#
# 1 66.6528 24.8965 11.9203 6.3753 -12.1245 2.4144
# 2 24.8965 73.6050 46.9485 7.5078 -7.8574 15.0586
# 3 11.9203 46.9485 135.3646 3.8938 -8.3494 3.2900
# 4 6.3753 7.5078 3.8938 40.4421 -1.2734 3.5552
# 5 -12.1245 -7.8574 -8.3494 -1.2734 38.6476 -3.6436
# 6 2.4144 15.0586 3.2900 3.5552 -3.6436 24.0671
#
#
#
# Elastic Compliance Matrix: (Units=1/GPa)
#
#
# Indices 1 2 3 4 5 6 
#
# 1 0.018301 -0.006810 0.001022 -0.001856 0.004826 0.003291
# 2 -0.006810 0.023115 -0.007082 -0.001432 -0.000205 -0.012631
# 3 0.001022 -0.007082 0.009756 -0.000026 0.001289 0.003194
# 4 -0.001856 -0.001432 -0.000026 0.025518 -0.000295 -0.002729
# 5 0.004826 -0.000205 0.001289 -0.000295 0.027969 0.003746
# 6 0.003291 -0.012631 0.003194 -0.002729 0.003746 0.049657
#
#
# Mechanical properties :
#
#
# Convention : Reuss Voigt Hill
#
# Bulk Modulus (GPa) = 39.32228 49.23924 44.28076
# Shear Modulus (GPa) = 26.52041 33.42183 29.97112
#
# Velocity S-wave (km/s) = 3.27494 3.67644 3.48148
# Velocity P-wave (km/s) = 5.49570 6.15911 5.83684
#
# Compressibility (1/GPa) = 0.02543087
#
# Stress axis : x y z
#
# Youngs Moduli (GPa) = 54.64316 43.26206 102.49835
#
# Poissons Ratio (x) = 0.29463 -0.10471
# Poissons Ratio (y) = 0.37214 0.72586
# Poissons Ratio (z) = -0.05582 0.30637
#
# Static dielectric constant tensor:
#      x y z
#    x 4.531950 0.372500 0.338170 
#    y 0.372500 9.715680 2.150990 
#    z 0.338170 2.150990 5.871880 
# 
# 
# High freq. dielectric constant tensor:
#      x y z
#    x 1.972640 0.002390 0.001150 
#    y 0.002390 1.996010 0.004790 
#    z 0.001150 0.004790 1.994040 
# 
# From -- ./inp_files/224144.got.cif
#   From: 2010.06.25/outbox.cif.g09.slc.cpg/sg2_113_cif.got.tgz:224144.got - 2010.06.27 13:26:56.
