data_PCOD8005155
_publ_section_title
;
Structure prediction by ZEFSAII (Michael W. Deem and Ramdas Pophale) SiO2 
 PCOD8005155
Probable space group: P -1
;
_chemical_formula_sum "Si O2"
_cell_formula_units_Z 16
_cell_length_a 9.961301
_cell_length_b 24.085744
_cell_length_c 9.048515
_cell_angle_alpha 151.866477
_cell_angle_beta 116.647433
_cell_angle_gamma 54.887092
_cell_volume 827.619957
_symmetry_space_group_name_H-M "P -1"
_symmetry_group_IT_number 2
_symmetry_cell_setting 'triclinic'
loop_
_space_group_symop_operation_xyz
x,y,z
-x,-y,-z
loop_
_atom_site_type_symbol
_atom_site_label
_atom_site_fract_x
_atom_site_fract_y
_atom_site_fract_z
Si Si1 0.305551 0.075138 0.594396
Si Si2 0.745719 0.641457 0.691333
Si Si3 0.782738 0.274632 0.856026
Si Si4 0.942266 0.413055 0.445832
Si Si5 0.858024 0.295020 0.401306
Si Si6 0.176878 0.906501 0.309132
Si Si7 0.011610 0.129942 0.361965
Si Si8 0.497486 0.538712 0.256031
O O1 0.194243 0.087538 0.422575
O O2 0.500000 0.000000 0.500000
O O3 0.263725 0.997326 0.519277
O O4 0.271923 0.216618 0.960407
O O5 0.800790 0.555958 0.668818
O O6 0.572746 0.644798 0.557875
O O7 0.883220 0.580096 0.485204
O O8 0.729013 0.181639 0.711504
O O9 0.859544 0.206884 0.580021
O O10 0.925521 0.303437 0.075356
O O11 0.615880 0.405592 0.080664
O O12 0.931832 0.373605 0.517771
O O13 0.684633 0.402905 0.628861
O O14 0.985994 0.226946 0.438639
O O15 0.828946 0.182288 0.038090
O O16 0.000000 0.000000 0.500000
O O17 0.000000 0.000000 0.000000
O O18 0.500000 0.500000 0.000000
#
# Coordination Sequence:
#
# PCOD8005155 Si02
#       8
#     2   2   2   2   2   2   2   2
#     4  12  24  38  62  94 128 165 208 263 312 375
#     4  10  21  39  62  86 129 166 209 251 327 370
#     4  10  20  38  65  88 123 165 219 251 311 378
#     4   9  20  39  65  89 118 170 207 257 308 385
#     4  11  22  38  66  95 123 162 221 258 314 373
#     4  11  20  39  65  94 123 175 220 254 301 388
#     4  12  22  39  64  94 127 165 209 260 317 380
#     4  11  23  39  64  93 127 165 208 274 319 368
#
# _framework density 19.332546000000001
#
# number of rings (size 3 to 8) (size 9 to 14) (size 15 to 20)
#    0.000    1.250    5.000    1.500    0.000    5.500 
#    0.000    3.750    0.000    3.000    0.000    0.000 
#    0.000    0.000    0.000    0.000    0.000    0.000 
#
# Total GULP energy -198321.499902 kJ/mol
# GULP energy per Si atom -12395.093744 kJ/mol
# Density = 1.928854 g / cm^3
# Si number density = 19.332546 Si / 1000 Ang^3
#
#
#
# Elastic Constant Matrix: (Units=GPa)
#
#
# Indices 1 2 3 4 5 6 
#
# 1 113.2961 70.4645 31.1354 10.8877 -0.8221 11.6526
# 2 70.4645 131.0372 33.9986 8.1261 4.3350 19.8468
# 3 31.1354 33.9986 83.4977 11.2583 -4.6678 6.2438
# 4 10.8877 8.1261 11.2583 29.3956 4.8950 1.2895
# 5 -0.8221 4.3350 -4.6678 4.8950 36.2328 7.6574
# 6 11.6526 19.8468 6.2438 1.2895 7.6574 43.6772
#
#
#
# Elastic Compliance Matrix: (Units=1/GPa)
#
#
# Indices 1 2 3 4 5 6 
#
# 1 0.013893 -0.006764 -0.001944 -0.002734 0.001351 -0.000511
# 2 -0.006764 0.012410 -0.002407 0.000358 -0.001305 -0.003272
# 3 -0.001944 -0.002407 0.014532 -0.004629 0.002919 -0.000840
# 4 -0.002734 0.000358 -0.004629 0.037659 -0.006037 0.001175
# 5 0.001351 -0.001305 0.002919 -0.006037 0.030094 -0.005283
# 6 -0.000511 -0.003272 -0.000840 0.001175 -0.005283 0.025530
#
#
# Mechanical properties :
#
#
# Convention : Reuss Voigt Hill
#
# Bulk Modulus (GPa) = 53.75265 66.55865 60.15565
# Shear Modulus (GPa) = 30.75989 34.67662 32.71826
#
# Velocity S-wave (km/s) = 3.99318 4.23979 4.11833
# Velocity P-wave (km/s) = 7.00894 7.64662 7.33471
#
# Compressibility (1/GPa) = 0.01860374
#
# Stress axis : x y z
#
# Youngs Moduli (GPa) = 71.98039 80.58036 68.81557
#
# Poissons Ratio (x) = 0.54505 0.13377
# Poissons Ratio (y) = 0.48688 0.16566
# Poissons Ratio (z) = 0.13992 0.19398
#
# Static dielectric constant tensor:
#      x y z
#    x 2.906320 0.345580 0.186270 
#    y 0.345580 3.582200 0.023960 
#    z 0.186270 0.023960 3.502250 
# 
# 
# High freq. dielectric constant tensor:
#      x y z
#    x 1.744580 0.010130 -0.002660 
#    y 0.010130 1.757330 0.020930 
#    z -0.002660 0.020930 1.758350 
# 
# From -- ./inp_files/178851.got.cif
#   From: 2010.06.25/outbox.cif.g09.slc.cpg/sg2_90_cif.got.tgz:178851.got - 2010.06.27 13:26:56.
