data_PCOD8005974
_publ_section_title
;
Structure prediction by ZEFSAII (Michael W. Deem and Ramdas Pophale) SiO2 
 PCOD8005974
Probable space group: P -1
;
_chemical_formula_sum "Si O2"
_cell_formula_units_Z 14
_cell_length_a 14.375807
_cell_length_b 9.601909
_cell_length_c 8.669803
_cell_angle_alpha 63.549890
_cell_angle_beta 53.668074
_cell_angle_gamma 99.578797
_cell_volume 692.739678
_symmetry_space_group_name_H-M "P -1"
_symmetry_group_IT_number 2
_symmetry_cell_setting 'triclinic'
loop_
_space_group_symop_operation_xyz
x,y,z
-x,-y,-z
loop_
_atom_site_type_symbol
_atom_site_label
_atom_site_fract_x
_atom_site_fract_y
_atom_site_fract_z
Si Si1 0.359322 0.537190 0.798004
Si Si2 0.781932 0.129648 0.502346
Si Si3 0.066009 0.184191 0.237550
Si Si4 0.616405 0.827720 0.578407
Si Si5 0.427293 0.272194 0.999874
Si Si6 0.298718 0.594342 0.490057
Si Si7 0.849583 0.828004 0.165381
O O1 0.461216 0.738730 0.694861
O O2 0.428513 0.421728 0.813426
O O3 0.365135 0.593761 0.588052
O O4 0.192654 0.388668 0.094480
O O5 0.781188 0.305582 0.471201
O O6 0.946255 0.207314 0.281861
O O7 0.695192 0.044828 0.464912
O O8 0.705568 0.954500 0.790155
O O9 0.142213 0.155123 0.036001
O O10 0.000000 0.000000 0.500000
O O11 0.720685 0.832099 0.349640
O O12 0.585613 0.689825 0.824378
O O13 0.573151 0.293091 0.815062
O O14 0.181146 0.375162 0.655572
O O15 0.000000 0.000000 0.000000
#
# Coordination Sequence:
#
# PCOD8005974 Si02
#       7
#     2   2   2   2   2   2   2
#     4  11  22  36  64  94 116 162 209 257 288 364
#     4  10  23  41  62  90 126 165 195 252 313 362
#     4  11  22  39  65  90 122 160 209 248 301 365
#     4  10  22  38  64  88 124 156 211 244 308 356
#     4  10  20  39  64  90 122 165 202 247 302 369
#     4  11  24  37  65  92 125 157 209 251 307 354
#     4  11  22  38  61  94 118 164 205 250 298 369
#
# _framework density 20.209612
#
# number of rings (size 3 to 8) (size 9 to 14) (size 15 to 20)
#    0.857    0.571    4.286    1.286    2.000    2.857 
#    0.000    0.000    0.000    1.714    0.000    0.000 
#    0.000    0.000    0.000    0.000    0.000    0.000 
#
# Total GULP energy -173434.657655 kJ/mol
# GULP energy per Si atom -12388.189832 kJ/mol
# Density = 2.016361 g / cm^3
# Si number density = 20.209612 Si / 1000 Ang^3
#
#
#
# Elastic Constant Matrix: (Units=GPa)
#
#
# Indices 1 2 3 4 5 6 
#
# 1 72.5291 17.8421 31.0772 2.4547 -22.5615 15.3529
# 2 17.8421 67.8035 31.2997 -0.5477 -23.5522 3.9869
# 3 31.0772 31.2997 118.7407 11.2189 -20.5127 5.1722
# 4 2.4547 -0.5477 11.2189 32.6884 13.1817 -14.9702
# 5 -22.5615 -23.5522 -20.5127 13.1817 39.2465 -13.3831
# 6 15.3529 3.9869 5.1722 -14.9702 -13.3831 24.6184
#
#
#
# Elastic Compliance Matrix: (Units=1/GPa)
#
#
# Indices 1 2 3 4 5 6 
#
# 1 0.021262 -0.000499 -0.002032 -0.011448 0.009801 -0.014386
# 2 -0.000499 0.020264 -0.003082 -0.002041 0.011948 0.002931
# 3 -0.002032 -0.003082 0.011211 -0.006479 0.004264 -0.002211
# 4 -0.011448 -0.002041 -0.006479 0.056277 -0.018920 0.032767
# 5 0.009801 0.011948 0.004264 -0.018920 0.048974 0.006175
# 6 -0.014386 0.002931 -0.002211 0.032767 0.006175 0.072863
#
#
# Mechanical properties :
#
#
# Convention : Reuss Voigt Hill
#
# Bulk Modulus (GPa) = 24.08958 46.61238 35.35098
# Shear Modulus (GPa) = 19.53786 31.23426 25.38606
#
# Velocity S-wave (km/s) = 3.11265 3.93557 3.54805
# Velocity P-wave (km/s) = 4.98637 6.61560 5.85790
#
# Compressibility (1/GPa) = 0.04151173
#
# Stress axis : x y z
#
# Youngs Moduli (GPa) = 47.03133 49.34911 89.19893
#
# Poissons Ratio (x) = 0.02464 0.18124
# Poissons Ratio (y) = 0.02348 0.27488
# Poissons Ratio (z) = 0.09556 0.15208
#
# Static dielectric constant tensor:
#      x y z
#    x 3.456890 0.270730 -0.248520 
#    y 0.270730 3.646470 -0.158970 
#    z -0.248520 -0.158970 3.879450 
# 
# 
# High freq. dielectric constant tensor:
#      x y z
#    x 1.762960 0.015640 -0.016400 
#    y 0.015640 1.769710 -0.011120 
#    z -0.016400 -0.011120 1.808300 
# 
# From -- ./inp_files/294748.got.cif
#   From: 2010.06.25/outbox.cif.g09.slc.cpg/sg2_148_cif.got.tgz:294748.got - 2010.06.27 13:26:56.
