data_PCOD8005406
_publ_section_title
;
Structure prediction by ZEFSAII (Michael W. Deem and Ramdas Pophale) SiO2 
 PCOD8005406
Probable space group: P -1
;
_chemical_formula_sum "Si O2"
_cell_formula_units_Z 14
_cell_length_a 14.446385
_cell_length_b 27.823751
_cell_length_c 22.317370
_cell_angle_alpha 11.784867
_cell_angle_beta 20.931049
_cell_angle_gamma 21.002822
_cell_volume 631.348771
_symmetry_space_group_name_H-M "P -1"
_symmetry_group_IT_number 2
_symmetry_cell_setting 'triclinic'
loop_
_space_group_symop_operation_xyz
x,y,z
-x,-y,-z
loop_
_atom_site_type_symbol
_atom_site_label
_atom_site_fract_x
_atom_site_fract_y
_atom_site_fract_z
Si Si1 0.591937 0.341654 0.255494
Si Si2 0.350463 0.495317 0.855529
Si Si3 0.893621 0.007170 0.666292
Si Si4 0.276121 0.005113 0.794987
Si Si5 0.964867 0.227886 0.464907
Si Si6 0.603276 0.633935 0.326555
Si Si7 0.855824 0.717473 0.581495
O O1 0.484331 0.430520 0.278971
O O2 0.380782 0.214246 0.509323
O O3 0.635496 0.569563 0.911454
O O4 0.880860 0.143748 0.331101
O O5 0.236641 0.715949 0.610681
O O6 0.088600 0.444985 0.105877
O O7 0.523690 0.266133 0.992188
O O8 0.053399 0.002670 0.639411
O O9 0.647980 0.885707 0.967942
O O10 0.257114 0.066465 0.660599
O O11 0.000000 0.000000 0.000000
O O12 0.641730 0.309008 0.548476
O O13 0.052940 0.159412 0.564058
O O14 0.500000 0.500000 0.500000
O O15 0.887323 0.464150 0.385321
#
# Coordination Sequence:
#
# PCOD8005406 Si02
#       7
#     2   2   2   2   2   2   2
#     4  10  23  44  67  95 127 174 217 268 324 377
#     4  11  25  43  66  99 133 171 212 270 329 386
#     4  11  21  40  67 103 132 163 214 268 334 385
#     4  12  27  45  64  93 131 178 219 265 322 385
#     4  10  20  38  68  98 125 168 211 267 324 375
#     4   9  20  38  62  97 127 166 208 267 320 371
#     4   9  22  43  64  94 134 169 218 261 315 392
#
# _framework density 22.174748999999998
#
# number of rings (size 3 to 8) (size 9 to 14) (size 15 to 20)
#    0.000    1.714    1.429    2.571    2.000    5.143 
#    5.143    0.000    0.000    0.000    0.000    0.000 
#    0.000    0.000    0.000    0.000    0.000    0.000 
#
# Total GULP energy -173488.475422 kJ/mol
# GULP energy per Si atom -12392.033959 kJ/mol
# Density = 2.212428 g / cm^3
# Si number density = 22.174749 Si / 1000 Ang^3
#
#
#
# Elastic Constant Matrix: (Units=GPa)
#
#
# Indices 1 2 3 4 5 6 
#
# 1 100.9241 4.2588 49.1678 8.0688 -16.1682 5.6676
# 2 4.2588 59.7858 22.5734 15.5026 3.1211 1.3834
# 3 49.1678 22.5734 105.5530 10.2426 -7.2568 -8.0638
# 4 8.0688 15.5026 10.2426 35.0234 -5.3096 -1.8603
# 5 -16.1682 3.1211 -7.2568 -5.3096 38.9703 -4.9912
# 6 5.6676 1.3834 -8.0638 -1.8603 -4.9912 25.6741
#
#
#
# Elastic Compliance Matrix: (Units=1/GPa)
#
#
# Indices 1 2 3 4 5 6 
#
# 1 0.014234 0.002044 -0.007017 -0.001853 0.003555 -0.004899
# 2 0.002044 0.021212 -0.005205 -0.009136 -0.003654 -0.004601
# 3 -0.007017 -0.005205 0.014410 0.000216 0.001061 0.006577
# 4 -0.001853 -0.009136 0.000216 0.033985 0.005203 0.004443
# 5 0.003555 -0.003654 0.001061 0.005203 0.029074 0.005774
# 6 -0.004899 -0.004601 0.006577 0.004443 0.005774 0.043790
#
#
# Mechanical properties :
#
#
# Convention : Reuss Voigt Hill
#
# Bulk Modulus (GPa) = 33.89857 46.47366 40.18611
# Shear Modulus (GPa) = 26.75313 32.61776 29.68545
#
# Velocity S-wave (km/s) = 3.47719 3.83945 3.66280
# Velocity P-wave (km/s) = 5.60726 6.37641 6.00416
#
# Compressibility (1/GPa) = 0.02949977
#
# Stress axis : x y z
#
# Youngs Moduli (GPa) = 70.25590 47.14263 69.39542
#
# Poissons Ratio (x) = -0.09635 0.48698
# Poissons Ratio (y) = -0.14360 0.36118
# Poissons Ratio (z) = 0.49301 0.24536
#
# Static dielectric constant tensor:
#      x y z
#    x 3.979780 0.096280 -0.314900 
#    y 0.096280 3.464790 -0.021120 
#    z -0.314900 -0.021120 4.015380 
# 
# 
# High freq. dielectric constant tensor:
#      x y z
#    x 1.869720 0.017070 -0.021200 
#    y 0.017070 1.865630 0.005800 
#    z -0.021200 0.005800 1.873900 
# 
# From -- ./inp_files/331529.got.cif
#   From: 2010.06.25/outbox.cif.g09.slc.cpg/sg2_166_cif.got.tgz:331529.got - 2010.06.27 13:26:56.
