data_PCOD8005752
_publ_section_title
;
Structure prediction by ZEFSAII (Michael W. Deem and Ramdas Pophale) SiO2 
 PCOD8005752
Probable space group: P -1
;
_chemical_formula_sum "Si O2"
_cell_formula_units_Z 16
_cell_length_a 8.493457
_cell_length_b 12.026302
_cell_length_c 16.775885
_cell_angle_alpha 63.613541
_cell_angle_beta 126.218301
_cell_angle_gamma 145.426460
_cell_volume 781.172917
_symmetry_space_group_name_H-M "P -1"
_symmetry_group_IT_number 2
_symmetry_cell_setting 'triclinic'
loop_
_space_group_symop_operation_xyz
x,y,z
-x,-y,-z
loop_
_atom_site_type_symbol
_atom_site_label
_atom_site_fract_x
_atom_site_fract_y
_atom_site_fract_z
Si Si1 0.947196 0.665426 0.582930
Si Si2 0.146162 0.850168 0.960555
Si Si3 0.620820 0.666737 0.372250
Si Si4 0.896098 0.972129 0.889598
Si Si5 0.844700 0.211608 0.837910
Si Si6 0.166720 0.954495 0.686489
Si Si7 0.281371 0.596968 0.751850
Si Si8 0.680096 0.609449 0.768936
O O1 0.183681 0.667182 0.646915
O O2 0.851690 0.667404 0.465866
O O3 0.652762 0.464950 0.604063
O O4 0.097480 0.856548 0.612518
O O5 0.911945 0.666339 0.887238
O O6 0.045637 0.755113 0.048651
O O7 0.092513 0.973498 0.893090
O O8 0.500000 0.000000 0.000000
O O9 0.806018 0.885296 0.365121
O O10 0.487948 0.582805 0.269769
O O11 0.943808 0.142590 0.833890
O O12 0.534825 0.763796 0.838696
O O13 0.000000 0.000000 0.000000
O O14 0.477181 0.047182 0.785150
O O15 0.998739 0.407293 0.781563
O O16 0.881182 0.791977 0.711521
O O17 0.410214 0.557728 0.743325
#
# Coordination Sequence:
#
# PCOD8005752 Si02
#       8
#     2   2   2   2   2   2   2   2
#     4  10  21  39  67  90 121 157 207 255 303 353
#     4  10  20  39  62  90 122 163 199 247 302 356
#     4  10  22  40  62  95 120 159 204 255 302 367
#     4   9  21  36  59  84 122 155 198 250 290 349
#     4  11  21  38  65  88 119 165 205 239 304 363
#     4  11  20  40  64  88 120 164 203 249 303 366
#     4  11  22  40  61  93 122 159 203 254 298 364
#     4  10  24  39  60  88 132 152 202 253 310 348
#
# _framework density 20.482021
#
# number of rings (size 3 to 8) (size 9 to 14) (size 15 to 20)
#    0.000    1.750    3.750    0.375    0.000    7.000 
#    0.000    2.500    0.000    0.000    0.000    0.000 
#    0.000    0.000    0.000    0.000    0.000    0.000 
#
# Total GULP energy -198330.862653 kJ/mol
# GULP energy per Si atom -12395.678916 kJ/mol
# Density = 2.043540 g / cm^3
# Si number density = 20.482021 Si / 1000 Ang^3
#
#
#
# Elastic Constant Matrix: (Units=GPa)
#
#
# Indices 1 2 3 4 5 6 
#
# 1 66.8098 26.9429 24.9609 -5.7794 7.8119 4.3222
# 2 26.9429 95.3418 24.9348 0.7687 1.1718 -12.3385
# 3 24.9609 24.9348 91.1886 5.1056 5.3808 -3.0657
# 4 -5.7794 0.7687 5.1056 24.4057 -6.3949 7.0599
# 5 7.8119 1.1718 5.3808 -6.3949 34.3794 3.5334
# 6 4.3222 -12.3385 -3.0657 7.0599 3.5334 21.4620
#
#
#
# Elastic Compliance Matrix: (Units=1/GPa)
#
#
# Indices 1 2 3 4 5 6 
#
# 1 0.020913 -0.006163 -0.004883 0.009211 -0.000900 -0.011334
# 2 -0.006163 0.014076 -0.001463 -0.004990 -0.000900 0.010914
# 3 -0.004883 -0.001463 0.013319 -0.005799 -0.002451 0.004356
# 4 0.009211 -0.004990 -0.005799 0.055039 0.011855 -0.025609
# 5 -0.000900 -0.000900 -0.002451 0.011855 0.032940 -0.010009
# 6 -0.011334 0.010914 0.004356 -0.025609 -0.010009 0.065845
#
#
# Mechanical properties :
#
#
# Convention : Reuss Voigt Hill
#
# Bulk Modulus (GPa) = 42.93497 45.22416 44.07957
# Shear Modulus (GPa) = 21.28455 27.81619 24.55037
#
# Velocity S-wave (km/s) = 3.22713 3.68921 3.46588
# Velocity P-wave (km/s) = 5.90708 6.34625 6.13060
#
# Compressibility (1/GPa) = 0.02329104
#
# Stress axis : x y z
#
# Youngs Moduli (GPa) = 47.81801 71.04088 75.08279
#
# Poissons Ratio (x) = 0.43780 0.36662
# Poissons Ratio (y) = 0.29469 0.10983
# Poissons Ratio (z) = 0.23349 0.10391
#
# Static dielectric constant tensor:
#      x y z
#    x 3.927850 -0.322630 0.111250 
#    y -0.322630 3.635490 0.224280 
#    z 0.111250 0.224280 3.941630 
# 
# 
# High freq. dielectric constant tensor:
#      x y z
#    x 1.792170 -0.011700 0.011370 
#    y -0.011700 1.790300 0.016760 
#    z 0.011370 0.016760 1.808270 
# 
# From -- ./inp_files/55637.got.cif
#   From: 2010.06.25/outbox.cif.g09.slc.cpg/sg2_28_cif.got.tgz:55637.got - 2010.06.27 13:26:56.
