data_PCOD8005561
_publ_section_title
;
Structure prediction by ZEFSAII (Michael W. Deem and Ramdas Pophale) SiO2 
 PCOD8005561
Probable space group: P -1
;
_chemical_formula_sum "Si O2"
_cell_formula_units_Z 16
_cell_length_a 16.229958
_cell_length_b 9.221315
_cell_length_c 19.743726
_cell_angle_alpha 120.549354
_cell_angle_beta 20.289519
_cell_angle_gamma 108.403503
_cell_volume 743.123981
_symmetry_space_group_name_H-M "P -1"
_symmetry_group_IT_number 2
_symmetry_cell_setting 'triclinic'
loop_
_space_group_symop_operation_xyz
x,y,z
-x,-y,-z
loop_
_atom_site_type_symbol
_atom_site_label
_atom_site_fract_x
_atom_site_fract_y
_atom_site_fract_z
Si Si1 0.096328 0.633428 0.768422
Si Si2 0.232357 0.094809 0.798918
Si Si3 0.249708 0.197466 0.577595
Si Si4 0.306094 0.733308 0.214106
Si Si5 0.205611 0.023633 0.248906
Si Si6 0.373786 0.785683 0.513711
Si Si7 0.952490 0.996101 0.780938
Si Si8 0.417564 0.085382 0.864513
O O1 0.154756 0.424412 0.697414
O O2 0.373544 0.608172 0.512306
O O3 0.032356 0.775119 0.917117
O O4 0.834354 0.739653 0.944170
O O5 0.320172 0.245550 0.736453
O O6 0.499293 0.911238 0.587936
O O7 0.160111 0.994800 0.769839
O O8 0.979363 0.190181 0.809175
O O9 0.342391 0.085718 0.407725
O O10 0.456291 0.815626 0.163764
O O11 0.006485 0.792816 0.493531
O O12 0.258708 0.824115 0.196813
O O13 0.500000 0.500000 0.000000
O O14 0.043177 0.065200 0.313924
O O15 0.500000 0.000000 0.000000
O O16 0.238364 0.810605 0.549924
O O17 0.682682 0.029166 0.036847
#
# Coordination Sequence:
#
# PCOD8005561 Si02
#       8
#     2   2   2   2   2   2   2   2
#     4  10  21  34  60  86 115 156 202 239 294 353
#     4   9  19  38  58  82 120 158 193 243 299 346
#     4  10  21  37  60  86 116 158 199 248 291 358
#     4  11  25  41  66  93 121 158 205 255 304 368
#     4  11  23  43  65  90 125 161 200 253 306 363
#     4   9  19  37  59  84 120 156 192 246 297 351
#     4  10  20  39  60  82 120 160 194 241 308 354
#     4  10  21  40  57  84 123 155 194 248 302 353
#
# _framework density 21.530729000000001
#
# number of rings (size 3 to 8) (size 9 to 14) (size 15 to 20)
#    0.000    2.000    2.500    0.375    1.750    2.000 
#    0.000    6.875    0.000    0.000    0.000    0.000 
#    0.000    0.000    0.000    0.000    0.000    0.000 
#
# Total GULP energy -198293.106650 kJ/mol
# GULP energy per Si atom -12393.319166 kJ/mol
# Density = 2.148172 g / cm^3
# Si number density = 21.530729 Si / 1000 Ang^3
#
#
#
# Elastic Constant Matrix: (Units=GPa)
#
#
# Indices 1 2 3 4 5 6 
#
# 1 85.9164 26.4990 28.2086 4.0451 20.6182 -4.2774
# 2 26.4990 110.4686 48.9351 -10.5445 1.4365 -23.7418
# 3 28.2086 48.9351 87.4926 -7.6525 2.8557 -16.8503
# 4 4.0451 -10.5445 -7.6525 41.8251 -2.4449 2.5443
# 5 20.6182 1.4365 2.8557 -2.4449 18.2061 -7.2551
# 6 -4.2774 -23.7418 -16.8503 2.5443 -7.2551 30.6423
#
#
#
# Elastic Compliance Matrix: (Units=1/GPa)
#
#
# Indices 1 2 3 4 5 6 
#
# 1 0.021421 -0.004956 -0.005637 -0.005360 -0.027715 -0.010067
# 2 -0.004956 0.014682 -0.004694 0.003271 0.009662 0.010118
# 3 -0.005637 -0.004694 0.017101 0.002507 0.006968 0.006422
# 4 -0.005360 0.003271 0.002507 0.026104 0.010293 0.003435
# 5 -0.027715 0.009662 0.006968 0.010293 0.097685 0.029723
# 6 -0.010067 0.010118 0.006422 0.003435 0.029723 0.049353
#
#
# Mechanical properties :
#
#
# Convention : Reuss Voigt Hill
#
# Bulk Modulus (GPa) = 44.19184 54.57368 49.38276
# Shear Modulus (GPa) = 18.90618 30.15034 24.52826
#
# Velocity S-wave (km/s) = 2.96649 3.74617 3.37890
# Velocity P-wave (km/s) = 5.68357 6.64181 6.18129
#
# Compressibility (1/GPa) = 0.02262861
#
# Stress axis : x y z
#
# Youngs Moduli (GPa) = 46.68339 68.11122 58.47502
#
# Poissons Ratio (x) = 0.33755 0.32965
# Poissons Ratio (y) = 0.23136 0.27450
# Poissons Ratio (z) = 0.26318 0.31974
#
# Static dielectric constant tensor:
#      x y z
#    x 4.186720 -0.062960 0.237060 
#    y -0.062960 4.047340 -0.415830 
#    z 0.237060 -0.415830 3.754650 
# 
# 
# High freq. dielectric constant tensor:
#      x y z
#    x 1.860450 -0.007030 0.015660 
#    y -0.007030 1.844480 -0.037100 
#    z 0.015660 -0.037100 1.818820 
# 
# From -- ./inp_files/140715.got.cif
#   From: 2010.06.25/outbox.cif.g09.slc.cpg/sg2_71_cif.got.tgz:140715.got - 2010.06.27 13:26:56.
