data_PCOD8005021
_publ_section_title
;
Structure prediction by ZEFSAII (Michael W. Deem and Ramdas Pophale) SiO2 
 PCOD8005021
Probable space group: P -1
;
_chemical_formula_sum "Si O2"
_cell_formula_units_Z 14
_cell_length_a 7.797529
_cell_length_b 11.780119
_cell_length_c 19.284230
_cell_angle_alpha 144.424172
_cell_angle_beta 138.418168
_cell_angle_gamma 41.022206
_cell_volume 633.135669
_symmetry_space_group_name_H-M "P -1"
_symmetry_group_IT_number 2
_symmetry_cell_setting 'triclinic'
loop_
_space_group_symop_operation_xyz
x,y,z
-x,-y,-z
loop_
_atom_site_type_symbol
_atom_site_label
_atom_site_fract_x
_atom_site_fract_y
_atom_site_fract_z
Si Si1 0.749775 0.495552 0.739602
Si Si2 0.645185 0.731427 0.957511
Si Si3 0.592736 0.117761 0.485554
Si Si4 0.498136 0.910263 0.811617
Si Si5 0.263311 0.651994 0.118655
Si Si6 0.636193 0.818798 0.226596
Si Si7 0.875054 0.978078 0.641800
O O1 0.558160 0.638162 0.815642
O O2 0.604948 0.345568 0.589579
O O3 0.736140 0.673194 0.765804
O O4 0.063459 0.356721 0.790735
O O5 0.625342 0.592840 0.948944
O O6 0.954274 0.721367 0.030046
O O7 0.464914 0.971090 0.046917
O O8 0.274801 0.157925 0.431349
O O9 0.684806 0.977031 0.374935
O O10 0.812595 0.987407 0.545920
O O11 0.202807 0.881020 0.706716
O O12 0.521870 0.043522 0.818621
O O13 0.453258 0.693562 0.137651
O O14 0.262874 0.782211 0.252965
#
# Coordination Sequence:
#
# PCOD8005021 Si02
#       7
#     2   2   2   2   2   2   2
#     4  12  23  39  61  89 120 158 193 241 295 347
#     4  10  20  40  62  88 111 155 207 242 278 348
#     4  10  20  38  64  86 117 156 196 241 292 344
#     4  11  24  39  60  88 121 156 197 241 290 347
#     4   9  18  37  68  84 114 158 194 240 299 337
#     4  11  23  40  59  90 123 153 188 244 300 355
#     4   9  18  38  62  88 113 154 204 240 280 347
#
# _framework density 22.112164
#
# number of rings (size 3 to 8) (size 9 to 14) (size 15 to 20)
#    0.000    1.714    2.857    2.571    0.000    3.429 
#    0.000    7.143    0.000    0.000    0.000    0.000 
#    0.000    0.000    0.000    0.000    0.000    0.000 
#
# Total GULP energy -173546.938855 kJ/mol
# GULP energy per Si atom -12396.209918 kJ/mol
# Density = 2.206184 g / cm^3
# Si number density = 22.112164 Si / 1000 Ang^3
#
#
#
# Elastic Constant Matrix: (Units=GPa)
#
#
# Indices 1 2 3 4 5 6 
#
# 1 85.5679 18.7299 35.4206 11.4994 7.2913 13.2890
# 2 18.7299 69.5927 21.0875 21.1575 -1.1996 8.0286
# 3 35.4206 21.0875 109.9719 17.4500 -5.9134 3.9858
# 4 11.4994 21.1575 17.4500 35.5185 6.5914 -1.1223
# 5 7.2913 -1.1996 -5.9134 6.5914 44.9136 -1.5737
# 6 13.2890 8.0286 3.9858 -1.1223 -1.5737 11.5659
#
#
#
# Elastic Compliance Matrix: (Units=1/GPa)
#
#
# Indices 1 2 3 4 5 6 
#
# 1 0.017285 -0.000182 -0.004532 -0.003192 -0.003604 -0.018972
# 2 -0.000182 0.020156 -0.001282 -0.012079 0.001671 -0.014286
# 3 -0.004532 -0.001282 0.011490 -0.003876 0.002858 0.002151
# 4 -0.003192 -0.012079 -0.003876 0.039845 -0.005584 0.016495
# 5 -0.003604 0.001671 0.002858 -0.005584 0.024257 0.004754
# 6 -0.018972 -0.014286 0.002151 0.016495 0.004754 0.119683
#
#
# Mechanical properties :
#
#
# Convention : Reuss Voigt Hill
#
# Bulk Modulus (GPa) = 27.07185 46.17871 36.62528
# Shear Modulus (GPa) = 19.45373 31.05922 25.25648
#
# Velocity S-wave (km/s) = 2.96932 3.75189 3.38331
# Velocity P-wave (km/s) = 4.90157 6.30065 5.64462
#
# Compressibility (1/GPa) = 0.03693874
#
# Stress axis : x y z
#
# Youngs Moduli (GPa) = 57.85379 49.61322 87.03476
#
# Poissons Ratio (x) = 0.00901 0.39445
# Poissons Ratio (y) = 0.01051 0.11159
# Poissons Ratio (z) = 0.26220 0.06361
#
# Static dielectric constant tensor:
#      x y z
#    x 3.831160 0.161690 0.071770 
#    y 0.161690 3.635230 0.155500 
#    z 0.071770 0.155500 4.383870 
# 
# 
# High freq. dielectric constant tensor:
#      x y z
#    x 1.856610 0.020730 -0.001500 
#    y 0.020730 1.841980 0.010160 
#    z -0.001500 0.010160 1.892390 
# 
# From -- ./inp_files/179116.got.cif
#   From: 2010.06.25/outbox.cif.g09.slc.cpg/sg2_90_cif.got.tgz:179116.got - 2010.06.27 13:26:56.
