data_PCOD8005194
_publ_section_title
;
Structure prediction by ZEFSAII (Michael W. Deem and Ramdas Pophale) SiO2 
 PCOD8005194
Probable space group: P -1
;
_chemical_formula_sum "Si O2"
_cell_formula_units_Z 12
_cell_length_a 8.053413
_cell_length_b 13.771332
_cell_length_c 11.635183
_cell_angle_alpha 139.407838
_cell_angle_beta 36.403857
_cell_angle_gamma 132.372345
_cell_volume 491.672602
_symmetry_space_group_name_H-M "P -1"
_symmetry_group_IT_number 2
_symmetry_cell_setting 'triclinic'
loop_
_space_group_symop_operation_xyz
x,y,z
-x,-y,-z
loop_
_atom_site_type_symbol
_atom_site_label
_atom_site_fract_x
_atom_site_fract_y
_atom_site_fract_z
Si Si1 0.394978 0.477650 0.794209
Si Si2 0.515701 0.841758 0.497823
Si Si3 0.086042 0.419783 0.700160
Si Si4 0.904800 0.098623 0.041932
Si Si5 0.915024 0.108462 0.413290
Si Si6 0.780158 0.583504 0.854533
O O1 0.324433 0.303569 0.722365
O O2 0.714660 0.548951 0.723553
O O3 0.369419 0.485299 0.675571
O O4 0.176155 0.573715 0.060977
O O5 0.373612 0.840234 0.703139
O O6 0.280936 0.825829 0.513096
O O7 0.726297 0.998751 0.509397
O O8 0.092006 0.246165 0.508191
O O9 0.053571 0.517183 0.690790
O O10 0.160993 0.236622 0.996004
O O11 0.000000 0.000000 0.000000
O O12 0.863843 0.990015 0.855739
O O13 0.500000 0.500000 0.000000
#
# Coordination Sequence:
#
# PCOD8005194 Si02
#       6
#     2   2   2   2   2   2
#     4  10  21  37  60  97 121 165 217 254 313 377
#     4  10  21  38  64  93 126 167 211 256 318 379
#     4  10  21  37  64  94 124 163 215 262 306 379
#     4  10  23  39  65  98 124 166 216 255 315 383
#     4  10  20  38  65  92 127 168 209 259 318 374
#     4  10  20  39  68  88 124 170 203 259 317 367
#
# _framework density 24.406485
#
# number of rings (size 3 to 8) (size 9 to 14) (size 15 to 20)
#    0.000    2.000    1.667    2.000   11.667    1.333 
#    0.000    1.667    0.000    0.000    0.000    0.000 
#    0.000    0.000    0.000    0.000    0.000    0.000 
#
# Total GULP energy -148704.250157 kJ/mol
# GULP energy per Si atom -12392.020846 kJ/mol
# Density = 2.435093 g / cm^3
# Si number density = 24.406485 Si / 1000 Ang^3
#
#
#
# Elastic Constant Matrix: (Units=GPa)
#
#
# Indices 1 2 3 4 5 6 
#
# 1 153.9456 21.0997 34.5645 23.7552 29.2736 4.7527
# 2 21.0997 92.4006 51.0432 30.4224 9.9143 -6.0318
# 3 34.5645 51.0432 119.0528 24.3034 25.4942 10.4706
# 4 23.7552 30.4224 24.3034 45.0027 7.8078 5.4729
# 5 29.2736 9.9143 25.4942 7.8078 32.6838 9.5831
# 6 4.7527 -6.0318 10.4706 5.4729 9.5831 22.0455
#
#
#
# Elastic Compliance Matrix: (Units=1/GPa)
#
#
# Indices 1 2 3 4 5 6 
#
# 1 0.008378 0.000539 -0.000659 -0.003520 -0.007076 0.002604
# 2 0.000539 0.018810 -0.006707 -0.010468 -0.001864 0.011625
# 3 -0.000659 -0.006707 0.013367 -0.000640 -0.006117 -0.005224
# 4 -0.003520 -0.010468 -0.000640 0.032427 0.002257 -0.010833
# 5 -0.007076 -0.001864 -0.006117 0.002257 0.046699 -0.016939
# 6 0.002604 0.011625 -0.005224 -0.010833 -0.016939 0.060514
#
#
# Mechanical properties :
#
#
# Convention : Reuss Voigt Hill
#
# Bulk Modulus (GPa) = 37.17339 64.31265 50.74302
# Shear Modulus (GPa) = 24.65284 37.19250 30.92267
#
# Velocity S-wave (km/s) = 3.18165 3.90792 3.56334
# Velocity P-wave (km/s) = 5.36294 6.83888 6.14538
#
# Compressibility (1/GPa) = 0.02690096
#
# Stress axis : x y z
#
# Youngs Moduli (GPa) = 119.35715 53.16245 74.81304
#
# Poissons Ratio (x) = -0.02865 0.04927
# Poissons Ratio (y) = -0.06432 0.50180
# Poissons Ratio (z) = 0.07860 0.35658
#
# Static dielectric constant tensor:
#      x y z
#    x 5.073080 -0.136210 0.332680 
#    y -0.136210 4.126190 -0.014410 
#    z 0.332680 -0.014410 5.257950 
# 
# 
# High freq. dielectric constant tensor:
#      x y z
#    x 1.951470 -0.015370 0.015270 
#    y -0.015370 1.952320 0.018970 
#    z 0.015270 0.018970 1.978060 
# 
# From -- ./inp_files/154227.got.cif
#   From: 2010.06.25/outbox.cif.g09.slc.cpg/sg2_78_cif.got.tgz:154227.got - 2010.06.27 13:26:56.
