data_PCOD8005148
_publ_section_title
;
Structure prediction by ZEFSAII (Michael W. Deem and Ramdas Pophale) SiO2 
 PCOD8005148
Probable space group: P -1
;
_chemical_formula_sum "Si O2"
_cell_formula_units_Z 16
_cell_length_a 15.812341
_cell_length_b 9.583023
_cell_length_c 8.376527
_cell_angle_alpha 119.611275
_cell_angle_beta 86.060198
_cell_angle_gamma 52.949526
_cell_volume 747.907548
_symmetry_space_group_name_H-M "P -1"
_symmetry_group_IT_number 2
_symmetry_cell_setting 'triclinic'
loop_
_space_group_symop_operation_xyz
x,y,z
-x,-y,-z
loop_
_atom_site_type_symbol
_atom_site_label
_atom_site_fract_x
_atom_site_fract_y
_atom_site_fract_z
Si Si1 0.174848 0.322074 0.387337
Si Si2 0.505297 0.490158 0.683433
Si Si3 0.354525 0.457810 0.906390
Si Si4 0.763026 0.178030 0.590536
Si Si5 0.536359 0.099600 0.942547
Si Si6 0.859719 0.391494 0.168612
Si Si7 0.070736 0.928725 0.751507
Si Si8 0.957726 0.786515 0.549715
O O1 0.141742 0.445744 0.633951
O O2 0.123621 0.212628 0.321755
O O3 0.100371 0.521888 0.369789
O O4 0.319953 0.128070 0.237154
O O5 0.500000 0.500000 0.500000
O O6 0.411606 0.497290 0.786152
O O7 0.644308 0.243230 0.580017
O O8 0.482758 0.704719 0.858191
O O9 0.460901 0.209509 0.847142
O O10 0.264945 0.450049 0.832363
O O11 0.275097 0.671931 0.162211
O O12 0.813464 0.221456 0.469127
O O13 0.880455 0.898615 0.457640
O O14 0.500000 0.000000 0.000000
O O15 0.864963 0.224249 0.182746
O O16 0.990532 0.204289 0.945240
O O17 0.965034 0.954086 0.714455
#
# Coordination Sequence:
#
# PCOD8005148 Si02
#       8
#     2   2   2   2   2   2   2   2
#     4  10  23  41  60  89 135 167 208 253 336 387
#     4  11  25  45  70  98 126 169 224 272 316 382
#     4  11  23  41  72  94 126 175 222 263 320 386
#     4  11  21  39  68  95 123 160 222 268 311 383
#     4  11  26  43  65  96 134 176 212 263 335 393
#     4  10  22  38  64  92 125 165 215 265 318 369
#     4  10  21  37  65  93 124 161 219 269 318 364
#     4  10  20  38  65  86 120 172 206 260 315 383
#
# _framework density 21.393018999999999
#
# number of rings (size 3 to 8) (size 9 to 14) (size 15 to 20)
#    0.000    1.500    1.250    4.125    8.750    0.500 
#    6.750    0.625    0.000    0.000    0.000    0.000 
#    0.000    0.000    0.000    0.000    0.000    0.000 
#
# Total GULP energy -198250.061890 kJ/mol
# GULP energy per Si atom -12390.628868 kJ/mol
# Density = 2.134433 g / cm^3
# Si number density = 21.393019 Si / 1000 Ang^3
#
#
#
# Elastic Constant Matrix: (Units=GPa)
#
#
# Indices 1 2 3 4 5 6 
#
# 1 66.6020 8.1277 30.5964 3.0682 -13.0066 -14.6258
# 2 8.1277 102.5817 23.9337 6.3015 -12.9912 -26.7807
# 3 30.5964 23.9337 91.7245 -6.3288 -21.2839 -6.3686
# 4 3.0682 6.3015 -6.3288 32.1108 -1.0763 -7.5108
# 5 -13.0066 -12.9912 -21.2839 -1.0763 31.3867 0.2715
# 6 -14.6258 -26.7807 -6.3686 -7.5108 0.2715 48.0513
#
#
#
# Elastic Compliance Matrix: (Units=1/GPa)
#
#
# Indices 1 2 3 4 5 6 
#
# 1 0.019790 0.002117 -0.005664 -0.001815 0.005121 0.006140
# 2 0.002117 0.012675 -0.002635 -0.001403 0.004227 0.007116
# 3 -0.005664 -0.002635 0.015391 0.004206 0.007148 -0.000536
# 4 -0.001815 -0.001403 0.004206 0.033549 0.002631 0.004452
# 5 0.005121 0.004227 0.007148 0.002631 0.040626 0.005043
# 6 0.006140 0.007116 -0.000536 0.004452 0.005043 0.027242
#
#
# Mechanical properties :
#
#
# Convention : Reuss Voigt Hill
#
# Bulk Modulus (GPa) = 28.17722 42.91373 35.54548
# Shear Modulus (GPa) = 28.82356 35.52647 32.17501
#
# Velocity S-wave (km/s) = 3.67459 4.07954 3.88235
# Velocity P-wave (km/s) = 5.58599 6.50334 6.06204
#
# Compressibility (1/GPa) = 0.03548966
#
# Stress axis : x y z
#
# Youngs Moduli (GPa) = 50.52950 78.89803 64.97376
#
# Poissons Ratio (x) = -0.16699 0.36804
# Poissons Ratio (y) = -0.10695 0.17122
# Poissons Ratio (z) = 0.28622 0.20791
#
# Static dielectric constant tensor:
#      x y z
#    x 3.899700 -0.256850 -0.142470 
#    y -0.256850 4.184930 0.055170 
#    z -0.142470 0.055170 3.791310 
# 
# 
# High freq. dielectric constant tensor:
#      x y z
#    x 1.840850 -0.022770 -0.012590 
#    y -0.022770 1.848780 0.005770 
#    z -0.012590 0.005770 1.823860 
# 
# From -- ./inp_files/299484.got.cif
#   From: 2010.06.25/outbox.cif.g09.slc.cpg/sg2_150_cif.got.tgz:299484.got - 2010.06.27 13:26:56.
