data_PCOD8005631
_publ_section_title
;
Structure prediction by ZEFSAII (Michael W. Deem and Ramdas Pophale) SiO2 
 PCOD8005631
Probable space group: P -1
;
_chemical_formula_sum "Si O2"
_cell_formula_units_Z 16
_cell_length_a 17.733356
_cell_length_b 19.661884
_cell_length_c 7.770843
_cell_angle_alpha 57.077389
_cell_angle_beta 67.271068
_cell_angle_gamma 20.564558
_cell_volume 726.679658
_symmetry_space_group_name_H-M "P -1"
_symmetry_group_IT_number 2
_symmetry_cell_setting 'triclinic'
loop_
_space_group_symop_operation_xyz
x,y,z
-x,-y,-z
loop_
_atom_site_type_symbol
_atom_site_label
_atom_site_fract_x
_atom_site_fract_y
_atom_site_fract_z
Si Si1 0.526738 0.069852 0.373545
Si Si2 0.611579 0.568895 0.677064
Si Si3 0.121609 0.099155 0.409068
Si Si4 0.978668 0.332279 0.515416
Si Si5 0.633386 0.319150 0.498587
Si Si6 0.655568 0.951028 0.798527
Si Si7 0.275920 0.293717 0.956519
Si Si8 0.889402 0.201925 0.202454
O O1 0.506334 0.115820 0.529064
O O2 0.500000 0.000000 0.500000
O O3 0.330740 0.279498 0.118462
O O4 0.768272 0.880394 0.334759
O O5 0.774922 0.496838 0.601806
O O6 0.549677 0.579673 0.539665
O O7 0.365832 0.827387 0.618309
O O8 0.750717 0.380203 0.937831
O O9 0.995266 0.238569 0.506581
O O10 0.949313 0.202221 0.312270
O O11 0.164320 0.142258 0.202816
O O12 0.926808 0.462783 0.277536
O O13 0.500000 0.500000 0.500000
O O14 0.718442 0.289346 0.296327
O O15 0.867521 0.060207 0.732410
O O16 0.502755 0.086967 0.916835
O O17 0.796147 0.735060 0.936530
#
# Coordination Sequence:
#
# PCOD8005631 Si02
#       8
#     2   2   2   2   2   2   2   2
#     4   9  21  37  56  86 116 154 214 260 308 375
#     4  11  23  39  61  92 126 153 206 251 294 381
#     4  10  22  39  57  87 126 153 208 256 301 366
#     4  11  23  38  62  88 119 169 210 252 320 368
#     4  10  22  42  65  92 125 153 200 244 296 374
#     4   9  19  38  59  84 122 160 207 271 303 363
#     4  10  20  39  61  83 124 163 211 269 314 356
#     4  10  23  40  64  92 121 165 191 243 319 355
#
# _framework density 22.017956999999999
#
# number of rings (size 3 to 8) (size 9 to 14) (size 15 to 20)
#    0.000    2.000    1.250    1.125    1.750    8.000 
#    0.000    6.875    0.000    0.000    0.000    0.000 
#    0.000    0.000    0.000    0.000    0.000    0.000 
#
# Total GULP energy -198249.384004 kJ/mol
# GULP energy per Si atom -12390.586500 kJ/mol
# Density = 2.196784 g / cm^3
# Si number density = 22.017957 Si / 1000 Ang^3
#
#
#
# Elastic Constant Matrix: (Units=GPa)
#
#
# Indices 1 2 3 4 5 6 
#
# 1 74.8599 17.4567 8.3715 -8.3462 -10.9346 -2.7115
# 2 17.4567 51.8817 16.9528 -7.8140 -4.1224 -1.3574
# 3 8.3715 16.9528 112.8220 -14.2850 -12.1291 2.5321
# 4 -8.3462 -7.8140 -14.2850 31.2913 2.2544 -10.6972
# 5 -10.9346 -4.1224 -12.1291 2.2544 23.8360 2.8260
# 6 -2.7115 -1.3574 2.5321 -10.6972 2.8260 46.5919
#
#
#
# Elastic Compliance Matrix: (Units=1/GPa)
#
#
# Indices 1 2 3 4 5 6 
#
# 1 0.015646 -0.004432 0.000565 0.003256 0.006258 0.001119
# 2 -0.004432 0.022192 -0.002575 0.003652 -0.000013 0.001368
# 3 0.000565 -0.002575 0.010192 0.003826 0.004638 0.000001
# 4 0.003256 0.003652 0.003826 0.038605 -0.000645 0.008991
# 5 0.006258 -0.000013 0.004638 -0.000645 0.047589 -0.002923
# 6 0.001119 0.001368 0.000001 0.008991 -0.002923 0.023809
#
#
# Mechanical properties :
#
#
# Convention : Reuss Voigt Hill
#
# Bulk Modulus (GPa) = 28.45371 36.12507 32.28939
# Shear Modulus (GPa) = 27.37710 33.46268 30.41989
#
# Velocity S-wave (km/s) = 3.53001 3.90268 3.72101
# Velocity P-wave (km/s) = 5.43743 6.06223 5.75831
#
# Compressibility (1/GPa) = 0.03514481
#
# Stress axis : x y z
#
# Youngs Moduli (GPa) = 63.91293 45.06057 98.11959
#
# Poissons Ratio (x) = 0.19972 -0.05543
# Poissons Ratio (y) = 0.28328 0.25270
# Poissons Ratio (z) = -0.03611 0.11605
#
# Static dielectric constant tensor:
#      x y z
#    x 2.904750 -0.493320 -0.049100 
#    y -0.493320 3.773090 -0.038290 
#    z -0.049100 -0.038290 4.052040 
# 
# 
# High freq. dielectric constant tensor:
#      x y z
#    x 1.876840 -0.010690 -0.013800 
#    y -0.010690 1.864180 -0.001780 
#    z -0.013800 -0.001780 1.850400 
# 
# From -- ./inp_files/337585.got.cif
#   From: 2010.06.25/outbox.cif.g09.slc.cpg/sg2_169_cif.got.tgz:337585.got - 2010.06.27 13:26:56.
