data_PCOD8005134
_publ_section_title
;
Structure prediction by ZEFSAII (Michael W. Deem and Ramdas Pophale) SiO2 
 PCOD8005134
Probable space group: P -1
;
_chemical_formula_sum "Si O2"
_cell_formula_units_Z 14
_cell_length_a 11.352048
_cell_length_b 15.539453
_cell_length_c 15.612297
_cell_angle_alpha 161.844680
_cell_angle_beta 129.853316
_cell_angle_gamma 48.172999
_cell_volume 639.162006
_symmetry_space_group_name_H-M "P -1"
_symmetry_group_IT_number 2
_symmetry_cell_setting 'triclinic'
loop_
_space_group_symop_operation_xyz
x,y,z
-x,-y,-z
loop_
_atom_site_type_symbol
_atom_site_label
_atom_site_fract_x
_atom_site_fract_y
_atom_site_fract_z
Si Si1 0.810867 0.371211 0.224355
Si Si2 0.180349 0.982059 0.387177
Si Si3 0.820148 0.258149 0.493091
Si Si4 0.672848 0.525354 0.129997
Si Si5 0.172853 0.208060 0.234884
Si Si6 0.317732 0.137634 0.056954
Si Si7 0.116424 0.707755 0.261745
O O1 0.693140 0.534262 0.250151
O O2 0.759222 0.550308 0.457294
O O3 0.991457 0.359581 0.270814
O O4 0.802824 0.047565 0.927494
O O5 0.300575 0.187923 0.631666
O O6 0.008298 0.196888 0.511036
O O7 0.217106 0.759703 0.274910
O O8 0.200327 0.765030 0.112162
O O9 0.725497 0.520564 0.641328
O O10 0.772677 0.350091 0.656772
O O11 0.771399 0.977717 0.171571
O O12 0.500000 0.500000 0.000000
O O13 0.265344 0.069334 0.062288
O O14 0.500000 0.000000 0.000000
O O15 0.000000 0.000000 0.500000
O O16 0.000000 0.500000 0.000000
#
# Coordination Sequence:
#
# PCOD8005134 Si02
#       7
#     2   2   2   2   2   2   2
#     4  10  21  40  66  92 120 169 222 275 314 389
#     4  11  22  41  68  94 129 176 222 268 320 393
#     4  11  22  41  68  92 127 175 219 269 318 394
#     4  12  25  42  62  99 138 171 219 275 347 400
#     4  10  21  40  66  91 122 164 226 271 321 383
#     4  12  25  42  62  98 136 167 217 273 348 402
#     4  10  20  38  64  98 126 157 220 267 313 387
#
# _framework density 21.903680000000001
#
# number of rings (size 3 to 8) (size 9 to 14) (size 15 to 20)
#    0.000    1.143    0.000    8.571    0.000    2.286 
#    7.714    0.000    0.000    0.000    0.000    0.000 
#    0.000    0.000    0.000    0.000    0.000    0.000 
#
# Total GULP energy -173526.591324 kJ/mol
# GULP energy per Si atom -12394.756523 kJ/mol
# Density = 2.185383 g / cm^3
# Si number density = 21.903680 Si / 1000 Ang^3
#
#
#
# Elastic Constant Matrix: (Units=GPa)
#
#
# Indices 1 2 3 4 5 6 
#
# 1 84.7804 48.6688 30.2825 -11.6199 -0.9720 8.2921
# 2 48.6688 111.4751 33.1108 -13.1100 5.4696 12.6969
# 3 30.2825 33.1108 133.1633 -5.8873 3.7689 8.5844
# 4 -11.6199 -13.1100 -5.8873 40.1210 5.5492 -0.9413
# 5 -0.9720 5.4696 3.7689 5.5492 39.0538 2.0754
# 6 8.2921 12.6969 8.5844 -0.9413 2.0754 24.4586
#
#
#
# Elastic Compliance Matrix: (Units=1/GPa)
#
#
# Indices 1 2 3 4 5 6 
#
# 1 0.016599 -0.006243 -0.002050 0.002254 0.001255 -0.001687
# 2 -0.006243 0.012923 -0.001384 0.002394 -0.001967 -0.003848
# 3 -0.002050 -0.001384 0.008444 0.000245 -0.000628 -0.001488
# 4 0.002254 0.002394 0.000245 0.026945 -0.004094 -0.000708
# 5 0.001255 -0.001967 -0.000628 -0.004094 0.026640 -0.001602
# 6 -0.001687 -0.003848 -0.001488 -0.000708 -0.001602 0.044086
#
#
# Mechanical properties :
#
#
# Convention : Reuss Voigt Hill
#
# Bulk Modulus (GPa) = 53.72285 61.50479 57.61382
# Shear Modulus (GPa) = 31.01829 35.21711 33.11770
#
# Velocity S-wave (km/s) = 3.76722 4.01411 3.89262
# Velocity P-wave (km/s) = 6.59566 7.04448 6.82376
#
# Compressibility (1/GPa) = 0.01861405
#
# Stress axis : x y z
#
# Youngs Moduli (GPa) = 60.24388 77.37874 118.42183
#
# Poissons Ratio (x) = 0.48304 0.24273
# Poissons Ratio (y) = 0.37607 0.16392
# Poissons Ratio (z) = 0.12348 0.10711
#
# Static dielectric constant tensor:
#      x y z
#    x 3.202230 -0.509800 0.012780 
#    y -0.509800 2.938580 0.062950 
#    z 0.012780 0.062950 4.069030 
# 
# 
# High freq. dielectric constant tensor:
#      x y z
#    x 1.841840 0.020200 -0.008490 
#    y 0.020200 1.853660 0.002320 
#    z -0.008490 0.002320 1.884500 
# 
# From -- ./inp_files/439615.got.cif
#   From: 2010.06.25/outbox.cif.g09.slc.cpg/sg2_220_cif.got.tgz:439615.got - 2010.06.27 13:26:56.
