data_PCOD8005087
_publ_section_title
;
Structure prediction by ZEFSAII (Michael W. Deem and Ramdas Pophale) SiO2 
 PCOD8005087
Probable space group: P -1
;
_chemical_formula_sum "Si O2"
_cell_formula_units_Z 16
_cell_length_a 11.730084
_cell_length_b 9.096921
_cell_length_c 20.780922
_cell_angle_alpha 149.558317
_cell_angle_beta 138.345187
_cell_angle_gamma 51.399098
_cell_volume 745.378715
_symmetry_space_group_name_H-M "P -1"
_symmetry_group_IT_number 2
_symmetry_cell_setting 'triclinic'
loop_
_space_group_symop_operation_xyz
x,y,z
-x,-y,-z
loop_
_atom_site_type_symbol
_atom_site_label
_atom_site_fract_x
_atom_site_fract_y
_atom_site_fract_z
Si Si1 0.314560 0.784706 0.011843
Si Si2 0.078919 0.814632 0.672505
Si Si3 0.481212 0.175166 0.659457
Si Si4 0.253053 0.856750 0.344074
Si Si5 0.644257 0.230730 0.124363
Si Si6 0.690378 0.628995 0.713772
Si Si7 0.282846 0.152294 0.777850
Si Si8 0.646615 0.239635 0.442912
O O1 0.301450 0.834527 0.949568
O O2 0.213529 0.477371 0.872780
O O3 0.513113 0.796783 0.119163
O O4 0.230944 0.044531 0.114641
O O5 0.178174 0.777431 0.766198
O O6 0.000000 0.500000 0.500000
O O7 0.216738 0.949304 0.730859
O O8 0.939779 0.053018 0.713057
O O9 0.669796 0.191148 0.712657
O O10 0.440438 0.463200 0.789040
O O11 0.349651 0.120855 0.523917
O O12 0.468446 0.920021 0.609930
O O13 0.265465 0.560689 0.277477
O O14 0.500000 0.000000 0.000000
O O15 0.763148 0.490898 0.625681
O O16 0.482460 0.628476 0.613910
O O17 0.229997 0.978410 0.623645
#
# Coordination Sequence:
#
# PCOD8005087 Si02
#       8
#     2   2   2   2   2   2   2   2
#     4  10  20  39  66  99 128 177 226 270 332 408
#     4  12  26  43  65 101 138 176 229 286 335 391
#     4  10  20  38  64  93 127 177 225 270 329 401
#     4  10  22  40  62  92 135 173 222 282 331 389
#     4  12  22  39  67  99 130 180 227 270 336 406
#     4   9  19  35  59  93 128 166 215 269 328 392
#     4  10  21  39  67  95 134 171 225 278 332 395
#     4   9  18  35  64  96 124 169 229 275 319 399
#
# _framework density 21.465598
#
# number of rings (size 3 to 8) (size 9 to 14) (size 15 to 20)
#    0.000    1.750    3.750    0.750    1.750    3.000 
#    0.000   10.000    0.000    0.000    0.000    0.000 
#    0.000    0.000    0.000    0.000    0.000    0.000 
#
# Total GULP energy -198272.003933 kJ/mol
# GULP energy per Si atom -12392.000246 kJ/mol
# Density = 2.141674 g / cm^3
# Si number density = 21.465598 Si / 1000 Ang^3
#
#
#
# Elastic Constant Matrix: (Units=GPa)
#
#
# Indices 1 2 3 4 5 6 
#
# 1 55.6584 20.3617 28.5005 7.2463 -26.5377 0.8894
# 2 20.3617 94.9174 40.0856 14.6917 -12.8744 -1.0348
# 3 28.5005 40.0856 124.3401 29.0002 -37.9197 -2.7247
# 4 7.2463 14.6917 29.0002 39.8300 -3.4719 -1.3952
# 5 -26.5377 -12.8744 -37.9197 -3.4719 40.0230 0.4705
# 6 0.8894 -1.0348 -2.7247 -1.3952 0.4705 28.9714
#
#
#
# Elastic Compliance Matrix: (Units=1/GPa)
#
#
# Indices 1 2 3 4 5 6 
#
# 1 0.027684 -0.003447 0.000836 -0.002868 0.017806 -0.001322
# 2 -0.003447 0.012768 -0.003384 -0.001746 -0.001538 0.000185
# 3 0.000836 -0.003384 0.014859 -0.008586 0.012792 0.000630
# 4 -0.002868 -0.001746 -0.008586 0.031871 -0.007844 0.000880
# 5 0.017806 -0.001538 0.012792 -0.007844 0.047743 -0.000552
# 6 -0.001322 0.000185 0.000630 0.000880 -0.000552 0.034675
#
#
# Mechanical properties :
#
#
# Convention : Reuss Voigt Hill
#
# Bulk Modulus (GPa) = 23.08345 50.31239 36.69792
# Shear Modulus (GPa) = 25.50631 34.16277 29.83454
#
# Velocity S-wave (km/s) = 3.45083 3.99370 3.73215
# Velocity P-wave (km/s) = 5.16281 6.68997 5.97538
#
# Compressibility (1/GPa) = 0.04332108
#
# Stress axis : x y z
#
# Youngs Moduli (GPa) = 36.12160 78.32288 67.29889
#
# Poissons Ratio (x) = 0.26999 -0.05626
# Poissons Ratio (y) = 0.12452 0.22772
# Poissons Ratio (z) = -0.03020 0.26503
#
# Static dielectric constant tensor:
#      x y z
#    x 3.634340 0.008600 -0.355870 
#    y 0.008600 4.061970 0.502300 
#    z -0.355870 0.502300 4.173250 
# 
# 
# High freq. dielectric constant tensor:
#      x y z
#    x 1.816950 0.012800 -0.031480 
#    y 0.012800 1.844960 0.022670 
#    z -0.031480 0.022670 1.843900 
# 
# From -- ./inp_files/504552.got.cif
#   From: 2010.06.25/outbox.cif.g09.slc.cpg/sg2_253_cif.got.tgz:504552.got - 2010.06.27 13:26:56.
