data_PCOD8005580
_publ_section_title
;
Structure prediction by ZEFSAII (Michael W. Deem and Ramdas Pophale) SiO2 
 PCOD8005580
Probable space group: P -1
;
_chemical_formula_sum "Si O2"
_cell_formula_units_Z 16
_cell_length_a 11.956433
_cell_length_b 8.684631
_cell_length_c 9.885869
_cell_angle_alpha 120.317804
_cell_angle_beta 59.921568
_cell_angle_gamma 108.690797
_cell_volume 763.672489
_symmetry_space_group_name_H-M "P -1"
_symmetry_group_IT_number 2
_symmetry_cell_setting 'triclinic'
loop_
_space_group_symop_operation_xyz
x,y,z
-x,-y,-z
loop_
_atom_site_type_symbol
_atom_site_label
_atom_site_fract_x
_atom_site_fract_y
_atom_site_fract_z
Si Si1 0.388179 0.473988 0.165529
Si Si2 0.165635 0.324367 0.800022
Si Si3 0.862636 0.472598 0.820948
Si Si4 0.144968 0.525185 0.640793
Si Si5 0.363668 0.773670 0.505200
Si Si6 0.272060 0.192296 0.288607
Si Si7 0.378240 0.106042 0.467000
Si Si8 0.060015 0.899805 0.293840
O O1 0.251102 0.526236 0.217279
O O2 0.427031 0.607498 0.324315
O O3 0.370452 0.270424 0.145239
O O4 0.500000 0.500000 0.000000
O O5 0.143022 0.490506 0.788391
O O6 0.305370 0.256340 0.655200
O O7 0.053350 0.161805 0.771228
O O8 0.165574 0.392633 0.982167
O O9 0.869542 0.270668 0.776221
O O10 0.996449 0.545109 0.696842
O O11 0.231998 0.707393 0.634870
O O12 0.195286 0.353931 0.461847
O O13 0.467304 0.858888 0.588654
O O14 0.329078 0.913723 0.473736
O O15 0.351137 0.107434 0.324036
O O16 0.169515 0.038696 0.220341
O O17 0.000000 0.000000 0.500000
#
# Coordination Sequence:
#
# PCOD8005580 Si02
#       8
#     2   2   2   2   2   2   2   2
#     4  11  25  41  58  85 126 163 204 244 309 354
#     4  10  21  36  61  88 128 158 196 245 307 358
#     4  11  22  39  60  89 129 159 197 252 304 355
#     4   9  19  36  59  90 114 153 203 248 305 355
#     4  10  22  37  61  88 117 157 208 255 294 363
#     4  10  21  38  62  89 115 159 208 250 293 366
#     4  10  20  39  60  87 117 157 205 252 299 353
#     4  11  18  37  64  95 119 152 206 248 298 360
#
# _framework density 20.95139
#
# number of rings (size 3 to 8) (size 9 to 14) (size 15 to 20)
#    0.000    1.750    3.750    3.000    0.000    8.500 
#    0.000   11.250    0.000    0.000    0.000    0.000 
#    0.000    0.000    0.000    0.000    0.000    0.000 
#
# Total GULP energy -198396.837197 kJ/mol
# GULP energy per Si atom -12399.802325 kJ/mol
# Density = 2.090370 g / cm^3
# Si number density = 20.951390 Si / 1000 Ang^3
#
#
#
# Elastic Constant Matrix: (Units=GPa)
#
#
# Indices 1 2 3 4 5 6 
#
# 1 95.0053 45.0733 7.9143 -14.4690 -8.7236 6.3757
# 2 45.0733 145.6995 26.0329 -24.6531 -5.4627 20.3381
# 3 7.9143 26.0329 49.3445 -11.3222 1.1759 10.8360
# 4 -14.4690 -24.6531 -11.3222 36.2760 8.8169 -6.5666
# 5 -8.7236 -5.4627 1.1759 8.8169 28.2098 -0.8063
# 6 6.3757 20.3381 10.8360 -6.5666 -0.8063 30.8337
#
#
#
# Elastic Compliance Matrix: (Units=1/GPa)
#
#
# Indices 1 2 3 4 5 6 
#
# 1 0.012741 -0.003543 0.000224 0.002144 0.002579 0.000148
# 2 -0.003543 0.009598 -0.002810 0.003624 -0.000362 -0.003849
# 3 0.000224 -0.002810 0.024309 0.005570 -0.003390 -0.005638
# 4 0.002144 0.003624 0.005570 0.035479 -0.009885 0.002506
# 5 0.002579 -0.000362 -0.003390 -0.009885 0.039402 -0.000177
# 6 0.000148 -0.003849 -0.005638 0.002506 -0.000177 0.037451
#
#
# Mechanical properties :
#
#
# Convention : Reuss Voigt Hill
#
# Bulk Modulus (GPa) = 29.07794 49.78781 39.43287
# Shear Modulus (GPa) = 27.36682 33.13249 30.24965
#
# Velocity S-wave (km/s) = 3.61807 3.98099 3.80386
# Velocity P-wave (km/s) = 5.60025 6.70419 6.17693
#
# Compressibility (1/GPa) = 0.03439033
#
# Stress axis : x y z
#
# Youngs Moduli (GPa) = 78.48506 104.18382 41.13627
#
# Poissons Ratio (x) = 0.36909 -0.00920
# Poissons Ratio (y) = 0.27805 0.11560
# Poissons Ratio (z) = -0.01754 0.29278
#
# Static dielectric constant tensor:
#      x y z
#    x 3.806640 0.155260 -0.014910 
#    y 0.155260 4.206500 -0.145260 
#    z -0.014910 -0.145260 3.533170 
# 
# 
# High freq. dielectric constant tensor:
#      x y z
#    x 1.824770 0.010890 -0.000640 
#    y 0.010890 1.826050 -0.002040 
#    z -0.000640 -0.002040 1.795120 
# 
# From -- ./inp_files/245369.got.cif
#   From: 2010.06.25/outbox.cif.g09.slc.cpg/sg2_123_cif.got.tgz:245369.got - 2010.06.27 13:26:56.
