data_PCOD8005816
_publ_section_title
;
Structure prediction by ZEFSAII (Michael W. Deem and Ramdas Pophale) SiO2 
 PCOD8005816
Probable space group: P -1
;
_chemical_formula_sum "Si O2"
_cell_formula_units_Z 16
_cell_length_a 10.140546
_cell_length_b 21.073746
_cell_length_c 8.137073
_cell_angle_alpha 123.447801
_cell_angle_beta 42.170824
_cell_angle_gamma 141.552926
_cell_volume 724.085681
_symmetry_space_group_name_H-M "P -1"
_symmetry_group_IT_number 2
_symmetry_cell_setting 'triclinic'
loop_
_space_group_symop_operation_xyz
x,y,z
-x,-y,-z
loop_
_atom_site_type_symbol
_atom_site_label
_atom_site_fract_x
_atom_site_fract_y
_atom_site_fract_z
Si Si1 0.698914 0.638359 0.860889
Si Si2 0.781164 0.826239 0.057992
Si Si3 0.758278 0.081450 0.482104
Si Si4 0.150861 0.408004 0.034357
Si Si5 0.984182 0.983928 0.679336
Si Si6 0.438991 0.811346 0.100977
Si Si7 0.322286 0.381418 0.515932
Si Si8 0.211733 0.608105 0.869309
O O1 0.661859 0.715218 0.072318
O O2 0.413574 0.526226 0.963763
O O3 0.819310 0.666744 0.602517
O O4 0.885599 0.643980 0.830893
O O5 0.981065 0.850781 0.769250
O O6 0.553894 0.822990 0.192898
O O7 0.946083 0.916430 0.165351
O O8 0.732194 0.155921 0.701916
O O9 0.797443 0.023512 0.492232
O O10 0.500000 0.000000 0.500000
O O11 0.146379 0.349078 0.796108
O O12 0.901090 0.399395 0.218964
O O13 0.687658 0.882375 0.851263
O O14 0.000000 0.000000 0.500000
O O15 0.241339 0.692622 0.067372
O O16 0.500000 0.500000 0.500000
O O17 0.502515 0.355425 0.355030
O O18 0.000000 0.500000 0.000000
#
# Coordination Sequence:
#
# PCOD8005816 Si02
#       8
#     2   2   2   2   2   2   2   2
#     4  10  21  41  64  93 129 172 217 260 327 381
#     4  11  21  41  66  91 128 165 215 267 321 389
#     4  11  21  42  67  89 119 165 216 259 315 389
#     4  10  23  41  62  93 135 169 214 273 312 383
#     4  11  25  43  64  92 134 163 207 276 331 374
#     4  11  23  40  67  95 123 173 215 262 322 390
#     4  10  20  39  63  85 128 172 209 256 323 372
#     4  12  22  39  65  97 129 165 221 264 314 393
#
# _framework density 22.096833
#
# number of rings (size 3 to 8) (size 9 to 14) (size 15 to 20)
#    0.000    1.250    6.250    0.750    1.750    2.500 
#    2.250    8.125    0.000    0.000    0.000    0.000 
#    0.000    0.000    0.000    0.000    0.000    0.000 
#
# Total GULP energy -198259.501428 kJ/mol
# GULP energy per Si atom -12391.218839 kJ/mol
# Density = 2.204654 g / cm^3
# Si number density = 22.096833 Si / 1000 Ang^3
#
#
#
# Elastic Constant Matrix: (Units=GPa)
#
#
# Indices 1 2 3 4 5 6 
#
# 1 195.5496 33.8477 65.1150 7.1275 5.4459 -6.8150
# 2 33.8477 111.3278 33.4147 33.6061 8.8883 -6.4081
# 3 65.1150 33.4147 74.3004 18.0588 -5.9898 -9.8582
# 4 7.1275 33.6061 18.0588 28.0986 -3.8286 -8.9876
# 5 5.4459 8.8883 -5.9898 -3.8286 36.6562 6.7455
# 6 -6.8150 -6.4081 -9.8582 -8.9876 6.7455 27.4990
#
#
#
# Elastic Compliance Matrix: (Units=1/GPa)
#
#
# Indices 1 2 3 4 5 6 
#
# 1 0.007649 -0.001253 -0.007192 0.004210 -0.001720 0.000823
# 2 -0.001253 0.016088 -0.002283 -0.018924 -0.005664 -0.002176
# 3 -0.007192 -0.002283 0.023693 -0.009445 0.004124 0.002081
# 4 0.004210 -0.018924 -0.009445 0.068647 0.007021 0.013961
# 5 -0.001720 -0.005664 0.004124 0.007021 0.031359 -0.005665
# 6 0.000823 -0.002176 0.002081 0.013961 -0.005665 0.042761
#
#
# Mechanical properties :
#
#
# Convention : Reuss Voigt Hill
#
# Bulk Modulus (GPa) = 38.50091 71.77030 55.13560
# Shear Modulus (GPa) = 22.69524 35.03746 28.86635
#
# Velocity S-wave (km/s) = 3.20829 3.98632 3.61828
# Velocity P-wave (km/s) = 5.58442 7.33063 6.51628
#
# Compressibility (1/GPa) = 0.02597341
#
# Stress axis : x y z
#
# Youngs Moduli (GPa) = 130.74131 62.15741 42.20679
#
# Poissons Ratio (x) = 0.07787 0.30356
# Poissons Ratio (y) = 0.16379 0.09636
# Poissons Ratio (z) = 0.94033 0.14191
#
# Static dielectric constant tensor:
#      x y z
#    x 4.403130 -0.146620 -0.207780 
#    y -0.146620 4.024210 0.253220 
#    z -0.207780 0.253220 2.445590 
# 
# 
# High freq. dielectric constant tensor:
#      x y z
#    x 1.878160 0.004070 -0.017980 
#    y 0.004070 1.880730 0.021050 
#    z -0.017980 0.021050 1.843240 
# 
# From -- ./inp_files/222296.got.cif
#   From: 2010.06.25/outbox.cif.g09.slc.cpg/sg2_112_cif.got.tgz:222296.got - 2010.06.27 13:26:56.
