data_PCOD8005620
_publ_section_title
;
Structure prediction by ZEFSAII (Michael W. Deem and Ramdas Pophale) SiO2 
 PCOD8005620
Probable space group: P -1
;
_chemical_formula_sum "Si O2"
_cell_formula_units_Z 16
_cell_length_a 13.369772
_cell_length_b 8.482114
_cell_length_c 19.045877
_cell_angle_alpha 134.211673
_cell_angle_beta 35.602644
_cell_angle_gamma 137.490323
_cell_volume 822.883785
_symmetry_space_group_name_H-M "P -1"
_symmetry_group_IT_number 2
_symmetry_cell_setting 'triclinic'
loop_
_space_group_symop_operation_xyz
x,y,z
-x,-y,-z
loop_
_atom_site_type_symbol
_atom_site_label
_atom_site_fract_x
_atom_site_fract_y
_atom_site_fract_z
Si Si1 0.083466 0.342276 0.723728
Si Si2 0.338033 0.774433 0.059235
Si Si3 0.565037 0.640254 0.164934
Si Si4 0.624022 0.213765 0.795361
Si Si5 0.365268 0.637358 0.415581
Si Si6 0.969762 0.728704 0.427134
Si Si7 0.634363 0.151422 0.266778
Si Si8 0.622621 0.855567 0.463656
O O1 0.106807 0.377198 0.638059
O O2 0.179839 0.612766 0.784878
O O3 0.186766 0.178985 0.641591
O O4 0.863996 0.213476 0.830769
O O5 0.397028 0.776936 0.106911
O O6 0.315482 0.520180 0.959103
O O7 0.500000 0.000000 0.000000
O O8 0.443610 0.602300 0.150391
O O9 0.432799 0.549126 0.279831
O O10 0.689215 0.931123 0.193824
O O11 0.836865 0.293184 0.674435
O O12 0.497183 0.940318 0.755900
O O13 0.174784 0.417960 0.476716
O O14 0.521784 0.693912 0.404169
O O15 0.315625 0.864717 0.500678
O O16 0.000000 0.000000 0.500000
O O17 0.517521 0.224183 0.414824
#
# Coordination Sequence:
#
# PCOD8005620 Si02
#       8
#     2   2   2   2   2   2   2   2
#     4  11  23  39  66  88 125 162 205 252 312 360
#     4  11  25  43  61  90 123 163 212 258 300 358
#     4   9  22  41  63  85 124 168 204 251 299 362
#     4   9  22  41  62  87 120 164 205 249 314 352
#     4  10  22  36  64  91 131 156 202 248 308 369
#     4  11  23  35  60  98 125 162 197 251 314 372
#     4   9  19  39  66  90 117 162 202 250 308 361
#     4  10  20  39  60  98 125 158 194 257 309 367
#
# _framework density 19.443816999999999
#
# number of rings (size 3 to 8) (size 9 to 14) (size 15 to 20)
#    0.750    1.250    1.250    1.500    5.250    2.000 
#    0.000    2.500    0.000    0.000    0.000    0.000 
#    0.000    0.000    0.000    0.000    0.000    0.000 
#
# Total GULP energy -198335.942679 kJ/mol
# GULP energy per Si atom -12395.996417 kJ/mol
# Density = 1.939956 g / cm^3
# Si number density = 19.443817 Si / 1000 Ang^3
#
#
#
# Elastic Constant Matrix: (Units=GPa)
#
#
# Indices 1 2 3 4 5 6 
#
# 1 78.1403 23.7823 46.7398 -4.8681 -1.5082 13.4444
# 2 23.7823 94.2344 45.0682 -10.6700 0.4295 11.9282
# 3 46.7398 45.0682 105.6202 -2.1420 -0.7028 -2.7590
# 4 -4.8681 -10.6700 -2.1420 32.8846 -5.1962 1.1654
# 5 -1.5082 0.4295 -0.7028 -5.1962 33.6737 2.2591
# 6 13.4444 11.9282 -2.7590 1.1654 2.2591 19.4054
#
#
#
# Elastic Compliance Matrix: (Units=1/GPa)
#
#
# Indices 1 2 3 4 5 6 
#
# 1 0.022611 0.002860 -0.011628 0.004653 0.002772 -0.019679
# 2 0.002860 0.016347 -0.008470 0.005913 0.001579 -0.013772
# 3 -0.011628 -0.008470 0.018559 -0.004118 -0.001758 0.016353
# 4 0.004653 0.005913 -0.004118 0.034055 0.005986 -0.010186
# 5 0.002772 0.001579 -0.001758 0.005986 0.031166 -0.007129
# 6 -0.019679 -0.013772 0.016353 -0.010186 -0.007129 0.077398
#
#
# Mechanical properties :
#
#
# Convention : Reuss Voigt Hill
#
# Bulk Modulus (GPa) = 43.39953 56.57505 49.98729
# Shear Modulus (GPa) = 20.63620 28.01972 24.32796
#
# Velocity S-wave (km/s) = 3.26133 3.80025 3.54106
# Velocity P-wave (km/s) = 6.04571 6.95814 6.51791
#
# Compressibility (1/GPa) = 0.02304172
#
# Stress axis : x y z
#
# Youngs Moduli (GPa) = 44.22550 61.17500 53.88096
#
# Poissons Ratio (x) = -0.17494 0.62650
# Poissons Ratio (y) = -0.12647 0.45636
# Poissons Ratio (z) = 0.51423 0.51814
#
# Static dielectric constant tensor:
#      x y z
#    x 3.710840 -0.040430 0.150740 
#    y -0.040430 3.369600 0.089990 
#    z 0.150740 0.089990 3.402960 
# 
# 
# High freq. dielectric constant tensor:
#      x y z
#    x 1.756380 0.000480 0.005940 
#    y 0.000480 1.752130 0.008730 
#    z 0.005940 0.008730 1.749130 
# 
# From -- ./inp_files/597244.got.cif
#   From: 2010.06.25/outbox.cif.g09.slc.cpg/sg2_299_cif.got.tgz:597244.got - 2010.06.27 13:26:56.
