data_PCOD8005515
_publ_section_title
;
Structure prediction by ZEFSAII (Michael W. Deem and Ramdas Pophale) SiO2 
 PCOD8005515
Probable space group: P -1
;
_chemical_formula_sum "Si O2"
_cell_formula_units_Z 16
_cell_length_a 9.562161
_cell_length_b 16.987740
_cell_length_c 6.709833
_cell_angle_alpha 74.441901
_cell_angle_beta 48.489426
_cell_angle_gamma 90.669397
_cell_volume 758.682557
_symmetry_space_group_name_H-M "P -1"
_symmetry_group_IT_number 2
_symmetry_cell_setting 'triclinic'
loop_
_space_group_symop_operation_xyz
x,y,z
-x,-y,-z
loop_
_atom_site_type_symbol
_atom_site_label
_atom_site_fract_x
_atom_site_fract_y
_atom_site_fract_z
Si Si1 0.114742 0.331030 0.124926
Si Si2 0.815100 0.063568 0.791834
Si Si3 0.740224 0.191806 0.500481
Si Si4 0.840754 0.388057 0.657848
Si Si5 0.067679 0.455846 0.778247
Si Si6 0.765717 0.919618 0.676675
Si Si7 0.710709 0.049416 0.328479
Si Si8 0.475731 0.262362 0.933541
O O1 0.960220 0.247733 0.251123
O O2 0.019435 0.368047 0.378327
O O3 0.170810 0.391665 0.834990
O O4 0.314730 0.312356 0.015036
O O5 0.698700 0.128107 0.774171
O O6 0.024401 0.094255 0.468817
O O7 0.704980 0.966223 0.897987
O O8 0.843434 0.072173 0.994083
O O9 0.704991 0.138321 0.369209
O O10 0.586744 0.248987 0.632064
O O11 0.796408 0.471593 0.539718
O O12 0.642098 0.313800 0.891210
O O13 0.896313 0.404073 0.827616
O O14 0.000000 0.500000 0.000000
O O15 0.795970 0.988482 0.425977
O O16 0.620497 0.830167 0.820063
O O17 0.500000 0.000000 0.500000
#
# Coordination Sequence:
#
# PCOD8005515 Si02
#       8
#     2   2   2   2   2   2   2   2
#     4  10  21  39  61  92 123 159 195 244 302 359
#     4  10  20  39  59  77 118 161 208 251 297 349
#     4  10  22  39  59  83 122 162 197 253 306 345
#     4   9  21  41  66  91 119 159 195 243 297 361
#     4   9  19  42  68  88 123 158 192 239 302 359
#     4  10  21  37  58  84 114 162 202 251 302 348
#     4  11  22  36  56  85 113 160 214 252 298 356
#     4  11  21  39  63  89 126 158 202 251 303 357
#
# _framework density 21.089189999999999
#
# number of rings (size 3 to 8) (size 9 to 14) (size 15 to 20)
#    0.000    2.000    1.250    1.875    0.000    5.500 
#    2.250   11.875    0.000    0.000    0.000    0.000 
#    0.000    0.000    0.000    0.000    0.000    0.000 
#
# Total GULP energy -198238.185092 kJ/mol
# GULP energy per Si atom -12389.886568 kJ/mol
# Density = 2.104119 g / cm^3
# Si number density = 21.089190 Si / 1000 Ang^3
#
#
#
# Elastic Constant Matrix: (Units=GPa)
#
#
# Indices 1 2 3 4 5 6 
#
# 1 97.4825 57.9367 42.0342 18.0518 -3.8895 8.2334
# 2 57.9367 123.8083 42.4425 6.0695 0.5804 20.2507
# 3 42.0342 42.4425 72.9339 11.8469 15.0171 4.0004
# 4 18.0518 6.0695 11.8469 22.4251 9.1326 -1.4278
# 5 -3.8895 0.5804 15.0171 9.1326 37.4027 5.2039
# 6 8.2334 20.2507 4.0004 -1.4278 5.2039 43.7372
#
#
#
# Elastic Compliance Matrix: (Units=1/GPa)
#
#
# Indices 1 2 3 4 5 6 
#
# 1 0.020267 -0.005864 -0.007678 -0.014499 0.009093 -0.001953
# 2 -0.005864 0.012987 -0.004607 0.002970 0.000939 -0.004503
# 3 -0.007678 -0.004607 0.022816 -0.000306 -0.010188 0.002693
# 4 -0.014499 0.002970 -0.000306 0.063151 -0.017621 0.005540
# 5 0.009093 0.000939 -0.010188 -0.017621 0.036920 -0.006183
# 6 -0.001953 -0.004503 0.002693 0.005540 -0.006183 0.025986
#
#
# Mechanical properties :
#
#
# Convention : Reuss Voigt Hill
#
# Bulk Modulus (GPa) = 50.57532 64.33907 57.45719
# Shear Modulus (GPa) = 22.22066 30.83377 26.52721
#
# Velocity S-wave (km/s) = 3.24952 3.82784 3.55048
# Velocity P-wave (km/s) = 6.17356 7.07890 6.64168
#
# Compressibility (1/GPa) = 0.01977249
#
# Stress axis : x y z
#
# Youngs Moduli (GPa) = 49.34150 77.00072 43.82818
#
# Poissons Ratio (x) = 0.45156 0.33651
# Poissons Ratio (y) = 0.28936 0.20190
# Poissons Ratio (z) = 0.37884 0.35471
#
# Static dielectric constant tensor:
#      x y z
#    x 2.989470 -0.077500 -0.565940 
#    y -0.077500 4.223290 -0.114720 
#    z -0.565940 -0.114720 3.044440 
# 
# 
# High freq. dielectric constant tensor:
#      x y z
#    x 1.819700 0.005680 0.001740 
#    y 0.005680 1.843950 -0.001070 
#    z 0.001740 -0.001070 1.804160 
# 
# From -- ./inp_files/44069.got.cif
#   From: 2010.06.25/outbox.cif.g09.slc.cpg/sg2_23_cif.got.tgz:44069.got - 2010.06.27 13:26:56.
