data_PCOD8005256
_publ_section_title
;
Structure prediction by ZEFSAII (Michael W. Deem and Ramdas Pophale) SiO2 
 PCOD8005256
Probable space group: P -1
;
_chemical_formula_sum "Si O2"
_cell_formula_units_Z 16
_cell_length_a 16.209386
_cell_length_b 24.049083
_cell_length_c 26.843703
_cell_angle_alpha 169.715677
_cell_angle_beta 24.804875
_cell_angle_gamma 154.708432
_cell_volume 775.290362
_symmetry_space_group_name_H-M "P -1"
_symmetry_group_IT_number 2
_symmetry_cell_setting 'triclinic'
loop_
_space_group_symop_operation_xyz
x,y,z
-x,-y,-z
loop_
_atom_site_type_symbol
_atom_site_label
_atom_site_fract_x
_atom_site_fract_y
_atom_site_fract_z
Si Si1 0.851369 0.814057 0.866712
Si Si2 0.008211 0.103786 0.311076
Si Si3 0.630731 0.716180 0.578693
Si Si4 0.305690 0.640504 0.357756
Si Si5 0.733590 0.258629 0.388458
Si Si6 0.479675 0.864170 0.252333
Si Si7 0.467981 0.212306 0.157181
Si Si8 0.047733 0.640536 0.323657
O O1 0.762991 0.585707 0.758310
O O2 0.765867 0.641287 0.710208
O O3 0.090776 0.862251 0.779764
O O4 0.764821 0.143108 0.212753
O O5 0.889397 0.283162 0.495281
O O6 0.951714 0.202530 0.484197
O O7 0.239454 0.216926 0.274557
O O8 0.958244 0.733404 0.001201
O O9 0.500000 0.500000 0.500000
O O10 0.573716 0.568879 0.425366
O O11 0.863281 0.725894 0.468608
O O12 0.574059 0.069539 0.925870
O O13 0.434037 0.963756 0.592478
O O14 0.435030 0.464337 0.092794
O O15 0.529013 0.097584 0.383318
O O16 0.243428 0.795082 0.323810
O O17 0.500000 0.000000 0.000000
#
# Coordination Sequence:
#
# PCOD8005256 Si02
#       8
#     2   2   2   2   2   2   2   2
#     4   8  14  27  46  61  77 106 140 176 213 237
#     4  12  21  30  46  62  84 121 148 172 211 251
#     4  10  16  30  46  61  76 101 140 192 219 236
#     4  10  21  33  42  62  92 117 146 175 198 251
#     4   8  14  27  46  61  77 106 140 176 213 237
#     4  10  21  33  42  62  92 117 146 175 198 251
#     4  10  16  30  46  61  76 101 140 192 219 236
#     4  12  21  30  46  62  84 121 148 172 211 251
#
# _framework density 20.637429999999998
#
# number of rings (size 3 to 8) (size 9 to 14) (size 15 to 20)
#    0.000    2.000    5.000    1.500    0.000    3.000 
#    0.000    0.000    0.000    0.000    0.000    0.000 
#    0.000    2.000    0.000    0.000    0.000    4.500 
#
# Total GULP energy -198248.852901 kJ/mol
# GULP energy per Si atom -12390.553306 kJ/mol
# Density = 2.059046 g / cm^3
# Si number density = 20.637430 Si / 1000 Ang^3
#
#
#
# Elastic Constant Matrix: (Units=GPa)
#
#
# Indices 1 2 3 4 5 6 
#
# 1 34.2829 29.9665 40.9598 -3.6922 15.6062 19.7779
# 2 29.9665 103.8948 33.0393 -23.5501 -2.3496 30.6774
# 3 40.9598 33.0393 147.4042 -15.7330 56.6834 10.3891
# 4 -3.6922 -23.5501 -15.7330 22.1784 6.3884 -1.9904
# 5 15.6062 -2.3496 56.6834 6.3884 38.3753 -0.0651
# 6 19.7779 30.6774 10.3891 -1.9904 -0.0651 23.1133
#
#
#
# Elastic Compliance Matrix: (Units=1/GPa)
#
#
# Indices 1 2 3 4 5 6 
#
# 1 0.104858 -0.000676 -0.012285 0.008101 -0.026028 -0.082683
# 2 -0.000676 0.023330 0.000986 0.023864 -0.003775 -0.028786
# 3 -0.012285 0.000986 0.033946 0.037608 -0.051350 -0.002961
# 4 0.008101 0.023864 0.037608 0.116493 -0.076854 -0.045695
# 5 -0.026028 -0.003775 -0.051350 -0.076854 0.125130 0.044098
# 6 -0.082683 -0.028786 -0.002961 -0.045695 0.044098 0.149743
#
#
# Mechanical properties :
#
#
# Convention : Reuss Voigt Hill
#
# Bulk Modulus (GPa) = 7.23667 54.83478 31.03573
# Shear Modulus (GPa) = 8.01912 28.84115 18.43013
#
# Velocity S-wave (km/s) = 1.97336 3.74239 2.99163
# Velocity P-wave (km/s) = 2.95066 6.73069 5.19657
#
# Compressibility (1/GPa) = 0.13818514
#
# Stress axis : x y z
#
# Youngs Moduli (GPa) = 9.53668 42.86327 29.45869
#
# Poissons Ratio (x) = 0.02897 0.36189
# Poissons Ratio (y) = 0.00644 -0.02905
# Poissons Ratio (z) = 0.11716 -0.04227
#
# Static dielectric constant tensor:
#      x y z
#    x 3.995590 0.303920 1.756520 
#    y 0.303920 3.609480 -0.023010 
#    z 1.756520 -0.023010 6.409120 
# 
# 
# High freq. dielectric constant tensor:
#      x y z
#    x 1.764890 0.023330 0.051130 
#    y 0.023330 1.787850 -0.008630 
#    z 0.051130 -0.008630 1.833480 
# 
# From -- ./inp_files/98902.got.cif
#   From: 2010.06.25/outbox.cif.g09.slc.cpg/sg2_50_cif.got.tgz:98902.got - 2010.06.27 13:26:56.
