data_PCOD8005387
_publ_section_title
;
Structure prediction by ZEFSAII (Michael W. Deem and Ramdas Pophale) SiO2 
 PCOD8005387
Probable space group: P -1
;
_chemical_formula_sum "Si O2"
_cell_formula_units_Z 16
_cell_length_a 12.361103
_cell_length_b 18.403232
_cell_length_c 10.263935
_cell_angle_alpha 27.821314
_cell_angle_beta 45.060138
_cell_angle_gamma 46.453495
_cell_volume 756.642688
_symmetry_space_group_name_H-M "P -1"
_symmetry_group_IT_number 2
_symmetry_cell_setting 'triclinic'
loop_
_space_group_symop_operation_xyz
x,y,z
-x,-y,-z
loop_
_atom_site_type_symbol
_atom_site_label
_atom_site_fract_x
_atom_site_fract_y
_atom_site_fract_z
Si Si1 0.145076 0.097728 0.563579
Si Si2 0.032201 0.608186 0.459402
Si Si3 0.181793 0.837911 0.137607
Si Si4 0.863045 0.552534 0.932074
Si Si5 0.396169 0.630252 0.470906
Si Si6 0.203888 0.291600 0.703249
Si Si7 0.168031 0.024668 0.358933
Si Si8 0.471089 0.826891 0.329345
O O1 0.201652 0.260516 0.289332
O O2 0.181154 0.055251 0.451486
O O3 0.963657 0.097504 0.746719
O O4 0.236889 0.967615 0.791909
O O5 0.141986 0.698258 0.304611
O O6 0.148144 0.477869 0.485222
O O7 0.929455 0.519543 0.782298
O O8 0.912461 0.736754 0.269653
O O9 0.325427 0.774985 0.208211
O O10 0.732364 0.449807 0.223056
O O11 0.000000 0.500000 0.000000
O O12 0.500000 0.500000 0.500000
O O13 0.488201 0.708494 0.378276
O O14 0.388212 0.257155 0.559954
O O15 0.196371 0.178843 0.012255
O O16 0.295345 0.861795 0.481224
O O17 0.000000 0.000000 0.500000
O O18 0.500000 0.000000 0.000000
#
# Coordination Sequence:
#
# PCOD8005387 Si02
#       8
#     2   2   2   2   2   2   2   2
#     4  10  21  37  66  92 129 160 217 280 314 381
#     4  10  20  38  68  91 128 168 223 270 328 388
#     4  10  21  40  64 101 126 166 222 275 328 384
#     4  11  22  40  68  98 126 165 228 275 317 396
#     4  12  25  43  70  95 134 177 217 270 339 393
#     4  10  22  40  63  90 130 174 212 269 333 392
#     4  11  22  37  66  93 126 172 223 260 329 393
#     4  10  25  42  62  95 134 171 215 268 328 393
#
# _framework density 21.146044
#
# number of rings (size 3 to 8) (size 9 to 14) (size 15 to 20)
#    0.000    1.500    2.500    3.000    5.250    5.000 
#    2.250    1.250    0.000    0.000    0.000    0.000 
#    0.000    0.000    0.000    0.000    0.000    0.000 
#
# Total GULP energy -198319.106358 kJ/mol
# GULP energy per Si atom -12394.944147 kJ/mol
# Density = 2.109791 g / cm^3
# Si number density = 21.146044 Si / 1000 Ang^3
#
#
#
# Elastic Constant Matrix: (Units=GPa)
#
#
# Indices 1 2 3 4 5 6 
#
# 1 71.7450 19.5902 19.3926 -4.4115 2.9970 -14.6325
# 2 19.5902 93.6208 12.9730 -0.9040 1.3732 -9.6269
# 3 19.3926 12.9730 101.5390 -7.9423 13.0314 -4.4098
# 4 -4.4115 -0.9040 -7.9423 26.8132 3.3244 4.8242
# 5 2.9970 1.3732 13.0314 3.3244 39.5324 -6.1064
# 6 -14.6325 -9.6269 -4.4098 4.8242 -6.1064 41.2590
#
#
#
# Elastic Compliance Matrix: (Units=1/GPa)
#
#
# Indices 1 2 3 4 5 6 
#
# 1 0.016367 -0.002565 -0.002561 0.000924 0.000369 0.004879
# 2 -0.002565 0.011534 -0.001022 -0.000723 0.000474 0.001827
# 3 -0.002561 -0.001022 0.011203 0.003516 -0.003904 -0.000938
# 4 0.000924 -0.000723 0.003516 0.040012 -0.005331 -0.004933
# 5 0.000369 0.000474 -0.003904 -0.005331 0.027689 0.004545
# 6 0.004879 0.001827 -0.000938 -0.004933 0.004545 0.027543
#
#
# Mechanical properties :
#
#
# Convention : Reuss Voigt Hill
#
# Bulk Modulus (GPa) = 37.30136 41.20181 39.25158
# Shear Modulus (GPa) = 32.13773 35.85085 33.99429
#
# Velocity S-wave (km/s) = 3.90269 4.12198 4.01383
# Velocity P-wave (km/s) = 6.16329 6.49469 6.33116
#
# Compressibility (1/GPa) = 0.02680867
#
# Stress axis : x y z
#
# Youngs Moduli (GPa) = 61.09695 86.70334 89.25839
#
# Poissons Ratio (x) = 0.22237 0.22863
# Poissons Ratio (y) = 0.15670 0.09120
# Poissons Ratio (z) = 0.15649 0.08859
#
# Static dielectric constant tensor:
#      x y z
#    x 3.937470 -0.215860 0.177320 
#    y -0.215860 4.185500 0.065200 
#    z 0.177320 0.065200 3.804080 
# 
# 
# High freq. dielectric constant tensor:
#      x y z
#    x 1.827690 0.003070 0.008500 
#    y 0.003070 1.834380 -0.011090 
#    z 0.008500 -0.011090 1.821980 
# 
# From -- ./inp_files/278642.got.cif
#   From: 2010.06.25/outbox.cif.g09.slc.cpg/sg2_140_cif.got.tgz:278642.got - 2010.06.27 13:26:56.
