data_PCOD8005040
_publ_section_title
;
Structure prediction by ZEFSAII (Michael W. Deem and Ramdas Pophale) SiO2 
 PCOD8005040
Probable space group: P -1
;
_chemical_formula_sum "Si O2"
_cell_formula_units_Z 16
_cell_length_a 25.142439
_cell_length_b 8.297840
_cell_length_c 5.072048
_cell_angle_alpha 99.707062
_cell_angle_beta 112.313184
_cell_angle_gamma 36.208735
_cell_volume 559.619278
_symmetry_space_group_name_H-M "P -1"
_symmetry_group_IT_number 2
_symmetry_cell_setting 'triclinic'
loop_
_space_group_symop_operation_xyz
x,y,z
-x,-y,-z
loop_
_atom_site_type_symbol
_atom_site_label
_atom_site_fract_x
_atom_site_fract_y
_atom_site_fract_z
Si Si1 0.998507 0.655198 0.852891
Si Si2 0.490721 0.844855 0.814723
Si Si3 0.146816 0.548133 0.272859
Si Si4 0.694807 0.772183 0.142352
Si Si5 0.303594 0.958850 0.152541
Si Si6 0.850731 0.910072 0.259485
Si Si7 0.226886 0.675282 0.178434
Si Si8 0.398619 0.503989 0.583182
O O1 0.074741 0.418631 0.701692
O O2 0.886636 0.933717 0.590725
O O3 0.033251 0.746520 0.081967
O O4 0.000000 0.500000 0.000000
O O5 0.552192 0.582954 0.059388
O O6 0.524439 0.758778 0.552041
O O7 0.500000 0.000000 0.000000
O O8 0.372306 0.078928 0.675854
O O9 0.190278 0.452088 0.626844
O O10 0.164494 0.685337 0.223181
O O11 0.206296 0.265156 0.170603
O O12 0.697704 0.590370 0.955017
O O13 0.644383 0.029691 0.936204
O O14 0.373823 0.736229 0.462901
O O15 0.262680 0.896368 0.887112
O O16 0.854731 0.024772 0.047423
O O17 0.300023 0.621389 0.471654
#
# Coordination Sequence:
#
# PCOD8005040 Si02
#       8
#     2   2   2   2   2   2   2   2
#     4  10  20  38  64  89 120 157 203 260 311 379
#     4  12  25  41  66  94 130 169 218 267 320 375
#     4  10  22  39  61  90 124 164 204 257 321 377
#     4  11  23  38  63  86 129 162 207 262 317 372
#     4   9  22  41  61  90 123 164 210 259 315 377
#     4   9  20  40  62  87 119 160 206 253 313 379
#     4  10  22  41  61  88 123 165 207 256 318 380
#     4  11  25  43  67  94 125 173 219 266 317 374
#
# _framework density 28.590865000000001
#
# number of rings (size 3 to 8) (size 9 to 14) (size 15 to 20)
#    0.000    1.750    1.250    1.875    5.250    3.500 
#    4.500    1.250    0.000    0.000    0.000    0.000 
#    0.000    0.000    0.000    0.000    0.000    0.000 
#
# Total GULP energy -198276.623121 kJ/mol
# GULP energy per Si atom -12392.288945 kJ/mol
# Density = 2.852579 g / cm^3
# Si number density = 28.590865 Si / 1000 Ang^3
#
#
#
# Elastic Constant Matrix: (Units=GPa)
#
#
# Indices 1 2 3 4 5 6 
#
# 1 55.1821 18.6014 -1.8401 -5.8192 -0.5393 12.4431
# 2 18.6014 61.1395 -10.0109 -16.3303 11.0861 18.6890
# 3 -1.8401 -10.0109 116.1772 -19.2130 8.2232 8.3814
# 4 -5.8192 -16.3303 -19.2130 33.5361 5.4541 0.3470
# 5 -0.5393 11.0861 8.2232 5.4541 33.3949 -8.3591
# 6 12.4431 18.6890 8.3814 0.3470 -8.3591 40.6139
#
#
#
# Elastic Compliance Matrix: (Units=1/GPa)
#
#
# Indices 1 2 3 4 5 6 
#
# 1 0.020829 -0.004555 0.000499 0.001667 0.000370 -0.004326
# 2 -0.004555 0.041731 0.012759 0.031823 -0.028942 -0.026669
# 3 0.000499 0.012759 0.014307 0.016810 -0.013473 -0.011893
# 4 0.001667 0.031823 0.016810 0.060532 -0.030948 -0.025510
# 5 0.000370 -0.028942 -0.013473 -0.030948 0.054822 0.027533
# 6 -0.004326 -0.026669 -0.011893 -0.025510 0.027533 0.046559
#
#
# Mechanical properties :
#
#
# Convention : Reuss Voigt Hill
#
# Bulk Modulus (GPa) = 10.60758 27.33329 18.97043
# Shear Modulus (GPa) = 19.77875 36.55889 28.16882
#
# Velocity S-wave (km/s) = 2.63304 3.57976 3.14226
# Velocity P-wave (km/s) = 3.60028 5.16402 4.45136
#
# Compressibility (1/GPa) = 0.09427225
#
# Stress axis : x y z
#
# Youngs Moduli (GPa) = 48.01041 23.96311 69.89829
#
# Poissons Ratio (x) = 0.10915 -0.03487
# Poissons Ratio (y) = 0.21868 -0.89184
# Poissons Ratio (z) = -0.02395 -0.30575
#
# Static dielectric constant tensor:
#      x y z
#    x 5.229980 0.166650 0.159900 
#    y 0.166650 5.994690 -0.182730 
#    z 0.159900 -0.182730 5.521190 
# 
# 
# High freq. dielectric constant tensor:
#      x y z
#    x 2.151120 0.007540 0.010870 
#    y 0.007540 2.163430 -0.001100 
#    z 0.010870 -0.001100 2.163900 
# 
# From -- ./inp_files/39946.got.cif
#   From: 2010.06.25/outbox.cif.g09.slc.cpg/sg2_20_cif.got.tgz:39946.got - 2010.06.27 13:26:56.
