data_PCOD8005076
_publ_section_title
;
Structure prediction by ZEFSAII (Michael W. Deem and Ramdas Pophale) SiO2 
 PCOD8005076
Probable space group: P -1
;
_chemical_formula_sum "Si O2"
_cell_formula_units_Z 14
_cell_length_a 12.517748
_cell_length_b 6.776179
_cell_length_c 11.720891
_cell_angle_alpha 107.740618
_cell_angle_beta 72.691521
_cell_angle_gamma 134.225188
_cell_volume 673.283395
_symmetry_space_group_name_H-M "P -1"
_symmetry_group_IT_number 2
_symmetry_cell_setting 'triclinic'
loop_
_space_group_symop_operation_xyz
x,y,z
-x,-y,-z
loop_
_atom_site_type_symbol
_atom_site_label
_atom_site_fract_x
_atom_site_fract_y
_atom_site_fract_z
Si Si1 0.606632 0.760941 0.711316
Si Si2 0.079843 0.184340 0.664722
Si Si3 0.071786 0.865092 0.950223
Si Si4 0.707715 0.787117 0.250941
Si Si5 0.371991 0.989666 0.487340
Si Si6 0.128438 0.753238 0.154238
Si Si7 0.803839 0.614438 0.574364
O O1 0.447924 0.522663 0.781664
O O2 0.575489 0.811630 0.603283
O O3 0.686688 0.637019 0.662429
O O4 0.705482 0.042290 0.805531
O O5 0.173988 0.243775 0.756430
O O6 0.196943 0.365658 0.558268
O O7 0.985076 0.274552 0.728156
O O8 0.969792 0.855901 0.613547
O O9 0.932771 0.552520 0.897706
O O10 0.218911 0.021129 0.850819
O O11 0.134204 0.882592 0.056738
O O12 0.000000 0.000000 0.000000
O O13 0.687309 0.931179 0.382094
O O14 0.500000 0.000000 0.500000
O O15 0.241074 0.674867 0.428879
#
# Coordination Sequence:
#
# PCOD8005076 Si02
#       7
#     2   2   2   2   2   2   2
#     4  11  24  41  63  96 131 164 212 261 312 384
#     4  10  20  38  64  92 130 163 214 257 313 375
#     4  11  24  45  69  92 124 166 217 267 315 373
#     4  12  23  40  66  94 130 170 208 262 315 374
#     4  12  23  38  64  94 135 172 204 249 326 375
#     4  10  24  45  67  92 124 167 216 267 314 370
#     4  10  21  38  59  95 130 168 205 260 309 383
#
# _framework density 20.793620000000001
#
# number of rings (size 3 to 8) (size 9 to 14) (size 15 to 20)
#    0.000    1.143    4.286    2.143    2.000    1.143 
#    0.000    0.714    0.000    0.000    0.000    0.000 
#    0.000    0.000    0.000    0.000    0.000    0.000 
#
# Total GULP energy -173618.622015 kJ/mol
# GULP energy per Si atom -12401.330144 kJ/mol
# Density = 2.074629 g / cm^3
# Si number density = 20.793620 Si / 1000 Ang^3
#
#
#
# Elastic Constant Matrix: (Units=GPa)
#
#
# Indices 1 2 3 4 5 6 
#
# 1 80.9625 44.4527 25.8382 2.3212 5.5045 11.4501
# 2 44.4527 131.4865 47.7170 1.1359 0.5847 7.7183
# 3 25.8382 47.7170 91.7254 -4.1441 6.7280 7.2958
# 4 2.3212 1.1359 -4.1441 40.4149 0.1140 -3.5942
# 5 5.5045 0.5847 6.7280 0.1140 21.3943 6.4779
# 6 11.4501 7.7183 7.2958 -3.5942 6.4779 26.9989
#
#
#
# Elastic Compliance Matrix: (Units=1/GPa)
#
#
# Indices 1 2 3 4 5 6 
#
# 1 0.016275 -0.004567 -0.001739 -0.001408 -0.002048 -0.004823
# 2 -0.004567 0.010811 -0.004496 -0.000564 0.002481 -0.000609
# 3 -0.001739 -0.004496 0.014129 0.001623 -0.003670 -0.000699
# 4 -0.001408 -0.000564 0.001623 0.025371 -0.001496 0.004056
# 5 -0.002048 0.002481 -0.003670 -0.001496 0.051841 -0.011486
# 6 -0.004823 -0.000609 -0.000699 0.004056 -0.011486 0.042743
#
#
# Mechanical properties :
#
#
# Convention : Reuss Voigt Hill
#
# Bulk Modulus (GPa) = 50.99133 60.02112 55.50623
# Shear Modulus (GPa) = 26.41154 30.17273 28.29214
#
# Velocity S-wave (km/s) = 3.56782 3.81341 3.69265
# Velocity P-wave (km/s) = 6.44579 6.95106 6.70319
#
# Compressibility (1/GPa) = 0.01961118
#
# Stress axis : x y z
#
# Youngs Moduli (GPa) = 61.44207 92.50080 70.77616
#
# Poissons Ratio (x) = 0.42246 0.12305
# Poissons Ratio (y) = 0.28061 0.31824
# Poissons Ratio (z) = 0.10682 0.41592
#
# Static dielectric constant tensor:
#      x y z
#    x 3.650300 0.090060 0.055670 
#    y 0.090060 4.107330 0.039760 
#    z 0.055670 0.039760 3.776190 
# 
# 
# High freq. dielectric constant tensor:
#      x y z
#    x 1.805690 0.004430 0.001160 
#    y 0.004430 1.827130 0.001090 
#    z 0.001160 0.001090 1.806720 
# 
# From -- ./inp_files/46179.got.cif
#   From: 2010.06.25/outbox.cif.g09.slc.cpg/sg2_24_cif.got.tgz:46179.got - 2010.06.27 13:26:56.
