data_PCOD8005404
_publ_section_title
;
Structure prediction by ZEFSAII (Michael W. Deem and Ramdas Pophale) SiO2 
 PCOD8005404
Probable space group: P -1
;
_chemical_formula_sum "Si O2"
_cell_formula_units_Z 14
_cell_length_a 6.793334
_cell_length_b 14.249609
_cell_length_c 11.327160
_cell_angle_alpha 41.798067
_cell_angle_beta 53.835906
_cell_angle_gamma 58.147904
_cell_volume 582.105974
_symmetry_space_group_name_H-M "P -1"
_symmetry_group_IT_number 2
_symmetry_cell_setting 'triclinic'
loop_
_space_group_symop_operation_xyz
x,y,z
-x,-y,-z
loop_
_atom_site_type_symbol
_atom_site_label
_atom_site_fract_x
_atom_site_fract_y
_atom_site_fract_z
Si Si1 0.521937 0.483443 0.855998
Si Si2 0.676800 0.555114 0.284135
Si Si3 0.078469 0.741491 0.939086
Si Si4 0.826931 0.632327 0.750086
Si Si5 0.142437 0.027451 0.038985
Si Si6 0.077105 0.836986 0.595477
Si Si7 0.444666 0.789721 0.302305
O O1 0.717799 0.353544 0.962672
O O2 0.255287 0.477163 0.018583
O O3 0.504120 0.471363 0.733953
O O4 0.628625 0.630088 0.715790
O O5 0.511195 0.617918 0.401209
O O6 0.896380 0.420897 0.348361
O O7 0.812174 0.689844 0.080545
O O8 0.160452 0.748537 0.767225
O O9 0.036403 0.900919 0.860049
O O10 0.839896 0.784364 0.663918
O O11 0.279859 0.874615 0.178394
O O12 0.314592 0.139375 0.832773
O O13 0.000000 0.000000 0.000000
O O14 0.315311 0.802868 0.461560
O O15 0.000000 0.000000 0.500000
#
# Coordination Sequence:
#
# PCOD8005404 Si02
#       7
#     2   2   2   2   2   2   2
#     4  10  20  38  68  98 117 163 217 265 298 363
#     4  10  20  41  68  91 119 164 214 263 302 369
#     4  10  21  37  65  93 124 162 211 255 312 368
#     4  10  23  37  67  94 127 162 212 258 311 368
#     4  10  20  40  63  89 120 169 217 251 295 380
#     4  12  24  43  60  92 136 169 198 258 320 376
#     4  10  23  40  63  89 127 167 205 256 317 365
#
# _framework density 24.050602999999999
#
# number of rings (size 3 to 8) (size 9 to 14) (size 15 to 20)
#    0.000    1.714    2.857    1.286    4.000    1.714 
#    2.571    2.143    0.000    0.000    0.000    0.000 
#    0.000    0.000    0.000    0.000    0.000    0.000 
#
# Total GULP energy -173527.251673 kJ/mol
# GULP energy per Si atom -12394.803691 kJ/mol
# Density = 2.399586 g / cm^3
# Si number density = 24.050603 Si / 1000 Ang^3
#
#
#
# Elastic Constant Matrix: (Units=GPa)
#
#
# Indices 1 2 3 4 5 6 
#
# 1 158.4949 65.4546 41.6444 6.6756 -4.6620 31.2984
# 2 65.4546 164.0095 50.7306 5.2285 -11.2140 29.4885
# 3 41.6444 50.7306 71.2950 23.5430 -5.1646 17.8607
# 4 6.6756 5.2285 23.5430 58.4902 2.5164 1.4989
# 5 -4.6620 -11.2140 -5.1646 2.5164 22.3407 5.7535
# 6 31.2984 29.4885 17.8607 1.4989 5.7535 42.8143
#
#
#
# Elastic Compliance Matrix: (Units=1/GPa)
#
#
# Indices 1 2 3 4 5 6 
#
# 1 0.008596 -0.001762 -0.002755 0.000335 0.001292 -0.004106
# 2 -0.001762 0.009125 -0.004663 0.001186 0.003934 -0.003622
# 3 -0.002755 -0.004663 0.023414 -0.008772 0.004740 -0.004871
# 4 0.000335 0.001186 -0.008772 0.020606 -0.004316 0.002456
# 5 0.001292 0.003934 0.004740 -0.004316 0.051791 -0.012440
# 6 -0.004106 -0.003622 -0.004871 0.002456 -0.012440 0.032470
#
#
# Mechanical properties :
#
#
# Convention : Reuss Voigt Hill
#
# Bulk Modulus (GPa) = 43.91066 78.82874 61.36970
# Shear Modulus (GPa) = 29.07720 40.46038 34.76879
#
# Velocity S-wave (km/s) = 3.48084 4.10604 3.80630
# Velocity P-wave (km/s) = 5.86960 7.43819 6.69996
#
# Compressibility (1/GPa) = 0.02277352
#
# Stress axis : x y z
#
# Youngs Moduli (GPa) = 116.33574 109.58633 42.70880
#
# Poissons Ratio (x) = 0.19313 0.11768
# Poissons Ratio (y) = 0.20503 0.19916
# Poissons Ratio (z) = 0.32056 0.51102
#
# Static dielectric constant tensor:
#      x y z
#    x 4.291600 0.309530 -0.414850 
#    y 0.309530 5.001470 -0.169390 
#    z -0.414850 -0.169390 4.707230 
# 
# 
# High freq. dielectric constant tensor:
#      x y z
#    x 1.946770 0.013700 -0.017380 
#    y 0.013700 1.980600 0.002420 
#    z -0.017380 0.002420 1.957040 
# 
# From -- ./inp_files/366695.got.cif
#   From: 2010.06.25/outbox.cif.g09.slc.cpg/sg2_184_cif.got.tgz:366695.got - 2010.06.27 13:26:56.
