data_PCOD8005342
_publ_section_title
;
Structure prediction by ZEFSAII (Michael W. Deem and Ramdas Pophale) SiO2 
 PCOD8005342
Probable space group: P -1
;
_chemical_formula_sum "Si O2"
_cell_formula_units_Z 16
_cell_length_a 9.579827
_cell_length_b 14.743617
_cell_length_c 15.881840
_cell_angle_alpha 143.589237
_cell_angle_beta 144.098495
_cell_angle_gamma 37.410537
_cell_volume 712.431017
_symmetry_space_group_name_H-M "P -1"
_symmetry_group_IT_number 2
_symmetry_cell_setting 'triclinic'
loop_
_space_group_symop_operation_xyz
x,y,z
-x,-y,-z
loop_
_atom_site_type_symbol
_atom_site_label
_atom_site_fract_x
_atom_site_fract_y
_atom_site_fract_z
Si Si1 0.457513 0.611152 0.276459
Si Si2 0.082275 0.121535 0.803504
Si Si3 0.395012 0.009239 0.319689
Si Si4 0.429312 0.316637 0.113798
Si Si5 0.754556 0.739087 0.411466
Si Si6 0.667027 0.499249 0.464231
Si Si7 0.108630 0.022554 0.931839
Si Si8 0.480064 0.146771 0.289809
O O1 0.358577 0.460210 0.113657
O O2 0.589315 0.626886 0.264634
O O3 0.674958 0.570232 0.426453
O O4 0.210428 0.786900 0.306860
O O5 0.067785 0.044552 0.828539
O O6 0.254063 0.972708 0.714988
O O7 0.197286 0.261041 0.975019
O O8 0.645664 0.852646 0.360875
O O9 0.165568 0.949897 0.137843
O O10 0.273643 0.150969 0.436886
O O11 0.489599 0.079099 0.338237
O O12 0.490762 0.391056 0.287799
O O13 0.682412 0.164404 0.088334
O O14 0.052288 0.617443 0.449334
O O15 0.534399 0.664360 0.580795
O O16 0.221676 0.150525 0.119877
#
# Coordination Sequence:
#
# PCOD8005342 Si02
#       8
#     2   2   2   2   2   2   2   2
#     4  10  20  38  67  91 121 167 213 253 305 380
#     4  11  23  44  65  93 127 171 209 252 316 384
#     4  11  21  40  65  97 122 169 214 259 306 372
#     4   9  20  37  65  90 119 170 208 247 312 375
#     4  11  21  39  67  95 127 163 216 256 317 371
#     4  10  22  39  63  97 124 166 207 267 310 367
#     4  11  22  43  65  90 129 170 212 251 314 382
#     4  11  24  40  64  96 130 161 209 263 315 368
#
# _framework density 22.458316
#
# number of rings (size 3 to 8) (size 9 to 14) (size 15 to 20)
#    0.750    0.750    3.750    2.625    1.750    0.500 
#    0.000    8.125    0.000    0.000    0.000    0.000 
#    0.000    0.000    0.000    0.000    0.000    0.000 
#
# Total GULP energy -198297.092594 kJ/mol
# GULP energy per Si atom -12393.568287 kJ/mol
# Density = 2.240720 g / cm^3
# Si number density = 22.458316 Si / 1000 Ang^3
#
#
#
# Elastic Constant Matrix: (Units=GPa)
#
#
# Indices 1 2 3 4 5 6 
#
# 1 37.6144 6.5962 -1.7959 -2.2311 -0.5549 -3.5754
# 2 6.5962 107.2513 16.9804 -8.3712 -10.8476 -7.3465
# 3 -1.7959 16.9804 66.4498 12.8472 -1.8594 -15.4709
# 4 -2.2311 -8.3712 12.8472 42.2888 2.9087 3.5476
# 5 -0.5549 -10.8476 -1.8594 2.9087 24.3224 -2.8319
# 6 -3.5754 -7.3465 -15.4709 3.5476 -2.8319 17.6545
#
#
#
# Elastic Compliance Matrix: (Units=1/GPa)
#
#
# Indices 1 2 3 4 5 6 
#
# 1 0.027763 -0.001584 0.003170 -0.000568 0.001174 0.008044
# 2 -0.001584 0.010606 -0.002597 0.002325 0.004458 0.002065
# 3 0.003170 -0.002597 0.022942 -0.009488 0.004396 0.022278
# 4 -0.000568 0.002325 -0.009488 0.028454 -0.004727 -0.013938
# 5 0.001174 0.004458 0.004396 -0.004727 0.045687 0.014224
# 6 0.008044 0.002065 0.022278 -0.013938 0.014224 0.083736
#
#
# Mechanical properties :
#
#
# Convention : Reuss Voigt Hill
#
# Bulk Modulus (GPa) = 16.86619 28.31968 22.59294
# Shear Modulus (GPa) = 20.74917 29.48879 25.11898
#
# Velocity S-wave (km/s) = 3.04286 3.62753 3.34798
# Velocity P-wave (km/s) = 4.45777 5.49386 5.00271
#
# Compressibility (1/GPa) = 0.05929021
#
# Stress axis : x y z
#
# Youngs Moduli (GPa) = 36.01923 94.28336 43.58724
#
# Poissons Ratio (x) = 0.14935 -0.13819
# Poissons Ratio (y) = 0.05706 0.11321
# Poissons Ratio (z) = -0.11420 0.24488
#
# Static dielectric constant tensor:
#      x y z
#    x 3.790600 0.186790 0.236220 
#    y 0.186790 4.154850 0.063520 
#    z 0.236220 0.063520 4.099990 
# 
# 
# High freq. dielectric constant tensor:
#      x y z
#    x 1.863250 0.015600 0.021860 
#    y 0.015600 1.896080 0.000920 
#    z 0.021860 0.000920 1.874220 
# 
# From -- ./inp_files/505648.got.cif
#   From: 2010.06.25/outbox.cif.g09.slc.cpg/sg2_253_cif.got.tgz:505648.got - 2010.06.27 13:26:56.
