data_PCOD8005138
_publ_section_title
;
Structure prediction by ZEFSAII (Michael W. Deem and Ramdas Pophale) SiO2 
 PCOD8005138
Probable space group: P -1
;
_chemical_formula_sum "Si O2"
_cell_formula_units_Z 16
_cell_length_a 12.844264
_cell_length_b 5.454596
_cell_length_c 25.406686
_cell_angle_alpha 61.677325
_cell_angle_beta 156.627187
_cell_angle_gamma 113.860193
_cell_volume 619.160668
_symmetry_space_group_name_H-M "P -1"
_symmetry_group_IT_number 2
_symmetry_cell_setting 'triclinic'
loop_
_space_group_symop_operation_xyz
x,y,z
-x,-y,-z
loop_
_atom_site_type_symbol
_atom_site_label
_atom_site_fract_x
_atom_site_fract_y
_atom_site_fract_z
Si Si1 0.668643 0.275289 0.721810
Si Si2 0.838653 0.434177 0.085873
Si Si3 0.073964 0.966400 0.741866
Si Si4 0.119742 0.705751 0.605256
Si Si5 0.869932 0.577069 0.603047
Si Si6 0.478709 0.942765 0.845220
Si Si7 0.988748 0.247872 0.060075
Si Si8 0.364630 0.367155 0.669352
O O1 0.415432 0.323107 0.562222
O O2 0.614409 0.395809 0.744111
O O3 0.918241 0.398919 0.797193
O O4 0.735111 0.944380 0.794417
O O5 0.785523 0.190667 0.127025
O O6 0.938535 0.318114 0.089409
O O7 0.560280 0.618103 0.929369
O O8 0.899788 0.744339 0.654299
O O9 0.296128 0.070652 0.795133
O O10 0.898027 0.238890 0.654850
O O11 0.378957 0.560042 0.709586
O O12 0.113498 0.669081 0.669871
O O13 0.885670 0.519374 0.493949
O O14 0.000000 0.000000 0.500000
O O15 0.350045 0.034899 0.717911
O O16 0.748318 0.081044 0.946982
O O17 0.000000 0.500000 0.000000
#
# Coordination Sequence:
#
# PCOD8005138 Si02
#       8
#     2   2   2   2   2   2   2   2
#     4  10  25  45  70 107 144 190 249 302 371 440
#     4  11  27  46  73  98 147 195 249 303 362 439
#     4  12  28  49  75 109 148 194 250 302 372 433
#     4  10  21  36  65 101 143 184 230 292 367 432
#     4  11  27  46  76 109 149 192 244 308 368 437
#     4  11  24  44  70 106 144 189 247 301 367 437
#     4  11  25  46  74 107 143 195 246 305 370 438
#     4  10  20  38  64  99 142 177 233 294 367 426
#
# _framework density 25.841432999999999
#
# number of rings (size 3 to 8) (size 9 to 14) (size 15 to 20)
#    0.000    1.250    1.250    2.625   10.500    7.500 
#    0.000    0.000    0.000    0.000    0.000    0.000 
#    0.000    0.000    0.000    0.000    0.000    0.000 
#
# Total GULP energy -198288.123084 kJ/mol
# GULP energy per Si atom -12393.007693 kJ/mol
# Density = 2.578262 g / cm^3
# Si number density = 25.841433 Si / 1000 Ang^3
#
#
#
# Elastic Constant Matrix: (Units=GPa)
#
#
# Indices 1 2 3 4 5 6 
#
# 1 76.6486 14.3080 29.2146 -8.2281 -18.4291 1.2822
# 2 14.3080 85.4214 40.9051 -29.7682 -11.1422 -14.9553
# 3 29.2146 40.9051 152.6062 -30.6524 -8.8486 -0.2766
# 4 -8.2281 -29.7682 -30.6524 42.8167 -0.3452 3.6856
# 5 -18.4291 -11.1422 -8.8486 -0.3452 43.4845 -8.4744
# 6 1.2822 -14.9553 -0.2766 3.6856 -8.4744 43.3917
#
#
#
# Elastic Compliance Matrix: (Units=1/GPa)
#
#
# Indices 1 2 3 4 5 6 
#
# 1 0.015580 -0.000157 -0.002336 0.001213 0.006210 0.000581
# 2 -0.000157 0.018438 -0.002471 0.010502 0.005511 0.006528
# 3 -0.002336 -0.002471 0.008455 0.003978 -0.000082 -0.001083
# 4 0.001213 0.010502 0.003978 0.033633 0.004603 0.001651
# 5 0.006210 0.005511 -0.000082 0.004603 0.028399 0.006871
# 6 0.000581 0.006528 -0.001083 0.001651 0.006871 0.026473
#
#
# Mechanical properties :
#
#
# Convention : Reuss Voigt Hill
#
# Bulk Modulus (GPa) = 30.72705 53.72573 42.22639
# Shear Modulus (GPa) = 32.94812 41.28849 37.11830
#
# Velocity S-wave (km/s) = 3.57460 4.00154 3.79408
# Velocity P-wave (km/s) = 5.38084 6.49503 5.96401
#
# Compressibility (1/GPa) = 0.03254461
#
# Stress axis : x y z
#
# Youngs Moduli (GPa) = 64.18601 54.23631 118.27705
#
# Poissons Ratio (x) = 0.00850 0.27627
# Poissons Ratio (y) = 0.01006 0.29230
# Poissons Ratio (z) = 0.14992 0.13404
#
# Static dielectric constant tensor:
#      x y z
#    x 5.382610 -0.537440 -1.153870 
#    y -0.537440 5.001570 0.532410 
#    z -1.153870 0.532410 6.531780 
# 
# 
# High freq. dielectric constant tensor:
#      x y z
#    x 2.026790 -0.003210 -0.001930 
#    y -0.003210 2.038930 -0.001610 
#    z -0.001930 -0.001610 2.054790 
# 
# From -- ./inp_files/67342.got.cif
#   From: 2010.06.25/outbox.cif.g09.slc.cpg/sg2_34_cif.got.tgz:67342.got - 2010.06.27 13:26:56.
