data_PCOD8005358
_publ_section_title
;
Structure prediction by ZEFSAII (Michael W. Deem and Ramdas Pophale) SiO2 
 PCOD8005358
Probable space group: P -1
;
_chemical_formula_sum "Si O2"
_cell_formula_units_Z 14
_cell_length_a 9.150583
_cell_length_b 14.127153
_cell_length_c 10.827204
_cell_angle_alpha 151.350985
_cell_angle_beta 127.999617
_cell_angle_gamma 66.518469
_cell_volume 490.124069
_symmetry_space_group_name_H-M "P -1"
_symmetry_group_IT_number 2
_symmetry_cell_setting 'triclinic'
loop_
_space_group_symop_operation_xyz
x,y,z
-x,-y,-z
loop_
_atom_site_type_symbol
_atom_site_label
_atom_site_fract_x
_atom_site_fract_y
_atom_site_fract_z
Si Si1 0.875045 0.167642 0.233030
Si Si2 0.019238 0.421902 0.098696
Si Si3 0.831145 0.160960 0.920278
Si Si4 0.673726 0.407146 0.753294
Si Si5 0.446759 0.247152 0.806942
Si Si6 0.306992 0.259103 0.251748
Si Si7 0.503554 0.243068 0.096740
O O1 0.998915 0.360873 0.609387
O O2 0.644394 0.130428 0.094766
O O3 0.922104 0.219746 0.172252
O O4 0.892671 0.940432 0.024781
O O5 0.210607 0.453139 0.147245
O O6 0.017196 0.267610 0.039276
O O7 0.820544 0.310319 0.784554
O O8 0.677796 0.277693 0.934778
O O9 0.708468 0.907852 0.550300
O O10 0.480676 0.224790 0.387419
O O11 0.594645 0.535367 0.960392
O O12 0.399958 0.138362 0.794429
O O13 0.328446 0.214210 0.068456
O O14 0.344416 0.510164 0.572385
#
# Coordination Sequence:
#
# PCOD8005358 Si02
#       7
#     2   2   2   2   2   2   2
#     4  11  22  41  64  93 132 172 209 268 318 389
#     4  11  24  40  63  96 138 165 205 269 340 368
#     4  10  23  42  65  91 129 176 212 259 327 385
#     4  10  23  41  64  99 123 167 217 271 316 380
#     4   9  21  42  65  95 119 169 225 259 310 382
#     4  10  20  38  67  95 123 165 224 260 313 380
#     4   9  19  36  64  97 118 160 219 269 307 365
#
# _framework density 28.564195999999999
#
# number of rings (size 3 to 8) (size 9 to 14) (size 15 to 20)
#    0.000    2.000    1.429    0.857    6.000    2.286 
#    7.714    0.714    0.000    0.000    0.000    0.000 
#    0.000    0.000    0.000    0.000    0.000    0.000 
#
# Total GULP energy -173454.254004 kJ/mol
# GULP energy per Si atom -12389.589572 kJ/mol
# Density = 2.849918 g / cm^3
# Si number density = 28.564196 Si / 1000 Ang^3
#
#
#
# Elastic Constant Matrix: (Units=GPa)
#
#
# Indices 1 2 3 4 5 6 
#
# 1 94.5279 -10.9416 1.3239 3.2392 0.2281 20.5627
# 2 -10.9416 88.6397 16.6864 6.9067 5.0810 16.2138
# 3 1.3239 16.6864 57.3682 8.5810 -0.2828 -0.7902
# 4 3.2392 6.9067 8.5810 53.4354 3.9878 -3.9523
# 5 0.2281 5.0810 -0.2828 3.9878 35.7412 -1.7222
# 6 20.5627 16.2138 -0.7902 -3.9523 -1.7222 33.3604
#
#
#
# Elastic Compliance Matrix: (Units=1/GPa)
#
#
# Indices 1 2 3 4 5 6 
#
# 1 0.013422 0.004038 -0.001361 -0.001823 -0.000975 -0.010534
# 2 0.004038 0.014721 -0.004221 -0.002037 -0.002412 -0.010109
# 3 -0.001361 -0.004221 0.019082 -0.002292 0.001166 0.003132
# 4 -0.001823 -0.002037 -0.002292 0.019905 -0.001729 0.004329
# 5 -0.000975 -0.002412 0.001166 -0.001729 0.028678 0.003076
# 6 -0.010534 -0.010109 0.003132 0.004329 0.003076 0.042128
#
#
# Mechanical properties :
#
#
# Convention : Reuss Voigt Hill
#
# Bulk Modulus (GPa) = 22.65788 28.29703 25.47746
# Shear Modulus (GPa) = 32.10530 40.07186 36.08858
#
# Velocity S-wave (km/s) = 3.35620 3.74955 3.55832
# Velocity P-wave (km/s) = 4.79252 5.35477 5.08143
#
# Compressibility (1/GPa) = 0.04413475
#
# Stress axis : x y z
#
# Youngs Moduli (GPa) = 74.50686 67.93065 52.40485
#
# Poissons Ratio (x) = -0.27429 0.07134
# Poissons Ratio (y) = -0.30084 0.22122
# Poissons Ratio (z) = 0.10143 0.28676
#
# Static dielectric constant tensor:
#      x y z
#    x 5.374860 -0.215870 -0.097710 
#    y -0.215870 5.421560 -0.360210 
#    z -0.097710 -0.360210 4.966370 
# 
# 
# High freq. dielectric constant tensor:
#      x y z
#    x 2.173550 -0.017760 -0.005360 
#    y -0.017760 2.184610 -0.015120 
#    z -0.005360 -0.015120 2.138380 
# 
# From -- ./inp_files/434380.got.cif
#   From: 2010.06.25/outbox.cif.g09.slc.cpg/sg2_218_cif.got.tgz:434380.got - 2010.06.27 13:26:56.
