data_PCOD8005313
_publ_section_title
;
Structure prediction by ZEFSAII (Michael W. Deem and Ramdas Pophale) SiO2 
 PCOD8005313
Probable space group: P -1
;
_chemical_formula_sum "Si O2"
_cell_formula_units_Z 16
_cell_length_a 10.189904
_cell_length_b 14.377706
_cell_length_c 15.686090
_cell_angle_alpha 54.407857
_cell_angle_beta 34.338676
_cell_angle_gamma 78.988556
_cell_volume 817.550530
_symmetry_space_group_name_H-M "P -1"
_symmetry_group_IT_number 2
_symmetry_cell_setting 'triclinic'
loop_
_space_group_symop_operation_xyz
x,y,z
-x,-y,-z
loop_
_atom_site_type_symbol
_atom_site_label
_atom_site_fract_x
_atom_site_fract_y
_atom_site_fract_z
Si Si1 0.707521 0.410585 0.646337
Si Si2 0.622811 0.928211 0.019056
Si Si3 0.578179 0.088951 0.535225
Si Si4 0.271940 0.081720 0.553848
Si Si5 0.191237 0.632279 0.944623
Si Si6 0.149248 0.933813 0.993014
Si Si7 0.177893 0.404638 0.679759
Si Si8 0.856795 0.627204 0.968146
O O1 0.607337 0.249978 0.761742
O O2 0.795456 0.506866 0.463537
O O3 0.443243 0.392198 0.849255
O O4 0.000000 0.500000 0.500000
O O5 0.714313 0.997834 0.025687
O O6 0.500000 0.000000 0.000000
O O7 0.920153 0.984257 0.778938
O O8 0.358499 0.114412 0.591884
O O9 0.616859 0.003354 0.492481
O O10 0.436032 0.995773 0.747054
O O11 0.909337 0.241135 0.292339
O O12 0.454977 0.231104 0.321404
O O13 0.199380 0.505632 0.979854
O O14 0.060629 0.611614 0.119790
O O15 0.002740 0.653727 0.969185
O O16 0.925376 0.755255 0.207168
O O17 0.000000 0.000000 0.000000
O O18 0.500000 0.500000 0.500000
#
# Coordination Sequence:
#
# PCOD8005313 Si02
#       8
#     2   2   2   2   2   2   2   2
#     4  12  27  47  67  94 139 182 220 270 336 404
#     4  12  27  46  68  96 135 182 224 270 332 401
#     4  10  20  38  66  97 129 164 221 275 325 382
#     4  10  20  39  66  93 131 170 218 270 326 387
#     4  10  22  38  66 101 131 166 216 278 330 387
#     4  12  25  40  68 104 134 173 223 277 328 389
#     4  12  25  41  67 102 140 170 221 275 334 391
#     4  10  22  39  66  97 131 173 217 268 336 387
#
# _framework density 19.570656
#
# number of rings (size 3 to 8) (size 9 to 14) (size 15 to 20)
#    0.000    1.000    5.000    1.500    7.000    0.000 
#    0.000    2.500    0.000    0.000    0.000    0.000 
#    0.000    0.000    0.000    0.000    0.000    0.000 
#
# Total GULP energy -198299.447731 kJ/mol
# GULP energy per Si atom -12393.715483 kJ/mol
# Density = 1.952611 g / cm^3
# Si number density = 19.570656 Si / 1000 Ang^3
#
#
#
# Elastic Constant Matrix: (Units=GPa)
#
#
# Indices 1 2 3 4 5 6 
#
# 1 124.8773 54.7982 65.0148 -6.7414 -0.4429 -1.7948
# 2 54.7982 112.6241 61.1286 -22.7071 1.6601 2.0012
# 3 65.0148 61.1286 161.0108 -26.9018 3.7214 0.0998
# 4 -6.7414 -22.7071 -26.9018 40.8065 -1.2995 -1.7882
# 5 -0.4429 1.6601 3.7214 -1.2995 30.4723 -2.2204
# 6 -1.7948 2.0012 0.0998 -1.7882 -2.2204 31.8474
#
#
#
# Elastic Compliance Matrix: (Units=1/GPa)
#
#
# Indices 1 2 3 4 5 6 
#
# 1 0.011602 -0.004311 -0.003525 -0.002745 0.000778 0.000836
# 2 -0.004311 0.013359 -0.002481 0.005040 -0.000332 -0.000815
# 3 -0.003525 -0.002481 0.009287 0.004137 -0.000867 0.000100
# 4 -0.002745 0.005040 0.004137 0.029654 0.000534 0.001218
# 5 0.000778 -0.000332 -0.000867 0.000534 0.033150 0.002409
# 6 0.000836 -0.000815 0.000100 0.001218 0.002409 0.031734
#
#
# Mechanical properties :
#
#
# Convention : Reuss Voigt Hill
#
# Bulk Modulus (GPa) = 73.45653 84.48839 78.97246
# Shear Modulus (GPa) = 32.47660 35.12994 33.80327
#
# Velocity S-wave (km/s) = 4.07806 4.24138 4.16052
# Velocity P-wave (km/s) = 7.73237 8.20063 7.96994
#
# Compressibility (1/GPa) = 0.01361349
#
# Stress axis : x y z
#
# Youngs Moduli (GPa) = 86.19575 74.85767 107.67804
#
# Poissons Ratio (x) = 0.32274 0.37955
# Poissons Ratio (y) = 0.37162 0.26711
# Poissons Ratio (z) = 0.30383 0.18569
#
# Static dielectric constant tensor:
#      x y z
#    x 1.080010 0.005750 -0.832440 
#    y 0.005750 3.648090 0.086110 
#    z -0.832440 0.086110 4.187460 
# 
# 
# High freq. dielectric constant tensor:
#      x y z
#    x 1.730580 0.004620 0.004810 
#    y 0.004620 1.775590 -0.005620 
#    z 0.004810 -0.005620 1.788010 
# 
# From -- ./inp_files/186840.got.cif
#   From: 2010.06.25/outbox.cif.g09.slc.cpg/sg2_94_cif.got.tgz:186840.got - 2010.06.27 13:26:56.
