data_PCOD8005553
_publ_section_title
;
Structure prediction by ZEFSAII (Michael W. Deem and Ramdas Pophale) SiO2 
 PCOD8005553
Probable space group: P -1
;
_chemical_formula_sum "Si O2"
_cell_formula_units_Z 12
_cell_length_a 16.463644
_cell_length_b 8.612735
_cell_length_c 11.939681
_cell_angle_alpha 140.524167
_cell_angle_beta 33.807053
_cell_angle_gamma 147.745113
_cell_volume 488.883803
_symmetry_space_group_name_H-M "P -1"
_symmetry_group_IT_number 2
_symmetry_cell_setting 'triclinic'
loop_
_space_group_symop_operation_xyz
x,y,z
-x,-y,-z
loop_
_atom_site_type_symbol
_atom_site_label
_atom_site_fract_x
_atom_site_fract_y
_atom_site_fract_z
Si Si1 0.740709 0.718426 0.786102
Si Si2 0.856145 0.978667 0.456147
Si Si3 0.146298 0.550375 0.768060
Si Si4 0.408151 0.220286 0.796388
Si Si5 0.818453 0.251061 0.848656
Si Si6 0.192796 0.201975 0.834115
O O1 0.625058 0.425069 0.673907
O O2 0.735507 0.985971 0.887648
O O3 0.657357 0.639372 0.961990
O O4 0.937147 0.807273 0.627717
O O5 0.780176 0.646191 0.398690
O O6 0.817834 0.966544 0.361628
O O7 0.765070 0.109446 0.705028
O O8 0.035378 0.451664 0.724052
O O9 0.324364 0.881729 0.738740
O O10 0.000000 0.500000 0.000000
O O11 0.347819 0.236038 0.750330
O O12 0.751900 0.462504 0.065194
O O13 0.000000 0.000000 0.000000
#
# Coordination Sequence:
#
# PCOD8005553 Si02
#       6
#     2   2   2   2   2   2
#     4  10  20  39  59  94 119 154 208 247 297 350
#     4  11  22  40  66  88 116 164 206 239 296 363
#     4  11  16  37  61  86 116 157 201 239 289 353
#     4  11  21  35  65  92 121 157 196 255 305 345
#     4  11  22  39  64  88 120 162 204 243 292 366
#     4  12  21  40  62  90 123 155 201 247 302 358
#
# _framework density 24.545708999999999
#
# number of rings (size 3 to 8) (size 9 to 14) (size 15 to 20)
#    0.000    1.000    8.333    2.000    0.000    1.333 
#    0.000    4.167    0.000    2.000    0.000    0.000 
#    0.000    0.000    0.000    0.000    0.000    0.000 
#
# Total GULP energy -148732.390110 kJ/mol
# GULP energy per Si atom -12394.365843 kJ/mol
# Density = 2.448984 g / cm^3
# Si number density = 24.545709 Si / 1000 Ang^3
#
#
#
# Elastic Constant Matrix: (Units=GPa)
#
#
# Indices 1 2 3 4 5 6 
#
# 1 140.4070 53.2400 36.7770 3.5360 40.7998 21.3683
# 2 53.2400 150.1034 -0.8942 18.9311 1.6759 23.2282
# 3 36.7770 -0.8942 79.0410 22.2320 40.4675 1.4234
# 4 3.5360 18.9311 22.2320 21.9201 5.7806 7.9647
# 5 40.7998 1.6759 40.4675 5.7806 40.3549 3.2995
# 6 21.3683 23.2282 1.4234 7.9647 3.2995 29.4762
#
#
#
# Elastic Compliance Matrix: (Units=1/GPa)
#
#
# Indices 1 2 3 4 5 6 
#
# 1 0.014527 -0.005421 -0.004814 0.013114 -0.010830 -0.008358
# 2 -0.005421 0.010588 0.006316 -0.014587 0.000868 -0.000874
# 3 -0.004814 0.006316 0.046703 -0.047166 -0.036543 0.013092
# 4 0.013114 -0.014587 -0.047166 0.108250 0.021377 -0.027377
# 5 -0.010830 0.000868 -0.036543 0.021377 0.069656 -0.004642
# 6 -0.008358 -0.000874 0.013092 -0.027377 -0.004642 0.047959
#
#
# Mechanical properties :
#
#
# Convention : Reuss Voigt Hill
#
# Bulk Modulus (GPa) = 15.62971 60.86634 38.24803
# Shear Modulus (GPa) = 15.29771 37.04547 26.17159
#
# Velocity S-wave (km/s) = 2.49917 3.88911 3.26887
# Velocity P-wave (km/s) = 3.83526 6.70954 5.46476
#
# Compressibility (1/GPa) = 0.06398069
#
# Stress axis : x y z
#
# Youngs Moduli (GPa) = 68.83504 94.44831 21.41197
#
# Poissons Ratio (x) = 0.51201 0.10308
# Poissons Ratio (y) = 0.37316 -0.13524
# Poissons Ratio (z) = 0.33137 -0.59656
#
# Static dielectric constant tensor:
#      x y z
#    x 4.386560 0.133580 0.532000 
#    y 0.133580 4.663630 0.267490 
#    z 0.532000 0.267490 4.325230 
# 
# 
# High freq. dielectric constant tensor:
#      x y z
#    x 1.959610 0.006320 0.039310 
#    y 0.006320 1.980480 0.016360 
#    z 0.039310 0.016360 1.964920 
# 
# From -- ./inp_files/155597.got.cif
#   From: 2010.06.25/outbox.cif.g09.slc.cpg/sg2_78_cif.got.tgz:155597.got - 2010.06.27 13:26:56.
