data_PCOD8005806
_publ_section_title
;
Structure prediction by ZEFSAII (Michael W. Deem and Ramdas Pophale) SiO2 
 PCOD8005806
Probable space group: P -1
;
_chemical_formula_sum "Si O2"
_cell_formula_units_Z 16
_cell_length_a 8.796649
_cell_length_b 8.062008
_cell_length_c 16.099334
_cell_angle_alpha 55.397698
_cell_angle_beta 61.637975
_cell_angle_gamma 93.962528
_cell_volume 730.887582
_symmetry_space_group_name_H-M "P -1"
_symmetry_group_IT_number 2
_symmetry_cell_setting 'triclinic'
loop_
_space_group_symop_operation_xyz
x,y,z
-x,-y,-z
loop_
_atom_site_type_symbol
_atom_site_label
_atom_site_fract_x
_atom_site_fract_y
_atom_site_fract_z
Si Si1 0.509136 0.151472 0.647277
Si Si2 0.799291 0.647107 0.669215
Si Si3 0.778643 0.059886 0.497678
Si Si4 0.146882 0.451829 0.031386
Si Si5 0.583367 0.746368 0.052756
Si Si6 0.141384 0.002199 0.685430
Si Si7 0.159548 0.423305 0.501188
Si Si8 0.573804 0.076563 0.093191
O O1 0.580331 0.053776 0.580645
O O2 0.286721 0.088280 0.702394
O O3 0.661321 0.418003 0.531154
O O4 0.526918 0.053608 0.759552
O O5 0.640376 0.452774 0.823863
O O6 0.734719 0.571059 0.613756
O O7 0.022354 0.694949 0.616664
O O8 0.802230 0.890869 0.606672
O O9 0.743071 0.987670 0.431566
O O10 0.279961 0.376669 0.960252
O O11 0.259453 0.673835 0.995501
O O12 0.032450 0.247405 0.183189
O O13 0.000000 0.500000 0.000000
O O14 0.651148 0.923337 0.063360
O O15 0.586708 0.890809 0.929301
O O16 0.053328 0.177370 0.643943
O O17 0.000000 0.500000 0.500000
#
# Coordination Sequence:
#
# PCOD8005806 Si02
#       8
#     2   2   2   2   2   2   2   2
#     4  12  22  44  68 100 138 179 224 286 351 416
#     4  10  20  39  63 101 131 168 228 289 338 405
#     4  10  22  38  69  98 132 177 225 282 352 411
#     4  12  26  48  69 103 145 192 234 289 351 419
#     4  11  25  44  74 103 140 187 242 294 349 414
#     4  11  26  44  64 100 142 180 233 275 356 419
#     4  11  23  41  71  99 135 177 226 287 344 411
#     4  11  25  44  73 106 138 188 243 289 354 417
#
# _framework density 21.891190999999999
#
# number of rings (size 3 to 8) (size 9 to 14) (size 15 to 20)
#    0.000    1.000    3.750    2.625    1.750    0.500 
#    2.250    0.000    0.000    0.000    0.000    0.000 
#    0.000    0.000    0.000    0.000    0.000    0.000 
#
# Total GULP energy -198265.799737 kJ/mol
# GULP energy per Si atom -12391.612484 kJ/mol
# Density = 2.184137 g / cm^3
# Si number density = 21.891191 Si / 1000 Ang^3
#
#
#
# Elastic Constant Matrix: (Units=GPa)
#
#
# Indices 1 2 3 4 5 6 
#
# 1 92.0929 49.8598 34.0234 -2.4441 -0.1306 -5.5796
# 2 49.8598 127.1295 47.4930 -11.4221 -4.1973 1.1501
# 3 34.0234 47.4930 117.7654 -8.5506 13.9261 -7.2976
# 4 -2.4441 -11.4221 -8.5506 34.7690 3.2087 -3.7090
# 5 -0.1306 -4.1973 13.9261 3.2087 31.2055 -2.2538
# 6 -5.5796 1.1501 -7.2976 -3.7090 -2.2538 35.7636
#
#
#
# Elastic Compliance Matrix: (Units=1/GPa)
#
#
# Indices 1 2 3 4 5 6 
#
# 1 0.014428 -0.004918 -0.002215 -0.001002 0.000627 0.001893
# 2 -0.004918 0.011366 -0.003417 0.002145 0.002709 -0.001437
# 3 -0.002215 -0.003417 0.011469 0.002278 -0.005678 0.001983
# 4 -0.001002 0.002145 0.002278 0.030633 -0.003652 0.003186
# 5 0.000627 0.002709 -0.005678 -0.003652 0.035373 0.000703
# 6 0.001893 -0.001437 0.001983 0.003186 0.000703 0.029082
#
#
# Mechanical properties :
#
#
# Convention : Reuss Voigt Hill
#
# Bulk Modulus (GPa) = 61.86191 66.63780 64.24986
# Shear Modulus (GPa) = 31.47862 34.05507 32.76684
#
# Velocity S-wave (km/s) = 3.79616 3.94845 3.87305
# Velocity P-wave (km/s) = 6.89453 7.16196 7.02951
#
# Compressibility (1/GPa) = 0.01616504
#
# Stress axis : x y z
#
# Youngs Moduli (GPa) = 69.30796 87.97962 87.19198
#
# Poissons Ratio (x) = 0.43267 0.19311
# Poissons Ratio (y) = 0.34084 0.29791
# Poissons Ratio (z) = 0.15350 0.30060
#
# Static dielectric constant tensor:
#      x y z
#    x 3.778100 0.062190 0.104870 
#    y 0.062190 4.347840 -0.214930 
#    z 0.104870 -0.214930 3.993140 
# 
# 
# High freq. dielectric constant tensor:
#      x y z
#    x 1.846850 0.011890 0.008660 
#    y 0.011890 1.869020 -0.010440 
#    z 0.008660 -0.010440 1.863120 
# 
# From -- ./inp_files/184132.got.cif
#   From: 2010.06.25/outbox.cif.g09.slc.cpg/sg2_93_cif.got.tgz:184132.got - 2010.06.27 13:26:56.
