data_PCOD8005102
_publ_section_title
;
Structure prediction by ZEFSAII (Michael W. Deem and Ramdas Pophale) SiO2 
 PCOD8005102
Probable space group: P -1
;
_chemical_formula_sum "Si O2"
_cell_formula_units_Z 16
_cell_length_a 9.843216
_cell_length_b 11.793214
_cell_length_c 15.224140
_cell_angle_alpha 51.592520
_cell_angle_beta 143.283260
_cell_angle_gamma 113.220205
_cell_volume 807.397432
_symmetry_space_group_name_H-M "P -1"
_symmetry_group_IT_number 2
_symmetry_cell_setting 'triclinic'
loop_
_space_group_symop_operation_xyz
x,y,z
-x,-y,-z
loop_
_atom_site_type_symbol
_atom_site_label
_atom_site_fract_x
_atom_site_fract_y
_atom_site_fract_z
Si Si1 0.918042 0.139315 0.774737
Si Si2 0.128318 0.399317 0.037672
Si Si3 0.170016 0.809981 0.097163
Si Si4 0.653279 0.393301 0.064510
Si Si5 0.620355 0.866737 0.234795
Si Si6 0.615606 0.813844 0.055514
Si Si7 0.581289 0.146337 0.440000
Si Si8 0.093983 0.858632 0.558020
O O1 0.799695 0.182810 0.786044
O O2 0.735810 0.192318 0.576249
O O3 0.128916 0.224067 0.837233
O O4 0.018548 0.962417 0.904987
O O5 0.358899 0.281347 0.245337
O O6 0.182921 0.518452 0.941495
O O7 0.000000 0.500000 0.000000
O O8 0.950717 0.319009 0.934769
O O9 0.433530 0.775142 0.214482
O O10 0.790780 0.261586 0.256029
O O11 0.500000 0.500000 0.000000
O O12 0.497373 0.327697 0.944894
O O13 0.643000 0.854835 0.149202
O O14 0.876981 0.799315 0.435761
O O15 0.541183 0.038888 0.142411
O O16 0.730982 0.114579 0.442409
O O17 0.500000 0.000000 0.500000
O O18 0.000000 0.000000 0.500000
#
# Coordination Sequence:
#
# PCOD8005102 Si02
#       8
#     2   2   2   2   2   2   2   2
#     4  10  21  39  69  98 133 167 230 291 327 392
#     4  12  27  46  68 101 145 186 220 275 354 413
#     4  10  22  40  66 100 132 179 220 277 345 396
#     4  12  25  44  66  97 145 182 219 272 345 418
#     4  10  21  39  66  98 128 165 234 281 323 390
#     4  10  20  38  64  94 132 174 217 276 338 394
#     4  12  26  44  70 104 136 174 237 285 335 398
#     4  12  26  43  70 105 134 177 236 284 332 400
#
# _framework density 19.816759999999999
#
# number of rings (size 3 to 8) (size 9 to 14) (size 15 to 20)
#    0.000    1.000    5.000    1.500    3.500    0.000 
#    0.000    7.500    0.000    0.000    0.000    0.000 
#    0.000    0.000    0.000    0.000    0.000    0.000 
#
# Total GULP energy -198374.396485 kJ/mol
# GULP energy per Si atom -12398.399780 kJ/mol
# Density = 1.977166 g / cm^3
# Si number density = 19.816760 Si / 1000 Ang^3
#
#
#
# Elastic Constant Matrix: (Units=GPa)
#
#
# Indices 1 2 3 4 5 6 
#
# 1 103.2589 18.9307 37.5742 -12.9864 -11.7314 8.7284
# 2 18.9307 112.7083 33.9388 -0.2029 -5.2096 12.9129
# 3 37.5742 33.9388 100.3211 -1.8622 -5.3084 -4.5117
# 4 -12.9864 -0.2029 -1.8622 25.9569 0.0058 2.7742
# 5 -11.7314 -5.2096 -5.3084 0.0058 27.1528 -2.2289
# 6 8.7284 12.9129 -4.5117 2.7742 -2.2289 39.9206
#
#
#
# Elastic Compliance Matrix: (Units=1/GPa)
#
#
# Indices 1 2 3 4 5 6 
#
# 1 0.013020 -0.000177 -0.004621 0.006557 0.004398 -0.003522
# 2 -0.000177 0.010449 -0.003584 0.000132 0.000924 -0.003704
# 3 -0.004621 -0.003584 0.013057 -0.001807 0.000179 0.003781
# 4 0.006557 0.000132 -0.001807 0.042157 0.002127 -0.004491
# 5 0.004398 0.000924 0.000179 0.002127 0.039005 0.000790
# 6 -0.003522 -0.003704 0.003781 -0.004491 0.000790 0.027801
#
#
# Mechanical properties :
#
#
# Convention : Reuss Voigt Hill
#
# Bulk Modulus (GPa) = 50.59971 55.24172 52.92072
# Shear Modulus (GPa) = 29.61396 33.66237 31.63816
#
# Velocity S-wave (km/s) = 3.86993 4.12598 4.00000
# Velocity P-wave (km/s) = 6.74964 7.11583 6.93515
#
# Compressibility (1/GPa) = 0.01976296
#
# Stress axis : x y z
#
# Youngs Moduli (GPa) = 76.80408 95.70683 76.58737
#
# Poissons Ratio (x) = 0.01693 0.35389
# Poissons Ratio (y) = 0.01359 0.27447
# Poissons Ratio (z) = 0.35489 0.34299
#
# Static dielectric constant tensor:
#      x y z
#    x 3.993750 0.224480 0.088540 
#    y 0.224480 3.766910 0.140260 
#    z 0.088540 0.140260 3.696020 
# 
# 
# High freq. dielectric constant tensor:
#      x y z
#    x 1.793120 0.001540 0.001290 
#    y 0.001540 1.775050 0.017030 
#    z 0.001290 0.017030 1.766920 
# 
# From -- ./inp_files/186056.got.cif
#   From: 2010.06.25/outbox.cif.g09.slc.cpg/sg2_94_cif.got.tgz:186056.got - 2010.06.27 13:26:56.
