data_PCOD8005742
_publ_section_title
;
Structure prediction by ZEFSAII (Michael W. Deem and Ramdas Pophale) SiO2 
 PCOD8005742
Probable space group: P -1
;
_chemical_formula_sum "Si O2"
_cell_formula_units_Z 16
_cell_length_a 18.336779
_cell_length_b 21.504494
_cell_length_c 11.927012
_cell_angle_alpha 31.592535
_cell_angle_beta 40.244305
_cell_angle_gamma 18.888787
_cell_volume 772.015465
_symmetry_space_group_name_H-M "P -1"
_symmetry_group_IT_number 2
_symmetry_cell_setting 'triclinic'
loop_
_space_group_symop_operation_xyz
x,y,z
-x,-y,-z
loop_
_atom_site_type_symbol
_atom_site_label
_atom_site_fract_x
_atom_site_fract_y
_atom_site_fract_z
Si Si1 0.686489 0.320968 0.833722
Si Si2 0.317573 0.144987 0.734391
Si Si3 0.072025 0.867831 0.940107
Si Si4 0.371586 0.957991 0.177858
Si Si5 0.028285 0.641235 0.348855
Si Si6 0.209299 0.217828 0.195314
Si Si7 0.876950 0.402978 0.445983
Si Si8 0.812817 0.135107 0.422168
O O1 0.803520 0.336030 0.638986
O O2 0.411859 0.573417 0.746233
O O3 0.736325 0.256283 0.006981
O O4 0.814836 0.106314 0.934338
O O5 0.221675 0.157726 0.722292
O O6 0.211692 0.374209 0.504319
O O7 0.594480 0.906590 0.762827
O O8 0.254131 0.129547 0.945591
O O9 0.079042 0.943787 0.706033
O O10 0.121060 0.685208 0.132131
O O11 0.332241 0.075462 0.152327
O O12 0.649056 0.691669 0.239996
O O13 0.253665 0.939989 0.366638
O O14 0.009784 0.655129 0.482702
O O15 0.084956 0.217518 0.396123
O O16 0.000000 0.500000 0.000000
O O17 0.000000 0.000000 0.500000
#
# Coordination Sequence:
#
# PCOD8005742 Si02
#       8
#     2   2   2   2   2   2   2   2
#     4   9  21  39  64  88 118 155 199 246 291 355
#     4  11  22  40  61  89 121 161 197 242 300 348
#     4  10  20  42  62  88 119 159 199 240 292 356
#     4  11  22  41  63  85 124 157 196 248 292 351
#     4  10  22  40  62  85 127 160 189 248 301 344
#     4  12  22  36  64  90 113 159 207 243 287 354
#     4  10  20  39  62  89 117 156 199 244 298 348
#     4  11  23  39  63  93 120 155 194 245 304 356
#
# _framework density 20.724972999999999
#
# number of rings (size 3 to 8) (size 9 to 14) (size 15 to 20)
#    0.000    1.500    2.500    3.000    0.000    1.000 
#    9.000    0.000    0.000    0.000    0.000    0.000 
#    0.000    0.000    0.000    0.000    0.000    0.000 
#
# Total GULP energy -198384.717710 kJ/mol
# GULP energy per Si atom -12399.044857 kJ/mol
# Density = 2.067780 g / cm^3
# Si number density = 20.724973 Si / 1000 Ang^3
#
#
#
# Elastic Constant Matrix: (Units=GPa)
#
#
# Indices 1 2 3 4 5 6 
#
# 1 101.3478 46.2495 49.3466 -5.3005 18.6137 -18.7760
# 2 46.2495 100.4804 32.0053 -2.5913 14.8939 -14.0962
# 3 49.3466 32.0053 88.6099 -4.1980 6.7959 -4.6299
# 4 -5.3005 -2.5913 -4.1980 33.1373 -1.6955 7.5220
# 5 18.6137 14.8939 6.7959 -1.6955 32.9925 -7.3970
# 6 -18.7760 -14.0962 -4.6299 7.5220 -7.3970 29.6557
#
#
#
# Elastic Compliance Matrix: (Units=1/GPa)
#
#
# Indices 1 2 3 4 5 6 
#
# 1 0.017564 -0.003955 -0.007622 -0.000282 -0.005029 0.006868
# 2 -0.003955 0.013290 -0.002271 -0.000691 -0.002671 0.002968
# 3 -0.007622 -0.002271 0.016141 0.001495 0.001306 -0.003438
# 4 -0.000282 -0.000691 0.001495 0.032183 -0.000079 -0.008456
# 5 -0.005029 -0.002671 0.001306 -0.000079 0.035094 0.004524
# 6 0.006868 0.002968 -0.003438 -0.008456 0.004524 0.042216
#
#
# Mechanical properties :
#
#
# Convention : Reuss Voigt Hill
#
# Bulk Modulus (GPa) = 51.81202 60.62679 56.21940
# Shear Modulus (GPa) = 26.23064 30.01288 28.12176
#
# Velocity S-wave (km/s) = 3.56146 3.80959 3.68761
# Velocity P-wave (km/s) = 6.47812 6.97618 6.73176
#
# Compressibility (1/GPa) = 0.01930054
#
# Stress axis : x y z
#
# Youngs Moduli (GPa) = 56.93423 75.24260 61.95388
#
# Poissons Ratio (x) = 0.29760 0.47219
# Poissons Ratio (y) = 0.22519 0.14067
# Poissons Ratio (z) = 0.43393 0.17084
#
# Static dielectric constant tensor:
#      x y z
#    x 3.731160 -0.047000 0.090900 
#    y -0.047000 4.029260 0.003240 
#    z 0.090900 0.003240 3.900200 
# 
# 
# High freq. dielectric constant tensor:
#      x y z
#    x 1.800660 -0.005910 0.001640 
#    y -0.005910 1.801350 -0.000790 
#    z 0.001640 -0.000790 1.831480 
# 
# From -- ./inp_files/337658.got.cif
#   From: 2010.06.25/outbox.cif.g09.slc.cpg/sg2_169_cif.got.tgz:337658.got - 2010.06.27 13:26:56.
