data_PCOD8005563
_publ_section_title
;
Structure prediction by ZEFSAII (Michael W. Deem and Ramdas Pophale) SiO2 
 PCOD8005563
Probable space group: P -1
;
_chemical_formula_sum "Si O2"
_cell_formula_units_Z 16
_cell_length_a 6.424342
_cell_length_b 29.613762
_cell_length_c 27.750423
_cell_angle_alpha 9.516980
_cell_angle_beta 117.900726
_cell_angle_gamma 118.450102
_cell_volume 767.425487
_symmetry_space_group_name_H-M "P -1"
_symmetry_group_IT_number 2
_symmetry_cell_setting 'triclinic'
loop_
_space_group_symop_operation_xyz
x,y,z
-x,-y,-z
loop_
_atom_site_type_symbol
_atom_site_label
_atom_site_fract_x
_atom_site_fract_y
_atom_site_fract_z
Si Si1 0.151665 0.407791 0.657130
Si Si2 0.658452 0.065560 0.550947
Si Si3 0.784849 0.304668 0.492107
Si Si4 0.457282 0.527623 0.805823
Si Si5 0.960524 0.593302 0.818106
Si Si6 0.424333 0.894484 0.223513
Si Si7 0.789232 0.773941 0.709750
Si Si8 0.942418 0.208653 0.941545
O O1 0.366363 0.647568 0.438583
O O2 0.000000 0.500000 0.500000
O O3 0.977948 0.352508 0.742039
O O4 0.246987 0.121748 0.954845
O O5 0.601592 0.233036 0.416074
O O6 0.461503 0.100628 0.451083
O O7 0.916074 0.144535 0.472302
O O8 0.679608 0.753035 0.895258
O O9 0.626495 0.399884 0.332059
O O10 0.611270 0.249215 0.577164
O O11 0.999808 0.544223 0.273789
O O12 0.880342 0.018807 0.789478
O O13 0.736249 0.476719 0.884180
O O14 0.828319 0.624144 0.821716
O O15 0.180529 0.411233 0.044173
O O16 0.683389 0.051541 0.082513
O O17 0.000000 0.000000 0.500000
#
# Coordination Sequence:
#
# PCOD8005563 Si02
#       8
#     2   2   2   2   2   2   2   2
#     4  10  21  36  58  92 126 154 193 242 286 338
#     4  11  24  39  61  86 115 150 188 234 296 351
#     4  10  22  39  58  81 114 150 196 249 284 338
#     4  11  24  40  57  86 115 144 194 244 289 342
#     4  10  23  39  58  86 116 149 187 235 289 352
#     4  10  21  38  60  85 116 161 197 234 290 341
#     4  10  20  39  60  84 116 150 187 231 284 357
#     4  10  21  39  60  85 116 156 202 237 286 346
#
# _framework density 20.848928000000001
#
# number of rings (size 3 to 8) (size 9 to 14) (size 15 to 20)
#    0.000    1.750    1.250    2.250    1.750    3.500 
#    0.000    0.000    0.000    0.000    0.000    0.000 
#    0.000    0.000    0.000    0.000    0.000    0.000 
#
# Total GULP energy -198297.876507 kJ/mol
# GULP energy per Si atom -12393.617282 kJ/mol
# Density = 2.080147 g / cm^3
# Si number density = 20.848928 Si / 1000 Ang^3
#
#
#
# Elastic Constant Matrix: (Units=GPa)
#
#
# Indices 1 2 3 4 5 6 
#
# 1 55.7108 24.1308 12.5171 8.4462 -26.6021 19.8245
# 2 24.1308 111.1741 49.7892 18.6020 -16.0513 22.8815
# 3 12.5171 49.7892 103.1025 9.1908 -21.5421 22.2825
# 4 8.4462 18.6020 9.1908 49.3016 5.0833 2.0253
# 5 -26.6021 -16.0513 -21.5421 5.0833 34.1846 -10.5086
# 6 19.8245 22.8815 22.2825 2.0253 -10.5086 8.3759
#
#
#
# Elastic Compliance Matrix: (Units=1/GPa)
#
#
# Indices 1 2 3 4 5 6 
#
# 1 -0.011437 -0.014918 -0.016324 0.004332 0.011462 0.124585
# 2 -0.014918 0.010006 -0.010568 -0.000116 -0.003989 0.031114
# 3 -0.016324 -0.010568 0.004519 0.003318 0.002440 0.057744
# 4 0.004332 -0.000116 0.003318 0.021231 -0.008295 -0.034302
# 5 0.011462 -0.003989 0.002440 -0.008295 0.053233 0.046070
# 6 0.124585 0.031114 0.057744 -0.034302 0.046070 -0.348006
#
#
# Mechanical properties :
#
#
# Convention : Reuss Voigt Hill
#
# Bulk Modulus (GPa) = -12.41716 49.20686 18.39485
# Shear Modulus (GPa) = -23.39961 30.60910 3.60474
#
# Velocity S-wave (km/s) = -3.35377 3.83579 1.31633
# Velocity P-wave (km/s) = 4.57884 6.57803 3.33952
#
# Compressibility (1/GPa) = -0.08053369
#
# Stress axis : x y z
#
# Youngs Moduli (GPa) = -87.43353 99.94356 221.30426
#
# Poissons Ratio (x) = 1.49101 3.61251
# Poissons Ratio (y) = -1.30437 2.33878
# Poissons Ratio (z) = -1.42724 1.05622
#
# Static dielectric constant tensor:
#      x y z
#    x 3.426090 0.256130 0.266280 
#    y 0.256130 3.580310 -0.399660 
#    z 0.266280 -0.399660 3.487730 
# 
# 
# High freq. dielectric constant tensor:
#      x y z
#    x 1.799080 0.010450 -0.008070 
#    y 0.010450 1.815150 -0.004530 
#    z -0.008070 -0.004530 1.835280 
# 
# From -- ./inp_files/12904.got.cif
#   From: 2010.06.25/outbox.cif.g09.slc.cpg/sg2_7_cif.got.tgz:12904.got - 2010.06.27 13:26:56.
