data_PCOD8005856
_publ_section_title
;
Structure prediction by ZEFSAII (Michael W. Deem and Ramdas Pophale) SiO2 
 PCOD8005856
Probable space group: P -1
;
_chemical_formula_sum "Si O2"
_cell_formula_units_Z 16
_cell_length_a 29.844052
_cell_length_b 6.410773
_cell_length_c 9.026782
_cell_angle_alpha 101.384258
_cell_angle_beta 151.976484
_cell_angle_gamma 71.945411
_cell_volume 760.159948
_symmetry_space_group_name_H-M "P -1"
_symmetry_group_IT_number 2
_symmetry_cell_setting 'triclinic'
loop_
_space_group_symop_operation_xyz
x,y,z
-x,-y,-z
loop_
_atom_site_type_symbol
_atom_site_label
_atom_site_fract_x
_atom_site_fract_y
_atom_site_fract_z
Si Si1 0.167506 0.652286 0.792737
Si Si2 0.629738 0.312583 0.257939
Si Si3 0.982735 0.029858 0.779003
Si Si4 0.093142 0.311313 0.679568
Si Si5 0.497488 0.231269 0.098628
Si Si6 0.845552 0.036370 0.949363
Si Si7 0.463976 0.802084 0.304803
Si Si8 0.379213 0.659289 0.298840
O O1 0.168945 0.407007 0.815873
O O2 0.099006 0.731550 0.458528
O O3 0.115944 0.807797 0.803237
O O4 0.273808 0.689490 0.073960
O O5 0.573508 0.338853 0.252444
O O6 0.743255 0.179000 0.597099
O O7 0.609968 0.572275 0.180765
O O8 0.582366 0.162550 0.990522
O O9 0.944645 0.836056 0.569563
O O10 0.083181 0.039671 0.993240
O O11 0.000000 0.000000 0.000000
O O12 0.000000 0.500000 0.500000
O O13 0.156909 0.175651 0.985770
O O14 0.550996 0.196003 0.409102
O O15 0.500000 0.000000 0.000000
O O16 0.373498 0.749762 0.126871
O O17 0.564249 0.599823 0.567750
O O18 0.500000 0.000000 0.500000
#
# Coordination Sequence:
#
# PCOD8005856 Si02
#       8
#     2   2   2   2   2   2   2   2
#     4  11  22  43  67  92 128 172 222 266 324 399
#     4  10  22  38  59  95 128 159 210 268 316 383
#     4  11  25  42  66  96 134 164 211 283 331 384
#     4  11  21  44  69  91 126 180 221 264 327 393
#     4  10  20  39  63  90 124 161 210 262 318 380
#     4  11  22  42  65  95 130 168 215 273 329 382
#     4  10  22  41  63  86 134 172 206 264 330 386
#     4  10  22  40  61  94 124 167 216 263 318 388
#
# _framework density 21.048200000000001
#
# number of rings (size 3 to 8) (size 9 to 14) (size 15 to 20)
#    0.000    1.500    3.750    1.500    1.750    3.500 
#    0.000    0.000    0.000    0.000    0.000    0.000 
#    0.000    0.000    0.000    0.000    0.000    0.000 
#
# Total GULP energy -198209.319095 kJ/mol
# GULP energy per Si atom -12388.082443 kJ/mol
# Density = 2.100029 g / cm^3
# Si number density = 21.048200 Si / 1000 Ang^3
#
#
#
# Elastic Constant Matrix: (Units=GPa)
#
#
# Indices 1 2 3 4 5 6 
#
# 1 108.8573 28.1959 46.5728 -8.0050 -7.1099 7.7276
# 2 28.1959 110.7620 53.6832 -3.9085 -2.7727 -4.1187
# 3 46.5728 53.6832 125.3965 -20.6947 -9.1249 6.0283
# 4 -8.0050 -3.9085 -20.6947 27.6917 -1.9712 -6.0632
# 5 -7.1099 -2.7727 -9.1249 -1.9712 34.7598 2.5286
# 6 7.7276 -4.1187 6.0283 -6.0632 2.5286 30.0501
#
#
#
# Elastic Compliance Matrix: (Units=1/GPa)
#
#
# Indices 1 2 3 4 5 6 
#
# 1 0.011247 -0.001273 -0.003387 0.000101 0.001497 -0.002493
# 2 -0.001273 0.011841 -0.005127 -0.002016 -0.000969 0.002654
# 3 -0.003387 -0.005127 0.013003 0.007983 0.002842 -0.001069
# 4 0.000101 -0.002016 0.007983 0.043537 0.003948 0.006548
# 5 0.001497 -0.000969 0.002842 0.003948 0.030174 -0.002830
# 6 -0.002493 0.002654 -0.001069 0.006548 -0.002830 0.036056
#
#
# Mechanical properties :
#
#
# Convention : Reuss Voigt Hill
#
# Bulk Modulus (GPa) = 60.54345 66.87994 63.71170
# Shear Modulus (GPa) = 29.25029 32.93791 31.09410
#
# Velocity S-wave (km/s) = 3.73189 3.96015 3.84771
# Velocity P-wave (km/s) = 6.88447 7.26320 7.07637
#
# Compressibility (1/GPa) = 0.01651706
#
# Stress axis : x y z
#
# Youngs Moduli (GPa) = 88.91031 84.45445 76.90446
#
# Poissons Ratio (x) = 0.10754 0.26045
# Poissons Ratio (y) = 0.11322 0.39429
# Poissons Ratio (z) = 0.30111 0.43300
#
# Static dielectric constant tensor:
#      x y z
#    x 4.006080 0.023350 -0.237320 
#    y 0.023350 3.833560 -0.211810 
#    z -0.237320 -0.211810 3.766290 
# 
# 
# High freq. dielectric constant tensor:
#      x y z
#    x 1.831620 0.000850 -0.012270 
#    y 0.000850 1.820160 -0.011530 
#    z -0.012270 -0.011530 1.816950 
# 
# From -- ./inp_files/358248.got.cif
#   From: 2010.06.25/outbox.cif.g09.slc.cpg/sg2_180_cif.got.tgz:358248.got - 2010.06.27 13:26:56.
