data_PCOD8005927
_publ_section_title
;
Structure prediction by ZEFSAII (Michael W. Deem and Ramdas Pophale) SiO2 
 PCOD8005927
Probable space group: P -1
;
_chemical_formula_sum "Si O2"
_cell_formula_units_Z 16
_cell_length_a 6.930953
_cell_length_b 28.056875
_cell_length_c 5.292922
_cell_angle_alpha 96.002695
_cell_angle_beta 107.596545
_cell_angle_gamma 45.330765
_cell_volume 688.835787
_symmetry_space_group_name_H-M "P -1"
_symmetry_group_IT_number 2
_symmetry_cell_setting 'triclinic'
loop_
_space_group_symop_operation_xyz
x,y,z
-x,-y,-z
loop_
_atom_site_type_symbol
_atom_site_label
_atom_site_fract_x
_atom_site_fract_y
_atom_site_fract_z
Si Si1 0.230490 0.533919 0.586353
Si Si2 0.303685 0.056967 0.658220
Si Si3 0.166346 0.644365 0.847332
Si Si4 0.064251 0.272759 0.696126
Si Si5 0.155490 0.794276 0.439352
Si Si6 0.890746 0.967891 0.028877
Si Si7 0.779737 0.556808 0.144203
Si Si8 0.690202 0.182026 0.005607
O O1 0.500000 0.500000 0.500000
O O2 0.198369 0.581337 0.805780
O O3 0.295416 0.471668 0.698946
O O4 0.926682 0.579058 0.340893
O O5 0.149330 0.131678 0.557484
O O6 0.500000 0.000000 0.500000
O O7 0.547403 0.031260 0.939247
O O8 0.064203 0.059341 0.679969
O O9 0.966968 0.695131 0.565913
O O10 0.474120 0.620102 0.929744
O O11 0.033817 0.676767 0.086357
O O12 0.868341 0.258629 0.602573
O O13 0.396791 0.203322 0.835241
O O14 0.363884 0.776975 0.740104
O O15 0.241317 0.795518 0.192693
O O16 0.050609 0.900047 0.883356
O O17 0.000000 0.000000 0.000000
O O18 0.000000 0.500000 0.000000
#
# Coordination Sequence:
#
# PCOD8005927 Si02
#       8
#     2   2   2   2   2   2   2   2
#     4  11  24  46  73 108 146 175 219 289 342 408
#     4  10  20  39  63  99 128 171 223 293 356 410
#     4  12  27  47  72 104 142 181 235 279 334 417
#     4  12  28  47  66 102 137 191 239 276 337 408
#     4  11  24  46  70  94 144 179 233 295 345 409
#     4  10  21  38  63  98 131 170 226 285 358 419
#     4  11  25  44  75 107 139 181 221 276 360 399
#     4  11  24  46  68  95 135 187 231 286 347 409
#
# _framework density 23.227596999999999
#
# number of rings (size 3 to 8) (size 9 to 14) (size 15 to 20)
#    0.000    1.000    2.500    3.375    3.500    3.500 
#    4.500    0.000    0.000    0.000    0.000    0.000 
#    0.000    0.000    0.000    0.000    0.000    0.000 
#
# Total GULP energy -198237.280988 kJ/mol
# GULP energy per Si atom -12389.830062 kJ/mol
# Density = 2.317473 g / cm^3
# Si number density = 23.227597 Si / 1000 Ang^3
#
#
#
# Elastic Constant Matrix: (Units=GPa)
#
#
# Indices 1 2 3 4 5 6 
#
# 1 119.9264 19.1409 25.9767 5.4132 3.4784 13.9266
# 2 19.1409 65.1216 17.8244 9.2919 6.2271 3.7694
# 3 25.9767 17.8244 107.8540 13.2625 5.1486 8.7291
# 4 5.4132 9.2919 13.2625 42.0913 -6.9222 8.6491
# 5 3.4784 6.2271 5.1486 -6.9222 46.5489 -4.4927
# 6 13.9266 3.7694 8.7291 8.6491 -4.4927 40.2452
#
#
#
# Elastic Compliance Matrix: (Units=1/GPa)
#
#
# Indices 1 2 3 4 5 6 
#
# 1 0.009369 -0.002128 -0.001694 0.000297 -0.000453 -0.002790
# 2 -0.002128 0.017187 -0.001797 -0.003349 -0.002443 -0.000037
# 3 -0.001694 -0.001797 0.010454 -0.002669 -0.001291 -0.001084
# 4 0.000297 -0.003349 -0.002669 0.026934 0.004290 -0.004520
# 5 -0.000453 -0.002443 -0.001291 0.004290 0.022846 0.002294
# 6 -0.002790 -0.000037 -0.001084 -0.004520 0.002294 0.027279
#
#
# Mechanical properties :
#
#
# Convention : Reuss Voigt Hill
#
# Bulk Modulus (GPa) = 38.80008 46.53177 42.66593
# Shear Modulus (GPa) = 37.34258 41.10774 39.22516
#
# Velocity S-wave (km/s) = 4.01394 4.21144 4.11388
# Velocity P-wave (km/s) = 6.18246 6.61247 6.40108
#
# Compressibility (1/GPa) = 0.02577314
#
# Stress axis : x y z
#
# Youngs Moduli (GPa) = 106.73910 58.18517 95.65512
#
# Poissons Ratio (x) = 0.12380 0.16204
# Poissons Ratio (y) = 0.22710 0.17184
# Poissons Ratio (z) = 0.18081 0.10453
#
# Static dielectric constant tensor:
#      x y z
#    x 5.129850 -0.421320 -0.198170 
#    y -0.421320 3.974940 0.285850 
#    z -0.198170 0.285850 4.336500 
# 
# 
# High freq. dielectric constant tensor:
#      x y z
#    x 1.917140 -0.010830 -0.000540 
#    y -0.010830 1.911810 -0.002030 
#    z -0.000540 -0.002030 1.931220 
# 
# From -- ./inp_files/14540.got.cif
#   From: 2010.06.25/outbox.cif.g09.slc.cpg/sg2_8_cif.got.tgz:14540.got - 2010.06.27 13:26:56.
