data_PCOD8005832
_publ_section_title
;
Structure prediction by ZEFSAII (Michael W. Deem and Ramdas Pophale) SiO2 
 PCOD8005832
Probable space group: P -1
;
_chemical_formula_sum "Si O2"
_cell_formula_units_Z 14
_cell_length_a 7.844705
_cell_length_b 14.208273
_cell_length_c 7.067913
_cell_angle_alpha 90.309398
_cell_angle_beta 107.990695
_cell_angle_gamma 127.344194
_cell_volume 575.993695
_symmetry_space_group_name_H-M "P -1"
_symmetry_group_IT_number 2
_symmetry_cell_setting 'triclinic'
loop_
_space_group_symop_operation_xyz
x,y,z
-x,-y,-z
loop_
_atom_site_type_symbol
_atom_site_label
_atom_site_fract_x
_atom_site_fract_y
_atom_site_fract_z
Si Si1 0.619860 0.297611 0.565606
Si Si2 0.053565 0.323267 0.769040
Si Si3 0.825432 0.527365 0.855413
Si Si4 0.113562 0.095555 0.305629
Si Si5 0.013338 0.269304 0.341033
Si Si6 0.697922 0.319359 0.166079
Si Si7 0.809813 0.835400 0.093026
O O1 0.786323 0.269260 0.692378
O O2 0.630405 0.392176 0.707877
O O3 0.359256 0.170310 0.498245
O O4 0.680631 0.356412 0.373650
O O5 0.129854 0.341194 0.579290
O O6 0.071776 0.226691 0.868068
O O7 0.210384 0.454245 0.935457
O O8 0.812623 0.626106 0.751391
O O9 0.083885 0.567382 0.887849
O O10 0.984988 0.148458 0.319430
O O11 0.171202 0.112463 0.104777
O O12 0.945433 0.949454 0.291182
O O13 0.754308 0.227135 0.221560
O O14 0.467959 0.259418 0.959930
#
# Coordination Sequence:
#
# PCOD8005832 Si02
#       7
#     2   2   2   2   2   2   2
#     4  10  21  38  62  88 122 157 198 237 307 348
#     4  11  22  38  61  93 117 158 201 243 292 358
#     4  10  20  41  62  86 126 153 194 249 291 360
#     4  10  21  40  62  87 120 163 191 251 296 350
#     4   9  21  39  60  90 120 156 198 236 309 343
#     4   8  19  37  60  86 119 159 189 244 298 346
#     4  10  20  39  63  88 120 152 210 239 294 356
#
# _framework density 24.305824000000001
#
# number of rings (size 3 to 8) (size 9 to 14) (size 15 to 20)
#    0.857    1.429    1.429    0.857    0.000    3.429 
#    0.000    2.857    0.000    0.000    0.000    0.000 
#    0.000    0.000    0.000    0.000    0.000    0.000 
#
# Total GULP energy -173470.744288 kJ/mol
# GULP energy per Si atom -12390.767449 kJ/mol
# Density = 2.425050 g / cm^3
# Si number density = 24.305824 Si / 1000 Ang^3
#
#
#
# Elastic Constant Matrix: (Units=GPa)
#
#
# Indices 1 2 3 4 5 6 
#
# 1 90.2710 46.2212 52.1802 16.4494 4.0270 -25.5896
# 2 46.2212 69.3311 46.3100 20.8360 2.4796 -17.3435
# 3 52.1802 46.3100 143.0224 37.0056 -0.4174 -9.9217
# 4 16.4494 20.8360 37.0056 32.1557 -7.9986 -3.4301
# 5 4.0270 2.4796 -0.4174 -7.9986 42.4203 0.1207
# 6 -25.5896 -17.3435 -9.9217 -3.4301 0.1207 39.8007
#
#
#
# Elastic Compliance Matrix: (Units=1/GPa)
#
#
# Indices 1 2 3 4 5 6 
#
# 1 0.020261 -0.008846 -0.004135 0.000667 -0.001345 0.008203
# 2 -0.008846 0.025988 -0.002376 -0.009767 -0.002556 0.004211
# 3 -0.004135 -0.002376 0.011873 -0.010514 -0.001330 -0.001636
# 4 0.000667 -0.009767 -0.010514 0.051485 0.010118 -0.002042
# 5 -0.001345 -0.002556 -0.001330 0.010118 0.025750 -0.001516
# 6 0.008203 0.004211 -0.001636 -0.002042 -0.001516 0.031655
#
#
# Mechanical properties :
#
#
# Convention : Reuss Voigt Hill
#
# Bulk Modulus (GPa) = 36.48498 65.78301 51.13399
# Shear Modulus (GPa) = 24.17086 33.40288 28.78687
#
# Velocity S-wave (km/s) = 3.15691 3.71114 3.44519
# Velocity P-wave (km/s) = 5.32273 6.74440 6.07529
#
# Compressibility (1/GPa) = 0.02740854
#
# Stress axis : x y z
#
# Youngs Moduli (GPa) = 49.35559 38.47982 84.22590
#
# Poissons Ratio (x) = 0.34038 0.34829
# Poissons Ratio (y) = 0.43658 0.20009
# Poissons Ratio (z) = 0.20410 0.09142
#
# Static dielectric constant tensor:
#      x y z
#    x 4.197490 -0.138630 -0.068450 
#    y -0.138630 4.126870 -0.089340 
#    z -0.068450 -0.089340 4.748110 
# 
# 
# High freq. dielectric constant tensor:
#      x y z
#    x 1.957950 -0.018280 -0.015350 
#    y -0.018280 1.943480 -0.020900 
#    z -0.015350 -0.020900 1.983940 
# 
# From -- ./inp_files/207970.got.cif
#   From: 2010.06.25/outbox.cif.g09.slc.cpg/sg2_104_cif.got.tgz:207970.got - 2010.06.27 13:26:56.
