data_PCOD8005053
_publ_section_title
;
Structure prediction by ZEFSAII (Michael W. Deem and Ramdas Pophale) SiO2 
 PCOD8005053
Probable space group: P -1
;
_chemical_formula_sum "Si O2"
_cell_formula_units_Z 16
_cell_length_a 16.419134
_cell_length_b 12.724079
_cell_length_c 8.980013
_cell_angle_alpha 69.323438
_cell_angle_beta 144.439705
_cell_angle_gamma 128.430031
_cell_volume 805.359459
_symmetry_space_group_name_H-M "P -1"
_symmetry_group_IT_number 2
_symmetry_cell_setting 'triclinic'
loop_
_space_group_symop_operation_xyz
x,y,z
-x,-y,-z
loop_
_atom_site_type_symbol
_atom_site_label
_atom_site_fract_x
_atom_site_fract_y
_atom_site_fract_z
Si Si1 0.993843 0.618735 0.505106
Si Si2 0.992546 0.616794 0.856644
Si Si3 0.775096 0.885734 0.883188
Si Si4 0.179126 0.071062 0.396599
Si Si5 0.683362 0.598279 0.899872
Si Si6 0.313819 0.934626 0.180690
Si Si7 0.717096 0.631831 0.590282
Si Si8 0.316220 0.934980 0.835085
O O1 0.167401 0.774452 0.635749
O O2 0.000000 0.500000 0.500000
O O3 0.991310 0.602930 0.685515
O O4 0.818540 0.599252 0.205839
O O5 0.809057 0.583506 0.650184
O O6 0.000000 0.500000 0.000000
O O7 0.161845 0.772537 0.087520
O O8 0.723118 0.901454 0.631154
O O9 0.663957 0.721273 0.847683
O O10 0.974380 0.937199 0.147867
O O11 0.745365 0.968853 0.915277
O O12 0.190103 0.205528 0.393875
O O13 0.266014 0.037165 0.668128
O O14 0.744493 0.611790 0.813379
O O15 0.489102 0.452874 0.712566
O O16 0.500000 0.000000 0.500000
O O17 0.340271 0.938909 0.043566
O O18 0.500000 0.000000 0.000000
#
# Coordination Sequence:
#
# PCOD8005053 Si02
#       8
#     2   2   2   2   2   2   2   2
#     4  11  25  43  63  89 124 164 206 253 305 362
#     4  11  25  43  63  89 124 164 206 253 305 362
#     4  10  20  38  64  90 120 159 201 249 304 360
#     4  10  20  38  64  90 120 159 201 249 304 360
#     4  10  22  40  63  91 124 161 201 248 302 362
#     4  11  25  42  63  91 124 162 205 254 306 362
#     4  10  22  40  63  91 124 161 201 248 302 362
#     4  11  25  42  63  91 124 162 205 254 306 362
#
# _framework density 19.866906
#
# number of rings (size 3 to 8) (size 9 to 14) (size 15 to 20)
#    0.000    1.500    2.500    1.500    3.500    5.000 
#    0.000    0.000    0.000    0.000    0.000    0.000 
#    0.000    0.000    0.000    0.000    0.000    0.000 
#
# Total GULP energy -198453.934841 kJ/mol
# GULP energy per Si atom -12403.370928 kJ/mol
# Density = 1.982169 g / cm^3
# Si number density = 19.866906 Si / 1000 Ang^3
#
#
#
# Elastic Constant Matrix: (Units=GPa)
#
#
# Indices 1 2 3 4 5 6 
#
# 1 94.6920 43.1333 29.1607 -0.5132 9.3313 -12.1776
# 2 43.1333 88.7489 39.7715 -1.1537 -1.8938 -6.7308
# 3 29.1607 39.7715 122.3365 -0.9923 2.0534 5.7237
# 4 -0.5132 -1.1537 -0.9923 31.1360 -1.0945 -1.0620
# 5 9.3313 -1.8938 2.0534 -1.0945 20.9555 1.4821
# 6 -12.1776 -6.7308 5.7237 -1.0620 1.4821 33.3220
#
#
#
# Elastic Compliance Matrix: (Units=1/GPa)
#
#
# Indices 1 2 3 4 5 6 
#
# 1 0.015447 -0.006557 -0.001654 -0.000142 -0.007666 0.004941
# 2 -0.006557 0.016424 -0.003917 0.000589 0.004719 0.001403
# 3 -0.001654 -0.003917 0.009993 0.000027 -0.000376 -0.003095
# 4 -0.000142 0.000589 0.000027 0.032233 0.001726 0.001013
# 5 -0.007666 0.004719 -0.000376 0.001726 0.051973 -0.004040
# 6 0.004941 0.001403 -0.003095 0.001013 -0.004040 0.032843
#
#
# Mechanical properties :
#
#
# Convention : Reuss Voigt Hill
#
# Bulk Modulus (GPa) = 56.78868 58.87871 57.83370
# Shear Modulus (GPa) = 26.44982 29.99686 28.22334
#
# Velocity S-wave (km/s) = 3.65273 3.88995 3.77320
# Velocity P-wave (km/s) = 6.81443 7.06233 6.93949
#
# Compressibility (1/GPa) = 0.01760914
#
# Stress axis : x y z
#
# Youngs Moduli (GPa) = 64.73899 60.88488 100.06924
#
# Poissons Ratio (x) = 0.39921 0.16551
# Poissons Ratio (y) = 0.42448 0.39195
# Poissons Ratio (z) = 0.10708 0.23847
#
# Static dielectric constant tensor:
#      x y z
#    x 3.566520 0.032290 -0.020890 
#    y 0.032290 3.842220 0.061400 
#    z -0.020890 0.061400 3.751420 
# 
# 
# High freq. dielectric constant tensor:
#      x y z
#    x 1.770770 0.000000 0.002670 
#    y 0.000000 1.789790 0.003630 
#    z 0.002670 0.003630 1.778100 
# 
# From -- ./inp_files/262832.got.cif
#   From: 2010.06.25/outbox.cif.g09.slc.cpg/sg2_132_cif.got.tgz:262832.got - 2010.06.27 13:26:56.
