data_PCOD8005604
_publ_section_title
;
Structure prediction by ZEFSAII (Michael W. Deem and Ramdas Pophale) SiO2 
 PCOD8005604
Probable space group: P -1
;
_chemical_formula_sum "Si O2"
_cell_formula_units_Z 16
_cell_length_a 12.072743
_cell_length_b 11.190313
_cell_length_c 13.971498
_cell_angle_alpha 116.360731
_cell_angle_beta 31.526742
_cell_angle_gamma 96.143455
_cell_volume 720.779733
_symmetry_space_group_name_H-M "P -1"
_symmetry_group_IT_number 2
_symmetry_cell_setting 'triclinic'
loop_
_space_group_symop_operation_xyz
x,y,z
-x,-y,-z
loop_
_atom_site_type_symbol
_atom_site_label
_atom_site_fract_x
_atom_site_fract_y
_atom_site_fract_z
Si Si1 0.289615 0.861617 0.113317
Si Si2 0.129801 0.380361 0.449643
Si Si3 0.846149 0.222230 0.623756
Si Si4 0.419093 0.724862 0.350949
Si Si5 0.666691 0.269321 0.302911
Si Si6 0.326816 0.526825 0.486761
Si Si7 0.008776 0.094951 0.833263
Si Si8 0.774706 0.689408 0.223865
O O1 0.266381 0.775164 0.190632
O O2 0.191992 0.819144 0.076428
O O3 0.592259 0.785093 0.844564
O O4 0.113263 0.054047 0.333848
O O5 0.151755 0.469963 0.557190
O O6 0.000000 0.500000 0.500000
O O7 0.923282 0.346639 0.621783
O O8 0.610282 0.282045 0.743973
O O9 0.418685 0.577083 0.344342
O O10 0.675690 0.707824 0.193454
O O11 0.186452 0.903275 0.619826
O O12 0.564339 0.389368 0.327991
O O13 0.818167 0.316315 0.279208
O O14 0.450046 0.264497 0.517034
O O15 0.878327 0.101328 0.033568
O O16 0.153247 0.184337 0.765677
O O17 0.000000 0.500000 0.000000
#
# Coordination Sequence:
#
# PCOD8005604 Si02
#       8
#     2   2   2   2   2   2   2   2
#     4  10  24  43  67  91 126 164 214 254 315 369
#     4  12  23  40  66  93 126 162 210 256 316 368
#     4  10  23  46  65  90 125 169 207 264 305 369
#     4  10  22  43  64  92 131 160 212 259 310 368
#     4  10  22  42  65  89 126 164 208 256 316 364
#     4  10  20  39  60  91 125 159 202 254 305 373
#     4  11  22  42  68  92 125 167 205 265 308 370
#     4  11  24  40  65  94 125 166 206 253 315 376
#
# _framework density 22.198181999999999
#
# number of rings (size 3 to 8) (size 9 to 14) (size 15 to 20)
#    0.000    1.500    2.500    3.000    1.750    2.500 
#    4.500    1.250    0.000    0.000    0.000    0.000 
#    0.000    0.000    0.000    0.000    0.000    0.000 
#
# Total GULP energy -198233.616744 kJ/mol
# GULP energy per Si atom -12389.601046 kJ/mol
# Density = 2.214766 g / cm^3
# Si number density = 22.198182 Si / 1000 Ang^3
#
#
#
# Elastic Constant Matrix: (Units=GPa)
#
#
# Indices 1 2 3 4 5 6 
#
# 1 149.0436 21.8458 27.5019 -15.7432 2.4206 1.3732
# 2 21.8458 83.0298 -1.7062 -19.8707 -1.4716 6.7142
# 3 27.5019 -1.7062 55.7786 -16.0350 2.8625 3.1188
# 4 -15.7432 -19.8707 -16.0350 20.4044 -4.5378 -4.2318
# 5 2.4206 -1.4716 2.8625 -4.5378 33.6061 6.1276
# 6 1.3732 6.7142 3.1188 -4.2318 6.1276 34.8035
#
#
#
# Elastic Compliance Matrix: (Units=1/GPa)
#
#
# Indices 1 2 3 4 5 6 
#
# 1 0.007775 -0.001776 -0.003438 0.001638 -0.000230 0.000584
# 2 -0.001776 0.018524 0.008106 0.023458 0.003789 -0.002045
# 3 -0.003438 0.008106 0.027647 0.027235 0.002101 -0.000964
# 4 0.001638 0.023458 0.027235 0.097615 0.011249 0.002858
# 5 -0.000230 0.003789 0.002101 0.011249 0.032230 -0.005217
# 6 0.000584 -0.002045 -0.000964 0.002858 -0.005217 0.030457
#
#
# Mechanical properties :
#
#
# Convention : Reuss Voigt Hill
#
# Bulk Modulus (GPa) = 16.74194 42.57054 29.65624
# Shear Modulus (GPa) = 21.89394 33.77683 27.83538
#
# Velocity S-wave (km/s) = 3.14394 3.90501 3.54496
# Velocity P-wave (km/s) = 4.55385 6.28898 5.49039
#
# Compressibility (1/GPa) = 0.05973025
#
# Stress axis : x y z
#
# Youngs Moduli (GPa) = 128.60944 53.98366 36.17094
#
# Poissons Ratio (x) = 0.09586 0.12435
# Poissons Ratio (y) = 0.22837 -0.29319
# Poissons Ratio (z) = 0.44215 -0.43757
#
# Static dielectric constant tensor:
#      x y z
#    x 4.621430 -0.050800 -0.038490 
#    y -0.050800 3.849900 0.213840 
#    z -0.038490 0.213840 3.879320 
# 
# 
# High freq. dielectric constant tensor:
#      x y z
#    x 1.897970 -0.002190 0.003070 
#    y -0.002190 1.872370 0.015590 
#    z 0.003070 0.015590 1.860350 
# 
# From -- ./inp_files/516257.got.cif
#   From: 2010.06.25/outbox.cif.g09.slc.cpg/sg2_259_cif.got.tgz:516257.got - 2010.06.27 13:26:56.
