data_PCOD8005885
_publ_section_title
;
Structure prediction by ZEFSAII (Michael W. Deem and Ramdas Pophale) SiO2 
 PCOD8005885
Probable space group: P -1
;
_chemical_formula_sum "Si O2"
_cell_formula_units_Z 16
_cell_length_a 9.679316
_cell_length_b 14.601329
_cell_length_c 11.131798
_cell_angle_alpha 59.133820
_cell_angle_beta 110.746962
_cell_angle_gamma 62.824802
_cell_volume 765.451219
_symmetry_space_group_name_H-M "P -1"
_symmetry_group_IT_number 2
_symmetry_cell_setting 'triclinic'
loop_
_space_group_symop_operation_xyz
x,y,z
-x,-y,-z
loop_
_atom_site_type_symbol
_atom_site_label
_atom_site_fract_x
_atom_site_fract_y
_atom_site_fract_z
Si Si1 0.391016 0.902383 0.718321
Si Si2 0.226613 0.943215 0.137056
Si Si3 0.914912 0.539729 0.079847
Si Si4 0.223976 0.926877 0.890918
Si Si5 0.943974 0.280089 0.264823
Si Si6 0.262949 0.783902 0.599266
Si Si7 0.633917 0.590954 0.639184
Si Si8 0.882177 0.245819 0.996618
O O1 0.403726 0.869140 0.885624
O O2 0.238475 0.898365 0.603881
O O3 0.228380 0.101365 0.512178
O O4 0.671028 0.751983 0.868910
O O5 0.441909 0.744496 0.382170
O O6 0.142963 0.077519 0.121153
O O7 0.285756 0.956829 0.013047
O O8 0.000000 0.000000 0.000000
O O9 0.865928 0.445094 0.164996
O O10 0.134804 0.464572 0.272666
O O11 0.000000 0.500000 0.000000
O O12 0.274601 0.771977 0.029863
O O13 0.942734 0.098211 0.646201
O O14 0.760365 0.309501 0.264269
O O15 0.933285 0.266959 0.128186
O O16 0.522660 0.647471 0.703352
O O17 0.722637 0.420206 0.751506
#
# Coordination Sequence:
#
# PCOD8005885 Si02
#       8
#     2   2   2   2   2   2   2   2
#     4  11  21  39  62  90 127 160 198 248 309 368
#     4  10  22  41  60  90 122 156 209 261 293 345
#     4  12  26  38  57  96 132 160 196 242 308 379
#     4  10  20  39  63  93 118 156 208 260 299 344
#     4  11  22  38  63  94 123 165 195 246 315 356
#     4  11  19  38  65  93 124 151 204 261 297 360
#     4  12  24  40  60  95 127 156 205 251 299 370
#     4  11  20  34  63  89 120 161 193 252 313 338
#
# _framework density 20.902702000000001
#
# number of rings (size 3 to 8) (size 9 to 14) (size 15 to 20)
#    0.000    1.000    7.500    0.750    1.750    4.500 
#    0.000    0.625    0.000    3.750    0.000    0.000 
#    0.000    0.000    0.000    0.000    0.000    0.000 
#
# Total GULP energy -198286.449696 kJ/mol
# GULP energy per Si atom -12392.903106 kJ/mol
# Density = 2.085513 g / cm^3
# Si number density = 20.902702 Si / 1000 Ang^3
#
#
#
# Elastic Constant Matrix: (Units=GPa)
#
#
# Indices 1 2 3 4 5 6 
#
# 1 46.3584 6.5183 11.4740 5.5866 8.1245 -12.3424
# 2 6.5183 61.4923 29.8011 5.9844 -9.6056 -17.7820
# 3 11.4740 29.8011 121.6029 -1.7992 0.2610 -11.6372
# 4 5.5866 5.9844 -1.7992 32.0654 -2.9032 -5.0938
# 5 8.1245 -9.6056 0.2610 -2.9032 32.4651 -3.4325
# 6 -12.3424 -17.7820 -11.6372 -5.0938 -3.4325 33.0722
#
#
#
# Elastic Compliance Matrix: (Units=1/GPa)
#
#
# Indices 1 2 3 4 5 6 
#
# 1 0.025556 -0.000273 -0.001662 -0.003832 -0.006003 0.007593
# 2 -0.000273 0.023249 -0.004640 -0.002036 0.007995 0.011282
# 3 -0.001662 -0.004640 0.009585 0.001686 -0.000838 0.000431
# 4 -0.003832 -0.002036 0.001686 0.033230 0.003692 0.003570
# 5 -0.006003 0.007995 -0.000838 0.003692 0.035645 0.006032
# 6 0.007593 0.011282 0.000431 0.003570 0.006032 0.040464
#
#
# Mechanical properties :
#
#
# Convention : Reuss Voigt Hill
#
# Bulk Modulus (GPa) = 22.10306 36.11560 29.10933
# Shear Modulus (GPa) = 25.51567 31.63123 28.57345
#
# Velocity S-wave (km/s) = 3.49762 3.89428 3.70127
# Velocity P-wave (km/s) = 5.18733 6.12667 5.67646
#
# Compressibility (1/GPa) = 0.04524260
#
# Stress axis : x y z
#
# Youngs Moduli (GPa) = 39.12970 43.01220 104.32699
#
# Poissons Ratio (x) = 0.01173 0.17336
# Poissons Ratio (y) = 0.01067 0.48403
# Poissons Ratio (z) = 0.06502 0.19956
#
# Static dielectric constant tensor:
#      x y z
#    x 6.192800 0.281320 0.664360 
#    y 0.281320 5.219250 0.331150 
#    z 0.664360 0.331150 4.397160 
# 
# 
# High freq. dielectric constant tensor:
#      x y z
#    x 1.796330 -0.019080 -0.009560 
#    y -0.019080 1.805400 -0.009710 
#    z -0.009560 -0.009710 1.827400 
# 
# From -- ./inp_files/398618.got.cif
#   From: 2010.06.25/outbox.cif.g09.slc.cpg/sg2_200_cif.got.tgz:398618.got - 2010.06.27 13:26:56.
