data_PCOD8005375
_publ_section_title
;
Structure prediction by ZEFSAII (Michael W. Deem and Ramdas Pophale) SiO2 
 PCOD8005375
Probable space group: P -1
;
_chemical_formula_sum "Si O2"
_cell_formula_units_Z 12
_cell_length_a 9.271483
_cell_length_b 12.786139
_cell_length_c 15.188753
_cell_angle_alpha 149.214662
_cell_angle_beta 110.103972
_cell_angle_gamma 48.395217
_cell_volume 555.192069
_symmetry_space_group_name_H-M "P -1"
_symmetry_group_IT_number 2
_symmetry_cell_setting 'triclinic'
loop_
_space_group_symop_operation_xyz
x,y,z
-x,-y,-z
loop_
_atom_site_type_symbol
_atom_site_label
_atom_site_fract_x
_atom_site_fract_y
_atom_site_fract_z
Si Si1 0.268323 0.434162 0.184150
Si Si2 0.502906 0.383968 0.662985
Si Si3 0.838733 0.699199 0.195653
Si Si4 0.536709 0.773820 0.735134
Si Si5 0.327174 0.548704 0.935735
Si Si6 0.810318 0.213645 0.267741
O O1 0.315739 0.611044 0.285202
O O2 0.302677 0.387278 0.261083
O O3 0.995273 0.648106 0.266905
O O4 0.443936 0.095405 0.925487
O O5 0.447853 0.362905 0.734322
O O6 0.265678 0.702176 0.790475
O O7 0.621815 0.080315 0.410432
O O8 0.736623 0.589147 0.125397
O O9 0.000000 0.500000 0.000000
O O10 0.708886 0.523890 0.513400
O O11 0.305186 0.865060 0.765362
O O12 0.500000 0.500000 0.000000
O O13 0.093689 0.918922 0.128545
#
# Coordination Sequence:
#
# PCOD8005375 Si02
#       6
#     2   2   2   2   2   2
#     4  10  20  38  67  99 129 168 225 269 327 384
#     4  11  25  43  67 100 136 173 218 274 340 391
#     4  12  25  43  69  96 134 176 227 274 325 393
#     4   9  19  37  69 101 123 169 225 280 312 382
#     4  12  27  45  65  98 140 177 216 271 340 394
#     4  10  21  42  69  94 135 173 224 268 329 388
#
# _framework density 21.614139999999999
#
# number of rings (size 3 to 8) (size 9 to 14) (size 15 to 20)
#    0.000    1.333    1.667    3.500    7.000    0.000 
#    0.000    1.667    0.000    0.000    0.000    0.000 
#    0.000    0.000    0.000    0.000    0.000    0.000 
#
# Total GULP energy -148825.287788 kJ/mol
# GULP energy per Si atom -12402.107316 kJ/mol
# Density = 2.156495 g / cm^3
# Si number density = 21.614140 Si / 1000 Ang^3
#
#
#
# Elastic Constant Matrix: (Units=GPa)
#
#
# Indices 1 2 3 4 5 6 
#
# 1 124.0702 54.4541 53.7049 4.0653 14.0763 0.0943
# 2 54.4541 91.8357 42.7206 8.0357 -0.0072 -21.2870
# 3 53.7049 42.7206 121.0947 -7.5583 4.6515 7.6384
# 4 4.0653 8.0357 -7.5583 30.8710 -0.3000 -3.3726
# 5 14.0763 -0.0072 4.6515 -0.3000 31.9921 2.3237
# 6 0.0943 -21.2870 7.6384 -3.3726 2.3237 44.9878
#
#
#
# Elastic Compliance Matrix: (Units=1/GPa)
#
#
# Indices 1 2 3 4 5 6 
#
# 1 0.012968 -0.006749 -0.003081 -0.001029 -0.005087 -0.002512
# 2 -0.006749 0.019888 -0.005030 -0.004421 0.002953 0.009795
# 3 -0.003081 -0.005030 0.011919 0.004187 -0.000043 -0.004081
# 4 -0.001029 -0.004421 0.004187 0.034683 0.000184 -0.000210
# 5 -0.005087 0.002953 -0.000043 0.000184 0.033527 -0.000303
# 6 -0.002512 0.009795 -0.004081 -0.000210 -0.000303 0.027561
#
#
# Mechanical properties :
#
#
# Convention : Reuss Voigt Hill
#
# Bulk Modulus (GPa) = 66.42019 70.97331 68.69675
# Shear Modulus (GPa) = 28.52474 33.97823 31.25148
#
# Velocity S-wave (km/s) = 3.63674 3.96919 3.80660
# Velocity P-wave (km/s) = 6.95925 7.34260 7.15350
#
# Compressibility (1/GPa) = 0.01505566
#
# Stress axis : x y z
#
# Youngs Moduli (GPa) = 77.11035 50.28043 83.89659
#
# Poissons Ratio (x) = 0.33935 0.25847
# Poissons Ratio (y) = 0.52043 0.42203
# Poissons Ratio (z) = 0.23756 0.25293
#
# Static dielectric constant tensor:
#      x y z
#    x 3.727440 -0.152840 0.109240 
#    y -0.152840 4.067650 0.015650 
#    z 0.109240 0.015650 3.995640 
# 
# 
# High freq. dielectric constant tensor:
#      x y z
#    x 1.826640 -0.006910 0.011140 
#    y -0.006910 1.865510 0.000910 
#    z 0.011140 0.000910 1.856170 
# 
# From -- ./inp_files/152987.got.cif
#   From: 2010.06.25/outbox.cif.g09.slc.cpg/sg2_77_cif.got.tgz:152987.got - 2010.06.27 13:26:56.
