data_PCOD8005534
_publ_section_title
;
Structure prediction by ZEFSAII (Michael W. Deem and Ramdas Pophale) SiO2 
 PCOD8005534
Probable space group: P -1
;
_chemical_formula_sum "Si O2"
_cell_formula_units_Z 16
_cell_length_a 11.086033
_cell_length_b 13.798960
_cell_length_c 7.885507
_cell_angle_alpha 101.068962
_cell_angle_beta 104.246053
_cell_angle_gamma 40.070489
_cell_volume 752.632433
_symmetry_space_group_name_H-M "P -1"
_symmetry_group_IT_number 2
_symmetry_cell_setting 'triclinic'
loop_
_space_group_symop_operation_xyz
x,y,z
-x,-y,-z
loop_
_atom_site_type_symbol
_atom_site_label
_atom_site_fract_x
_atom_site_fract_y
_atom_site_fract_z
Si Si1 0.535255 0.094766 0.532367
Si Si2 0.564090 0.349873 0.467447
Si Si3 0.333666 0.990668 0.804808
Si Si4 0.772577 0.572603 0.516232
Si Si5 0.761099 0.124020 0.770823
Si Si6 0.244428 0.247744 0.996415
Si Si7 0.801009 0.129440 0.163770
Si Si8 0.930321 0.495597 0.208968
O O1 0.673629 0.035677 0.402798
O O2 0.325031 0.263375 0.497231
O O3 0.644911 0.088342 0.719087
O O4 0.500000 0.000000 0.500000
O O5 0.500000 0.500000 0.500000
O O6 0.365290 0.412044 0.416839
O O7 0.682577 0.245175 0.639117
O O8 0.673272 0.263692 0.300809
O O9 0.219617 0.976591 0.863163
O O10 0.233526 0.156018 0.849090
O O11 0.555091 0.864612 0.881967
O O12 0.826466 0.495335 0.322419
O O13 0.959738 0.477778 0.658919
O O14 0.736752 0.191645 0.968771
O O15 0.982140 0.969325 0.762523
O O16 0.221764 0.361869 0.919458
O O17 0.075174 0.338910 0.105445
#
# Coordination Sequence:
#
# PCOD8005534 Si02
#       8
#     2   2   2   2   2   2   2   2
#     4  11  22  40  66  97 130 168 213 264 330 387
#     4  11  24  45  68  92 131 175 219 272 328 387
#     4  11  22  38  64  94 131 168 216 266 329 383
#     4  10  21  40  58  90 124 170 209 263 319 383
#     4  10  25  44  70  98 129 173 218 277 324 383
#     4  10  22  36  59  99 128 173 207 266 325 385
#     4  11  23  46  69  95 133 169 224 275 323 392
#     4  10  20  39  59  86 135 163 212 261 317 384
#
# _framework density 21.258717000000001
#
# number of rings (size 3 to 8) (size 9 to 14) (size 15 to 20)
#    0.000    1.500    3.750    1.125    7.000    1.500 
#    9.000    0.000    0.000    0.000    0.000    0.000 
#    0.000    0.000    0.000    0.000    0.000    0.000 
#
# Total GULP energy -198318.622126 kJ/mol
# GULP energy per Si atom -12394.913883 kJ/mol
# Density = 2.121033 g / cm^3
# Si number density = 21.258717 Si / 1000 Ang^3
#
#
#
# Elastic Constant Matrix: (Units=GPa)
#
#
# Indices 1 2 3 4 5 6 
#
# 1 79.0442 43.6571 26.5006 5.0549 -1.8963 -4.3129
# 2 43.6571 96.3609 43.4321 12.8993 3.0540 -1.4553
# 3 26.5006 43.4321 122.1880 9.5330 -16.9135 -9.4709
# 4 5.0549 12.8993 9.5330 25.3977 -7.1596 -8.7862
# 5 -1.8963 3.0540 -16.9135 -7.1596 35.5200 11.2422
# 6 -4.3129 -1.4553 -9.4709 -8.7862 11.2422 22.9856
#
#
#
# Elastic Compliance Matrix: (Units=1/GPa)
#
#
# Indices 1 2 3 4 5 6 
#
# 1 0.017208 -0.007650 -0.000854 0.001941 0.000673 0.002805
# 2 -0.007650 0.017107 -0.004702 -0.007755 -0.004754 -0.002928
# 3 -0.000854 -0.004702 0.010836 0.000517 0.005078 0.001721
# 4 0.001941 -0.007755 0.000517 0.050050 0.005942 0.016311
# 5 0.000673 -0.004754 0.005078 0.005942 0.036545 -0.013685
# 6 0.002805 -0.002928 0.001721 0.016311 -0.013685 0.057484
#
#
# Mechanical properties :
#
#
# Convention : Reuss Voigt Hill
#
# Bulk Modulus (GPa) = 53.36051 58.30807 55.83429
# Shear Modulus (GPa) = 22.53390 29.04757 25.79073
#
# Velocity S-wave (km/s) = 3.25927 3.70047 3.48686
# Velocity P-wave (km/s) = 6.27047 6.76353 6.52166
#
# Compressibility (1/GPa) = 0.01874045
#
# Stress axis : x y z
#
# Youngs Moduli (GPa) = 58.11342 58.45439 92.28111
#
# Poissons Ratio (x) = 0.44719 0.07877
# Poissons Ratio (y) = 0.44458 0.43388
# Poissons Ratio (z) = 0.04960 0.27484
#
# Static dielectric constant tensor:
#      x y z
#    x 3.750840 -0.120990 -0.194830 
#    y -0.120990 4.047680 0.017170 
#    z -0.194830 0.017170 4.155650 
# 
# 
# High freq. dielectric constant tensor:
#      x y z
#    x 1.820690 -0.020020 -0.013180 
#    y -0.020020 1.827010 0.005040 
#    z -0.013180 0.005040 1.848460 
# 
# From -- ./inp_files/270711.got.cif
#   From: 2010.06.25/outbox.cif.g09.slc.cpg/sg2_136_cif.got.tgz:270711.got - 2010.06.27 13:26:56.
