data_PCOD8005880
_publ_section_title
;
Structure prediction by ZEFSAII (Michael W. Deem and Ramdas Pophale) SiO2 
 PCOD8005880
Probable space group: P -1
;
_chemical_formula_sum "Si O2"
_cell_formula_units_Z 16
_cell_length_a 9.058035
_cell_length_b 13.178887
_cell_length_c 8.597977
_cell_angle_alpha 96.460171
_cell_angle_beta 129.098767
_cell_angle_gamma 103.524867
_cell_volume 727.013960
_symmetry_space_group_name_H-M "P -1"
_symmetry_group_IT_number 2
_symmetry_cell_setting 'triclinic'
loop_
_space_group_symop_operation_xyz
x,y,z
-x,-y,-z
loop_
_atom_site_type_symbol
_atom_site_label
_atom_site_fract_x
_atom_site_fract_y
_atom_site_fract_z
Si Si1 0.332981 0.829899 0.800295
Si Si2 0.653389 0.524289 0.463852
Si Si3 0.931977 0.980989 0.712804
Si Si4 0.506679 0.609887 0.106937
Si Si5 0.583643 0.710739 0.864303
Si Si6 0.002320 0.171147 0.015620
Si Si7 0.885856 0.339058 0.137816
Si Si8 0.707495 0.960834 0.262787
O O1 0.482092 0.799572 0.776026
O O2 0.155812 0.718048 0.729216
O O3 0.238062 0.906614 0.663287
O O4 0.467344 0.895661 0.051664
O O5 0.500000 0.500000 0.500000
O O6 0.630075 0.619174 0.352398
O O7 0.591101 0.409804 0.309867
O O8 0.886496 0.563590 0.688520
O O9 0.946059 0.880088 0.802169
O O10 0.753726 0.923665 0.456418
O O11 0.147281 0.053641 0.780291
O O12 0.880797 0.068578 0.801830
O O13 0.500000 0.500000 0.000000
O O14 0.621250 0.711864 0.079288
O O15 0.279569 0.607031 0.000025
O O16 0.788592 0.740411 0.906355
O O17 0.871769 0.244575 0.983784
#
# Coordination Sequence:
#
# PCOD8005880 Si02
#       8
#     2   2   2   2   2   2   2   2
#     4  10  21  39  63  92 128 166 213 269 312 389
#     4  11  23  43  67  96 129 168 212 269 321 381
#     4  10  22  37  64  91 128 169 215 262 326 383
#     4   9  23  43  65  91 124 171 213 265 314 382
#     4  10  21  41  62  90 131 166 209 267 319 374
#     4  11  21  40  61  97 130 166 207 274 321 371
#     4  11  23  41  68  94 131 172 216 260 328 376
#     4  10  20  39  63  92 123 172 215 260 320 392
#
# _framework density 22.007830999999999
#
# number of rings (size 3 to 8) (size 9 to 14) (size 15 to 20)
#    0.000    1.750    3.750    0.000    0.000    8.000 
#    2.250    1.250    0.000    0.000    0.000    0.000 
#    0.000    0.000    0.000    0.000    0.000    0.000 
#
# Total GULP energy -198324.403145 kJ/mol
# GULP energy per Si atom -12395.275197 kJ/mol
# Density = 2.195774 g / cm^3
# Si number density = 22.007831 Si / 1000 Ang^3
#
#
#
# Elastic Constant Matrix: (Units=GPa)
#
#
# Indices 1 2 3 4 5 6 
#
# 1 117.7490 34.6312 28.4763 -11.3059 -0.1551 -16.1692
# 2 34.6312 69.4908 20.7847 -6.5435 -3.3978 -12.5669
# 3 28.4763 20.7847 79.8335 -12.8335 -4.4732 3.0044
# 4 -11.3059 -6.5435 -12.8335 27.6300 6.2430 0.6135
# 5 -0.1551 -3.3978 -4.4732 6.2430 32.6524 -0.3245
# 6 -16.1692 -12.5669 3.0044 0.6135 -0.3245 50.1860
#
#
#
# Elastic Compliance Matrix: (Units=1/GPa)
#
#
# Indices 1 2 3 4 5 6 
#
# 1 0.010899 -0.003997 -0.002609 0.002509 -0.001175 0.002629
# 2 -0.003997 0.018104 -0.003217 0.000786 0.001308 0.003437
# 3 -0.002609 -0.003217 0.015262 0.005152 0.000733 -0.002618
# 4 0.002509 0.000786 0.005152 0.041403 -0.007115 0.000144
# 5 -0.001175 0.001308 0.000733 -0.007115 0.032219 0.000200
# 6 0.002629 0.003437 -0.002618 0.000144 0.000200 0.021790
#
#
# Mechanical properties :
#
#
# Convention : Reuss Voigt Hill
#
# Bulk Modulus (GPa) = 40.61892 48.31752 44.46822
# Shear Modulus (GPa) = 29.84541 34.30577 32.07559
#
# Velocity S-wave (km/s) = 3.68656 3.95244 3.82181
# Velocity P-wave (km/s) = 6.05125 6.54457 6.30274
#
# Compressibility (1/GPa) = 0.02461907
#
# Stress axis : x y z
#
# Youngs Moduli (GPa) = 91.74753 55.23529 65.52244
#
# Poissons Ratio (x) = 0.22080 0.17092
# Poissons Ratio (y) = 0.36676 0.21081
# Poissons Ratio (z) = 0.23933 0.17771
#
# Static dielectric constant tensor:
#      x y z
#    x 4.031220 -0.104010 -0.169690 
#    y -0.104010 4.218160 -0.116380 
#    z -0.169690 -0.116380 3.772200 
# 
# 
# High freq. dielectric constant tensor:
#      x y z
#    x 1.872370 -0.008020 -0.007260 
#    y -0.008020 1.874390 0.002700 
#    z -0.007260 0.002700 1.834250 
# 
# From -- ./inp_files/202728.got.cif
#   From: 2010.06.25/outbox.cif.g09.slc.cpg/sg2_102_cif.got.tgz:202728.got - 2010.06.27 13:26:56.
