data_PCOD8005023
_publ_section_title
;
Structure prediction by ZEFSAII (Michael W. Deem and Ramdas Pophale) SiO2 
 PCOD8005023
Probable space group: P -1
;
_chemical_formula_sum "Si O2"
_cell_formula_units_Z 16
_cell_length_a 15.807187
_cell_length_b 14.768788
_cell_length_c 9.715114
_cell_angle_alpha 123.824307
_cell_angle_beta 145.117110
_cell_angle_gamma 40.963592
_cell_volume 838.328381
_symmetry_space_group_name_H-M "P -1"
_symmetry_group_IT_number 2
_symmetry_cell_setting 'triclinic'
loop_
_space_group_symop_operation_xyz
x,y,z
-x,-y,-z
loop_
_atom_site_type_symbol
_atom_site_label
_atom_site_fract_x
_atom_site_fract_y
_atom_site_fract_z
Si Si1 0.094989 0.061703 0.240914
Si Si2 0.294633 0.878821 0.873649
Si Si3 0.427225 0.913749 0.358541
Si Si4 0.818056 0.660945 0.746752
Si Si5 0.006290 0.334853 0.274612
Si Si6 0.952232 0.885132 0.466855
Si Si7 0.909456 0.659208 0.168878
Si Si8 0.278819 0.346320 0.829530
O O1 0.969554 0.226810 0.175600
O O2 0.112798 0.038927 0.408472
O O3 0.303664 0.977484 0.385327
O O4 0.000000 0.000000 0.000000
O O5 0.156252 0.838773 0.656525
O O6 0.210488 0.008693 0.769418
O O7 0.304325 0.925820 0.077989
O O8 0.498528 0.745280 0.978314
O O9 0.603084 0.751601 0.482686
O O10 0.500000 0.000000 0.500000
O O11 0.945168 0.680493 0.835773
O O12 0.899634 0.501116 0.718908
O O13 0.817821 0.713042 0.941945
O O14 0.188721 0.297898 0.567749
O O15 0.818490 0.491466 0.192547
O O16 0.972527 0.746152 0.384678
O O17 0.755406 0.675024 0.077155
#
# Coordination Sequence:
#
# PCOD8005023 Si02
#       8
#     2   2   2   2   2   2   2   2
#     4  12  24  40  58  88 123 159 200 242 298 359
#     4  11  24  41  59  87 123 162 196 246 306 359
#     4  12  22  38  62  88 117 160 202 245 296 355
#     4  10  21  39  64  91 120 152 203 250 300 351
#     4  10  20  38  64  86 121 154 194 256 298 349
#     4  11  25  42  59  85 127 162 196 248 303 359
#     4  10  22  39  64  91 120 155 198 254 298 351
#     4  10  20  39  64  90 114 152 206 247 300 349
#
# _framework density 19.085599999999999
#
# number of rings (size 3 to 8) (size 9 to 14) (size 15 to 20)
#    0.000    1.250    5.000    0.750    1.750    0.500 
#    2.250    1.250    0.000    3.000    0.000    0.000 
#    0.000    0.000    0.000    0.000    0.000    0.000 
#
# Total GULP energy -198471.612499 kJ/mol
# GULP energy per Si atom -12404.475781 kJ/mol
# Density = 1.904216 g / cm^3
# Si number density = 19.085600 Si / 1000 Ang^3
#
#
#
# Elastic Constant Matrix: (Units=GPa)
#
#
# Indices 1 2 3 4 5 6 
#
# 1 101.4616 40.8135 41.5079 -5.4992 -5.2516 -11.9553
# 2 40.8135 108.6752 52.1287 -2.0840 10.0713 1.0638
# 3 41.5079 52.1287 100.1516 -7.0850 -8.8866 -3.5877
# 4 -5.4992 -2.0840 -7.0850 32.1171 -4.8792 2.1621
# 5 -5.2516 10.0713 -8.8866 -4.8792 40.9919 0.5260
# 6 -11.9553 1.0638 -3.5877 2.1621 0.5260 35.0604
#
#
#
# Elastic Compliance Matrix: (Units=1/GPa)
#
#
# Indices 1 2 3 4 5 6 
#
# 1 0.013309 -0.003679 -0.003174 0.001365 0.002030 0.004211
# 2 -0.003679 0.014254 -0.006601 -0.001866 -0.005599 -0.002163
# 3 -0.003174 -0.006601 0.015411 0.003147 0.004925 0.000427
# 4 0.001365 -0.001866 0.003147 0.032824 0.005239 -0.001259
# 5 0.002030 -0.005599 0.004925 0.005239 0.027714 0.000627
# 6 0.004211 -0.002163 0.000427 -0.001259 0.000627 0.030136
#
#
# Mechanical properties :
#
#
# Convention : Reuss Voigt Hill
#
# Bulk Modulus (GPa) = 62.23844 64.35429 63.29636
# Shear Modulus (GPa) = 30.13693 33.35643 31.74668
#
# Velocity S-wave (km/s) = 3.97802 4.18512 4.08288
# Velocity P-wave (km/s) = 7.33352 7.55947 7.44735
#
# Compressibility (1/GPa) = 0.01606724
#
# Stress axis : x y z
#
# Youngs Moduli (GPa) = 75.13465 70.15656 64.89008
#
# Poissons Ratio (x) = 0.25813 0.20593
# Poissons Ratio (y) = 0.27644 0.42831
# Poissons Ratio (z) = 0.23845 0.46307
#
# Static dielectric constant tensor:
#      x y z
#    x 3.443650 0.035450 -0.371290 
#    y 0.035450 3.527020 -0.007720 
#    z -0.371290 -0.007720 3.380710 
# 
# 
# High freq. dielectric constant tensor:
#      x y z
#    x 1.753400 -0.004950 -0.020290 
#    y -0.004950 1.748970 -0.000320 
#    z -0.020290 -0.000320 1.728190 
# 
# From -- ./inp_files/245677.got.cif
#   From: 2010.06.25/outbox.cif.g09.slc.cpg/sg2_123_cif.got.tgz:245677.got - 2010.06.27 13:26:56.
