data_PCOD8005721
_publ_section_title
;
Structure prediction by ZEFSAII (Michael W. Deem and Ramdas Pophale) SiO2 
 PCOD8005721
Probable space group: P -1
;
_chemical_formula_sum "Si O2"
_cell_formula_units_Z 16
_cell_length_a 9.606648
_cell_length_b 14.028851
_cell_length_c 10.034305
_cell_angle_alpha 84.656850
_cell_angle_beta 41.313411
_cell_angle_gamma 106.175190
_cell_volume 753.658707
_symmetry_space_group_name_H-M "P -1"
_symmetry_group_IT_number 2
_symmetry_cell_setting 'triclinic'
loop_
_space_group_symop_operation_xyz
x,y,z
-x,-y,-z
loop_
_atom_site_type_symbol
_atom_site_label
_atom_site_fract_x
_atom_site_fract_y
_atom_site_fract_z
Si Si1 0.300140 0.741145 0.190915
Si Si2 0.070826 0.785036 0.098514
Si Si3 0.741968 0.016372 0.258558
Si Si4 0.883485 0.658378 0.718615
Si Si5 0.211267 0.187925 0.050686
Si Si6 0.631425 0.418992 0.010239
Si Si7 0.817824 0.368606 0.126589
Si Si8 0.607721 0.766918 0.361074
O O1 0.209659 0.791776 0.134344
O O2 0.287024 0.628176 0.166308
O O3 0.133433 0.713370 0.445583
O O4 0.591868 0.830671 0.005676
O O5 0.787175 0.750323 0.334247
O O6 0.210499 0.908312 0.915891
O O7 0.050164 0.693770 0.018052
O O8 0.972551 0.070906 0.189017
O O9 0.500000 0.000000 0.500000
O O10 0.697829 0.897441 0.263384
O O11 0.899871 0.753362 0.789294
O O12 0.841457 0.552831 0.851837
O O13 0.644114 0.604627 0.801458
O O14 0.364057 0.268907 0.803886
O O15 0.619183 0.353960 0.161191
O O16 0.673923 0.307594 0.374481
O O17 0.000000 0.500000 0.000000
#
# Coordination Sequence:
#
# PCOD8005721 Si02
#       8
#     2   2   2   2   2   2   2   2
#     4  10  21  39  63  89 133 164 209 264 316 367
#     4  10  22  43  65  96 126 168 210 258 326 375
#     4  11  23  45  72  88 127 172 208 268 326 375
#     4  10  20  39  62  86 131 171 210 257 311 373
#     4  10  24  38  65  99 120 165 223 254 312 389
#     4   9  21  37  57  91 126 171 214 249 309 385
#     4  11  24  38  63  97 130 162 213 262 314 379
#     4  11  24  44  66  91 131 166 211 265 323 377
#
# _framework density 21.229768
#
# number of rings (size 3 to 8) (size 9 to 14) (size 15 to 20)
#    0.000    1.750    1.250    2.625    7.000    0.500 
#    4.500    3.125    0.000    0.000    0.000    0.000 
#    0.000    0.000    0.000    0.000    0.000    0.000 
#
# Total GULP energy -198346.370968 kJ/mol
# GULP energy per Si atom -12396.648185 kJ/mol
# Density = 2.118145 g / cm^3
# Si number density = 21.229768 Si / 1000 Ang^3
#
#
#
# Elastic Constant Matrix: (Units=GPa)
#
#
# Indices 1 2 3 4 5 6 
#
# 1 83.4781 19.3960 14.5585 -1.6379 -9.5991 -8.9206
# 2 19.3960 82.9368 53.7750 -4.6415 -3.0235 -10.3246
# 3 14.5585 53.7750 107.6820 6.2444 -8.8450 3.2869
# 4 -1.6379 -4.6415 6.2444 36.4653 -1.3479 -0.8172
# 5 -9.5991 -3.0235 -8.8450 -1.3479 27.4551 1.5229
# 6 -8.9206 -10.3246 3.2869 -0.8172 1.5229 31.8194
#
#
#
# Elastic Compliance Matrix: (Units=1/GPa)
#
#
# Indices 1 2 3 4 5 6 
#
# 1 0.013387 -0.002303 -0.000441 0.000602 0.004155 0.002868
# 2 -0.002303 0.020559 -0.010612 0.004416 -0.002150 0.007338
# 3 -0.000441 -0.010612 0.015349 -0.003983 0.003728 -0.005433
# 4 0.000602 0.004416 -0.003983 0.028780 0.000676 0.002720
# 5 0.004155 -0.002150 0.003728 0.000676 0.038971 -0.001766
# 6 0.002868 0.007338 -0.005433 0.002720 -0.001766 0.035328
#
#
# Mechanical properties :
#
#
# Convention : Reuss Voigt Hill
#
# Bulk Modulus (GPa) = 44.28085 49.95063 47.11574
# Shear Modulus (GPa) = 26.79329 31.57244 29.18286
#
# Velocity S-wave (km/s) = 3.55641 3.86058 3.71161
# Velocity P-wave (km/s) = 6.14550 6.59179 6.37256
#
# Compressibility (1/GPa) = 0.02258313
#
# Stress axis : x y z
#
# Youngs Moduli (GPa) = 74.69802 48.64095 65.15156
#
# Poissons Ratio (x) = 0.11200 0.02875
# Poissons Ratio (y) = 0.17199 0.69140
# Poissons Ratio (z) = 0.03296 0.51618
#
# Static dielectric constant tensor:
#      x y z
#    x 4.127650 -0.043330 -0.082420 
#    y -0.043330 4.028420 0.191620 
#    z -0.082420 0.191620 3.824540 
# 
# 
# High freq. dielectric constant tensor:
#      x y z
#    x 1.845790 -0.006260 -0.010820 
#    y -0.006260 1.827290 0.017750 
#    z -0.010820 0.017750 1.828080 
# 
# From -- ./inp_files/206713.got.cif
#   From: 2010.06.25/outbox.cif.g09.slc.cpg/sg2_104_cif.got.tgz:206713.got - 2010.06.27 13:26:56.
