data_PCOD8005428
_publ_section_title
;
Structure prediction by ZEFSAII (Michael W. Deem and Ramdas Pophale) SiO2 
 PCOD8005428
Probable space group: P -1
;
_chemical_formula_sum "Si O2"
_cell_formula_units_Z 14
_cell_length_a 14.504494
_cell_length_b 7.849846
_cell_length_c 8.873203
_cell_angle_alpha 45.208948
_cell_angle_beta 54.341370
_cell_angle_gamma 81.537133
_cell_volume 518.147217
_symmetry_space_group_name_H-M "P -1"
_symmetry_group_IT_number 2
_symmetry_cell_setting 'triclinic'
loop_
_space_group_symop_operation_xyz
x,y,z
-x,-y,-z
loop_
_atom_site_type_symbol
_atom_site_label
_atom_site_fract_x
_atom_site_fract_y
_atom_site_fract_z
Si Si1 0.387019 0.185392 0.174421
Si Si2 0.641476 0.327822 0.968508
Si Si3 0.906376 0.956994 0.899753
Si Si4 0.905808 0.559291 0.403450
Si Si5 0.641822 0.657821 0.205690
Si Si6 0.011198 0.326447 0.233789
Si Si7 0.276241 0.738908 0.773456
O O1 0.395393 0.469178 0.032936
O O2 0.276787 0.972934 0.520089
O O3 0.518329 0.159190 0.087305
O O4 0.350275 0.139585 0.063077
O O5 0.768281 0.468444 0.662502
O O6 0.652575 0.142146 0.208660
O O7 0.974770 0.930651 0.691512
O O8 0.925967 0.767011 0.120504
O O9 0.753066 0.852190 0.094257
O O10 0.977995 0.270101 0.693667
O O11 0.907395 0.290241 0.489129
O O12 0.500000 0.500000 0.500000
O O13 0.666257 0.411555 0.289841
O O14 0.135667 0.522829 0.086970
O O15 0.000000 0.500000 0.000000
#
# Coordination Sequence:
#
# PCOD8005428 Si02
#       7
#     2   2   2   2   2   2   2
#     4  10  22  40  66  95 130 178 217 280 338 386
#     4  10  22  40  64  97 130 172 227 275 327 405
#     4   9  20  38  65  99 133 176 216 280 338 394
#     4  10  20  38  69  96 133 178 223 273 337 395
#     4  10  21  42  65  95 133 174 225 272 333 406
#     4   9  20  39  62  95 134 173 218 277 326 403
#     4  10  22  41  63  93 132 172 225 273 334 395
#
# _framework density 27.019348000000001
#
# number of rings (size 3 to 8) (size 9 to 14) (size 15 to 20)
#    0.000    2.286    0.000    1.286    6.000    1.143 
#    5.143    2.143    0.000    0.000    0.000    0.000 
#    0.000    0.000    0.000    0.000    0.000    0.000 
#
# Total GULP energy -173466.492841 kJ/mol
# GULP energy per Si atom -12390.463774 kJ/mol
# Density = 2.695785 g / cm^3
# Si number density = 27.019348 Si / 1000 Ang^3
#
#
#
# Elastic Constant Matrix: (Units=GPa)
#
#
# Indices 1 2 3 4 5 6 
#
# 1 115.2328 51.7310 24.0939 8.9189 -14.6210 23.6440
# 2 51.7310 98.7669 37.4889 -2.4051 -4.5792 9.1216
# 3 24.0939 37.4889 100.9783 17.8717 -11.8594 7.6227
# 4 8.9189 -2.4051 17.8717 40.0860 -2.3155 1.5955
# 5 -14.6210 -4.5792 -11.8594 -2.3155 56.2736 5.0370
# 6 23.6440 9.1216 7.6227 1.5955 5.0370 27.5151
#
#
#
# Elastic Compliance Matrix: (Units=1/GPa)
#
#
# Indices 1 2 3 4 5 6 
#
# 1 0.014691 -0.006936 0.001035 -0.003450 0.004332 -0.011204
# 2 -0.006936 0.015607 -0.005336 0.004670 -0.001670 0.002299
# 3 0.001035 -0.005336 0.013263 -0.006195 0.002636 -0.002918
# 4 -0.003450 0.004670 -0.006195 0.028646 -0.000788 0.001616
# 5 0.004332 -0.001670 0.002636 -0.000788 0.019955 -0.007506
# 6 -0.011204 0.002299 -0.002918 0.001616 -0.007506 0.047298
#
#
# Mechanical properties :
#
#
# Convention : Reuss Voigt Hill
#
# Bulk Modulus (GPa) = 47.42027 60.17840 53.79933
# Shear Modulus (GPa) = 29.59221 38.21922 33.90571
#
# Velocity S-wave (km/s) = 3.31301 3.76508 3.54625
# Velocity P-wave (km/s) = 5.67655 6.42042 6.05991
#
# Compressibility (1/GPa) = 0.02108803
#
# Stress axis : x y z
#
# Youngs Moduli (GPa) = 68.06879 64.07469 75.39532
#
# Poissons Ratio (x) = 0.44441 -0.07802
# Poissons Ratio (y) = 0.47212 0.40227
# Poissons Ratio (z) = -0.07044 0.34187
#
# Static dielectric constant tensor:
#      x y z
#    x 3.875080 0.541100 1.307130 
#    y 0.541100 5.018900 -0.152140 
#    z 1.307130 -0.152140 3.950600 
# 
# 
# High freq. dielectric constant tensor:
#      x y z
#    x 2.113200 0.000300 0.019950 
#    y 0.000300 2.083330 0.011460 
#    z 0.019950 0.011460 2.091310 
# 
# From -- ./inp_files/293929.got.cif
#   From: 2010.06.25/outbox.cif.g09.slc.cpg/sg2_147_cif.got.tgz:293929.got - 2010.06.27 13:26:56.
