data_PCOD8005600
_publ_section_title
;
Structure prediction by ZEFSAII (Michael W. Deem and Ramdas Pophale) SiO2 
 PCOD8005600
Probable space group: P -1
;
_chemical_formula_sum "Si O2"
_cell_formula_units_Z 16
_cell_length_a 15.348304
_cell_length_b 13.661838
_cell_length_c 9.701561
_cell_angle_alpha 45.315673
_cell_angle_beta 38.685909
_cell_angle_gamma 46.758882
_cell_volume 860.566820
_symmetry_space_group_name_H-M "P -1"
_symmetry_group_IT_number 2
_symmetry_cell_setting 'triclinic'
loop_
_space_group_symop_operation_xyz
x,y,z
-x,-y,-z
loop_
_atom_site_type_symbol
_atom_site_label
_atom_site_fract_x
_atom_site_fract_y
_atom_site_fract_z
Si Si1 0.201250 0.357001 0.484702
Si Si2 0.600989 0.939432 0.562581
Si Si3 0.606856 0.964287 0.028991
Si Si4 0.144181 0.930204 0.801592
Si Si5 0.206111 0.347598 0.808451
Si Si6 0.861022 0.076392 0.505495
Si Si7 0.127813 0.613030 0.826626
Si Si8 0.873666 0.378044 0.870618
O O1 0.320900 0.229060 0.388820
O O2 0.237577 0.366261 0.591055
O O3 0.205582 0.504459 0.261220
O O4 0.047675 0.326220 0.681516
O O5 0.500000 0.000000 0.500000
O O6 0.719415 0.023852 0.356965
O O7 0.489186 0.953884 0.808832
O O8 0.732863 0.033812 0.777982
O O9 0.672829 0.792941 0.143386
O O10 0.500000 0.000000 0.000000
O O11 0.112553 0.975550 0.635146
O O12 0.187658 0.757230 0.934872
O O13 0.000000 0.000000 0.000000
O O14 0.218556 0.487356 0.737002
O O15 0.045200 0.334249 0.045287
O O16 0.816722 0.249271 0.398651
O O17 0.000000 0.000000 0.500000
O O18 0.156745 0.553962 0.005831
#
# Coordination Sequence:
#
# PCOD8005600 Si02
#       8
#     2   2   2   2   2   2   2   2
#     4  10  20  39  60  91 122 165 204 255 312 368
#     4  12  25  42  64  90 132 171 204 256 320 373
#     4  12  25  42  62  92 130 169 206 254 317 379
#     4  11  23  41  65  96 124 162 215 262 305 368
#     4  10  20  39  60  90 125 160 208 255 310 367
#     4  11  23  41  65  95 125 162 216 260 305 370
#     4   9  20  37  63  90 119 159 206 264 304 359
#     4   9  20  37  63  90 122 153 211 261 305 361
#
# _framework density 18.592397999999999
#
# number of rings (size 3 to 8) (size 9 to 14) (size 15 to 20)
#    0.000    1.500    5.000    0.000    3.500    1.000 
#    0.000    2.500    0.000    0.000    0.000    0.000 
#    0.000    0.000    0.000    0.000    0.000    0.000 
#
# Total GULP energy -198414.137539 kJ/mol
# GULP energy per Si atom -12400.883596 kJ/mol
# Density = 1.855008 g / cm^3
# Si number density = 18.592398 Si / 1000 Ang^3
#
#
#
# Elastic Constant Matrix: (Units=GPa)
#
#
# Indices 1 2 3 4 5 6 
#
# 1 143.0439 67.1104 70.0941 -0.2441 15.9436 -4.8290
# 2 67.1104 146.0274 66.2615 12.9838 17.6697 1.1470
# 3 70.0941 66.2615 130.1764 9.8289 8.5762 0.3742
# 4 -0.2441 12.9838 9.8289 32.4757 -0.0129 7.3305
# 5 15.9436 17.6697 8.5762 -0.0129 33.6116 -4.1492
# 6 -4.8290 1.1470 0.3742 7.3305 -4.1492 32.0992
#
#
#
# Elastic Compliance Matrix: (Units=1/GPa)
#
#
# Indices 1 2 3 4 5 6 
#
# 1 0.010789 -0.002915 -0.004350 0.002351 -0.002359 0.000936
# 2 -0.002915 0.010332 -0.003240 -0.003061 -0.003284 -0.000495
# 3 -0.004350 -0.003240 0.011798 -0.002295 0.000749 -0.000055
# 4 0.002351 -0.003061 -0.002295 0.034385 0.000187 -0.007338
# 5 -0.002359 -0.003284 0.000749 0.000187 0.032895 0.003963
# 6 0.000936 -0.000495 -0.000055 -0.007338 0.003963 0.033501
#
#
# Mechanical properties :
#
#
# Convention : Reuss Voigt Hill
#
# Bulk Modulus (GPa) = 83.98666 91.79774 87.89220
# Shear Modulus (GPa) = 31.51018 34.02276 32.76647
#
# Velocity S-wave (km/s) = 4.12125 4.28241 4.20260
# Velocity P-wave (km/s) = 8.24117 8.59843 8.42169
#
# Compressibility (1/GPa) = 0.01190665
#
# Stress axis : x y z
#
# Youngs Moduli (GPa) = 92.68913 96.79072 84.76255
#
# Poissons Ratio (x) = 0.28217 0.36873
# Poissons Ratio (y) = 0.27022 0.27465
# Poissons Ratio (z) = 0.40321 0.31362
#
# Static dielectric constant tensor:
#      x y z
#    x 3.486360 0.043870 0.127430 
#    y 0.043870 3.562570 0.024780 
#    z 0.127430 0.024780 3.487910 
# 
# 
# High freq. dielectric constant tensor:
#      x y z
#    x 1.724770 0.005080 0.014710 
#    y 0.005080 1.725830 -0.000330 
#    z 0.014710 -0.000330 1.723830 
# 
# From -- ./inp_files/177875.got.cif
#   From: 2010.06.25/outbox.cif.g09.slc.cpg/sg2_89_cif.got.tgz:177875.got - 2010.06.27 13:26:56.
