data_PCOD8005737
_publ_section_title
;
Structure prediction by ZEFSAII (Michael W. Deem and Ramdas Pophale) SiO2 
 PCOD8005737
Probable space group: P -1
;
_chemical_formula_sum "Si O2"
_cell_formula_units_Z 14
_cell_length_a 10.491694
_cell_length_b 11.801584
_cell_length_c 14.723839
_cell_angle_alpha 150.988800
_cell_angle_beta 38.395106
_cell_angle_gamma 130.311734
_cell_volume 544.640706
_symmetry_space_group_name_H-M "P -1"
_symmetry_group_IT_number 2
_symmetry_cell_setting 'triclinic'
loop_
_space_group_symop_operation_xyz
x,y,z
-x,-y,-z
loop_
_atom_site_type_symbol
_atom_site_label
_atom_site_fract_x
_atom_site_fract_y
_atom_site_fract_z
Si Si1 0.135387 0.305713 0.961025
Si Si2 0.644099 0.061158 0.743235
Si Si3 0.995245 0.771533 0.440951
Si Si4 0.424104 0.625062 0.538057
Si Si5 0.941947 0.204808 0.372507
Si Si6 0.966135 0.736353 0.827051
Si Si7 0.495891 0.451335 0.754863
O O1 0.320718 0.302755 0.785863
O O2 0.013469 0.082101 0.849433
O O3 0.992091 0.562050 0.220084
O O4 0.208071 0.302422 0.026361
O O5 0.800028 0.099682 0.600067
O O6 0.473013 0.895262 0.696412
O O7 0.510523 0.303809 0.017117
O O8 0.787024 0.950369 0.669663
O O9 0.005922 0.684121 0.481154
O O10 0.500000 0.500000 0.500000
O O11 0.183102 0.598392 0.647111
O O12 0.539449 0.496696 0.295953
O O13 0.078924 0.310722 0.288535
O O14 0.704296 0.275595 0.530063
O O15 0.000000 0.000000 0.000000
#
# Coordination Sequence:
#
# PCOD8005737 Si02
#       7
#     2   2   2   2   2   2   2
#     4  10  20  39  62  88 122 156 201 247 295 356
#     4  10  23  41  60  91 125 157 204 247 298 363
#     4  10  22  38  62  91 122 161 200 250 300 352
#     4  11  23  42  63  86 122 161 198 247 302 358
#     4  10  21  38  61  92 123 157 201 247 302 355
#     4   9  21  38  59  88 119 156 197 245 299 350
#     4  10  23  39  64  93 118 158 202 250 302 352
#
# _framework density 25.705022
#
# number of rings (size 3 to 8) (size 9 to 14) (size 15 to 20)
#    0.000    2.000    0.000    2.143    0.000   12.571 
#    0.000   10.714    0.000    0.000    0.000    0.000 
#    0.000    0.000    0.000    0.000    0.000    0.000 
#
# Total GULP energy -173469.237651 kJ/mol
# GULP energy per Si atom -12390.659832 kJ/mol
# Density = 2.564652 g / cm^3
# Si number density = 25.705022 Si / 1000 Ang^3
#
#
#
# Elastic Constant Matrix: (Units=GPa)
#
#
# Indices 1 2 3 4 5 6 
#
# 1 84.9825 39.4112 23.5456 -8.0490 20.4459 -22.3930
# 2 39.4112 109.7156 19.3764 -21.7138 3.0053 -15.6203
# 3 23.5456 19.3764 88.3867 -0.5041 16.9224 -5.1732
# 4 -8.0490 -21.7138 -0.5041 48.4226 -5.0296 15.1482
# 5 20.4459 3.0053 16.9224 -5.0296 35.8089 5.1687
# 6 -22.3930 -15.6203 -5.1732 15.1482 5.1687 46.6863
#
#
#
# Elastic Compliance Matrix: (Units=1/GPa)
#
#
# Indices 1 2 3 4 5 6 
#
# 1 0.020197 -0.006031 -0.001087 -0.003845 -0.012522 0.010183
# 2 -0.006031 0.012403 -0.001964 0.005345 0.004250 -0.001165
# 3 -0.001087 -0.001964 0.013267 -0.002055 -0.006008 0.001624
# 4 -0.003845 0.005345 -0.002055 0.026217 0.007794 -0.009653
# 5 -0.012522 0.004250 -0.006008 0.007794 0.040422 -0.012254
# 6 0.010183 -0.001165 0.001624 -0.009653 -0.012254 0.030583
#
#
# Mechanical properties :
#
#
# Convention : Reuss Voigt Hill
#
# Bulk Modulus (GPa) = 36.09538 49.75014 42.92276
# Shear Modulus (GPa) = 29.32775 39.56701 34.44738
#
# Velocity S-wave (km/s) = 3.38144 3.92761 3.66471
# Velocity P-wave (km/s) = 5.41462 6.32174 5.88568
#
# Compressibility (1/GPa) = 0.02770438
#
# Stress axis : x y z
#
# Youngs Moduli (GPa) = 49.51237 80.62380 75.37262
#
# Poissons Ratio (x) = 0.48626 0.08190
# Poissons Ratio (y) = 0.29862 0.14801
# Poissons Ratio (z) = 0.05380 0.15832
#
# Static dielectric constant tensor:
#      x y z
#    x 4.885480 -0.562640 0.466000 
#    y -0.562640 4.918000 -0.017540 
#    z 0.466000 -0.017540 4.962430 
# 
# 
# High freq. dielectric constant tensor:
#      x y z
#    x 1.989670 -0.010870 0.015760 
#    y -0.010870 2.063560 0.012350 
#    z 0.015760 0.012350 2.043640 
# 
# From -- ./inp_files/519315.got.cif
#   From: 2010.06.25/outbox.cif.g09.slc.cpg/sg2_260_cif.got.tgz:519315.got - 2010.06.27 13:26:56.
