data_PCOD8005906
_publ_section_title
;
Structure prediction by ZEFSAII (Michael W. Deem and Ramdas Pophale) SiO2 
 PCOD8005906
Probable space group: P -1
;
_chemical_formula_sum "Si O2"
_cell_formula_units_Z 16
_cell_length_a 5.174288
_cell_length_b 18.598982
_cell_length_c 9.384900
_cell_angle_alpha 88.393798
_cell_angle_beta 81.942605
_cell_angle_gamma 109.077617
_cell_volume 842.502920
_symmetry_space_group_name_H-M "P -1"
_symmetry_group_IT_number 2
_symmetry_cell_setting 'triclinic'
loop_
_space_group_symop_operation_xyz
x,y,z
-x,-y,-z
loop_
_atom_site_type_symbol
_atom_site_label
_atom_site_fract_x
_atom_site_fract_y
_atom_site_fract_z
Si Si1 0.878408 0.604115 0.718099
Si Si2 0.493224 0.679956 0.649349
Si Si3 0.745354 0.828908 0.441991
Si Si4 0.634237 0.076657 0.571485
Si Si5 0.621824 0.680038 0.946729
Si Si6 0.454919 0.923646 0.093618
Si Si7 0.737217 0.472826 0.921700
Si Si8 0.842881 0.829401 0.105924
O O1 0.650574 0.617015 0.627520
O O2 0.851175 0.644082 0.871023
O O3 0.821894 0.513742 0.757863
O O4 0.179324 0.642556 0.621883
O O5 0.667382 0.751578 0.539867
O O6 0.483810 0.703437 0.815159
O O7 0.500804 0.863261 0.482187
O O8 0.762145 0.809111 0.276813
O O9 0.034284 0.888180 0.474965
O O10 0.557854 0.056435 0.741797
O O11 0.500000 0.000000 0.500000
O O12 0.386845 0.619378 0.066500
O O13 0.758385 0.752761 0.027740
O O14 0.700041 0.888523 0.051713
O O15 0.171210 0.863678 0.063113
O O16 0.500000 0.000000 0.000000
O O17 0.500000 0.500000 0.000000
O O18 0.000000 0.500000 0.000000
#
# Coordination Sequence:
#
# PCOD8005906 Si02
#       8
#     2   2   2   2   2   2   2   2
#     4   9  18  31  50  79 104 135 173 217 257 293
#     4  10  19  31  52  74 105 131 177 208 254 295
#     4  10  21  37  52  76 104 140 162 211 266 302
#     4  10  21  37  56  75  99 132 175 208 254 319
#     4   9  21  30  55  80 104 132 180 214 255 302
#     4  10  22  38  55  76 104 137 165 213 265 306
#     4  10  16  30  49  76 107 138 166 217 263 297
#     4  10  22  36  55  76 109 135 171 207 262 317
#
# _framework density 18.991031
#
# number of rings (size 3 to 8) (size 9 to 14) (size 15 to 20)
#    0.750    1.500    1.250    1.500    1.750    2.000 
#    0.000    0.000    0.000    1.500    0.000    0.000 
#    0.000    0.000    0.000    0.000    0.000    0.000 
#
# Total GULP energy -198265.605528 kJ/mol
# GULP energy per Si atom -12391.600345 kJ/mol
# Density = 1.894781 g / cm^3
# Si number density = 18.991031 Si / 1000 Ang^3
#
#
#
# Elastic Constant Matrix: (Units=GPa)
#
#
# Indices 1 2 3 4 5 6 
#
# 1 109.5833 8.7234 18.1609 -5.7958 16.0685 4.8683
# 2 8.7234 68.9576 36.5298 -21.3027 9.2365 -2.4648
# 3 18.1609 36.5298 38.7743 -20.5002 8.8721 -4.4411
# 4 -5.7958 -21.3027 -20.5002 36.9592 -2.7889 6.7195
# 5 16.0685 9.2365 8.8721 -2.7889 20.1332 -7.1397
# 6 4.8683 -2.4648 -4.4411 6.7195 -7.1397 24.3860
#
#
#
# Elastic Compliance Matrix: (Units=1/GPa)
#
#
# Indices 1 2 3 4 5 6 
#
# 1 0.011794 0.003455 -0.007012 0.000341 -0.010108 -0.006335
# 2 0.003455 0.030379 -0.027854 0.003118 -0.005856 -0.005265
# 3 -0.007012 -0.027854 0.067538 0.019119 -0.007529 0.003412
# 4 0.000341 0.003118 0.019119 0.040695 -0.007972 -0.009819
# 5 -0.010108 -0.005856 -0.007529 -0.007972 0.070784 0.022975
# 6 -0.006335 -0.005265 0.003412 -0.009819 0.022975 0.051793
#
#
# Mechanical properties :
#
#
# Convention : Reuss Voigt Hill
#
# Bulk Modulus (GPa) = 21.32660 38.23813 29.78237
# Shear Modulus (GPa) = 14.22739 26.55576 20.39158
#
# Velocity S-wave (km/s) = 2.74005 3.74348 3.28036
# Velocity P-wave (km/s) = 4.61137 6.23406 5.48307
#
# Compressibility (1/GPa) = 0.04688979
#
# Stress axis : x y z
#
# Youngs Moduli (GPa) = 84.78822 32.91714 14.80650
#
# Poissons Ratio (x) = -0.11374 0.10382
# Poissons Ratio (y) = -0.29297 0.41242
# Poissons Ratio (z) = 0.59453 0.91688
#
# Static dielectric constant tensor:
#      x y z
#    x 3.788430 0.056890 0.062470 
#    y 0.056890 3.468570 -0.314660 
#    z 0.062470 -0.314660 3.258880 
# 
# 
# High freq. dielectric constant tensor:
#      x y z
#    x 1.754870 0.006120 0.011800 
#    y 0.006120 1.733830 -0.029360 
#    z 0.011800 -0.029360 1.706540 
# 
# From -- ./inp_files/117440.got.cif
#   From: 2010.06.25/outbox.cif.g09.slc.cpg/sg2_59_cif.got.tgz:117440.got - 2010.06.27 13:26:56.
