data_PCOD8005733
_publ_section_title
;
Structure prediction by ZEFSAII (Michael W. Deem and Ramdas Pophale) SiO2 
 PCOD8005733
Probable space group: P -1
;
_chemical_formula_sum "Si O2"
_cell_formula_units_Z 16
_cell_length_a 7.394235
_cell_length_b 19.859651
_cell_length_c 11.470118
_cell_angle_alpha 45.745712
_cell_angle_beta 140.925048
_cell_angle_gamma 134.389073
_cell_volume 712.501869
_symmetry_space_group_name_H-M "P -1"
_symmetry_group_IT_number 2
_symmetry_cell_setting 'triclinic'
loop_
_space_group_symop_operation_xyz
x,y,z
-x,-y,-z
loop_
_atom_site_type_symbol
_atom_site_label
_atom_site_fract_x
_atom_site_fract_y
_atom_site_fract_z
Si Si1 0.608331 0.227305 0.838170
Si Si2 0.026733 0.284832 0.523064
Si Si3 0.294125 0.916826 0.760449
Si Si4 0.010873 0.467753 0.175056
Si Si5 0.733006 0.058642 0.643997
Si Si6 0.816001 0.925221 0.330581
Si Si7 0.315735 0.453026 0.633522
Si Si8 0.916845 0.572847 0.213251
O O1 0.346995 0.275408 0.659894
O O2 0.523699 0.154524 0.768448
O O3 0.941386 0.309311 0.885364
O O4 0.639141 0.176226 0.038668
O O5 0.920607 0.347957 0.293888
O O6 0.073436 0.348235 0.589896
O O7 0.760407 0.175221 0.535133
O O8 0.029274 0.881242 0.571009
O O9 0.614145 0.997357 0.776857
O O10 0.175765 0.970304 0.739941
O O11 0.374154 0.520848 0.317916
O O12 0.816103 0.510619 0.116483
O O13 0.000000 0.500000 0.000000
O O14 0.056874 0.056432 0.762119
O O15 0.500000 0.000000 0.500000
O O16 0.181786 0.541559 0.443685
O O17 0.355235 0.443008 0.807170
#
# Coordination Sequence:
#
# PCOD8005733 Si02
#       8
#     2   2   2   2   2   2   2   2
#     4  11  20  37  62  89 117 159 203 243 306 366
#     4  10  20  39  62  88 117 161 203 242 305 361
#     4  10  21  39  57  83 122 159 199 252 302 348
#     4  11  22  40  63  89 126 156 196 259 310 364
#     4   9  20  38  58  85 121 157 197 245 296 358
#     4   9  21  38  56  82 119 157 199 253 292 355
#     4  10  20  41  61  86 120 156 201 250 300 367
#     4  10  21  38  62  88 118 154 202 249 299 370
#
# _framework density 22.456081999999999
#
# number of rings (size 3 to 8) (size 9 to 14) (size 15 to 20)
#    0.000    2.000    2.500    1.125    1.750    5.500 
#    2.250    2.500    0.000    0.000    0.000    0.000 
#    0.000    0.000    0.000    0.000    0.000    0.000 
#
# Total GULP energy -198213.203808 kJ/mol
# GULP energy per Si atom -12388.325238 kJ/mol
# Density = 2.240497 g / cm^3
# Si number density = 22.456082 Si / 1000 Ang^3
#
#
#
# Elastic Constant Matrix: (Units=GPa)
#
#
# Indices 1 2 3 4 5 6 
#
# 1 62.2214 -1.0161 -6.9897 -13.1035 -20.0007 -14.3675
# 2 -1.0161 94.5172 9.7030 -22.7093 -15.5274 -3.1188
# 3 -6.9897 9.7030 62.8559 -11.3695 -27.2804 -13.1037
# 4 -13.1035 -22.7093 -11.3695 29.8733 3.0478 -10.0613
# 5 -20.0007 -15.5274 -27.2804 3.0478 30.1592 -0.8925
# 6 -14.3675 -3.1188 -13.1037 -10.0613 -0.8925 21.4713
#
#
#
# Elastic Compliance Matrix: (Units=1/GPa)
#
#
# Indices 1 2 3 4 5 6 
#
# 1 -0.004697 -0.008185 -0.019072 -0.022423 -0.023126 -0.027440
# 2 -0.008185 0.008375 -0.010117 -0.004381 -0.010207 -0.012912
# 3 -0.019072 -0.010117 -0.003920 -0.025426 -0.019702 -0.029358
# 4 -0.022423 -0.004381 -0.025426 0.004500 -0.041491 -0.030774
# 5 -0.023126 -0.010207 -0.019702 -0.041491 -0.002499 -0.048528
# 6 -0.027440 -0.012912 -0.029358 -0.030774 -0.048528 -0.008017
#
#
# Mechanical properties :
#
#
# Convention : Reuss Voigt Hill
#
# Bulk Modulus (GPa) = -13.33511 24.77654 5.72072
# Shear Modulus (GPa) = 114.95884 30.82724 72.89304
#
# Velocity S-wave (km/s) = 7.16267 3.70912 5.70357
# Velocity P-wave (km/s) = 7.90278 5.42225 6.77697
#
# Compressibility (1/GPa) = -0.07499000
#
# Stress axis : x y z
#
# Youngs Moduli (GPa) = -212.91795 119.39943 -255.08710
#
# Poissons Ratio (x) = 0.97725 -4.86512
# Poissons Ratio (y) = -1.74267 -2.58074
# Poissons Ratio (z) = -4.06085 1.20798
#
# Static dielectric constant tensor:
#      x y z
#    x 4.653610 0.342710 -0.028780 
#    y 0.342710 4.413920 0.044620 
#    z -0.028780 0.044620 3.957150 
# 
# 
# High freq. dielectric constant tensor:
#      x y z
#    x 1.882280 -0.007180 -0.015310 
#    y -0.007180 1.883220 0.000570 
#    z -0.015310 0.000570 1.869240 
# 
# From -- ./inp_files/281948.got.cif
#   From: 2010.06.25/outbox.cif.g09.slc.cpg/sg2_141_cif.got.tgz:281948.got - 2010.06.27 13:26:56.
