data_PCOD8005583
_publ_section_title
;
Structure prediction by ZEFSAII (Michael W. Deem and Ramdas Pophale) SiO2 
 PCOD8005583
Probable space group: P -1
;
_chemical_formula_sum "Si O2"
_cell_formula_units_Z 16
_cell_length_a 7.196392
_cell_length_b 14.946665
_cell_length_c 11.802830
_cell_angle_alpha 124.868502
_cell_angle_beta 127.478871
_cell_angle_gamma 85.954510
_cell_volume 747.880301
_symmetry_space_group_name_H-M "P -1"
_symmetry_group_IT_number 2
_symmetry_cell_setting 'triclinic'
loop_
_space_group_symop_operation_xyz
x,y,z
-x,-y,-z
loop_
_atom_site_type_symbol
_atom_site_label
_atom_site_fract_x
_atom_site_fract_y
_atom_site_fract_z
Si Si1 0.752081 0.919346 0.776362
Si Si2 0.901869 0.018007 0.665516
Si Si3 0.105977 0.477006 0.406748
Si Si4 0.233890 0.586139 0.966863
Si Si5 0.908920 0.714285 0.015918
Si Si6 0.594319 0.663589 0.635631
Si Si7 0.242484 0.936822 0.590792
Si Si8 0.192280 0.329607 0.806158
O O1 0.665319 0.784364 0.683409
O O2 0.523164 0.956353 0.750721
O O3 0.788654 0.921234 0.654720
O O4 0.000000 0.000000 0.000000
O O5 0.949676 0.141774 0.834998
O O6 0.719266 0.001573 0.475846
O O7 0.157419 0.010698 0.703969
O O8 0.284369 0.598408 0.490741
O O9 0.291338 0.410562 0.453376
O O10 0.000000 0.500000 0.500000
O O11 0.855321 0.397776 0.181144
O O12 0.123680 0.442793 0.844599
O O13 0.543376 0.650620 0.145998
O O14 0.112352 0.653859 0.052803
O O15 0.747163 0.677088 0.044327
O O16 0.714859 0.670113 0.808613
O O17 0.040045 0.795655 0.410797
#
# Coordination Sequence:
#
# PCOD8005583 Si02
#       8
#     2   2   2   2   2   2   2   2
#     4  12  24  42  64  96 129 167 215 265 319 377
#     4  10  23  44  64  92 126 173 214 260 317 381
#     4  10  21  40  62  87 125 167 202 260 320 378
#     4  10  21  36  61  90 119 156 211 262 314 373
#     4  10  20  39  60  87 122 165 204 259 313 373
#     4  10  22  39  60  93 124 160 216 253 314 389
#     4  10  24  43  65  92 128 170 217 263 317 384
#     4  10  21  38  60  91 120 158 211 263 315 372
#
# _framework density 21.393796999999999
#
# number of rings (size 3 to 8) (size 9 to 14) (size 15 to 20)
#    0.000    1.750    1.250    2.250    0.000    7.500 
#    2.250    5.000    0.000    0.000    0.000    0.000 
#    0.000    0.000    0.000    0.000    0.000    0.000 
#
# Total GULP energy -198328.465153 kJ/mol
# GULP energy per Si atom -12395.529072 kJ/mol
# Density = 2.134510 g / cm^3
# Si number density = 21.393797 Si / 1000 Ang^3
#
#
#
# Elastic Constant Matrix: (Units=GPa)
#
#
# Indices 1 2 3 4 5 6 
#
# 1 100.9197 47.0433 50.1469 6.6937 1.4119 -13.0815
# 2 47.0433 124.0138 29.5164 7.4886 8.5246 -5.3646
# 3 50.1469 29.5164 75.2418 -2.3856 13.9448 -13.8041
# 4 6.6937 7.4886 -2.3856 22.2518 -5.4365 -4.0956
# 5 1.4119 8.5246 13.9448 -5.4365 33.3135 1.3971
# 6 -13.0815 -5.3646 -13.8041 -4.0956 1.3971 26.0982
#
#
#
# Elastic Compliance Matrix: (Units=1/GPa)
#
#
# Indices 1 2 3 4 5 6 
#
# 1 0.017498 -0.004090 -0.010664 -0.003758 0.004093 0.001481
# 2 -0.004090 0.010187 -0.001075 -0.003072 -0.002448 -0.000876
# 3 -0.010664 -0.001075 0.024214 0.005583 -0.008858 0.008592
# 4 -0.003758 -0.003072 0.005583 0.050789 0.006559 0.008057
# 5 0.004093 -0.002448 -0.008858 0.006559 0.035417 -0.004004
# 6 0.001481 -0.000876 0.008592 0.008057 -0.004004 0.044902
#
#
# Mechanical properties :
#
#
# Convention : Reuss Voigt Hill
#
# Bulk Modulus (GPa) = 49.40114 61.50982 55.45548
# Shear Modulus (GPa) = 22.58240 27.89728 25.23984
#
# Velocity S-wave (km/s) = 3.25246 3.61500 3.43851
# Velocity P-wave (km/s) = 6.10296 6.79985 6.46081
#
# Compressibility (1/GPa) = 0.02024245
#
# Stress axis : x y z
#
# Youngs Moduli (GPa) = 57.14879 98.16591 41.29815
#
# Poissons Ratio (x) = 0.40151 0.44039
# Poissons Ratio (y) = 0.23374 0.04438
# Poissons Ratio (z) = 0.60942 0.10548
#
# Static dielectric constant tensor:
#      x y z
#    x 3.883330 -0.106400 -0.106830 
#    y -0.106400 4.037380 0.094860 
#    z -0.106830 0.094860 3.225970 
# 
# 
# High freq. dielectric constant tensor:
#      x y z
#    x 1.845130 -0.007250 0.000560 
#    y -0.007250 1.848520 0.000450 
#    z 0.000560 0.000450 1.827070 
# 
# From -- ./inp_files/368003.got.cif
#   From: 2010.06.25/outbox.cif.g09.slc.cpg/sg2_185_cif.got.tgz:368003.got - 2010.06.27 13:26:56.
