data_PCOD8005644
_publ_section_title
;
Structure prediction by ZEFSAII (Michael W. Deem and Ramdas Pophale) SiO2 
 PCOD8005644
Probable space group: P -1
;
_chemical_formula_sum "Si O2"
_cell_formula_units_Z 16
_cell_length_a 14.714270
_cell_length_b 11.333264
_cell_length_c 7.999031
_cell_angle_alpha 38.720240
_cell_angle_beta 70.365926
_cell_angle_gamma 82.384114
_cell_volume 766.621581
_symmetry_space_group_name_H-M "P -1"
_symmetry_group_IT_number 2
_symmetry_cell_setting 'triclinic'
loop_
_space_group_symop_operation_xyz
x,y,z
-x,-y,-z
loop_
_atom_site_type_symbol
_atom_site_label
_atom_site_fract_x
_atom_site_fract_y
_atom_site_fract_z
Si Si1 0.074873 0.142826 0.017449
Si Si2 0.726196 0.595577 0.444121
Si Si3 0.213575 0.675271 0.045221
Si Si4 0.435579 0.791318 0.749961
Si Si5 0.426094 0.745195 0.171526
Si Si6 0.969111 0.402699 0.954207
Si Si7 0.944674 0.240243 0.707074
Si Si8 0.447034 0.198296 0.651199
O O1 0.184088 0.264794 0.861041
O O2 0.002134 0.197326 0.144811
O O3 0.037829 0.202142 0.794918
O O4 0.075359 0.914630 0.262746
O O5 0.767154 0.522067 0.670894
O O6 0.677315 0.411355 0.558217
O O7 0.650016 0.723650 0.403459
O O8 0.148502 0.627752 0.969079
O O9 0.154194 0.784162 0.091629
O O10 0.320723 0.805497 0.786319
O O11 0.474437 0.711726 0.643039
O O12 0.500000 0.000000 0.500000
O O13 0.453072 0.682540 0.033972
O O14 0.506166 0.723337 0.285067
O O15 0.413348 0.965174 0.932096
O O16 0.027673 0.541756 0.619584
O O17 0.000000 0.500000 0.000000
#
# Coordination Sequence:
#
# PCOD8005644 Si02
#       8
#     2   2   2   2   2   2   2   2
#     4  10  21  36  63  88 112 158 204 244 302 364
#     4  11  20  34  63  88 111 157 209 243 303 364
#     4  10  20  39  61  87 119 160 206 249 306 360
#     4   9  20  37  58  88 117 159 205 246 298 359
#     4   9  21  38  56  83 120 157 203 253 300 360
#     4  11  22  40  61  91 129 156 195 261 310 370
#     4  10  20  40  62  84 120 156 203 250 299 371
#     4  10  21  38  59  82 124 162 200 252 307 354
#
# _framework density 20.870791000000001
#
# number of rings (size 3 to 8) (size 9 to 14) (size 15 to 20)
#    0.000    2.000    2.500    1.125    5.250    3.500 
#    0.000    2.500    0.000    0.000    0.000    0.000 
#    0.000    0.000    0.000    0.000    0.000    0.000 
#
# Total GULP energy -198239.209529 kJ/mol
# GULP energy per Si atom -12389.950596 kJ/mol
# Density = 2.082329 g / cm^3
# Si number density = 20.870791 Si / 1000 Ang^3
#
#
#
# Elastic Constant Matrix: (Units=GPa)
#
#
# Indices 1 2 3 4 5 6 
#
# 1 140.5227 56.0369 27.4992 8.3481 -17.9165 -4.7083
# 2 56.0369 102.0133 15.5429 1.8972 5.6112 4.6662
# 3 27.4992 15.5429 32.1612 -1.9405 -13.3251 -0.4462
# 4 8.3481 1.8972 -1.9405 31.9683 4.2799 2.9279
# 5 -17.9165 5.6112 -13.3251 4.2799 35.8904 -3.2424
# 6 -4.7083 4.6662 -0.4462 2.9279 -3.2424 37.5064
#
#
#
# Elastic Compliance Matrix: (Units=1/GPa)
#
#
# Indices 1 2 3 4 5 6 
#
# 1 0.011473 -0.005936 -0.004819 -0.003953 0.005601 0.002914
# 2 -0.005936 0.014352 -0.004931 0.001719 -0.007548 -0.003376
# 3 -0.004819 -0.004931 0.043756 0.002117 0.014505 0.001618
# 4 -0.003953 0.001719 0.002117 0.033463 -0.005790 -0.003798
# 5 0.005601 -0.007548 0.014505 -0.005790 0.038419 0.005588
# 6 0.002914 -0.003376 0.001618 -0.003798 0.005588 0.028247
#
#
# Mechanical properties :
#
#
# Convention : Reuss Voigt Hill
#
# Bulk Modulus (GPa) = 26.17087 52.53946 39.35517
# Shear Modulus (GPa) = 23.38439 32.78091 28.08265
#
# Velocity S-wave (km/s) = 3.35092 3.96745 3.67215
# Velocity P-wave (km/s) = 5.24769 6.79823 6.07265
#
# Compressibility (1/GPa) = 0.03821042
#
# Stress axis : x y z
#
# Youngs Moduli (GPa) = 87.16170 69.67571 22.85379
#
# Poissons Ratio (x) = 0.41359 0.11012
# Poissons Ratio (y) = 0.51738 0.11269
# Poissons Ratio (z) = 0.42000 0.34357
#
# Static dielectric constant tensor:
#      x y z
#    x 3.959870 -0.015590 -0.152440 
#    y -0.015590 4.145810 0.034890 
#    z -0.152440 0.034890 4.186230 
# 
# 
# High freq. dielectric constant tensor:
#      x y z
#    x 1.821840 0.006860 -0.009670 
#    y 0.006860 1.808240 -0.018740 
#    z -0.009670 -0.018740 1.797860 
# 
# From -- ./inp_files/304534.got.cif
#   From: 2010.06.25/outbox.cif.g09.slc.cpg/sg2_153_cif.got.tgz:304534.got - 2010.06.27 13:26:56.
