data_PCOD8005826
_publ_section_title
;
Structure prediction by ZEFSAII (Michael W. Deem and Ramdas Pophale) SiO2 
 PCOD8005826
Probable space group: P -1
;
_chemical_formula_sum "Si O2"
_cell_formula_units_Z 16
_cell_length_a 7.783216
_cell_length_b 20.396871
_cell_length_c 19.522707
_cell_angle_alpha 159.626241
_cell_angle_beta 131.196085
_cell_angle_gamma 46.341542
_cell_volume 779.809733
_symmetry_space_group_name_H-M "P -1"
_symmetry_group_IT_number 2
_symmetry_cell_setting 'triclinic'
loop_
_space_group_symop_operation_xyz
x,y,z
-x,-y,-z
loop_
_atom_site_type_symbol
_atom_site_label
_atom_site_fract_x
_atom_site_fract_y
_atom_site_fract_z
Si Si1 0.029636 0.824278 0.040648
Si Si2 0.989043 0.267861 0.348919
Si Si3 0.890888 0.836613 0.281130
Si Si4 0.770310 0.525003 0.036533
Si Si5 0.314116 0.439555 0.795634
Si Si6 0.905859 0.708710 0.749774
Si Si7 0.631432 0.939328 0.653132
Si Si8 0.611910 0.132789 0.205300
O O1 0.254647 0.900889 0.194692
O O2 0.078178 0.606827 0.871857
O O3 0.792209 0.988934 0.166336
O O4 0.978552 0.828523 0.948934
O O5 0.023792 0.482784 0.575993
O O6 0.754551 0.252622 0.313626
O O7 0.981712 0.221341 0.220305
O O8 0.230703 0.127931 0.306218
O O9 0.883819 0.685596 0.192133
O O10 0.640275 0.950224 0.293545
O O11 0.000000 0.000000 0.500000
O O12 0.052224 0.696987 0.129120
O O13 0.700375 0.604818 0.171951
O O14 0.548044 0.513810 0.919716
O O15 0.339945 0.240406 0.567044
O O16 0.621755 0.728517 0.683302
O O17 0.500000 0.000000 0.000000
#
# Coordination Sequence:
#
# PCOD8005826 Si02
#       8
#     2   2   2   2   2   2   2   2
#     4  10  21  38  62  88 125 160 199 254 303 359
#     4  10  21  37  63  92 118 166 205 253 308 363
#     4  11  22  41  62  91 125 158 199 254 305 367
#     4  10  24  39  64  88 120 161 201 250 312 362
#     4  11  21  41  62  90 120 158 205 253 302 366
#     4  10  20  39  63  87 125 162 207 251 309 364
#     4  11  22  37  65  89 124 159 203 252 304 367
#     4   9  20  35  58  86 120 160 200 251 299 361
#
# _framework density 20.517825999999999
#
# number of rings (size 3 to 8) (size 9 to 14) (size 15 to 20)
#    0.000    1.750    3.750    0.375    0.000    7.000 
#    0.000    2.500    0.000    0.000    0.000    0.000 
#    0.000    0.000    0.000    0.000    0.000    0.000 
#
# Total GULP energy -198261.501794 kJ/mol
# GULP energy per Si atom -12391.343862 kJ/mol
# Density = 2.047113 g / cm^3
# Si number density = 20.517826 Si / 1000 Ang^3
#
#
#
# Elastic Constant Matrix: (Units=GPa)
#
#
# Indices 1 2 3 4 5 6 
#
# 1 65.2386 19.5904 18.4498 2.8529 4.9254 -10.8149
# 2 19.5904 85.5817 30.0815 8.5196 -0.0411 -20.6249
# 3 18.4498 30.0815 100.6248 3.1340 6.9293 2.3267
# 4 2.8529 8.5196 3.1340 35.0473 -6.0298 -4.1974
# 5 4.9254 -0.0411 6.9293 -6.0298 21.0949 -4.3888
# 6 -10.8149 -20.6249 2.3267 -4.1974 -4.3888 31.9336
#
#
#
# Elastic Compliance Matrix: (Units=1/GPa)
#
#
# Indices 1 2 3 4 5 6 
#
# 1 0.017600 -0.002014 -0.002532 -0.000626 -0.002542 0.004413
# 2 -0.002014 0.016698 -0.005105 -0.001449 0.004020 0.010836
# 3 -0.002532 -0.005105 0.012456 -0.001255 -0.005102 -0.005928
# 4 -0.000626 -0.001449 -0.001255 0.031389 0.010465 0.004508
# 5 -0.002542 0.004020 -0.005102 0.010465 0.054970 0.011037
# 6 0.004413 0.010836 -0.005928 0.004508 0.011037 0.042350
#
#
# Mechanical properties :
#
#
# Convention : Reuss Voigt Hill
#
# Bulk Modulus (GPa) = 36.42841 43.07651 39.75246
# Shear Modulus (GPa) = 24.52006 29.83675 27.17840
#
# Velocity S-wave (km/s) = 3.46072 3.81752 3.64349
# Velocity P-wave (km/s) = 5.81049 6.36172 6.09234
#
# Compressibility (1/GPa) = 0.02745110
#
# Stress axis : x y z
#
# Youngs Moduli (GPa) = 56.81769 59.88816 80.28425
#
# Poissons Ratio (x) = 0.12063 0.20331
# Poissons Ratio (y) = 0.11445 0.40983
# Poissons Ratio (z) = 0.14388 0.30571
#
# Static dielectric constant tensor:
#      x y z
#    x 4.125530 -0.555170 0.011700 
#    y -0.555170 3.978870 0.196080 
#    z 0.011700 0.196080 3.819160 
# 
# 
# High freq. dielectric constant tensor:
#      x y z
#    x 1.781560 -0.020640 0.001780 
#    y -0.020640 1.805130 0.015770 
#    z 0.001780 0.015770 1.814060 
# 
# From -- ./inp_files/539454.got.cif
#   From: 2010.06.25/outbox.cif.g09.slc.cpg/sg2_270_cif.got.tgz:539454.got - 2010.06.27 13:26:56.
