data_PCOD8005153
_publ_section_title
;
Structure prediction by ZEFSAII (Michael W. Deem and Ramdas Pophale) SiO2 
 PCOD8005153
Probable space group: P -1
;
_chemical_formula_sum "Si O2"
_cell_formula_units_Z 16
_cell_length_a 18.401309
_cell_length_b 5.294772
_cell_length_c 24.507730
_cell_angle_alpha 81.134659
_cell_angle_beta 21.856310
_cell_angle_gamma 94.553699
_cell_volume 699.535043
_symmetry_space_group_name_H-M "P -1"
_symmetry_group_IT_number 2
_symmetry_cell_setting 'triclinic'
loop_
_space_group_symop_operation_xyz
x,y,z
-x,-y,-z
loop_
_atom_site_type_symbol
_atom_site_label
_atom_site_fract_x
_atom_site_fract_y
_atom_site_fract_z
Si Si1 0.194141 0.397876 0.050848
Si Si2 0.561220 0.243652 0.018872
Si Si3 0.591323 0.744932 0.669724
Si Si4 0.778862 0.271952 0.279141
Si Si5 0.878109 0.836380 0.712498
Si Si6 0.610019 0.298048 0.587960
Si Si7 0.810105 0.856581 0.186603
Si Si8 0.905748 0.112774 0.794474
O O1 0.966971 0.405832 0.194924
O O2 0.082658 0.025841 0.151212
O O3 0.330483 0.566196 0.006649
O O4 0.393429 0.554304 0.860227
O O5 0.270399 0.065649 0.221843
O O6 0.695223 0.454292 0.862963
O O7 0.628282 0.997480 0.981507
O O8 0.579175 0.472364 0.653386
O O9 0.522517 0.943700 0.676363
O O10 0.858017 0.007418 0.504645
O O11 0.800047 0.569271 0.229479
O O12 0.500000 0.000000 0.500000
O O13 0.880267 0.131005 0.172332
O O14 0.970781 0.984889 0.703021
O O15 0.455367 0.278513 0.645801
O O16 0.888946 0.501097 0.363937
O O17 0.000000 0.000000 0.000000
#
# Coordination Sequence:
#
# PCOD8005153 Si02
#       8
#     2   2   2   2   2   2   2   2
#     4  11  26  39  62  94 131 166 207 264 333 375
#     4  10  20  38  65  87 128 163 217 255 316 379
#     4  11  23  42  64  97 130 167 207 268 319 378
#     4  12  27  44  66  98 136 171 217 275 329 390
#     4   9  20  39  61  95 119 168 215 262 303 377
#     4  11  23  42  69  90 125 170 220 257 313 383
#     4  12  25  44  69  96 129 174 223 272 323 390
#     4  10  21  38  64  91 121 170 212 260 309 384
#
# _framework density 22.872337000000002
#
# number of rings (size 3 to 8) (size 9 to 14) (size 15 to 20)
#    0.000    1.250    1.250    4.125    5.250    0.500 
#    0.000    0.625    0.000    0.000    0.000    0.000 
#    0.000    0.000    0.000    0.000    0.000    0.000 
#
# Total GULP energy -198250.756740 kJ/mol
# GULP energy per Si atom -12390.672296 kJ/mol
# Density = 2.282028 g / cm^3
# Si number density = 22.872337 Si / 1000 Ang^3
#
#
#
# Elastic Constant Matrix: (Units=GPa)
#
#
# Indices 1 2 3 4 5 6 
#
# 1 106.3858 26.9634 54.8989 -0.9795 -13.4110 -29.0275
# 2 26.9634 98.9570 24.1026 9.5470 12.0270 -23.8792
# 3 54.8989 24.1026 113.8115 0.9901 -9.4442 -24.6171
# 4 -0.9795 9.5470 0.9901 29.8036 -9.0099 -2.9107
# 5 -13.4110 12.0270 -9.4442 -9.0099 40.5268 1.1847
# 6 -29.0275 -23.8792 -24.6171 -2.9107 1.1847 40.2608
#
#
#
# Elastic Compliance Matrix: (Units=1/GPa)
#
#
# Indices 1 2 3 4 5 6 
#
# 1 0.014981 -0.002258 -0.004942 0.003553 0.005075 0.006548
# 2 -0.002258 0.013695 -0.001092 -0.005853 -0.006531 0.005597
# 3 -0.004942 -0.001092 0.012233 0.000575 0.001572 0.003265
# 4 0.003553 -0.005853 0.000575 0.039257 0.011718 0.001935
# 5 0.005075 -0.006531 0.001572 0.011718 0.031244 0.000674
# 6 0.006548 0.005597 0.003265 0.001935 0.000674 0.034995
#
#
# Mechanical properties :
#
#
# Convention : Reuss Voigt Hill
#
# Bulk Modulus (GPa) = 41.10691 59.00937 50.05814
# Shear Modulus (GPa) = 29.22326 36.33088 32.77707
#
# Velocity S-wave (km/s) = 3.57833 3.98982 3.78966
# Velocity P-wave (km/s) = 5.92317 6.86151 6.40953
#
# Compressibility (1/GPa) = 0.02432681
#
# Stress axis : x y z
#
# Youngs Moduli (GPa) = 66.75043 73.01730 81.74642
#
# Poissons Ratio (x) = 0.16486 0.40397
# Poissons Ratio (y) = 0.15071 0.08925
# Poissons Ratio (z) = 0.32987 0.07972
#
# Static dielectric constant tensor:
#      x y z
#    x 4.283430 -0.191460 -0.192350 
#    y -0.191460 4.349180 -0.037620 
#    z -0.192350 -0.037620 4.421090 
# 
# 
# High freq. dielectric constant tensor:
#      x y z
#    x 1.901440 -0.011830 -0.017340 
#    y -0.011830 1.902020 0.004720 
#    z -0.017340 0.004720 1.910370 
# 
# From -- ./inp_files/104887.got.cif
#   From: 2010.06.25/outbox.cif.g09.slc.cpg/sg2_53_cif.got.tgz:104887.got - 2010.06.27 13:26:56.
