data_PCOD8005248
_publ_section_title
;
Structure prediction by ZEFSAII (Michael W. Deem and Ramdas Pophale) SiO2 
 PCOD8005248
Probable space group: P -1
;
_chemical_formula_sum "Si O2"
_cell_formula_units_Z 16
_cell_length_a 12.995496
_cell_length_b 9.254923
_cell_length_c 10.764911
_cell_angle_alpha 82.950948
_cell_angle_beta 34.946943
_cell_angle_gamma 93.824384
_cell_volume 703.443236
_symmetry_space_group_name_H-M "P -1"
_symmetry_group_IT_number 2
_symmetry_cell_setting 'triclinic'
loop_
_space_group_symop_operation_xyz
x,y,z
-x,-y,-z
loop_
_atom_site_type_symbol
_atom_site_label
_atom_site_fract_x
_atom_site_fract_y
_atom_site_fract_z
Si Si1 0.710376 0.731015 0.613277
Si Si2 0.885593 0.067204 0.845635
Si Si3 0.983888 0.388330 0.142160
Si Si4 0.303938 0.277516 0.896436
Si Si5 0.307780 0.596798 0.363426
Si Si6 0.783291 0.132147 0.204067
Si Si7 0.403098 0.841321 0.047141
Si Si8 0.576185 0.793653 0.483497
O O1 0.726857 0.565819 0.653265
O O2 0.640735 0.708521 0.541750
O O3 0.909013 0.860101 0.423244
O O4 0.563375 0.776823 0.840285
O O5 0.734070 0.139159 0.927885
O O6 0.903111 0.109172 0.969841
O O7 0.815854 0.886039 0.913479
O O8 0.843472 0.422287 0.376471
O O9 0.919004 0.216175 0.170923
O O10 0.000000 0.500000 0.000000
O O11 0.182932 0.397935 0.008855
O O12 0.482223 0.343238 0.798961
O O13 0.366244 0.266723 0.694874
O O14 0.279694 0.719589 0.279643
O O15 0.648176 0.235090 0.290469
O O16 0.667579 0.973280 0.394826
O O17 0.500000 0.000000 0.000000
#
# Coordination Sequence:
#
# PCOD8005248 Si02
#       8
#     2   2   2   2   2   2   2   2
#     4  12  27  45  73 102 140 182 235 294 352 412
#     4  11  24  45  74 104 135 186 240 294 344 411
#     4  12  26  41  69 105 148 182 226 284 354 424
#     4  11  24  42  71 106 144 186 234 281 351 423
#     4  12  28  47  69 106 145 186 232 291 350 414
#     4  10  20  38  66 102 135 177 227 279 342 413
#     4  12  28  49  75  99 138 188 244 290 346 410
#     4  10  20  38  70  97 137 181 222 279 347 413
#
# _framework density 22.745260999999999
#
# number of rings (size 3 to 8) (size 9 to 14) (size 15 to 20)
#    0.000    0.750    3.750    3.375    5.250    6.000 
#    0.000    0.000    0.000    0.000    0.000    0.000 
#    0.000    0.000    0.000    0.000    0.000    0.000 
#
# Total GULP energy -198499.084271 kJ/mol
# GULP energy per Si atom -12406.192767 kJ/mol
# Density = 2.269349 g / cm^3
# Si number density = 22.745261 Si / 1000 Ang^3
#
#
#
# Elastic Constant Matrix: (Units=GPa)
#
#
# Indices 1 2 3 4 5 6 
#
# 1 44.7309 11.5121 9.4047 9.2011 5.0591 -8.3207
# 2 11.5121 99.4945 34.8382 2.8856 9.4163 -12.1092
# 3 9.4047 34.8382 106.2631 6.7858 4.0784 -8.6992
# 4 9.2011 2.8856 6.7858 27.5589 -10.0040 1.2859
# 5 5.0591 9.4163 4.0784 -10.0040 35.3071 0.5069
# 6 -8.3207 -12.1092 -8.6992 1.2859 0.5069 39.0080
#
#
#
# Elastic Compliance Matrix: (Units=1/GPa)
#
#
# Indices 1 2 3 4 5 6 
#
# 1 0.026986 -0.001271 -0.000509 -0.011489 -0.006806 0.005715
# 2 -0.001271 0.012056 -0.003417 -0.001225 -0.003025 0.002789
# 3 -0.000509 -0.003417 0.010892 -0.002591 -0.001027 0.001358
# 4 -0.011489 -0.001225 -0.002591 0.046793 0.015605 -0.005154
# 5 -0.006806 -0.003025 -0.001027 0.015605 0.034697 -0.003585
# 6 0.005715 0.002789 0.001358 -0.005154 -0.003585 0.028240
#
#
# Mechanical properties :
#
#
# Convention : Reuss Voigt Hill
#
# Bulk Modulus (GPa) = 25.29131 40.22206 32.75668
# Shear Modulus (GPa) = 27.28684 33.35702 30.32193
#
# Velocity S-wave (km/s) = 3.46739 3.83371 3.65514
# Velocity P-wave (km/s) = 5.21286 6.10889 5.67857
#
# Compressibility (1/GPa) = 0.03953928
#
# Stress axis : x y z
#
# Youngs Moduli (GPa) = 37.05582 82.94791 91.80995
#
# Poissons Ratio (x) = 0.10545 0.04671
# Poissons Ratio (y) = 0.04711 0.31374
# Poissons Ratio (z) = 0.01885 0.28346
#
# Static dielectric constant tensor:
#      x y z
#    x 4.227450 -0.104340 -0.182220 
#    y -0.104340 4.169530 -0.117490 
#    z -0.182220 -0.117490 4.152390 
# 
# 
# High freq. dielectric constant tensor:
#      x y z
#    x 1.895530 -0.010300 -0.009800 
#    y -0.010300 1.903770 -0.001640 
#    z -0.009800 -0.001640 1.901750 
# 
# From -- ./inp_files/447313.got.cif
#   From: 2010.06.25/outbox.cif.g09.slc.cpg/sg2_224_cif.got.tgz:447313.got - 2010.06.27 13:26:56.
