data_PCOD8005533
_publ_section_title
;
Structure prediction by ZEFSAII (Michael W. Deem and Ramdas Pophale) SiO2 
 PCOD8005533
Probable space group: P -1
;
_chemical_formula_sum "Si O2"
_cell_formula_units_Z 14
_cell_length_a 19.750919
_cell_length_b 22.754767
_cell_length_c 7.735207
_cell_angle_alpha 34.130919
_cell_angle_beta 140.347126
_cell_angle_gamma 161.830172
_cell_volume 605.524489
_symmetry_space_group_name_H-M "P -1"
_symmetry_group_IT_number 2
_symmetry_cell_setting 'triclinic'
loop_
_space_group_symop_operation_xyz
x,y,z
-x,-y,-z
loop_
_atom_site_type_symbol
_atom_site_label
_atom_site_fract_x
_atom_site_fract_y
_atom_site_fract_z
Si Si1 0.382846 0.792218 0.321371
Si Si2 0.143716 0.475931 0.321932
Si Si3 0.241952 0.594539 0.858286
Si Si4 0.440185 0.236853 0.706190
Si Si5 0.795787 0.018957 0.674818
Si Si6 0.979658 0.172078 0.299032
Si Si7 0.289737 0.261629 0.596482
O O1 0.203333 0.607805 0.271415
O O2 0.261917 0.703159 0.488198
O O3 0.562376 0.856213 0.541106
O O4 0.500000 0.000000 0.000000
O O5 0.347591 0.570698 0.469134
O O6 0.922433 0.219467 0.546463
O O7 0.121321 0.520871 0.982490
O O8 0.487307 0.764609 0.973800
O O9 0.120508 0.396849 0.999309
O O10 0.350817 0.274553 0.491725
O O11 0.255918 0.010308 0.802273
O O12 0.954775 0.129236 0.557964
O O13 0.778677 0.897896 0.039925
O O14 0.090461 0.170315 0.422409
O O15 0.500000 0.500000 0.500000
#
# Coordination Sequence:
#
# PCOD8005533 Si02
#       7
#     2   2   2   2   2   2   2
#     4  12  24  41  68  92 117 162 209 257 315 370
#     4   9  22  42  62  89 123 164 201 251 315 359
#     4   9  21  42  60  88 130 159 197 259 303 351
#     4  10  20  39  59  86 127 165 197 250 304 352
#     4  11  21  43  61  87 129 161 200 264 299 359
#     4  11  21  38  64  89 123 169 204 242 303 364
#     4  12  21  38  60  93 128 164 206 246 299 364
#
# _framework density 23.120450999999999
#
# number of rings (size 3 to 8) (size 9 to 14) (size 15 to 20)
#    0.857    0.571    4.286    0.857    2.000    1.143 
#    2.571    4.286    0.000    0.000    0.000    0.000 
#    0.000    0.000    0.000    0.000    0.000    0.000 
#
# Total GULP energy -173477.291142 kJ/mol
# GULP energy per Si atom -12391.235082 kJ/mol
# Density = 2.306783 g / cm^3
# Si number density = 23.120451 Si / 1000 Ang^3
#
#
#
# Elastic Constant Matrix: (Units=GPa)
#
#
# Indices 1 2 3 4 5 6 
#
# 1 51.5387 23.8136 8.7587 -4.8705 -0.8454 -11.3370
# 2 23.8136 89.5058 38.0701 -33.7605 -9.1485 -48.8683
# 3 8.7587 38.0701 108.3922 -28.0269 -14.1025 -16.0319
# 4 -4.8705 -33.7605 -28.0269 26.7950 1.0724 5.9795
# 5 -0.8454 -9.1485 -14.1025 1.0724 22.7719 -5.8738
# 6 -11.3370 -48.8683 -16.0319 5.9795 -5.8738 36.8384
#
#
#
# Elastic Compliance Matrix: (Units=1/GPa)
#
#
# Indices 1 2 3 4 5 6 
#
# 1 0.020701 0.004787 0.001595 0.008263 0.006679 0.013139
# 2 0.004787 -0.058828 -0.016508 -0.070518 -0.051111 -0.080453
# 3 0.001595 -0.016508 0.010416 -0.005744 -0.004134 -0.016602
# 4 0.008263 -0.070518 -0.005744 -0.032168 -0.055104 -0.097068
# 5 0.006679 -0.051111 -0.004134 -0.055104 0.008914 -0.057179
# 6 0.013139 -0.080453 -0.016602 -0.097068 -0.057179 -0.076122
#
#
# Mechanical properties :
#
#
# Convention : Reuss Voigt Hill
#
# Bulk Modulus (GPa) = -20.84956 43.41352 11.28198
# Shear Modulus (GPa) = -40.70906 29.20067 -5.75419
#
# Velocity S-wave (km/s) = -4.20067 3.55770 -1.57930
# Velocity P-wave (km/s) = 5.70656 5.97446 1.25086
#
# Compressibility (1/GPa) = -0.04796265
#
# Stress axis : x y z
#
# Youngs Moduli (GPa) = 48.30794 -16.99876 96.00250
#
# Poissons Ratio (x) = 0.08138 -0.15311
# Poissons Ratio (y) = -0.23127 1.58481
# Poissons Ratio (z) = -0.07704 -0.28062
#
# Static dielectric constant tensor:
#      x y z
#    x 4.324510 0.014600 -0.176670 
#    y 0.014600 4.365250 -0.091890 
#    z -0.176670 -0.091890 3.767070 
# 
# 
# High freq. dielectric constant tensor:
#      x y z
#    x 1.915080 -0.002030 -0.011200 
#    y -0.002030 1.930590 -0.016400 
#    z -0.011200 -0.016400 1.878150 
# 
# From -- ./inp_files/349963.got.cif
#   From: 2010.06.25/outbox.cif.g09.slc.cpg/sg2_175_cif.got.tgz:349963.got - 2010.06.27 13:26:56.
