data_PCOD8005186
_publ_section_title
;
Structure prediction by ZEFSAII (Michael W. Deem and Ramdas Pophale) SiO2 
 PCOD8005186
Probable space group: P -1
;
_chemical_formula_sum "Si O2"
_cell_formula_units_Z 14
_cell_length_a 11.710835
_cell_length_b 7.745810
_cell_length_c 14.908980
_cell_angle_alpha 125.846759
_cell_angle_beta 151.853289
_cell_angle_gamma 50.721675
_cell_volume 492.443824
_symmetry_space_group_name_H-M "P -1"
_symmetry_group_IT_number 2
_symmetry_cell_setting 'triclinic'
loop_
_space_group_symop_operation_xyz
x,y,z
-x,-y,-z
loop_
_atom_site_type_symbol
_atom_site_label
_atom_site_fract_x
_atom_site_fract_y
_atom_site_fract_z
Si Si1 0.451026 0.465452 0.134789
Si Si2 0.581747 0.203971 0.537559
Si Si3 0.341238 0.159718 0.665441
Si Si4 0.891286 0.914013 0.810899
Si Si5 0.975276 0.353648 0.775520
Si Si6 0.892127 0.261179 0.494500
Si Si7 0.302615 0.896835 0.951987
O O1 0.493963 0.703435 0.226038
O O2 0.540101 0.311999 0.062084
O O3 0.600032 0.343958 0.287881
O O4 0.146278 0.521588 0.959738
O O5 0.271322 0.261911 0.331061
O O6 0.710521 0.401824 0.663938
O O7 0.706247 0.018154 0.491040
O O8 0.672605 0.120413 0.675623
O O9 0.066463 0.323621 0.556784
O O10 0.496969 0.037114 0.823843
O O11 0.107493 0.815373 0.855949
O O12 0.000000 0.000000 0.000000
O O13 0.903865 0.380655 0.630938
O O14 0.163819 0.107445 0.858105
O O15 0.000000 0.000000 0.500000
#
# Coordination Sequence:
#
# PCOD8005186 Si02
#       7
#     2   2   2   2   2   2   2
#     4  12  25  39  59  96 135 164 192 250 325 372
#     4  10  22  39  63  95 118 156 217 257 297 361
#     4  12  23  39  61  96 133 161 196 255 318 375
#     4  10  20  38  65  92 114 158 215 268 292 342
#     4  11  23  38  61  92 124 162 210 253 298 371
#     4  12  21  37  60  87 127 165 206 247 301 369
#     4  11  21  38  64  91 124 162 208 252 302 364
#
# _framework density 28.429638000000001
#
# number of rings (size 3 to 8) (size 9 to 14) (size 15 to 20)
#    0.000    0.857    5.714    3.000    0.000    0.000 
#    0.000    0.000    0.000    8.571    0.000    0.000 
#    0.000    0.000    0.000    0.000    0.000    0.000 
#
# Total GULP energy -173551.659344 kJ/mol
# GULP energy per Si atom -12396.547096 kJ/mol
# Density = 2.836493 g / cm^3
# Si number density = 28.429638 Si / 1000 Ang^3
#
#
#
# Elastic Constant Matrix: (Units=GPa)
#
#
# Indices 1 2 3 4 5 6 
#
# 1 142.2147 20.4343 78.3295 7.5824 17.6919 18.5667
# 2 20.4343 37.4019 24.4435 11.6165 -0.6156 4.6935
# 3 78.3295 24.4435 224.7038 -14.5159 2.0573 13.6970
# 4 7.5824 11.6165 -14.5159 41.5267 12.5966 20.7640
# 5 17.6919 -0.6156 2.0573 12.5966 72.7168 4.2967
# 6 18.5667 4.6935 13.6970 20.7640 4.2967 30.6166
#
#
#
# Elastic Compliance Matrix: (Units=1/GPa)
#
#
# Indices 1 2 3 4 5 6 
#
# 1 0.009838 -0.003511 -0.002639 0.001398 -0.002303 -0.004872
# 2 -0.003511 0.035500 -0.004310 -0.016555 0.003593 0.009338
# 3 -0.002639 -0.004310 0.006593 0.006716 -0.000438 -0.005181
# 4 0.001398 -0.016555 0.006716 0.050193 -0.007337 -0.034325
# 5 -0.002303 0.003593 -0.000438 -0.007337 0.015398 0.003857
# 6 -0.004872 0.009338 -0.005181 -0.034325 0.003857 0.059241
#
#
# Mechanical properties :
#
#
# Convention : Reuss Voigt Hill
#
# Bulk Modulus (GPa) = 32.24564 72.30389 52.27476
# Shear Modulus (GPa) = 24.03642 47.71289 35.87465
#
# Velocity S-wave (km/s) = 2.91085 4.10113 3.55614
# Velocity P-wave (km/s) = 4.76070 6.92195 5.94044
#
# Compressibility (1/GPa) = 0.03101194
#
# Stress axis : x y z
#
# Youngs Moduli (GPa) = 101.65115 28.16891 151.68259
#
# Poissons Ratio (x) = 0.09889 0.40030
# Poissons Ratio (y) = 0.35686 0.65368
# Poissons Ratio (z) = 0.26826 0.12139
#
# Static dielectric constant tensor:
#      x y z
#    x 6.632920 0.086520 0.907460 
#    y 0.086520 4.932920 -0.425720 
#    z 0.907460 -0.425720 6.211170 
# 
# 
# High freq. dielectric constant tensor:
#      x y z
#    x 2.162000 0.017780 0.013590 
#    y 0.017780 2.134960 -0.018780 
#    z 0.013590 -0.018780 2.186240 
# 
# From -- ./inp_files/306929.got.cif
#   From: 2010.06.25/outbox.cif.g09.slc.cpg/sg2_154_cif.got.tgz:306929.got - 2010.06.27 13:26:56.
