data_PCOD8005204
_publ_section_title
;
Structure prediction by ZEFSAII (Michael W. Deem and Ramdas Pophale) SiO2 
 PCOD8005204
Probable space group: P -1
;
_chemical_formula_sum "Si O2"
_cell_formula_units_Z 14
_cell_length_a 8.672118
_cell_length_b 14.414795
_cell_length_c 15.389211
_cell_angle_alpha 143.308087
_cell_angle_beta 118.561032
_cell_angle_gamma 38.684431
_cell_volume 659.763825
_symmetry_space_group_name_H-M "P -1"
_symmetry_group_IT_number 2
_symmetry_cell_setting 'triclinic'
loop_
_space_group_symop_operation_xyz
x,y,z
-x,-y,-z
loop_
_atom_site_type_symbol
_atom_site_label
_atom_site_fract_x
_atom_site_fract_y
_atom_site_fract_z
Si Si1 0.055207 0.295307 0.465461
Si Si2 0.945596 0.428233 0.730076
Si Si3 0.381972 0.349192 0.518353
Si Si4 0.519929 0.546869 0.800866
Si Si5 0.121731 0.614910 0.984784
Si Si6 0.074029 0.165692 0.727384
Si Si7 0.706461 0.184810 0.886994
O O1 0.773006 0.538393 0.530325
O O2 0.022294 0.300649 0.563601
O O3 0.281473 0.270888 0.488096
O O4 0.133842 0.079767 0.282983
O O5 0.987961 0.585702 0.857780
O O6 0.140851 0.231303 0.711734
O O7 0.637491 0.587811 0.790868
O O8 0.335992 0.538304 0.701596
O O9 0.700379 0.116726 0.411798
O O10 0.775574 0.290734 0.725983
O O11 0.345880 0.759870 0.982795
O O12 0.431951 0.361948 0.891890
O O13 0.104709 0.800407 0.082542
O O14 0.945961 0.718636 0.103447
#
# Coordination Sequence:
#
# PCOD8005204 Si02
#       7
#     2   2   2   2   2   2   2
#     4  11  26  40  62  93 124 171 198 250 309 368
#     4  10  22  39  63  98 118 155 213 249 312 353
#     4  11  23  43  63  86 133 161 207 246 308 371
#     4   9  22  39  66  91 120 159 204 258 304 352
#     4  10  20  38  65  93 125 156 207 260 305 354
#     4   9  21  37  68  94 119 158 205 260 301 355
#     4  10  22  39  62  94 126 159 205 253 309 363
#
# _framework density 21.219712999999999
#
# number of rings (size 3 to 8) (size 9 to 14) (size 15 to 20)
#    0.857    1.143    0.000    2.571    4.000    5.714 
#    0.000    0.714    0.000    0.000    0.000    0.000 
#    0.000    0.000    0.000    0.000    0.000    0.000 
#
# Total GULP energy -173559.086301 kJ/mol
# GULP energy per Si atom -12397.077593 kJ/mol
# Density = 2.117142 g / cm^3
# Si number density = 21.219713 Si / 1000 Ang^3
#
#
#
# Elastic Constant Matrix: (Units=GPa)
#
#
# Indices 1 2 3 4 5 6 
#
# 1 107.4338 34.7530 72.2529 0.6003 8.3188 12.9255
# 2 34.7530 47.3690 39.8393 -3.6781 -9.5347 0.5601
# 3 72.2529 39.8393 151.3276 -13.4752 -5.6656 5.1075
# 4 0.6003 -3.6781 -13.4752 16.3642 -0.0772 5.9866
# 5 8.3188 -9.5347 -5.6656 -0.0772 45.5554 -8.0519
# 6 12.9255 0.5601 5.1075 5.9866 -8.0519 16.1741
#
#
#
# Elastic Compliance Matrix: (Units=1/GPa)
#
#
# Indices 1 2 3 4 5 6 
#
# 1 0.020519 -0.011361 -0.006785 -0.002335 -0.010164 -0.018057
# 2 -0.011361 0.034790 -0.003838 -0.000337 0.011520 0.014946
# 3 -0.006785 -0.003838 0.011785 0.009372 0.001785 -0.000746
# 4 -0.002335 -0.000337 0.009372 0.080936 -0.004197 -0.033128
# 5 -0.010164 0.011520 0.001785 -0.004197 0.030672 0.023983
# 6 -0.018057 0.014946 -0.000746 -0.033128 0.023983 0.100177
#
#
# Mechanical properties :
#
#
# Convention : Reuss Voigt Hill
#
# Bulk Modulus (GPa) = 43.24223 66.64678 54.94450
# Shear Modulus (GPa) = 15.12610 26.23775 20.68193
#
# Velocity S-wave (km/s) = 2.67279 3.52018 3.12534
# Velocity P-wave (km/s) = 5.47244 6.92808 6.24283
#
# Compressibility (1/GPa) = 0.02312554
#
# Stress axis : x y z
#
# Youngs Moduli (GPa) = 48.73539 28.74419 84.85653
#
# Poissons Ratio (x) = 0.32657 0.57575
# Poissons Ratio (y) = 0.55370 0.32564
# Poissons Ratio (z) = 0.33067 0.11031
#
# Static dielectric constant tensor:
#      x y z
#    x 3.756960 -0.022130 -0.027390 
#    y -0.022130 3.477770 -0.133770 
#    z -0.027390 -0.133770 3.662850 
# 
# 
# High freq. dielectric constant tensor:
#      x y z
#    x 1.829980 -0.003430 0.000020 
#    y -0.003430 1.799600 -0.012990 
#    z 0.000020 -0.012990 1.835240 
# 
# From -- ./inp_files/503270.got.cif
#   From: 2010.06.25/outbox.cif.g09.slc.cpg/sg2_252_cif.got.tgz:503270.got - 2010.06.27 13:26:56.
