data_PCOD8005026
_publ_section_title
;
Structure prediction by ZEFSAII (Michael W. Deem and Ramdas Pophale) SiO2 
 PCOD8005026
Probable space group: P -1
;
_chemical_formula_sum "Si O2"
_cell_formula_units_Z 16
_cell_length_a 15.353820
_cell_length_b 11.273789
_cell_length_c 9.315987
_cell_angle_alpha 121.797031
_cell_angle_beta 57.734963
_cell_angle_gamma 73.301315
_cell_volume 708.739381
_symmetry_space_group_name_H-M "P -1"
_symmetry_group_IT_number 2
_symmetry_cell_setting 'triclinic'
loop_
_space_group_symop_operation_xyz
x,y,z
-x,-y,-z
loop_
_atom_site_type_symbol
_atom_site_label
_atom_site_fract_x
_atom_site_fract_y
_atom_site_fract_z
Si Si1 0.521147 0.628466 0.381822
Si Si2 0.411043 0.238085 0.342478
Si Si3 0.090774 0.000593 0.535806
Si Si4 0.674552 0.448274 0.822683
Si Si5 0.441678 0.695294 0.932735
Si Si6 0.290406 0.072406 0.728272
Si Si7 0.412840 0.168649 0.890253
Si Si8 0.037098 0.598802 0.942035
O O1 0.602802 0.636045 0.436322
O O2 0.510616 0.475371 0.336730
O O3 0.340151 0.886094 0.662978
O O4 0.639126 0.506319 0.059717
O O5 0.488421 0.229746 0.128895
O O6 0.538034 0.974863 0.103570
O O7 0.222284 0.387582 0.574563
O O8 0.162493 0.828840 0.497073
O O9 0.242280 0.920438 0.272491
O O10 0.000000 0.000000 0.500000
O O11 0.969903 0.251097 0.862624
O O12 0.523667 0.551522 0.919118
O O13 0.706782 0.569448 0.804546
O O14 0.310007 0.191064 0.878900
O O15 0.098495 0.251532 0.970224
O O16 0.410723 0.959231 0.410541
O O17 0.000000 0.500000 0.000000
#
# Coordination Sequence:
#
# PCOD8005026 Si02
#       8
#     2   2   2   2   2   2   2   2
#     4   9  18  37  62  86 117 166 216 244 298 384
#     4  11  23  38  61  97 126 160 205 263 316 364
#     4  11  24  41  65  95 123 165 212 260 309 372
#     4  10  20  38  64  86 124 164 216 243 310 374
#     4  11  22  39  63  93 128 162 204 261 319 367
#     4   9  17  32  59  83 117 153 219 247 295 354
#     4   9  18  35  58  87 114 168 200 254 292 378
#     4  12  23  37  61  94 127 160 209 259 309 372
#
# _framework density 22.575294
#
# number of rings (size 3 to 8) (size 9 to 14) (size 15 to 20)
#    0.000    1.750    1.250    6.375    1.750    0.500 
#    0.000    5.000    0.000    1.500    0.000    0.000 
#    0.000    0.000    0.000    0.000    0.000    0.000 
#
# Total GULP energy -198270.124030 kJ/mol
# GULP energy per Si atom -12391.882752 kJ/mol
# Density = 2.252391 g / cm^3
# Si number density = 22.575294 Si / 1000 Ang^3
#
#
#
# Elastic Constant Matrix: (Units=GPa)
#
#
# Indices 1 2 3 4 5 6 
#
# 1 89.1485 19.6570 23.2954 13.5275 -17.8553 5.2154
# 2 19.6570 98.3569 41.3247 6.4049 -13.3613 15.0823
# 3 23.2954 41.3247 59.5203 11.8117 -17.0931 12.1934
# 4 13.5275 6.4049 11.8117 32.9602 7.6853 3.4008
# 5 -17.8553 -13.3613 -17.0931 7.6853 35.6654 9.9360
# 6 5.2154 15.0823 12.1934 3.4008 9.9360 45.5069
#
#
#
# Elastic Compliance Matrix: (Units=1/GPa)
#
#
# Indices 1 2 3 4 5 6 
#
# 1 0.014659 -0.000464 -0.000694 -0.007543 0.009236 -0.002793
# 2 -0.000464 0.014686 -0.009106 0.000520 0.001561 -0.002754
# 3 -0.000694 -0.009106 0.032442 -0.012638 0.016833 -0.008326
# 4 -0.007543 0.000520 -0.012638 0.042017 -0.020181 0.005345
# 5 0.009236 0.001561 0.016833 -0.020181 0.049978 -0.015490
# 6 -0.002793 -0.002754 -0.008326 0.005345 -0.015490 0.028421
#
#
# Mechanical properties :
#
#
# Convention : Reuss Voigt Hill
#
# Bulk Modulus (GPa) = 24.23635 46.17553 35.20594
# Shear Modulus (GPa) = 23.09646 33.67640 28.38643
#
# Velocity S-wave (km/s) = 3.20204 3.86649 3.54985
# Velocity P-wave (km/s) = 4.94266 6.35857 5.69479
#
# Compressibility (1/GPa) = 0.04126034
#
# Stress axis : x y z
#
# Youngs Moduli (GPa) = 68.21945 68.09212 30.82406
#
# Poissons Ratio (x) = 0.03160 0.02138
# Poissons Ratio (y) = 0.03166 0.28067
# Poissons Ratio (z) = 0.04731 0.62002
#
# Static dielectric constant tensor:
#      x y z
#    x 4.292970 0.244380 0.269250 
#    y 0.244380 4.511160 0.494450 
#    z 0.269250 0.494450 3.714960 
# 
# 
# High freq. dielectric constant tensor:
#      x y z
#    x 1.914800 0.006660 0.021730 
#    y 0.006660 1.901050 0.026690 
#    z 0.021730 0.026690 1.839650 
# 
# From -- ./inp_files/308282.got.cif
#   From: 2010.06.25/outbox.cif.g09.slc.cpg/sg2_155_cif.got.tgz:308282.got - 2010.06.27 13:26:56.
