data_PCOD8005882
_publ_section_title
;
Structure prediction by ZEFSAII (Michael W. Deem and Ramdas Pophale) SiO2 
 PCOD8005882
Probable space group: P -1
;
_chemical_formula_sum "Si O2"
_cell_formula_units_Z 14
_cell_length_a 13.327650
_cell_length_b 9.354439
_cell_length_c 9.769951
_cell_angle_alpha 87.618975
_cell_angle_beta 79.755049
_cell_angle_gamma 33.372453
_cell_volume 646.333318
_symmetry_space_group_name_H-M "P -1"
_symmetry_group_IT_number 2
_symmetry_cell_setting 'triclinic'
loop_
_space_group_symop_operation_xyz
x,y,z
-x,-y,-z
loop_
_atom_site_type_symbol
_atom_site_label
_atom_site_fract_x
_atom_site_fract_y
_atom_site_fract_z
Si Si1 0.955874 0.018935 0.189082
Si Si2 0.891116 0.440543 0.936893
Si Si3 0.351560 0.281902 0.593444
Si Si4 0.633405 0.570960 0.139943
Si Si5 0.981656 0.621780 0.794554
Si Si6 0.213369 0.728831 0.505740
Si Si7 0.723193 0.172571 0.759785
O O1 0.978373 0.827416 0.160742
O O2 0.160099 0.847821 0.181212
O O3 0.843918 0.244634 0.093126
O O4 0.792082 0.218265 0.337530
O O5 0.883219 0.583621 0.829527
O O6 0.674482 0.643076 0.010697
O O7 0.994007 0.351383 0.058543
O O8 0.425616 0.281591 0.709312
O O9 0.180209 0.382014 0.677119
O O10 0.287464 0.477010 0.488977
O O11 0.500000 0.000000 0.500000
O O12 0.473081 0.647288 0.130046
O O13 0.851543 0.880119 0.726011
O O14 0.333553 0.692566 0.379996
O O15 0.000000 0.000000 0.500000
#
# Coordination Sequence:
#
# PCOD8005882 Si02
#       7
#     2   2   2   2   2   2   2
#     4  10  20  40  63  86 121 161 204 251 304 369
#     4  10  21  40  62  85 123 166 203 251 306 360
#     4  10  20  39  63  92 128 160 203 252 311 370
#     4  10  22  38  61  91 120 161 204 256 298 366
#     4  10  21  40  62  85 126 164 196 257 312 354
#     4   9  18  38  62  87 123 156 197 256 302 359
#     4  11  21  39  64  88 123 160 201 254 311 355
#
# _framework density 21.660651000000001
#
# number of rings (size 3 to 8) (size 9 to 14) (size 15 to 20)
#    0.000    2.000    5.714    0.429    0.000    5.714 
#    5.143    1.429    0.000    0.000    0.000    0.000 
#    0.000    0.000    0.000    0.000    0.000    0.000 
#
# Total GULP energy -173447.454922 kJ/mol
# GULP energy per Si atom -12389.103923 kJ/mol
# Density = 2.161135 g / cm^3
# Si number density = 21.660651 Si / 1000 Ang^3
#
#
#
# Elastic Constant Matrix: (Units=GPa)
#
#
# Indices 1 2 3 4 5 6 
#
# 1 115.9964 50.6750 60.0984 5.9023 -36.4544 15.1512
# 2 50.6750 123.4351 49.9196 8.1083 -10.6095 33.0040
# 3 60.0984 49.9196 64.8140 -5.7211 -30.4339 23.5553
# 4 5.9023 8.1083 -5.7211 35.3683 10.2457 -3.3865
# 5 -36.4544 -10.6095 -30.4339 10.2457 38.1247 1.8810
# 6 15.1512 33.0040 23.5553 -3.3865 1.8810 43.0592
#
#
#
# Elastic Compliance Matrix: (Units=1/GPa)
#
#
# Indices 1 2 3 4 5 6 
#
# 1 0.019542 -0.001398 -0.013306 -0.007883 0.009773 0.000427
# 2 -0.001398 0.013869 -0.009886 -0.003821 -0.004103 -0.004852
# 3 -0.013306 -0.009886 0.057251 0.003008 0.030414 -0.020151
# 4 -0.007883 -0.003821 0.003008 0.036424 -0.016366 0.007637
# 5 0.009773 -0.004103 0.030414 -0.016366 0.064146 -0.021021
# 6 0.000427 -0.004852 -0.020151 0.007637 -0.021021 0.039335
#
#
# Mechanical properties :
#
#
# Convention : Reuss Voigt Hill
#
# Bulk Modulus (GPa) = 24.10693 69.51462 46.81077
# Shear Modulus (GPa) = 17.03142 32.88061 24.95601
#
# Velocity S-wave (km/s) = 2.80712 3.90036 3.39799
# Velocity P-wave (km/s) = 4.65404 7.24196 6.08712
#
# Compressibility (1/GPa) = 0.04148186
#
# Stress axis : x y z
#
# Youngs Moduli (GPa) = 51.17139 72.10233 17.46694
#
# Poissons Ratio (x) = 0.10081 0.23241
# Poissons Ratio (y) = 0.07155 0.17268
# Poissons Ratio (z) = 0.68088 0.71282
#
# Static dielectric constant tensor:
#      x y z
#    x 3.968270 0.301800 -0.503690 
#    y 0.301800 3.929270 -0.538990 
#    z -0.503690 -0.538990 4.829850 
# 
# 
# High freq. dielectric constant tensor:
#      x y z
#    x 1.837930 0.016000 -0.023120 
#    y 0.016000 1.840810 -0.005830 
#    z -0.023120 -0.005830 1.851570 
# 
# From -- ./inp_files/181241.got.cif
#   From: 2010.06.25/outbox.cif.g09.slc.cpg/sg2_91_cif.got.tgz:181241.got - 2010.06.27 13:26:56.
