data_PCOD8005071
_publ_section_title
;
Structure prediction by ZEFSAII (Michael W. Deem and Ramdas Pophale) SiO2 
 PCOD8005071
Probable space group: P -1
;
_chemical_formula_sum "Si O2"
_cell_formula_units_Z 14
_cell_length_a 7.437071
_cell_length_b 8.503654
_cell_length_c 18.975243
_cell_angle_alpha 137.639976
_cell_angle_beta 126.114714
_cell_angle_gamma 82.569211
_cell_volume 540.040786
_symmetry_space_group_name_H-M "P -1"
_symmetry_group_IT_number 2
_symmetry_cell_setting 'triclinic'
loop_
_space_group_symop_operation_xyz
x,y,z
-x,-y,-z
loop_
_atom_site_type_symbol
_atom_site_label
_atom_site_fract_x
_atom_site_fract_y
_atom_site_fract_z
Si Si1 0.786817 0.445764 0.838384
Si Si2 0.106063 0.412783 0.317469
Si Si3 0.710390 0.233720 0.281064
Si Si4 0.153500 0.125846 0.740908
Si Si5 0.727543 0.318146 0.078004
Si Si6 0.572143 0.676359 0.413867
Si Si7 0.024108 0.867727 0.148868
O O1 0.527721 0.323411 0.688169
O O2 0.761164 0.206720 0.805224
O O3 0.056039 0.576065 0.898901
O O4 0.827855 0.691112 0.979761
O O5 0.372769 0.672252 0.426112
O O6 0.005321 0.451706 0.383399
O O7 0.845889 0.291116 0.168312
O O8 0.190380 0.192613 0.272420
O O9 0.590555 0.407333 0.336605
O O10 0.739483 0.079697 0.305984
O O11 0.523530 0.992390 0.101079
O O12 0.332041 0.433539 0.846335
O O13 0.164309 0.179985 0.844774
O O14 0.854854 0.970647 0.587543
#
# Coordination Sequence:
#
# PCOD8005071 Si02
#       7
#     2   2   2   2   2   2   2
#     4   9  19  35  61  91 123 163 208 252 310 371
#     4  10  22  38  63  93 124 161 209 258 313 365
#     4  11  22  39  64  92 125 166 211 256 305 372
#     4  10  23  40  62  92 128 168 206 254 318 369
#     4  10  20  38  64  92 125 167 210 256 309 371
#     4  11  23  42  65  92 129 165 204 259 315 373
#     4   9  18  35  57  91 123 156 207 253 300 368
#
# _framework density 25.923967000000001
#
# number of rings (size 3 to 8) (size 9 to 14) (size 15 to 20)
#    0.000    2.000    0.000    3.000    0.000   10.857 
#    0.000    5.000    0.000    5.143    0.000    0.000 
#    0.000    0.000    0.000    0.000    0.000    0.000 
#
# Total GULP energy -173435.124878 kJ/mol
# GULP energy per Si atom -12388.223206 kJ/mol
# Density = 2.586496 g / cm^3
# Si number density = 25.923967 Si / 1000 Ang^3
#
#
#
# Elastic Constant Matrix: (Units=GPa)
#
#
# Indices 1 2 3 4 5 6 
#
# 1 59.9090 13.6238 15.3169 -0.0382 2.2551 -3.7778
# 2 13.6238 85.0609 -3.2469 -0.4659 -3.7864 -10.2865
# 3 15.3169 -3.2469 52.3038 5.1586 6.4863 -0.4690
# 4 -0.0382 -0.4659 5.1586 22.7257 -4.3797 2.1182
# 5 2.2551 -3.7864 6.4863 -4.3797 26.2998 -0.4034
# 6 -3.7778 -10.2865 -0.4690 2.1182 -0.4034 29.0103
#
#
#
# Elastic Compliance Matrix: (Units=1/GPa)
#
#
# Indices 1 2 3 4 5 6 
#
# 1 0.018977 -0.003132 -0.005792 0.001086 -0.000451 0.001182
# 2 -0.003132 0.012907 0.001549 -0.000142 0.001786 0.004229
# 3 -0.005792 0.001549 0.022245 -0.006192 -0.005790 0.000526
# 4 0.001086 -0.000142 -0.006192 0.047507 0.009274 -0.003349
# 5 -0.000451 0.001786 -0.005790 0.009274 0.041297 0.000378
# 6 0.001182 0.004229 0.000526 -0.003349 0.000378 0.036382
#
#
# Mechanical properties :
#
#
# Convention : Reuss Voigt Hill
#
# Bulk Modulus (GPa) = 25.39449 27.62904 26.51177
# Shear Modulus (GPa) = 24.13217 27.04582 25.58899
#
# Velocity S-wave (km/s) = 3.05435 3.23348 3.14519
# Velocity P-wave (km/s) = 4.71760 4.96199 4.84134
#
# Compressibility (1/GPa) = 0.03937862
#
# Stress axis : x y z
#
# Youngs Moduli (GPa) = 52.69449 77.47633 44.95404
#
# Poissons Ratio (x) = 0.24264 0.26039
# Poissons Ratio (y) = 0.16503 -0.06963
# Poissons Ratio (z) = 0.30523 -0.12000
#
# Static dielectric constant tensor:
#      x y z
#    x 4.389970 -0.233650 -0.184510 
#    y -0.233650 5.243160 0.000220 
#    z -0.184510 0.000220 4.411620 
# 
# 
# High freq. dielectric constant tensor:
#      x y z
#    x 2.017050 -0.010640 -0.004490 
#    y -0.010640 2.056140 -0.005530 
#    z -0.004490 -0.005530 2.020470 
# 
# From -- ./inp_files/158983.got.cif
#   From: 2010.06.25/outbox.cif.g09.slc.cpg/sg2_80_cif.got.tgz:158983.got - 2010.06.27 13:26:56.
