data_PCOD8005926
_publ_section_title
;
Structure prediction by ZEFSAII (Michael W. Deem and Ramdas Pophale) SiO2 
 PCOD8005926
Probable space group: P -1
;
_chemical_formula_sum "Si O2"
_cell_formula_units_Z 16
_cell_length_a 8.982551
_cell_length_b 11.397375
_cell_length_c 13.736899
_cell_angle_alpha 66.172626
_cell_angle_beta 135.206433
_cell_angle_gamma 129.118400
_cell_volume 766.278164
_symmetry_space_group_name_H-M "P -1"
_symmetry_group_IT_number 2
_symmetry_cell_setting 'triclinic'
loop_
_space_group_symop_operation_xyz
x,y,z
-x,-y,-z
loop_
_atom_site_type_symbol
_atom_site_label
_atom_site_fract_x
_atom_site_fract_y
_atom_site_fract_z
Si Si1 0.853430 0.057085 0.197730
Si Si2 0.494396 0.968862 0.239474
Si Si3 0.379205 0.537180 0.165843
Si Si4 0.263967 0.151067 0.094495
Si Si5 0.637072 0.144832 0.581640
Si Si6 0.802327 0.772589 0.160566
Si Si7 0.380320 0.276372 0.324111
Si Si8 0.843495 0.272130 0.968296
O O1 0.788115 0.170530 0.074453
O O2 0.149349 0.155569 0.324503
O O3 0.712991 0.004829 0.253249
O O4 0.786106 0.911459 0.150066
O O5 0.519316 0.899563 0.375278
O O6 0.485496 0.117336 0.207325
O O7 0.222090 0.841354 0.113383
O O8 0.618213 0.614135 0.181268
O O9 0.435207 0.446377 0.304270
O O10 0.122412 0.413751 0.034773
O O11 0.346112 0.669127 0.147729
O O12 0.285601 0.224860 0.185288
O O13 0.301112 0.262495 0.986207
O O14 0.000000 0.000000 0.000000
O O15 0.621740 0.276430 0.473586
O O16 0.919790 0.193613 0.714134
O O17 0.500000 0.000000 0.500000
#
# Coordination Sequence:
#
# PCOD8005926 Si02
#       8
#     2   2   2   2   2   2   2   2
#     4  11  20  36  67  95 121 154 215 262 307 356
#     4  12  21  35  68  98 120 158 212 264 309 362
#     4  10  23  39  63  89 137 162 202 249 322 369
#     4  12  19  37  64  96 122 157 206 264 314 357
#     4  12  24  42  63  91 128 166 209 260 310 362
#     4  12  22  39  67  96 124 163 209 258 312 371
#     4  11  24  44  60  88 132 171 202 258 310 367
#     4  10  20  39  63  99 128 158 196 268 318 362
#
# _framework density 20.880144999999999
#
# number of rings (size 3 to 8) (size 9 to 14) (size 15 to 20)
#    0.000    0.750    7.500    1.875    0.000    1.500 
#    0.000    0.625    0.000    0.000    0.000    0.000 
#    0.000    0.000    0.000    0.000    0.000    0.000 
#
# Total GULP energy -198259.517388 kJ/mol
# GULP energy per Si atom -12391.219837 kJ/mol
# Density = 2.083262 g / cm^3
# Si number density = 20.880145 Si / 1000 Ang^3
#
#
#
# Elastic Constant Matrix: (Units=GPa)
#
#
# Indices 1 2 3 4 5 6 
#
# 1 112.0464 39.0389 40.0859 -11.3380 -0.7979 9.7362
# 2 39.0389 94.1673 31.7990 -19.0585 6.2132 12.7325
# 3 40.0859 31.7990 99.9694 -25.5081 4.3767 3.5224
# 4 -11.3380 -19.0585 -25.5081 27.4712 -8.7139 7.7649
# 5 -0.7979 6.2132 4.3767 -8.7139 30.3123 -12.1149
# 6 9.7362 12.7325 3.5224 7.7649 -12.1149 37.6064
#
#
#
# Elastic Compliance Matrix: (Units=1/GPa)
#
#
# Indices 1 2 3 4 5 6 
#
# 1 0.011509 -0.003582 -0.003607 -0.000477 0.001020 -0.001002
# 2 -0.003582 0.015488 -0.000605 0.009727 -0.003318 -0.007337
# 3 -0.003607 -0.000605 0.015035 0.012995 0.000475 -0.002800
# 4 -0.000477 0.009727 0.012995 0.061677 0.008040 -0.014532
# 5 0.001020 -0.003318 0.000475 0.008040 0.040863 0.012319
# 6 -0.001002 -0.007337 -0.002800 -0.014532 0.012319 0.036566
#
#
# Mechanical properties :
#
#
# Convention : Reuss Voigt Hill
#
# Bulk Modulus (GPa) = 37.81275 58.67007 48.24141
# Shear Modulus (GPa) = 24.32619 32.09526 28.21073
#
# Velocity S-wave (km/s) = 3.41697 3.92486 3.67969
# Velocity P-wave (km/s) = 5.80658 6.97846 6.41932
#
# Compressibility (1/GPa) = 0.02644611
#
# Stress axis : x y z
#
# Youngs Moduli (GPa) = 86.88653 64.56592 66.51053
#
# Poissons Ratio (x) = 0.23126 0.23988
# Poissons Ratio (y) = 0.31121 0.04022
# Poissons Ratio (z) = 0.31338 0.03904
#
# Static dielectric constant tensor:
#      x y z
#    x 4.195300 -0.124670 0.462810 
#    y -0.124670 4.170460 -0.563330 
#    z 0.462810 -0.563330 4.627120 
# 
# 
# High freq. dielectric constant tensor:
#      x y z
#    x 1.823820 -0.003040 0.012210 
#    y -0.003040 1.813380 -0.019980 
#    z 0.012210 -0.019980 1.796570 
# 
# From -- ./inp_files/392481.got.cif
#   From: 2010.06.25/outbox.cif.g09.slc.cpg/sg2_197_cif.got.tgz:392481.got - 2010.06.27 13:26:56.
