data_PCOD8005440
_publ_section_title
;
Structure prediction by ZEFSAII (Michael W. Deem and Ramdas Pophale) SiO2 
 PCOD8005440
Probable space group: P -1
;
_chemical_formula_sum "Si O2"
_cell_formula_units_Z 16
_cell_length_a 10.278117
_cell_length_b 14.217749
_cell_length_c 18.804435
_cell_angle_alpha 21.409783
_cell_angle_beta 106.808607
_cell_angle_gamma 119.004293
_cell_volume 755.561251
_symmetry_space_group_name_H-M "P -1"
_symmetry_group_IT_number 2
_symmetry_cell_setting 'triclinic'
loop_
_space_group_symop_operation_xyz
x,y,z
-x,-y,-z
loop_
_atom_site_type_symbol
_atom_site_label
_atom_site_fract_x
_atom_site_fract_y
_atom_site_fract_z
Si Si1 0.466258 0.415600 0.342997
Si Si2 0.151762 0.258001 0.790806
Si Si3 0.526938 0.231311 0.033882
Si Si4 0.042727 0.940732 0.853861
Si Si5 0.787692 0.108528 0.683372
Si Si6 0.367125 0.226734 0.616285
Si Si7 0.719155 0.243126 0.308206
Si Si8 0.600485 0.800881 0.727096
O O1 0.662774 0.546868 0.279789
O O2 0.401170 0.395286 0.426448
O O3 0.346708 0.053070 0.546833
O O4 0.454075 0.661468 0.121098
O O5 0.119313 0.514752 0.583713
O O6 0.148653 0.068917 0.854290
O O7 0.000000 0.000000 0.000000
O O8 0.324597 0.989939 0.193184
O O9 0.612001 0.055540 0.184255
O O10 0.630115 0.552778 0.873730
O O11 0.172609 0.068763 0.718432
O O12 0.939863 0.085367 0.731595
O O13 0.915554 0.546711 0.108154
O O14 0.654981 0.866471 0.771097
O O15 0.500000 0.500000 0.500000
O O16 0.602092 0.362795 0.197821
O O17 0.712366 0.138549 0.462321
#
# Coordination Sequence:
#
# PCOD8005440 Si02
#       8
#     2   2   2   2   2   2   2   2
#     4  11  24  46  71  97 136 186 223 278 348 406
#     4  12  24  42  68 102 139 173 224 291 339 396
#     4  11  23  42  74  99 131 182 232 274 341 409
#     4  12  26  41  67 103 137 176 232 281 333 406
#     4  12  22  41  69 104 134 175 230 286 337 400
#     4  12  26  50  65  94 144 185 227 278 341 412
#     4  10  21  41  67 103 135 174 227 282 343 399
#     4  10  20  38  70 102 138 172 221 283 348 399
#
# _framework density 21.176311999999999
#
# number of rings (size 3 to 8) (size 9 to 14) (size 15 to 20)
#    0.000    0.750    5.000    2.250    3.500    2.000 
#    4.500    1.250    0.000    0.000    0.000    0.000 
#    0.000    0.000    0.000    0.000    0.000    0.000 
#
# Total GULP energy -198484.590861 kJ/mol
# GULP energy per Si atom -12405.286929 kJ/mol
# Density = 2.112811 g / cm^3
# Si number density = 21.176312 Si / 1000 Ang^3
#
#
#
# Elastic Constant Matrix: (Units=GPa)
#
#
# Indices 1 2 3 4 5 6 
#
# 1 105.3890 19.1843 39.7477 11.2494 -20.0044 -10.1575
# 2 19.1843 100.4662 41.4943 10.7446 -8.3756 -18.7957
# 3 39.7477 41.4943 119.6063 8.0605 -16.1511 -6.7531
# 4 11.2494 10.7446 8.0605 42.3556 -4.8993 -7.6830
# 5 -20.0044 -8.3756 -16.1511 -4.8993 38.5127 3.8252
# 6 -10.1575 -18.7957 -6.7531 -7.6830 3.8252 31.1167
#
#
#
# Elastic Compliance Matrix: (Units=1/GPa)
#
#
# Indices 1 2 3 4 5 6 
#
# 1 0.011900 -0.000022 -0.003110 -0.001642 0.004440 0.002245
# 2 -0.000022 0.013016 -0.004004 -0.001295 0.000317 0.006627
# 3 -0.003110 -0.004004 0.011025 -0.000247 0.002243 -0.001378
# 4 -0.001642 -0.001295 -0.000247 0.025455 0.001531 0.004725
# 5 0.004440 0.000317 0.002243 0.001531 0.029588 -0.001132
# 6 0.002245 0.006627 -0.001378 0.004725 -0.001132 0.037880
#
#
# Mechanical properties :
#
#
# Convention : Reuss Voigt Hill
#
# Bulk Modulus (GPa) = 46.14809 58.47934 52.31372
# Shear Modulus (GPa) = 33.25336 37.39937 35.32636
#
# Velocity S-wave (km/s) = 3.96701 4.20705 4.08879
# Velocity P-wave (km/s) = 6.54389 7.16062 6.85919
#
# Compressibility (1/GPa) = 0.02166937
#
# Stress axis : x y z
#
# Youngs Moduli (GPa) = 84.03285 76.82611 90.70218
#
# Poissons Ratio (x) = 0.00170 0.28208
# Poissons Ratio (y) = 0.00185 0.36318
# Poissons Ratio (z) = 0.26134 0.30762
#
# Static dielectric constant tensor:
#      x y z
#    x 3.662030 -0.147260 -0.050580 
#    y -0.147260 4.006950 0.110420 
#    z -0.050580 0.110420 4.050410 
# 
# 
# High freq. dielectric constant tensor:
#      x y z
#    x 1.803540 -0.010180 -0.004060 
#    y -0.010180 1.836780 0.003080 
#    z -0.004060 0.003080 1.853010 
# 
# From -- ./inp_files/271572.got.cif
#   From: 2010.06.25/outbox.cif.g09.slc.cpg/sg2_136_cif.got.tgz:271572.got - 2010.06.27 13:26:56.
