data_PCOD8005372
_publ_section_title
;
Structure prediction by ZEFSAII (Michael W. Deem and Ramdas Pophale) SiO2 
 PCOD8005372
Probable space group: P -1
;
_chemical_formula_sum "Si O2"
_cell_formula_units_Z 16
_cell_length_a 22.394127
_cell_length_b 6.504815
_cell_length_c 13.788024
_cell_angle_alpha 86.786324
_cell_angle_beta 19.990666
_cell_angle_gamma 88.138234
_cell_volume 684.358193
_symmetry_space_group_name_H-M "P -1"
_symmetry_group_IT_number 2
_symmetry_cell_setting 'triclinic'
loop_
_space_group_symop_operation_xyz
x,y,z
-x,-y,-z
loop_
_atom_site_type_symbol
_atom_site_label
_atom_site_fract_x
_atom_site_fract_y
_atom_site_fract_z
Si Si1 0.135008 0.531295 0.053903
Si Si2 0.617353 0.804350 0.720562
Si Si3 0.022381 0.179710 0.564333
Si Si4 0.816504 0.097909 0.265650
Si Si5 0.580786 0.162233 0.450965
Si Si6 0.262240 0.902098 0.312169
Si Si7 0.784820 0.811564 0.917850
Si Si8 0.147722 0.569537 0.650814
O O1 0.151801 0.304828 0.079233
O O2 0.002649 0.649579 0.321566
O O3 0.043059 0.531898 0.087345
O O4 0.330405 0.639648 0.746052
O O5 0.700464 0.588546 0.580670
O O6 0.674424 0.973023 0.549926
O O7 0.660569 0.887298 0.760293
O O8 0.406994 0.778791 0.036341
O O9 0.125860 0.285510 0.311575
O O10 0.124825 0.979774 0.443994
O O11 0.833930 0.058986 0.834547
O O12 0.742946 0.081173 0.268507
O O13 0.848642 0.333925 0.249293
O O14 0.000000 0.000000 0.000000
O O15 0.500000 0.000000 0.500000
O O16 0.427285 0.220900 0.757745
O O17 0.173204 0.751945 0.530326
#
# Coordination Sequence:
#
# PCOD8005372 Si02
#       8
#     2   2   2   2   2   2   2   2
#     4  12  24  44  75 102 139 188 238 291 351 428
#     4  10  21  40  65  97 138 181 227 286 344 416
#     4  11  22  43  70 102 143 182 235 290 355 419
#     4  11  27  46  70 101 140 184 233 293 352 414
#     4  12  27  49  73 100 143 188 238 291 355 421
#     4  10  20  38  67  98 139 181 228 282 349 414
#     4  11  25  45  68 102 140 185 235 293 350 417
#     4  11  23  42  70 104 137 182 235 287 353 422
#
# _framework density 23.379570999999999
#
# number of rings (size 3 to 8) (size 9 to 14) (size 15 to 20)
#    0.000    1.000    3.750    2.625    3.500    2.000 
#    4.500    0.000    0.000    0.000    0.000    0.000 
#    0.000    0.000    0.000    0.000    0.000    0.000 
#
# Total GULP energy -198326.660011 kJ/mol
# GULP energy per Si atom -12395.416251 kJ/mol
# Density = 2.332636 g / cm^3
# Si number density = 23.379571 Si / 1000 Ang^3
#
#
#
# Elastic Constant Matrix: (Units=GPa)
#
#
# Indices 1 2 3 4 5 6 
#
# 1 114.0623 31.9552 34.1344 0.1184 -1.7063 6.9038
# 2 31.9552 77.2433 29.8944 13.8313 -2.4691 9.3279
# 3 34.1344 29.8944 129.4700 -2.3297 0.9947 10.2824
# 4 0.1184 13.8313 -2.3297 39.1504 -5.9854 2.7274
# 5 -1.7063 -2.4691 0.9947 -5.9854 33.2989 0.7380
# 6 6.9038 9.3279 10.2824 2.7274 0.7380 29.5214
#
#
#
# Elastic Compliance Matrix: (Units=1/GPa)
#
#
# Indices 1 2 3 4 5 6 
#
# 1 0.010405 -0.003734 -0.001801 0.001320 0.000564 -0.000762
# 2 -0.003734 0.017007 -0.002814 -0.005934 0.000153 -0.002976
# 3 -0.001801 -0.002814 0.009037 0.001640 -0.000232 -0.001983
# 4 0.001320 -0.005934 0.001640 0.028582 0.004755 -0.001765
# 5 0.000564 0.000153 -0.000232 0.004755 0.030962 -0.001313
# 6 -0.000762 -0.002976 -0.001983 -0.001765 -0.001313 0.035879
#
#
# Mechanical properties :
#
#
# Convention : Reuss Voigt Hill
#
# Bulk Modulus (GPa) = 50.63004 56.97148 53.80076
# Shear Modulus (GPa) = 32.22597 35.38025 33.80311
#
# Velocity S-wave (km/s) = 3.71668 3.89433 3.80654
# Velocity P-wave (km/s) = 6.33411 6.68147 6.51011
#
# Compressibility (1/GPa) = 0.01975112
#
# Stress axis : x y z
#
# Youngs Moduli (GPa) = 96.10349 58.80078 110.65337
#
# Poissons Ratio (x) = 0.21955 0.19932
# Poissons Ratio (y) = 0.35883 0.31138
# Poissons Ratio (z) = 0.17311 0.16546
#
# Static dielectric constant tensor:
#      x y z
#    x 3.941550 0.075460 -0.158690 
#    y 0.075460 4.075960 -0.152200 
#    z -0.158690 -0.152200 4.428120 
# 
# 
# High freq. dielectric constant tensor:
#      x y z
#    x 1.918180 -0.006460 0.003030 
#    y -0.006460 1.915470 -0.008860 
#    z 0.003030 -0.008860 1.940470 
# 
# From -- ./inp_files/542128.got.cif
#   From: 2010.06.25/outbox.cif.g09.slc.cpg/sg2_272_cif.got.tgz:542128.got - 2010.06.27 13:26:56.
