data_PCOD8005205
_publ_section_title
;
Structure prediction by ZEFSAII (Michael W. Deem and Ramdas Pophale) SiO2 
 PCOD8005205
Probable space group: P -1
;
_chemical_formula_sum "Si O2"
_cell_formula_units_Z 16
_cell_length_a 14.568129
_cell_length_b 9.205453
_cell_length_c 9.020948
_cell_angle_alpha 110.072107
_cell_angle_beta 39.105358
_cell_angle_gamma 106.122204
_cell_volume 716.578571
_symmetry_space_group_name_H-M "P -1"
_symmetry_group_IT_number 2
_symmetry_cell_setting 'triclinic'
loop_
_space_group_symop_operation_xyz
x,y,z
-x,-y,-z
loop_
_atom_site_type_symbol
_atom_site_label
_atom_site_fract_x
_atom_site_fract_y
_atom_site_fract_z
Si Si1 0.780895 0.866650 0.829744
Si Si2 0.636873 0.405579 0.623136
Si Si3 0.955717 0.328482 0.545735
Si Si4 0.483701 0.289002 0.048981
Si Si5 0.201088 0.113544 0.833078
Si Si6 0.103937 0.784584 0.735012
Si Si7 0.492074 0.828008 0.518276
Si Si8 0.704230 0.185515 0.961808
O O1 0.621996 0.806497 0.959590
O O2 0.903999 0.748706 0.580805
O O3 0.786538 0.889883 0.006425
O O4 0.800099 0.030777 0.779489
O O5 0.606395 0.586121 0.696917
O O6 0.806059 0.360957 0.365424
O O7 0.527029 0.302554 0.627206
O O8 0.605972 0.374292 0.824929
O O9 0.906061 0.223786 0.432529
O O10 0.000000 0.500000 0.500000
O O11 0.819322 0.326503 0.830994
O O12 0.569295 0.178397 0.014557
O O13 0.348520 0.195303 0.613948
O O14 0.193111 0.939430 0.720321
O O15 0.060008 0.209592 0.990802
O O16 0.361386 0.801134 0.787336
O O17 0.500000 0.000000 0.500000
#
# Coordination Sequence:
#
# PCOD8005205 Si02
#       8
#     2   2   2   2   2   2   2   2
#     4  11  22  42  67  96 137 173 226 279 335 398
#     4  11  21  40  64  96 139 183 218 277 336 407
#     4  11  25  43  67  98 137 179 223 279 345 401
#     4  11  24  38  66 102 135 172 228 276 342 398
#     4  10  21  37  64 100 126 182 215 273 330 402
#     4  10  20  38  65  93 130 173 228 262 332 399
#     4  12  22  42  69  97 141 177 223 274 342 397
#     4  12  25  42  68 104 131 177 233 280 328 406
#
# _framework density 22.328326000000001
#
# number of rings (size 3 to 8) (size 9 to 14) (size 15 to 20)
#    0.000    1.000    5.000    1.500    1.750    1.500 
#    0.000    2.500    0.000    4.500    0.000    0.000 
#    0.000    0.000    0.000    0.000    0.000    0.000 
#
# Total GULP energy -198329.282555 kJ/mol
# GULP energy per Si atom -12395.580160 kJ/mol
# Density = 2.227751 g / cm^3
# Si number density = 22.328326 Si / 1000 Ang^3
#
#
#
# Elastic Constant Matrix: (Units=GPa)
#
#
# Indices 1 2 3 4 5 6 
#
# 1 100.2338 42.9912 36.7376 11.0670 -18.0001 -0.2865
# 2 42.9912 104.3907 54.8385 4.0905 -7.9508 -1.7796
# 3 36.7376 54.8385 121.2264 -2.7951 -23.9528 -3.2551
# 4 11.0670 4.0905 -2.7951 40.2994 -1.8551 -4.5606
# 5 -18.0001 -7.9508 -23.9528 -1.8551 46.2838 9.5815
# 6 -0.2865 -1.7796 -3.2551 -4.5606 9.5815 28.6531
#
#
#
# Elastic Compliance Matrix: (Units=1/GPa)
#
#
# Indices 1 2 3 4 5 6 
#
# 1 0.013490 -0.004396 -0.001434 -0.003420 0.004069 -0.002206
# 2 -0.004396 0.014152 -0.005524 -0.000619 -0.002347 0.000894
# 3 -0.001434 -0.005524 0.012198 0.001993 0.004950 -0.000310
# 4 -0.003420 -0.000619 0.001993 0.026446 -0.000267 0.004452
# 5 0.004069 -0.002347 0.004950 -0.000267 0.027128 -0.008657
# 6 -0.002206 0.000894 -0.000310 0.004452 -0.008657 0.038502
#
#
# Mechanical properties :
#
#
# Convention : Reuss Voigt Hill
#
# Bulk Modulus (GPa) = 58.36661 66.10951 62.23806
# Shear Modulus (GPa) = 31.18486 35.79950 33.49218
#
# Velocity S-wave (km/s) = 3.74123 4.00849 3.87717
# Velocity P-wave (km/s) = 6.69771 7.14816 6.92660
#
# Compressibility (1/GPa) = 0.01713308
#
# Stress axis : x y z
#
# Youngs Moduli (GPa) = 74.13132 70.65979 81.98056
#
# Poissons Ratio (x) = 0.31062 0.11752
# Poissons Ratio (y) = 0.32588 0.45285
# Poissons Ratio (z) = 0.10627 0.39031
#
# Static dielectric constant tensor:
#      x y z
#    x 4.229870 0.011560 -0.477540 
#    y 0.011560 3.774310 0.202490 
#    z -0.477540 0.202490 4.391750 
# 
# 
# High freq. dielectric constant tensor:
#      x y z
#    x 1.889270 0.009140 -0.023800 
#    y 0.009140 1.848170 0.020970 
#    z -0.023800 0.020970 1.881550 
# 
# From -- ./inp_files/299047.got.cif
#   From: 2010.06.25/outbox.cif.g09.slc.cpg/sg2_150_cif.got.tgz:299047.got - 2010.06.27 13:26:56.
