data_PCOD8005895
_publ_section_title
;
Structure prediction by ZEFSAII (Michael W. Deem and Ramdas Pophale) SiO2 
 PCOD8005895
Probable space group: P -1
;
_chemical_formula_sum "Si O2"
_cell_formula_units_Z 16
_cell_length_a 20.843874
_cell_length_b 9.576357
_cell_length_c 15.311746
_cell_angle_alpha 144.320191
_cell_angle_beta 152.680404
_cell_angle_gamma 34.944243
_cell_volume 761.318571
_symmetry_space_group_name_H-M "P -1"
_symmetry_group_IT_number 2
_symmetry_cell_setting 'triclinic'
loop_
_space_group_symop_operation_xyz
x,y,z
-x,-y,-z
loop_
_atom_site_type_symbol
_atom_site_label
_atom_site_fract_x
_atom_site_fract_y
_atom_site_fract_z
Si Si1 0.890731 0.360903 0.968466
Si Si2 0.560112 0.293043 0.794750
Si Si3 0.142334 0.076664 0.732361
Si Si4 0.186098 0.956928 0.149224
Si Si5 0.681313 0.816734 0.442291
Si Si6 0.638731 0.283674 0.514707
Si Si7 0.394067 0.836208 0.785590
Si Si8 0.679979 0.338994 0.129264
O O1 0.781139 0.353596 0.752902
O O2 0.838943 0.288633 0.963501
O O3 0.906188 0.634640 0.142202
O O4 0.048995 0.140239 0.017937
O O5 0.459967 0.586066 0.799553
O O6 0.648432 0.132214 0.737555
O O7 0.458120 0.157419 0.649011
O O8 0.701040 0.270867 0.017859
O O9 0.235592 0.025629 0.728963
O O10 0.253267 0.910661 0.857430
O O11 0.000000 0.000000 0.500000
O O12 0.186487 0.140925 0.323704
O O13 0.630541 0.018622 0.404958
O O14 0.760176 0.534313 0.352933
O O15 0.500000 0.500000 0.500000
O O16 0.628940 0.267874 0.390294
O O17 0.500000 0.000000 0.000000
O O18 0.500000 0.500000 0.000000
#
# Coordination Sequence:
#
# PCOD8005895 Si02
#       8
#     2   2   2   2   2   2   2   2
#     4  10  24  42  64  91 140 176 215 278 345 399
#     4  11  22  38  67  96 126 174 228 271 327 404
#     4  12  25  45  68 101 139 180 226 285 341 399
#     4  10  21  42  63  93 129 179 218 269 339 410
#     4  10  20  39  63  93 127 169 213 274 331 393
#     4  11  24  40  66  98 136 172 220 281 341 394
#     4  12  24  42  71 102 134 177 233 278 338 408
#     4  10  21  39  63  92 130 171 219 274 333 384
#
# _framework density 21.016169999999999
#
# number of rings (size 3 to 8) (size 9 to 14) (size 15 to 20)
#    0.000    1.250    2.500    4.875    5.250    1.000 
#    0.000    1.250    0.000    7.500    0.000    0.000 
#    0.000    0.000    0.000    0.000    0.000    0.000 
#
# Total GULP energy -198257.035225 kJ/mol
# GULP energy per Si atom -12391.064702 kJ/mol
# Density = 2.096834 g / cm^3
# Si number density = 21.016170 Si / 1000 Ang^3
#
#
#
# Elastic Constant Matrix: (Units=GPa)
#
#
# Indices 1 2 3 4 5 6 
#
# 1 70.8252 17.8076 28.0376 -0.0878 0.7670 4.2032
# 2 17.8076 90.9416 43.6047 5.0713 -4.7191 11.0611
# 3 28.0376 43.6047 127.1557 6.7376 -4.3546 6.4462
# 4 -0.0878 5.0713 6.7376 40.5961 1.2027 1.8051
# 5 0.7670 -4.7191 -4.3546 1.2027 34.4015 -1.7885
# 6 4.2032 11.0611 6.4462 1.8051 -1.7885 32.0439
#
#
#
# Elastic Compliance Matrix: (Units=1/GPa)
#
#
# Indices 1 2 3 4 5 6 
#
# 1 0.015770 -0.001656 -0.002936 0.000804 -0.001031 -0.001009
# 2 -0.001656 0.013847 -0.004108 -0.000928 0.001261 -0.003613
# 3 -0.002936 -0.004108 0.010015 -0.001175 0.000806 -0.000101
# 4 0.000804 -0.000928 -0.001175 0.025027 -0.001222 -0.001027
# 5 -0.001031 0.001261 0.000806 -0.001222 0.029474 0.001252
# 6 -0.001009 -0.003613 -0.000101 -0.001027 0.001252 0.032735
#
#
# Mechanical properties :
#
#
# Convention : Reuss Voigt Hill
#
# Bulk Modulus (GPa) = 44.97876 51.98026 48.47951
# Shear Modulus (GPa) = 32.96448 34.70647 33.83547
#
# Velocity S-wave (km/s) = 3.96476 4.06817 4.01680
# Velocity P-wave (km/s) = 6.51211 6.84499 6.68062
#
# Compressibility (1/GPa) = 0.02223272
#
# Stress axis : x y z
#
# Youngs Moduli (GPa) = 63.41169 72.22032 99.84669
#
# Poissons Ratio (x) = 0.11957 0.29317
# Poissons Ratio (y) = 0.10499 0.41014
# Poissons Ratio (z) = 0.18619 0.29666
#
# Static dielectric constant tensor:
#      x y z
#    x 3.803140 -0.035250 -0.364020 
#    y -0.035250 3.510720 0.061090 
#    z -0.364020 0.061090 4.273870 
# 
# 
# High freq. dielectric constant tensor:
#      x y z
#    x 1.808060 0.004750 -0.010950 
#    y 0.004750 1.830890 0.005650 
#    z -0.010950 0.005650 1.839080 
# 
# From -- ./inp_files/540333.got.cif
#   From: 2010.06.25/outbox.cif.g09.slc.cpg/sg2_271_cif.got.tgz:540333.got - 2010.06.27 13:26:56.
