data_PCOD8005444
_publ_section_title
;
Structure prediction by ZEFSAII (Michael W. Deem and Ramdas Pophale) SiO2 
 PCOD8005444
Probable space group: P -1
;
_chemical_formula_sum "Si O2"
_cell_formula_units_Z 16
_cell_length_a 16.017826
_cell_length_b 7.936641
_cell_length_c 8.933291
_cell_angle_alpha 54.010143
_cell_angle_beta 101.973372
_cell_angle_gamma 122.610825
_cell_volume 764.023717
_symmetry_space_group_name_H-M "P -1"
_symmetry_group_IT_number 2
_symmetry_cell_setting 'triclinic'
loop_
_space_group_symop_operation_xyz
x,y,z
-x,-y,-z
loop_
_atom_site_type_symbol
_atom_site_label
_atom_site_fract_x
_atom_site_fract_y
_atom_site_fract_z
Si Si1 0.323471 0.932316 0.083215
Si Si2 0.691117 0.557049 0.728468
Si Si3 0.796128 0.260747 0.586771
Si Si4 0.699572 0.732538 0.315179
Si Si5 0.465330 0.668087 0.971258
Si Si6 0.608533 0.239104 0.384440
Si Si7 0.886433 0.987552 0.625785
Si Si8 0.101520 0.181293 0.610469
O O1 0.287691 0.652098 0.195859
O O2 0.252955 0.930474 0.191681
O O3 0.438602 0.063825 0.107718
O O4 0.318968 0.060516 0.862579
O O5 0.690236 0.707936 0.504504
O O6 0.785776 0.741905 0.772600
O O7 0.587350 0.454702 0.828356
O O8 0.702062 0.212230 0.473834
O O9 0.861943 0.532180 0.540212
O O10 0.869127 0.209529 0.541068
O O11 0.617317 0.467444 0.358593
O O12 0.813044 0.819343 0.256605
O O13 0.387898 0.696711 0.823491
O O14 0.500000 0.500000 0.000000
O O15 0.500000 0.000000 0.500000
O O16 0.901086 0.954941 0.472911
O O17 0.989796 0.040052 0.715970
#
# Coordination Sequence:
#
# PCOD8005444 Si02
#       8
#     2   2   2   2   2   2   2   2
#     4  12  22  41  63  93 130 170 210 261 323 379
#     4  11  24  43  61  93 127 167 217 266 315 385
#     4  11  21  39  68  94 131 168 213 265 324 379
#     4  10  22  41  65  87 130 170 207 267 321 374
#     4  12  24  39  61  90 126 170 213 257 319 379
#     4  11  21  39  62  94 131 165 215 263 308 386
#     4  10  20  38  70  89 124 172 211 264 332 372
#     4   9  20  42  63  93 126 165 216 269 320 382
#
# _framework density 20.941759999999999
#
# number of rings (size 3 to 8) (size 9 to 14) (size 15 to 20)
#    0.000    1.250    6.250    1.500    0.000    2.500 
#    0.000    1.250    2.750    0.000    0.000    0.000 
#    0.000    0.000    0.000    0.000    0.000    0.000 
#
# Total GULP energy -198224.007943 kJ/mol
# GULP energy per Si atom -12389.000496 kJ/mol
# Density = 2.089410 g / cm^3
# Si number density = 20.941760 Si / 1000 Ang^3
#
#
#
# Elastic Constant Matrix: (Units=GPa)
#
#
# Indices 1 2 3 4 5 6 
#
# 1 103.8520 40.3715 28.6088 10.3630 -9.6354 -8.0081
# 2 40.3715 85.2533 30.0492 -0.4209 -5.5344 5.7399
# 3 28.6088 30.0492 103.1430 8.9319 6.8645 -3.9614
# 4 10.3630 -0.4209 8.9319 17.0398 2.5409 2.6333
# 5 -9.6354 -5.5344 6.8645 2.5409 22.5118 -5.1161
# 6 -8.0081 5.7399 -3.9614 2.6333 -5.1161 36.9703
#
#
#
# Elastic Compliance Matrix: (Units=1/GPa)
#
#
# Indices 1 2 3 4 5 6 
#
# 1 0.014741 -0.006342 -0.001639 -0.010313 0.007734 0.005807
# 2 -0.006342 0.016495 -0.003873 0.006931 0.000659 -0.004752
# 3 -0.001639 -0.003873 0.012054 -0.004945 -0.004483 0.001270
# 4 -0.010313 0.006931 -0.004945 0.071077 -0.011613 -0.010510
# 5 0.007734 0.000659 -0.004483 -0.011613 0.052664 0.009207
# 6 0.005807 -0.004752 0.001270 -0.010510 0.009207 0.031203
#
#
# Mechanical properties :
#
#
# Convention : Reuss Voigt Hill
#
# Bulk Modulus (GPa) = 51.07319 54.47857 52.77588
# Shear Modulus (GPa) = 21.88473 28.18561 25.03517
#
# Velocity S-wave (km/s) = 3.23620 3.67264 3.46130
# Velocity P-wave (km/s) = 6.19719 6.63741 6.42107
#
# Compressibility (1/GPa) = 0.01957974
#
# Stress axis : x y z
#
# Youngs Moduli (GPa) = 67.83984 60.62336 82.96213
#
# Poissons Ratio (x) = 0.38449 0.13601
# Poissons Ratio (y) = 0.43026 0.32132
# Poissons Ratio (z) = 0.11122 0.23480
#
# Static dielectric constant tensor:
#      x y z
#    x 4.092500 0.425410 0.003720 
#    y 0.425410 4.377010 0.198360 
#    z 0.003720 0.198360 3.807500 
# 
# 
# High freq. dielectric constant tensor:
#      x y z
#    x 1.820640 0.008410 -0.002100 
#    y 0.008410 1.838560 -0.006650 
#    z -0.002100 -0.006650 1.787760 
# 
# From -- ./inp_files/328467.got.cif
#   From: 2010.06.25/outbox.cif.g09.slc.cpg/sg2_165_cif.got.tgz:328467.got - 2010.06.27 13:26:56.
