data_PCOD8005073
_publ_section_title
;
Structure prediction by ZEFSAII (Michael W. Deem and Ramdas Pophale) SiO2 
 PCOD8005073
Probable space group: P -1
;
_chemical_formula_sum "Si O2"
_cell_formula_units_Z 16
_cell_length_a 23.345443
_cell_length_b 5.843236
_cell_length_c 17.715263
_cell_angle_alpha 117.494307
_cell_angle_beta 20.628096
_cell_angle_gamma 116.242170
_cell_volume 754.815527
_symmetry_space_group_name_H-M "P -1"
_symmetry_group_IT_number 2
_symmetry_cell_setting 'triclinic'
loop_
_space_group_symop_operation_xyz
x,y,z
-x,-y,-z
loop_
_atom_site_type_symbol
_atom_site_label
_atom_site_fract_x
_atom_site_fract_y
_atom_site_fract_z
Si Si1 0.268073 0.944134 0.809909
Si Si2 0.813897 0.196274 0.502575
Si Si3 0.895770 0.558755 0.895814
Si Si4 0.625172 0.170514 0.173804
Si Si5 0.577373 0.288660 0.930446
Si Si6 0.478030 0.670891 0.224102
Si Si7 0.633014 0.436590 0.487007
Si Si8 0.934210 0.682735 0.218250
O O1 0.354968 0.911033 0.777048
O O2 0.375686 0.826278 0.592052
O O3 0.089030 0.810163 0.005491
O O4 0.243999 0.248056 0.875882
O O5 0.753743 0.236855 0.668914
O O6 0.686104 0.305910 0.617465
O O7 0.991585 0.337512 0.296100
O O8 0.828963 0.893219 0.423752
O O9 0.011909 0.524328 0.818607
O O10 0.795660 0.301358 0.954377
O O11 0.472936 0.353030 0.390560
O O12 0.589449 0.932117 0.124956
O O13 0.500000 0.500000 0.000000
O O14 0.583876 0.437104 0.025147
O O15 0.500000 0.000000 0.000000
O O16 0.434360 0.616264 0.355396
O O17 0.819570 0.542969 0.276318
#
# Coordination Sequence:
#
# PCOD8005073 Si02
#       8
#     2   2   2   2   2   2   2   2
#     4  10  24  40  58  92 128 180 215 272 332 402
#     4  10  20  41  66  94 127 171 215 269 340 398
#     4  10  22  42  62  89 131 177 215 267 334 400
#     4  11  24  41  61  90 134 173 219 270 334 393
#     4  10  23  40  69 105 139 168 220 280 341 400
#     4  11  23  38  65  99 126 169 218 278 329 398
#     4  12  22  38  65  91 129 168 229 274 329 390
#     4  10  20  38  64  92 126 165 220 275 331 391
#
# _framework density 21.197232
#
# number of rings (size 3 to 8) (size 9 to 14) (size 15 to 20)
#    0.000    1.500    2.500    2.250    3.500    4.500 
#    0.000    0.625    0.000   10.500    0.000    0.000 
#    0.000    0.000    0.000    0.000    0.000    0.000 
#
# Total GULP energy -198316.240175 kJ/mol
# GULP energy per Si atom -12394.765011 kJ/mol
# Density = 2.114899 g / cm^3
# Si number density = 21.197232 Si / 1000 Ang^3
#
#
#
# Elastic Constant Matrix: (Units=GPa)
#
#
# Indices 1 2 3 4 5 6 
#
# 1 69.5786 39.3249 41.6825 13.4503 1.7458 3.3995
# 2 39.3249 119.2351 41.1473 16.6492 9.9315 9.4283
# 3 41.6825 41.1473 76.1828 21.8044 17.0204 11.4658
# 4 13.4503 16.6492 21.8044 42.0396 7.6758 -3.2347
# 5 1.7458 9.9315 17.0204 7.6758 44.5226 7.1369
# 6 3.3995 9.4283 11.4658 -3.2347 7.1369 40.6842
#
#
#
# Elastic Compliance Matrix: (Units=1/GPa)
#
#
# Indices 1 2 3 4 5 6 
#
# 1 0.023687 -0.004163 -0.011763 -0.000507 0.004344 0.001498
# 2 -0.004163 0.011159 -0.002937 -0.001543 -0.000711 -0.001408
# 3 -0.011763 -0.002937 0.025502 -0.007488 -0.006545 -0.004971
# 4 -0.000507 -0.001543 -0.007488 0.029343 -0.002684 0.005314
# 5 0.004344 -0.000711 -0.006545 -0.002684 0.025913 -0.003113
# 6 0.001498 -0.001408 -0.004971 0.005314 -0.003113 0.027150
#
#
# Mechanical properties :
#
#
# Convention : Reuss Voigt Hill
#
# Bulk Modulus (GPa) = 44.20208 56.58953 50.39581
# Shear Modulus (GPa) = 26.59273 34.97207 30.78240
#
# Velocity S-wave (km/s) = 3.54579 4.06623 3.81489
# Velocity P-wave (km/s) = 6.13690 6.98572 6.57502
#
# Compressibility (1/GPa) = 0.02262337
#
# Stress axis : x y z
#
# Youngs Moduli (GPa) = 42.21643 89.61108 39.21226
#
# Poissons Ratio (x) = 0.37301 0.46125
# Poissons Ratio (y) = 0.17573 0.11518
# Poissons Ratio (z) = 0.49659 0.26322
#
# Static dielectric constant tensor:
#      x y z
#    x 3.768350 0.081940 -0.051960 
#    y 0.081940 4.275920 0.053590 
#    z -0.051960 0.053590 4.059910 
# 
# 
# High freq. dielectric constant tensor:
#      x y z
#    x 1.811910 -0.005780 -0.005210 
#    y -0.005780 1.847450 -0.000660 
#    z -0.005210 -0.000660 1.834310 
# 
# From -- ./inp_files/37625.got.cif
#   From: 2010.06.25/outbox.cif.g09.slc.cpg/sg2_19_cif.got.tgz:37625.got - 2010.06.27 13:26:56.
