data_PCOD8005154
_publ_section_title
;
Structure prediction by ZEFSAII (Michael W. Deem and Ramdas Pophale) SiO2 
 PCOD8005154
Probable space group: P -1
;
_chemical_formula_sum "Si O2"
_cell_formula_units_Z 14
_cell_length_a 9.117794
_cell_length_b 8.069348
_cell_length_c 9.287280
_cell_angle_alpha 103.219897
_cell_angle_beta 89.878302
_cell_angle_gamma 72.521334
_cell_volume 632.639727
_symmetry_space_group_name_H-M "P -1"
_symmetry_group_IT_number 2
_symmetry_cell_setting 'triclinic'
loop_
_space_group_symop_operation_xyz
x,y,z
-x,-y,-z
loop_
_atom_site_type_symbol
_atom_site_label
_atom_site_fract_x
_atom_site_fract_y
_atom_site_fract_z
Si Si1 0.604188 0.149777 0.307749
Si Si2 0.301054 0.535125 0.506142
Si Si3 0.292474 0.323419 0.216389
Si Si4 0.918759 0.001939 0.151931
Si Si5 0.151712 0.352278 0.926186
Si Si6 0.727496 0.772674 0.383277
Si Si7 0.039308 0.236687 0.384110
O O1 0.595636 0.337106 0.429853
O O2 0.448890 0.165759 0.223494
O O3 0.740604 0.128886 0.185812
O O4 0.630382 0.975289 0.376103
O O5 0.304134 0.507494 0.326479
O O6 0.362056 0.326991 0.528972
O O7 0.124256 0.609629 0.573336
O O8 0.139310 0.289313 0.270215
O O9 0.279609 0.330099 0.045357
O O10 0.912947 0.807930 0.143703
O O11 0.013348 0.053886 0.292281
O O12 0.000000 0.000000 0.000000
O O13 0.231230 0.370420 0.778253
O O14 0.000000 0.500000 0.000000
O O15 0.876845 0.795809 0.468940
#
# Coordination Sequence:
#
# PCOD8005154 Si02
#       7
#     2   2   2   2   2   2   2
#     4  10  24  39  63  86 128 156 205 248 301 361
#     4  10  21  40  65  86 124 158 202 250 299 355
#     4  11  21  39  62  91 120 164 192 249 313 349
#     4  10  21  39  60  88 116 162 198 246 298 355
#     4  11  22  36  62  91 121 151 206 249 299 359
#     4  10  22  38  59  92 118 160 200 249 298 358
#     4  10  20  38  65  88 120 158 207 246 299 356
#
# _framework density 22.129497000000001
#
# number of rings (size 3 to 8) (size 9 to 14) (size 15 to 20)
#    0.000    1.714    1.429    3.857    2.000   10.857 
#    0.000    2.143    0.000    0.000    0.000    0.000 
#    0.000    0.000    0.000    0.000    0.000    0.000 
#
# Total GULP energy -173435.693168 kJ/mol
# GULP energy per Si atom -12388.263798 kJ/mol
# Density = 2.207913 g / cm^3
# Si number density = 22.129497 Si / 1000 Ang^3
#
#
#
# Elastic Constant Matrix: (Units=GPa)
#
#
# Indices 1 2 3 4 5 6 
#
# 1 108.3132 24.7037 36.9326 -7.0723 23.7726 -1.7535
# 2 24.7037 100.4544 36.5513 12.4672 25.7541 -4.7493
# 3 36.9326 36.5513 152.0483 1.4327 32.3932 3.8662
# 4 -7.0723 12.4672 1.4327 35.9722 2.1749 10.2869
# 5 23.7726 25.7541 32.3932 2.1749 31.1669 -9.2613
# 6 -1.7535 -4.7493 3.8662 10.2869 -9.2613 21.6474
#
#
#
# Elastic Compliance Matrix: (Units=1/GPa)
#
#
# Indices 1 2 3 4 5 6 
#
# 1 0.012047 -0.001182 -0.000449 0.005050 -0.009822 -0.005805
# 2 -0.001182 0.013453 -0.001254 -0.004941 -0.007966 0.002020
# 3 -0.000449 -0.001254 0.009558 0.003001 -0.011213 -0.008242
# 4 0.005050 -0.004941 0.003001 0.038310 -0.012981 -0.024970
# 5 -0.009822 -0.007966 -0.011213 -0.012981 0.069188 0.035228
# 6 -0.005805 0.002020 -0.008242 -0.024970 0.035228 0.074577
#
#
# Mechanical properties :
#
#
# Convention : Reuss Voigt Hill
#
# Bulk Modulus (GPa) = 34.14632 61.91011 48.02822
# Shear Modulus (GPa) = 21.48999 35.26585 28.37792
#
# Velocity S-wave (km/s) = 3.11963 3.99634 3.58489
# Velocity P-wave (km/s) = 5.33290 7.02363 6.23583
#
# Compressibility (1/GPa) = 0.02928573
#
# Stress axis : x y z
#
# Youngs Moduli (GPa) = 83.00885 74.33322 104.62766
#
# Poissons Ratio (x) = 0.08786 0.04702
# Poissons Ratio (y) = 0.09812 0.13126
# Poissons Ratio (z) = 0.03730 0.09325
#
# Static dielectric constant tensor:
#      x y z
#    x 4.101310 0.092370 0.153090 
#    y 0.092370 3.951660 0.193260 
#    z 0.153090 0.193260 4.025630 
# 
# 
# High freq. dielectric constant tensor:
#      x y z
#    x 1.880740 -0.004370 -0.003200 
#    y -0.004370 1.852440 0.023660 
#    z -0.003200 0.023660 1.886290 
# 
# From -- ./inp_files/159742.got.cif
#   From: 2010.06.25/outbox.cif.g09.slc.cpg/sg2_80_cif.got.tgz:159742.got - 2010.06.27 13:26:56.
