data_PCOD8005791
_publ_section_title
;
Structure prediction by ZEFSAII (Michael W. Deem and Ramdas Pophale) SiO2 
 PCOD8005791
Probable space group: P -1
;
_chemical_formula_sum "Si O2"
_cell_formula_units_Z 16
_cell_length_a 12.159693
_cell_length_b 10.940275
_cell_length_c 10.197526
_cell_angle_alpha 33.946316
_cell_angle_beta 69.666242
_cell_angle_gamma 59.421278
_cell_volume 644.302282
_symmetry_space_group_name_H-M "P -1"
_symmetry_group_IT_number 2
_symmetry_cell_setting 'triclinic'
loop_
_space_group_symop_operation_xyz
x,y,z
-x,-y,-z
loop_
_atom_site_type_symbol
_atom_site_label
_atom_site_fract_x
_atom_site_fract_y
_atom_site_fract_z
Si Si1 0.068545 0.133929 0.499374
Si Si2 0.593959 0.324320 0.459333
Si Si3 0.243972 0.168512 0.721685
Si Si4 0.599135 0.737629 0.223727
Si Si5 0.135707 0.060360 0.248863
Si Si6 0.999606 0.380744 0.777030
Si Si7 0.435722 0.253494 0.373979
Si Si8 0.231554 0.740056 0.970794
O O1 0.929074 0.128182 0.568527
O O2 0.097024 0.192670 0.288172
O O3 0.071263 0.334519 0.418724
O O4 0.181883 0.881655 0.727868
O O5 0.631633 0.554681 0.248091
O O6 0.460468 0.382193 0.538800
O O7 0.557963 0.280267 0.365863
O O8 0.709389 0.088532 0.683454
O O9 0.280359 0.222483 0.804788
O O10 0.321145 0.260888 0.508727
O O11 0.087460 0.321569 0.659777
O O12 0.276467 0.890196 0.923307
O O13 0.500000 0.000000 0.000000
O O14 0.088036 0.252276 0.981299
O O15 0.886849 0.292744 0.880569
O O16 0.356545 0.490674 0.106306
O O17 0.500000 0.000000 0.500000
#
# Coordination Sequence:
#
# PCOD8005791 Si02
#       8
#     2   2   2   2   2   2   2   2
#     4  10  23  43  66 102 136 178 230 277 345 407
#     4  10  22  39  66  93 130 173 225 277 329 399
#     4  11  24  42  68 104 137 178 231 277 348 408
#     4  10  20  39  62  95 129 172 222 278 335 392
#     4  10  22  41  66 100 133 180 223 286 336 405
#     4  11  23  42  72 100 139 175 226 287 345 406
#     4  11  27  47  66  99 140 188 231 278 336 409
#     4  11  25  43  68  99 139 182 228 282 337 409
#
# _framework density 24.833065000000001
#
# number of rings (size 3 to 8) (size 9 to 14) (size 15 to 20)
#    0.000    1.500    0.000    3.750    3.500    6.500 
#    4.500    0.000    0.000    0.000    0.000    0.000 
#    0.000    0.000    0.000    0.000    0.000    0.000 
#
# Total GULP energy -198289.343561 kJ/mol
# GULP energy per Si atom -12393.083973 kJ/mol
# Density = 2.477654 g / cm^3
# Si number density = 24.833065 Si / 1000 Ang^3
#
#
#
# Elastic Constant Matrix: (Units=GPa)
#
#
# Indices 1 2 3 4 5 6 
#
# 1 140.1669 41.6459 41.6595 -12.7058 12.5660 15.3428
# 2 41.6459 91.6087 36.8298 -18.6340 -0.4959 11.8974
# 3 41.6595 36.8298 84.2208 -35.6883 14.2509 1.6594
# 4 -12.7058 -18.6340 -35.6883 40.8145 -10.3731 -8.0583
# 5 12.5660 -0.4959 14.2509 -10.3731 38.2678 -10.4339
# 6 15.3428 11.8974 1.6594 -8.0583 -10.4339 47.2292
#
#
#
# Elastic Compliance Matrix: (Units=1/GPa)
#
#
# Indices 1 2 3 4 5 6 
#
# 1 0.009723 -0.002946 -0.004485 -0.003899 -0.003634 -0.003727
# 2 -0.002946 0.014751 -0.004470 0.002386 0.003055 -0.001520
# 3 -0.004485 -0.004470 0.023769 0.017889 -0.001361 0.004500
# 4 -0.003899 0.002386 0.017889 0.044282 0.009282 0.009643
# 5 -0.003634 0.003055 -0.001361 0.009282 0.032927 0.009317
# 6 -0.003727 -0.001520 0.004500 0.009643 0.009317 0.026312
#
#
# Mechanical properties :
#
#
# Convention : Reuss Voigt Hill
#
# Bulk Modulus (GPa) = 40.91377 61.80740 51.36059
# Shear Modulus (GPa) = 27.21629 38.31971 32.76800
#
# Velocity S-wave (km/s) = 3.31413 3.93248 3.63648
# Velocity P-wave (km/s) = 5.58175 6.74999 6.19348
#
# Compressibility (1/GPa) = 0.02444165
#
# Stress axis : x y z
#
# Youngs Moduli (GPa) = 102.84980 67.79045 42.07173
#
# Poissons Ratio (x) = 0.19969 0.18871
# Poissons Ratio (y) = 0.30296 0.18805
# Poissons Ratio (z) = 0.46132 0.30301
#
# Static dielectric constant tensor:
#      x y z
#    x 5.198540 -0.065210 -0.228050 
#    y -0.065210 4.285850 -0.011280 
#    z -0.228050 -0.011280 4.338740 
# 
# 
# High freq. dielectric constant tensor:
#      x y z
#    x 2.015110 0.001110 0.000540 
#    y 0.001110 1.975380 -0.005500 
#    z 0.000540 -0.005500 1.982190 
# 
# From -- ./inp_files/427221.got.cif
#   From: 2010.06.25/outbox.cif.g09.slc.cpg/sg2_214_cif.got.tgz:427221.got - 2010.06.27 13:26:56.
