data_PCOD8005463
_publ_section_title
;
Structure prediction by ZEFSAII (Michael W. Deem and Ramdas Pophale) SiO2 
 PCOD8005463
Probable space group: P -1
;
_chemical_formula_sum "Si O2"
_cell_formula_units_Z 16
_cell_length_a 13.055294
_cell_length_b 9.629983
_cell_length_c 8.686786
_cell_angle_alpha 85.929796
_cell_angle_beta 59.018844
_cell_angle_gamma 57.171461
_cell_volume 753.249178
_symmetry_space_group_name_H-M "P -1"
_symmetry_group_IT_number 2
_symmetry_cell_setting 'triclinic'
loop_
_space_group_symop_operation_xyz
x,y,z
-x,-y,-z
loop_
_atom_site_type_symbol
_atom_site_label
_atom_site_fract_x
_atom_site_fract_y
_atom_site_fract_z
Si Si1 0.871623 0.695530 0.053018
Si Si2 0.130721 0.003408 0.830258
Si Si3 0.248011 0.128806 0.172610
Si Si4 0.563339 0.766159 0.267184
Si Si5 0.541261 0.401130 0.813654
Si Si6 0.455272 0.711062 0.657938
Si Si7 0.848234 0.052561 0.543912
Si Si8 0.460656 0.120637 0.203718
O O1 0.892623 0.815683 0.135974
O O2 0.722314 0.712220 0.200371
O O3 0.873322 0.741973 0.869578
O O4 0.000000 0.500000 0.000000
O O5 0.281001 0.854279 0.811944
O O6 0.141441 0.965623 0.645135
O O7 0.000000 0.000000 0.000000
O O8 0.320128 0.216542 0.189452
O O9 0.172369 0.086528 0.361162
O O10 0.385006 0.955569 0.997454
O O11 0.557673 0.671576 0.126258
O O12 0.488910 0.717284 0.454033
O O13 0.460434 0.970603 0.300599
O O14 0.501559 0.527033 0.690319
O O15 0.715899 0.245911 0.683724
O O16 0.500000 0.500000 0.000000
O O17 0.559699 0.745501 0.667748
O O18 0.000000 0.000000 0.500000
#
# Coordination Sequence:
#
# PCOD8005463 Si02
#       8
#     2   2   2   2   2   2   2   2
#     4  11  27  45  72 103 140 187 237 297 359 426
#     4  12  27  46  73 101 145 196 237 293 369 426
#     4  10  20  41  68  95 136 179 225 280 354 413
#     4  11  23  43  71  99 139 179 241 291 347 425
#     4  12  28  43  71 108 143 185 244 298 350 419
#     4  12  24  42  73 104 137 182 244 295 353 416
#     4  12  27  46  71 103 148 191 236 287 364 438
#     4  10  20  38  73  98 132 176 233 287 354 415
#
# _framework density 21.241309000000001
#
# number of rings (size 3 to 8) (size 9 to 14) (size 15 to 20)
#    0.000    0.750    5.000    2.250    8.750    1.000 
#    0.000    0.625    0.000    0.000    0.000    0.000 
#    0.000    0.000    0.000    0.000    0.000    0.000 
#
# Total GULP energy -198359.501515 kJ/mol
# GULP energy per Si atom -12397.468845 kJ/mol
# Density = 2.119296 g / cm^3
# Si number density = 21.241309 Si / 1000 Ang^3
#
#
#
# Elastic Constant Matrix: (Units=GPa)
#
#
# Indices 1 2 3 4 5 6 
#
# 1 150.0231 50.7495 41.6052 20.4934 -1.3732 11.9387
# 2 50.7495 110.1443 32.1801 10.5844 -10.5225 1.0533
# 3 41.6052 32.1801 114.2820 -6.7101 -5.9283 1.7327
# 4 20.4934 10.5844 -6.7101 32.4875 6.8301 1.7179
# 5 -1.3732 -10.5225 -5.9283 6.8301 37.2436 -1.4785
# 6 11.9387 1.0533 1.7327 1.7179 -1.4785 36.9478
#
#
#
# Elastic Compliance Matrix: (Units=1/GPa)
#
#
# Indices 1 2 3 4 5 6 
#
# 1 0.009406 -0.002954 -0.002874 -0.005418 -0.000054 -0.002571
# 2 -0.002954 0.011728 -0.002250 -0.003206 0.003475 0.001014
# 3 -0.002874 -0.002250 0.010709 0.004721 0.000108 0.000276
# 4 -0.005418 -0.003206 0.004721 0.037775 -0.007299 -0.000428
# 5 -0.000054 0.003475 0.000108 -0.007299 0.029242 0.001423
# 6 -0.002571 0.001014 0.000276 -0.000428 0.001423 0.027931
#
#
# Mechanical properties :
#
#
# Convention : Reuss Voigt Hill
#
# Bulk Modulus (GPa) = 63.75370 69.27988 66.51679
# Shear Modulus (GPa) = 33.74324 37.99677 35.87000
#
# Velocity S-wave (km/s) = 3.99001 4.23403 4.11383
# Velocity P-wave (km/s) = 7.16282 7.52257 7.34490
#
# Compressibility (1/GPa) = 0.01568536
#
# Stress axis : x y z
#
# Youngs Moduli (GPa) = 106.31250 85.26633 93.37908
#
# Poissons Ratio (x) = 0.25189 0.26842
# Poissons Ratio (y) = 0.31406 0.21013
# Poissons Ratio (z) = 0.30559 0.19188
#
# Static dielectric constant tensor:
#      x y z
#    x 4.429320 -0.085040 0.271160 
#    y -0.085040 3.775720 -0.142810 
#    z 0.271160 -0.142810 3.430010 
# 
# 
# High freq. dielectric constant tensor:
#      x y z
#    x 1.857940 0.006870 0.010670 
#    y 0.006870 1.821140 -0.023300 
#    z 0.010670 -0.023300 1.828050 
# 
# From -- ./inp_files/243410.got.cif
#   From: 2010.06.25/outbox.cif.g09.slc.cpg/sg2_122_cif.got.tgz:243410.got - 2010.06.27 13:26:56.
