data_PCOD8005127
_publ_section_title
;
Structure prediction by ZEFSAII (Michael W. Deem and Ramdas Pophale) SiO2 
 PCOD8005127
Probable space group: P -1
;
_chemical_formula_sum "Si O2"
_cell_formula_units_Z 16
_cell_length_a 6.209956
_cell_length_b 10.951601
_cell_length_c 15.418352
_cell_angle_alpha 120.863631
_cell_angle_beta 120.745793
_cell_angle_gamma 93.666989
_cell_volume 693.844881
_symmetry_space_group_name_H-M "P -1"
_symmetry_group_IT_number 2
_symmetry_cell_setting 'triclinic'
loop_
_space_group_symop_operation_xyz
x,y,z
-x,-y,-z
loop_
_atom_site_type_symbol
_atom_site_label
_atom_site_fract_x
_atom_site_fract_y
_atom_site_fract_z
Si Si1 0.320289 0.011448 0.742176
Si Si2 0.593358 0.228470 0.727517
Si Si3 0.908357 0.115648 0.975553
Si Si4 0.364012 0.378744 0.254374
Si Si5 0.241142 0.653333 0.372679
Si Si6 0.854960 0.769938 0.112609
Si Si7 0.605844 0.509382 0.174808
Si Si8 0.783439 0.323178 0.423709
O O1 0.415699 0.060913 0.679198
O O2 0.150044 0.107379 0.771246
O O3 0.141717 0.819404 0.644108
O O4 0.581099 0.063172 0.880794
O O5 0.561901 0.215107 0.610253
O O6 0.502750 0.356570 0.794805
O O7 0.919853 0.292204 0.838408
O O8 0.047438 0.277421 0.119013
O O9 0.051760 0.130255 0.918603
O O10 0.000000 0.000000 0.000000
O O11 0.362296 0.525422 0.358325
O O12 0.570922 0.429883 0.233142
O O13 0.478469 0.286658 0.309941
O O14 0.246174 0.710061 0.491971
O O15 0.929861 0.585005 0.244722
O O16 0.559575 0.616328 0.980764
O O17 0.000000 0.500000 0.500000
#
# Coordination Sequence:
#
# PCOD8005127 Si02
#       8
#     2   2   2   2   2   2   2   2
#     4  11  24  43  64  97 137 168 214 268 316 388
#     4  10  23  42  64  96 131 168 217 264 326 381
#     4  10  20  38  64  96 132 164 206 265 325 385
#     4  10  21  41  64  97 127 164 218 266 322 383
#     4  11  23  40  68  92 123 177 217 264 321 374
#     4  10  22  39  65 101 131 172 206 264 336 379
#     4  10  20  40  67  98 133 161 212 267 320 395
#     4  12  25  45  66  92 131 174 222 267 314 384
#
# _framework density 23.059911
#
# number of rings (size 3 to 8) (size 9 to 14) (size 15 to 20)
#    0.000    1.500    2.500    2.250    0.000    6.000 
#    4.500    2.500    0.000    0.000    0.000    0.000 
#    0.000    0.000    0.000    0.000    0.000    0.000 
#
# Total GULP energy -198264.858102 kJ/mol
# GULP energy per Si atom -12391.553631 kJ/mol
# Density = 2.300743 g / cm^3
# Si number density = 23.059911 Si / 1000 Ang^3
#
#
#
# Elastic Constant Matrix: (Units=GPa)
#
#
# Indices 1 2 3 4 5 6 
#
# 1 55.7961 26.3641 24.2430 3.0636 -6.3233 -11.2916
# 2 26.3641 125.6755 42.8836 -6.5304 -3.2122 -4.2393
# 3 24.2430 42.8836 82.7207 6.4651 -15.6333 9.9942
# 4 3.0636 -6.5304 6.4651 33.2702 0.4473 -2.6198
# 5 -6.3233 -3.2122 -15.6333 0.4473 18.0410 4.0369
# 6 -11.2916 -4.2393 9.9942 -2.6198 4.0369 30.6729
#
#
#
# Elastic Compliance Matrix: (Units=1/GPa)
#
#
# Indices 1 2 3 4 5 6 
#
# 1 0.024419 -0.002231 -0.007481 -0.000340 -0.000818 0.011197
# 2 -0.002231 0.011012 -0.006988 0.004127 -0.005898 0.004107
# 3 -0.007481 -0.006988 0.024110 -0.006814 0.020520 -0.014858
# 4 -0.000340 0.004127 -0.006814 0.032833 -0.007549 0.006463
# 5 -0.000818 -0.005898 0.020520 -0.007549 0.076195 -0.018475
# 6 0.011197 0.004107 -0.014858 0.006463 -0.018475 0.045116
#
#
# Mechanical properties :
#
#
# Convention : Reuss Voigt Hill
#
# Bulk Modulus (GPa) = 38.25483 50.13044 44.19264
# Shear Modulus (GPa) = 19.54670 27.77693 23.66181
#
# Velocity S-wave (km/s) = 2.91460 3.47443 3.20676
# Velocity P-wave (km/s) = 5.28695 6.15484 5.73733
#
# Compressibility (1/GPa) = 0.02614049
#
# Stress axis : x y z
#
# Youngs Moduli (GPa) = 40.95212 90.81164 41.47700
#
# Poissons Ratio (x) = 0.20258 0.31028
# Poissons Ratio (y) = 0.09136 0.28985
# Poissons Ratio (z) = 0.30635 0.63462
#
# Static dielectric constant tensor:
#      x y z
#    x 4.149540 0.048100 -0.333740 
#    y 0.048100 4.176200 -0.454460 
#    z -0.333740 -0.454460 3.826620 
# 
# 
# High freq. dielectric constant tensor:
#      x y z
#    x 1.899380 -0.004090 -0.005210 
#    y -0.004090 1.929840 -0.014320 
#    z -0.005210 -0.014320 1.896920 
# 
# From -- ./inp_files/70890.got.cif
#   From: 2010.06.25/outbox.cif.g09.slc.cpg/sg2_36_cif.got.tgz:70890.got - 2010.06.27 13:26:56.
