data_PCOD8005704
_publ_section_title
;
Structure prediction by ZEFSAII (Michael W. Deem and Ramdas Pophale) SiO2 
 PCOD8005704
Probable space group: P -1
;
_chemical_formula_sum "Si O2"
_cell_formula_units_Z 14
_cell_length_a 12.317071
_cell_length_b 24.261056
_cell_length_c 15.457707
_cell_angle_alpha 20.454558
_cell_angle_beta 150.912929
_cell_angle_gamma 152.184662
_cell_volume 723.734575
_symmetry_space_group_name_H-M "P -1"
_symmetry_group_IT_number 2
_symmetry_cell_setting 'triclinic'
loop_
_space_group_symop_operation_xyz
x,y,z
-x,-y,-z
loop_
_atom_site_type_symbol
_atom_site_label
_atom_site_fract_x
_atom_site_fract_y
_atom_site_fract_z
Si Si1 0.866139 0.603441 0.435697
Si Si2 0.305886 0.866621 0.261380
Si Si3 0.630302 0.361815 0.967505
Si Si4 0.801549 0.957411 0.222075
Si Si5 0.678585 0.260555 0.718356
Si Si6 0.252183 0.883718 0.698445
Si Si7 0.064218 0.517208 0.154171
O O1 0.859861 0.443087 0.610173
O O2 0.869911 0.566821 0.593393
O O3 0.105890 0.764320 0.342322
O O4 0.636669 0.647833 0.187764
O O5 0.339062 0.738414 0.400351
O O6 0.558788 0.959264 0.349063
O O7 0.227059 0.008355 0.950289
O O8 0.616827 0.174781 0.202919
O O9 0.781197 0.418097 0.078975
O O10 0.772292 0.500778 0.786818
O O11 0.585390 0.782227 0.359549
O O12 0.058344 0.949171 0.427275
O O13 0.779668 0.114756 0.031203
O O14 0.123233 0.719480 0.913389
#
# Coordination Sequence:
#
# PCOD8005704 Si02
#       7
#     2   2   2   2   2   2   2
#     4  12  21  39  60  85 126 150 188 241 289 352
#     4  10  23  37  57  92 117 158 186 232 302 336
#     4   9  22  38  63  89 109 154 196 243 286 333
#     4   9  20  39  59  84 114 149 198 239 276 335
#     4   9  21  40  60  87 112 158 198 232 284 339
#     4  10  20  39  62  84 115 148 200 240 280 346
#     4   9  21  38  61  89 109 151 201 235 289 335
#
# _framework density 19.344109
#
# number of rings (size 3 to 8) (size 9 to 14) (size 15 to 20)
#    1.714    0.571    0.000    2.571    0.000    3.429 
#    2.571    2.143    0.000    0.000    0.000    0.000 
#    0.000    0.000    0.000    0.000    0.000    0.000 
#
# Total GULP energy -173511.368076 kJ/mol
# GULP energy per Si atom -12393.669148 kJ/mol
# Density = 1.930008 g / cm^3
# Si number density = 19.344109 Si / 1000 Ang^3
#
#
#
# Elastic Constant Matrix: (Units=GPa)
#
#
# Indices 1 2 3 4 5 6 
#
# 1 46.7910 25.1478 15.8302 -3.5030 -0.5737 0.9810
# 2 25.1478 93.1644 28.5794 12.1894 -6.2093 -5.7103
# 3 15.8302 28.5794 60.0278 15.0548 8.3054 9.6864
# 4 -3.5030 12.1894 15.0548 22.1569 1.7702 0.4491
# 5 -0.5737 -6.2093 8.3054 1.7702 16.4774 -3.4366
# 6 0.9810 -5.7103 9.6864 0.4491 -3.4366 20.1626
#
#
#
# Elastic Compliance Matrix: (Units=1/GPa)
#
#
# Indices 1 2 3 4 5 6 
#
# 1 0.028878 -0.007137 -0.007794 0.013720 0.000801 0.000149
# 2 -0.007137 0.017990 -0.009112 -0.006235 0.014382 0.012410
# 3 -0.007794 -0.009112 0.034241 -0.017133 -0.023779 -0.022323
# 4 0.013720 -0.006235 -0.017133 0.062197 0.001039 0.004589
# 5 0.000801 0.014382 -0.023779 0.001039 0.084224 0.029790
# 6 0.000149 0.012410 -0.022323 0.004589 0.029790 0.068804
#
#
# Mechanical properties :
#
#
# Convention : Reuss Voigt Hill
#
# Bulk Modulus (GPa) = 30.27979 37.67753 33.97866
# Shear Modulus (GPa) = 14.06758 20.45444 17.26101
#
# Velocity S-wave (km/s) = 2.69964 3.25529 2.99040
# Velocity P-wave (km/s) = 5.04030 5.80078 5.43386
#
# Compressibility (1/GPa) = 0.03302533
#
# Stress axis : x y z
#
# Youngs Moduli (GPa) = 34.62865 55.58579 29.20434
#
# Poissons Ratio (x) = 0.39670 0.22761
# Poissons Ratio (y) = 0.24714 0.26610
# Poissons Ratio (z) = 0.26988 0.50649
#
# Static dielectric constant tensor:
#      x y z
#    x 3.262100 -0.054310 -0.001170 
#    y -0.054310 3.402680 -0.039670 
#    z -0.001170 -0.039670 3.232890 
# 
# 
# High freq. dielectric constant tensor:
#      x y z
#    x 1.732270 -0.004340 0.003470 
#    y -0.004340 1.754700 0.003240 
#    z 0.003470 0.003240 1.732060 
# 
# From -- ./inp_files/524366.got.cif
#   From: 2010.06.25/outbox.cif.g09.slc.cpg/sg2_263_cif.got.tgz:524366.got - 2010.06.27 13:26:56.
