data_PCOD8005985
_publ_section_title
;
Structure prediction by ZEFSAII (Michael W. Deem and Ramdas Pophale) SiO2 
 PCOD8005985
Probable space group: P -1
;
_chemical_formula_sum "Si O2"
_cell_formula_units_Z 12
_cell_length_a 15.745264
_cell_length_b 8.964093
_cell_length_c 9.114225
_cell_angle_alpha 102.440366
_cell_angle_beta 29.359847
_cell_angle_gamma 102.405817
_cell_volume 614.918384
_symmetry_space_group_name_H-M "P -1"
_symmetry_group_IT_number 2
_symmetry_cell_setting 'triclinic'
loop_
_space_group_symop_operation_xyz
x,y,z
-x,-y,-z
loop_
_atom_site_type_symbol
_atom_site_label
_atom_site_fract_x
_atom_site_fract_y
_atom_site_fract_z
Si Si1 0.530096 0.447468 0.105533
Si Si2 0.666585 0.455874 0.326120
Si Si3 0.360947 0.893576 0.101478
Si Si4 0.340285 0.899751 0.784737
Si Si5 0.980182 0.934441 0.677367
Si Si6 0.149679 0.411589 0.183005
O O1 0.349590 0.466115 0.471988
O O2 0.500000 0.500000 0.000000
O O3 0.596409 0.278888 0.967577
O O4 0.673892 0.560961 0.986945
O O5 0.500000 0.500000 0.500000
O O6 0.665705 0.273272 0.298931
O O7 0.831306 0.528906 0.002311
O O8 0.172078 0.932584 0.459756
O O9 0.360961 0.916464 0.932032
O O10 0.500000 0.000000 0.000000
O O11 0.500000 0.000000 0.500000
O O12 0.157776 0.961027 0.013013
O O13 0.894338 0.765825 0.776995
O O14 0.000000 0.000000 0.500000
O O15 0.000000 0.500000 0.500000
#
# Coordination Sequence:
#
# PCOD8005985 Si02
#       6
#     2   2   2   2   2   2
#     4  11  24  40  64  93 124 169 212 259 322 367
#     4  10  20  39  64  91 121 166 218 255 305 380
#     4  11  24  42  61  92 132 161 208 265 324 375
#     4  11  21  39  68  94 123 165 211 261 315 382
#     4  10  22  38  63  96 120 166 214 253 317 385
#     4  11  19  40  68  87 125 165 214 266 304 376
#
# _framework density 19.514783999999999
#
# number of rings (size 3 to 8) (size 9 to 14) (size 15 to 20)
#    0.000    1.333    5.000    3.000    7.000    0.000 
#    0.000    1.667    0.000    0.000    0.000    0.000 
#    0.000    0.000    0.000    0.000    0.000    0.000 
#
# Total GULP energy -148711.920708 kJ/mol
# GULP energy per Si atom -12392.660059 kJ/mol
# Density = 1.947037 g / cm^3
# Si number density = 19.514784 Si / 1000 Ang^3
#
#
#
# Elastic Constant Matrix: (Units=GPa)
#
#
# Indices 1 2 3 4 5 6 
#
# 1 94.4492 43.4481 56.9991 1.2301 5.5985 -4.6957
# 2 43.4481 152.4024 64.7857 1.7735 -17.0580 -26.2398
# 3 56.9991 64.7857 165.2103 10.4796 -1.9421 -20.2894
# 4 1.2301 1.7735 10.4796 44.8422 -6.5588 -2.5314
# 5 5.5985 -17.0580 -1.9421 -6.5588 36.3779 -7.5660
# 6 -4.6957 -26.2398 -20.2894 -2.5314 -7.5660 29.9378
#
#
#
# Elastic Compliance Matrix: (Units=1/GPa)
#
#
# Indices 1 2 3 4 5 6 
#
# 1 0.015159 -0.004068 -0.004368 -0.000387 -0.005714 -0.005625
# 2 -0.004068 0.011093 -0.001722 0.001844 0.008177 0.010140
# 3 -0.004368 -0.001722 0.008818 -0.001528 0.000865 0.003871
# 4 -0.000387 0.001844 -0.001528 0.023693 0.005952 0.004028
# 5 -0.005714 0.008177 0.000865 0.005952 0.036787 0.016658
# 6 -0.005625 0.010140 0.003871 0.004028 0.016658 0.048582
#
#
# Mechanical properties :
#
#
# Convention : Reuss Voigt Hill
#
# Bulk Modulus (GPa) = 67.78209 82.50306 75.14257
# Shear Modulus (GPa) = 29.52171 38.68684 34.10427
#
# Velocity S-wave (km/s) = 3.89368 4.45729 4.18498
# Velocity P-wave (km/s) = 7.41778 8.29812 7.87027
#
# Compressibility (1/GPa) = 0.01475316
#
# Stress axis : x y z
#
# Youngs Moduli (GPa) = 65.96540 90.14582 113.40870
#
# Poissons Ratio (x) = 0.36675 0.49539
# Poissons Ratio (y) = 0.26838 0.19528
# Poissons Ratio (z) = 0.28815 0.15522
#
# Static dielectric constant tensor:
#      x y z
#    x 3.206940 -0.301420 -0.352460 
#    y -0.301420 3.671450 -0.038950 
#    z -0.352460 -0.038950 3.517480 
# 
# 
# High freq. dielectric constant tensor:
#      x y z
#    x 1.727600 -0.023950 0.001060 
#    y -0.023950 1.774280 0.005110 
#    z 0.001060 0.005110 1.785160 
# 
# From -- ./inp_files/145897.got.cif
#   From: 2010.06.25/outbox.cif.g09.slc.cpg/sg2_73_cif.got.tgz:145897.got - 2010.06.27 13:26:56.
