data_PCOD8005209
_publ_section_title
;
Structure prediction by ZEFSAII (Michael W. Deem and Ramdas Pophale) SiO2 
 PCOD8005209
Probable space group: P -1
;
_chemical_formula_sum "Si O2"
_cell_formula_units_Z 16
_cell_length_a 13.578642
_cell_length_b 13.396801
_cell_length_c 8.950053
_cell_angle_alpha 102.237962
_cell_angle_beta 112.646734
_cell_angle_gamma 133.254549
_cell_volume 772.952427
_symmetry_space_group_name_H-M "P -1"
_symmetry_group_IT_number 2
_symmetry_cell_setting 'triclinic'
loop_
_space_group_symop_operation_xyz
x,y,z
-x,-y,-z
loop_
_atom_site_type_symbol
_atom_site_label
_atom_site_fract_x
_atom_site_fract_y
_atom_site_fract_z
Si Si1 0.589304 0.435298 0.150103
Si Si2 0.158285 0.408762 0.388578
Si Si3 0.796176 0.243912 0.123409
Si Si4 0.533833 0.889657 0.046440
Si Si5 0.555273 0.124937 0.697464
Si Si6 0.031675 0.909342 0.039402
Si Si7 0.510120 0.728246 0.474236
Si Si8 0.340028 0.420003 0.080973
O O1 0.790617 0.588811 0.415847
O O2 0.430188 0.380326 0.118972
O O3 0.464880 0.230513 0.989475
O O4 0.673825 0.545378 0.079896
O O5 0.371841 0.609712 0.502114
O O6 0.033045 0.413065 0.331827
O O7 0.027958 0.216293 0.167793
O O8 0.698515 0.257715 0.168190
O O9 0.760953 0.244435 0.927625
O O10 0.680542 0.047077 0.050943
O O11 0.595385 0.983222 0.279430
O O12 0.577785 0.252899 0.674119
O O13 0.500000 0.000000 0.500000
O O14 0.259011 0.069608 0.275633
O O15 0.887348 0.767972 0.049942
O O16 0.000000 0.000000 0.000000
O O17 0.490592 0.607832 0.332474
#
# Coordination Sequence:
#
# PCOD8005209 Si02
#       8
#     2   2   2   2   2   2   2   2
#     4  11  22  42  65  92 132 166 211 266 312 378
#     4  11  25  38  66  97 125 170 216 253 320 384
#     4   9  21  41  59  95 126 160 216 254 315 379
#     4   9  21  40  64  87 128 168 202 261 317 370
#     4  10  20  38  65  94 121 170 210 259 312 374
#     4  11  24  42  64  95 129 169 214 262 316 376
#     4  11  23  43  66  93 132 168 211 268 312 373
#     4  10  23  44  63  97 128 167 216 259 318 378
#
# _framework density 20.699850000000001
#
# number of rings (size 3 to 8) (size 9 to 14) (size 15 to 20)
#    0.750    1.000    1.250    2.250    5.250    4.000 
#    0.000    3.125    0.000    0.000    0.000    0.000 
#    0.000    0.000    0.000    0.000    0.000    0.000 
#
# Total GULP energy -198241.754647 kJ/mol
# GULP energy per Si atom -12390.109665 kJ/mol
# Density = 2.065274 g / cm^3
# Si number density = 20.699850 Si / 1000 Ang^3
#
#
#
# Elastic Constant Matrix: (Units=GPa)
#
#
# Indices 1 2 3 4 5 6 
#
# 1 100.2872 34.4812 38.2299 2.6612 3.2477 -7.2857
# 2 34.4812 64.0623 43.4663 -5.4072 3.1328 -14.0025
# 3 38.2299 43.4663 118.4982 -4.8339 14.9433 8.1352
# 4 2.6612 -5.4072 -4.8339 32.2367 -5.5474 4.3307
# 5 3.2477 3.1328 14.9433 -5.5474 31.9171 -0.9970
# 6 -7.2857 -14.0025 8.1352 4.3307 -0.9970 35.2937
#
#
#
# Elastic Compliance Matrix: (Units=1/GPa)
#
#
# Indices 1 2 3 4 5 6 
#
# 1 0.012849 -0.005127 -0.002464 -0.002497 -0.000038 0.001492
# 2 -0.005127 0.027475 -0.009521 0.002550 0.003095 0.011811
# 3 -0.002464 -0.009521 0.013981 0.000806 -0.005463 -0.007762
# 4 -0.002497 0.002550 0.000806 0.033169 0.005279 -0.003610
# 5 -0.000038 0.003095 -0.005463 0.005279 0.034594 0.002809
# 6 0.001492 0.011811 -0.007762 -0.003610 0.002809 0.035639
#
#
# Mechanical properties :
#
#
# Convention : Reuss Voigt Hill
#
# Bulk Modulus (GPa) = 49.79928 57.24472 53.52200
# Shear Modulus (GPa) = 25.17291 31.00085 28.08688
#
# Velocity S-wave (km/s) = 3.49103 3.87413 3.68756
# Velocity P-wave (km/s) = 6.35293 6.90844 6.63650
#
# Compressibility (1/GPa) = 0.02008061
#
# Stress axis : x y z
#
# Youngs Moduli (GPa) = 77.82446 36.39668 71.52489
#
# Poissons Ratio (x) = 0.18660 0.17627
# Poissons Ratio (y) = 0.39900 0.68100
# Poissons Ratio (z) = 0.19179 0.34654
#
# Static dielectric constant tensor:
#      x y z
#    x 3.983090 -0.112060 0.012140 
#    y -0.112060 3.802280 -0.247210 
#    z 0.012140 -0.247210 3.548300 
# 
# 
# High freq. dielectric constant tensor:
#      x y z
#    x 1.828510 -0.005800 -0.001950 
#    y -0.005800 1.812170 -0.021710 
#    z -0.001950 -0.021710 1.790490 
# 
# From -- ./inp_files/315487.got.cif
#   From: 2010.06.25/outbox.cif.g09.slc.cpg/sg2_158_cif.got.tgz:315487.got - 2010.06.27 13:26:56.
