data_PCOD8005788
_publ_section_title
;
Structure prediction by ZEFSAII (Michael W. Deem and Ramdas Pophale) SiO2 
 PCOD8005788
Probable space group: P -1
;
_chemical_formula_sum "Si O2"
_cell_formula_units_Z 12
_cell_length_a 18.694571
_cell_length_b 15.983869
_cell_length_c 9.693015
_cell_angle_alpha 35.039037
_cell_angle_beta 37.848789
_cell_angle_gamma 19.560741
_cell_volume 554.273203
_symmetry_space_group_name_H-M "P -1"
_symmetry_group_IT_number 2
_symmetry_cell_setting 'triclinic'
loop_
_space_group_symop_operation_xyz
x,y,z
-x,-y,-z
loop_
_atom_site_type_symbol
_atom_site_label
_atom_site_fract_x
_atom_site_fract_y
_atom_site_fract_z
Si Si1 0.063453 0.512188 0.670562
Si Si2 0.342177 0.496582 0.687153
Si Si3 0.960689 0.758347 0.052528
Si Si4 0.676646 0.911763 0.916508
Si Si5 0.540967 0.369739 0.825835
Si Si6 0.135457 0.720876 0.115993
O O1 0.028285 0.430291 0.711079
O O2 0.150407 0.574935 0.399962
O O3 0.846677 0.775146 0.725988
O O4 0.232571 0.267394 0.848764
O O5 0.372795 0.550387 0.710795
O O6 0.329259 0.613202 0.412499
O O7 0.561300 0.177411 0.782191
O O8 0.119206 0.641039 0.843239
O O9 0.030989 0.756474 0.091553
O O10 0.716671 0.058089 0.985337
O O11 0.500000 0.000000 0.000000
O O12 0.380089 0.522367 0.994185
O O13 0.000000 0.000000 0.000000
#
# Coordination Sequence:
#
# PCOD8005788 Si02
#       6
#     2   2   2   2   2   2
#     4  11  24  41  64  97 127 160 213 256 311 374
#     4  10  20  39  62  95 124 159 212 250 308 370
#     4  11  22  41  66  95 124 166 207 260 314 363
#     4  11  22  39  66  93 125 163 205 260 309 364
#     4  10  22  39  64  89 126 165 203 257 308 371
#     4  11  26  44  62  91 128 168 210 255 313 378
#
# _framework density 21.649975000000001
#
# number of rings (size 3 to 8) (size 9 to 14) (size 15 to 20)
#    0.000    1.333    3.333    2.000    0.000    4.000 
#    0.000    0.000    0.000    0.000    0.000    0.000 
#    0.000    0.000    0.000    0.000    0.000    0.000 
#
# Total GULP energy -148705.001990 kJ/mol
# GULP energy per Si atom -12392.083499 kJ/mol
# Density = 2.160070 g / cm^3
# Si number density = 21.649975 Si / 1000 Ang^3
#
#
#
# Elastic Constant Matrix: (Units=GPa)
#
#
# Indices 1 2 3 4 5 6 
#
# 1 65.4767 17.0457 10.1775 7.0504 -3.3587 12.3676
# 2 17.0457 164.7714 67.1766 10.3728 -6.8553 17.1626
# 3 10.1775 67.1766 145.6705 15.2445 -14.4289 20.9148
# 4 7.0504 10.3728 15.2445 25.7839 2.8843 -4.3416
# 5 -3.3587 -6.8553 -14.4289 2.8843 25.4839 -3.7981
# 6 12.3676 17.1626 20.9148 -4.3416 -3.7981 27.8697
#
#
#
# Elastic Compliance Matrix: (Units=1/GPa)
#
#
# Indices 1 2 3 4 5 6 
#
# 1 0.017951 -0.000948 0.001521 -0.007266 0.002404 -0.009328
# 2 -0.000948 0.007728 -0.003006 -0.001468 0.000075 -0.002301
# 3 0.001521 -0.003006 0.010399 -0.007105 0.005033 -0.007048
# 4 -0.007266 -0.001468 -0.007105 0.049207 -0.008566 0.015958
# 5 0.002404 0.000075 0.005033 -0.008566 0.043350 -0.000317
# 6 -0.009328 -0.002301 -0.007048 0.015958 -0.000317 0.049170
#
#
# Mechanical properties :
#
#
# Convention : Reuss Voigt Hill
#
# Bulk Modulus (GPa) = 32.04054 62.74647 47.39351
# Shear Modulus (GPa) = 25.89684 34.59540 30.24612
#
# Velocity S-wave (km/s) = 3.46231 4.00176 3.74177
# Velocity P-wave (km/s) = 5.55112 7.09911 6.37229
#
# Compressibility (1/GPa) = 0.03121046
#
# Stress axis : x y z
#
# Youngs Moduli (GPa) = 55.70863 129.40201 96.16466
#
# Poissons Ratio (x) = 0.12268 -0.14624
# Poissons Ratio (y) = 0.05281 0.28908
# Poissons Ratio (z) = -0.08472 0.38899
#
# Static dielectric constant tensor:
#      x y z
#    x 3.691220 -0.037640 -0.148250 
#    y -0.037640 3.652960 0.249010 
#    z -0.148250 0.249010 4.064980 
# 
# 
# High freq. dielectric constant tensor:
#      x y z
#    x 1.837800 0.003990 -0.010830 
#    y 0.003990 1.864550 0.005480 
#    z -0.010830 0.005480 1.853230 
# 
# From -- ./inp_files/21101.got.cif
#   From: 2010.06.25/outbox.cif.g09.slc.cpg/sg2_11_cif.got.tgz:21101.got - 2010.06.27 13:26:56.
