data_PCOD8005608
_publ_section_title
;
Structure prediction by ZEFSAII (Michael W. Deem and Ramdas Pophale) SiO2 
 PCOD8005608
Probable space group: P -1
;
_chemical_formula_sum "Si O2"
_cell_formula_units_Z 16
_cell_length_a 14.444728
_cell_length_b 14.175119
_cell_length_c 10.956568
_cell_angle_alpha 150.643515
_cell_angle_beta 130.909862
_cell_angle_gamma 62.856499
_cell_volume 790.448634
_symmetry_space_group_name_H-M "P -1"
_symmetry_group_IT_number 2
_symmetry_cell_setting 'triclinic'
loop_
_space_group_symop_operation_xyz
x,y,z
-x,-y,-z
loop_
_atom_site_type_symbol
_atom_site_label
_atom_site_fract_x
_atom_site_fract_y
_atom_site_fract_z
Si Si1 0.564966 0.887935 0.837263
Si Si2 0.297520 0.887295 0.246327
Si Si3 0.550568 0.131116 0.873425
Si Si4 0.080463 0.086964 0.285730
Si Si5 0.075189 0.521877 0.717956
Si Si6 0.557549 0.551365 0.740502
Si Si7 0.986827 0.170224 0.830605
Si Si8 0.213954 0.146686 0.840149
O O1 0.464886 0.668165 0.464859
O O2 0.604331 0.022767 0.904112
O O3 0.694550 0.875282 0.996789
O O4 0.500000 0.000000 0.000000
O O5 0.337579 0.820788 0.075447
O O6 0.419505 0.978985 0.539102
O O7 0.218154 0.047759 0.347882
O O8 0.215101 0.681080 0.004266
O O9 0.525123 0.334896 0.126281
O O10 0.097141 0.323318 0.568712
O O11 0.004311 0.981068 0.221788
O O12 0.000000 0.000000 0.000000
O O13 0.000000 0.500000 0.500000
O O14 0.001786 0.610829 0.857450
O O15 0.500000 0.500000 0.500000
O O16 0.706971 0.689288 0.008206
O O17 0.101543 0.215635 0.883307
O O18 0.850570 0.064920 0.525049
#
# Coordination Sequence:
#
# PCOD8005608 Si02
#       8
#     2   2   2   2   2   2   2   2
#     4  11  23  39  64  90 122 166 207 245 307 362
#     4  10  25  41  64  91 129 159 202 258 305 365
#     4  11  23  43  62  93 126 164 201 253 309 362
#     4  11  22  42  61  91 121 162 205 250 306 360
#     4  11  22  40  66  92 121 163 206 252 309 361
#     4  10  20  39  60  92 120 161 204 248 299 360
#     4  10  23  43  62  92 129 158 205 256 305 364
#     4  10  22  43  62  91 129 163 199 258 304 361
#
# _framework density 20.241669999999999
#
# number of rings (size 3 to 8) (size 9 to 14) (size 15 to 20)
#    0.000    1.500    5.000    1.500    1.750    5.000 
#    2.250    3.750    0.000    0.000    0.000    0.000 
#    0.000    0.000    0.000    0.000    0.000    0.000 
#
# Total GULP energy -198344.145831 kJ/mol
# GULP energy per Si atom -12396.509114 kJ/mol
# Density = 2.019560 g / cm^3
# Si number density = 20.241670 Si / 1000 Ang^3
#
#
#
# Elastic Constant Matrix: (Units=GPa)
#
#
# Indices 1 2 3 4 5 6 
#
# 1 88.9965 25.8433 27.9548 15.8390 -17.3359 -15.4538
# 2 25.8433 94.7259 36.9030 25.8952 -1.7819 -1.7240
# 3 27.9548 36.9030 91.3526 19.8624 -15.8336 -14.1769
# 4 15.8390 25.8952 19.8624 46.6158 -5.2396 -6.0992
# 5 -17.3359 -1.7819 -15.8336 -5.2396 33.9794 -3.8371
# 6 -15.4538 -1.7240 -14.1769 -6.0992 -3.8371 22.8426
#
#
#
# Elastic Compliance Matrix: (Units=1/GPa)
#
#
# Indices 1 2 3 4 5 6 
#
# 1 0.016475 -0.004005 0.000360 -0.000810 0.009646 0.012471
# 2 -0.004005 0.015423 -0.005844 -0.006401 -0.005832 -0.007861
# 3 0.000360 -0.005844 0.016805 -0.001579 0.008738 0.011279
# 4 -0.000810 -0.006401 -0.001579 0.027088 0.003345 0.005784
# 5 0.009646 -0.005832 0.008738 0.003345 0.040808 0.019257
# 6 0.012471 -0.007861 0.011279 0.005784 0.019257 0.063401
#
#
# Mechanical properties :
#
#
# Convention : Reuss Voigt Hill
#
# Bulk Modulus (GPa) = 33.64127 50.71969 42.18048
# Shear Modulus (GPa) = 23.93642 32.97914 28.45778
#
# Velocity S-wave (km/s) = 3.44253 4.04080 3.75360
# Velocity P-wave (km/s) = 5.69712 6.84706 6.29839
#
# Compressibility (1/GPa) = 0.02972540
#
# Stress axis : x y z
#
# Youngs Moduli (GPa) = 60.69727 64.83783 59.50511
#
# Poissons Ratio (x) = 0.25967 -0.02141
# Poissons Ratio (y) = 0.24309 0.34774
# Poissons Ratio (z) = -0.02184 0.37891
#
# Static dielectric constant tensor:
#      x y z
#    x 3.975190 0.040590 0.032910 
#    y 0.040590 3.908870 0.411980 
#    z 0.032910 0.411980 4.810350 
# 
# 
# High freq. dielectric constant tensor:
#      x y z
#    x 1.798440 0.001380 -0.010340 
#    y 0.001380 1.776760 -0.001380 
#    z -0.010340 -0.001380 1.805960 
# 
# From -- ./inp_files/456071.got.cif
#   From: 2010.06.25/outbox.cif.g09.slc.cpg/sg2_229_cif.got.tgz:456071.got - 2010.06.27 13:26:56.
