data_PCOD8005056
_publ_section_title
;
Structure prediction by ZEFSAII (Michael W. Deem and Ramdas Pophale) SiO2 
 PCOD8005056
Probable space group: P -1
;
_chemical_formula_sum "Si O2"
_cell_formula_units_Z 12
_cell_length_a 8.867427
_cell_length_b 13.263688
_cell_length_c 10.005908
_cell_angle_alpha 80.630367
_cell_angle_beta 94.721836
_cell_angle_gamma 30.468166
_cell_volume 527.254628
_symmetry_space_group_name_H-M "P -1"
_symmetry_group_IT_number 2
_symmetry_cell_setting 'triclinic'
loop_
_space_group_symop_operation_xyz
x,y,z
-x,-y,-z
loop_
_atom_site_type_symbol
_atom_site_label
_atom_site_fract_x
_atom_site_fract_y
_atom_site_fract_z
Si Si1 0.203978 0.309960 0.414483
Si Si2 0.271198 0.950719 0.296670
Si Si3 0.936735 0.944759 0.244558
Si Si4 0.825392 0.864928 0.012605
Si Si5 0.809147 0.555008 0.859741
Si Si6 0.086312 0.166252 0.488096
O O1 0.050100 0.486122 0.263740
O O2 0.961978 0.358821 0.418532
O O3 0.343501 0.278284 0.569822
O O4 0.514209 0.073217 0.405260
O O5 0.019828 0.137143 0.357259
O O6 0.189394 0.886369 0.256583
O O7 0.231066 0.054918 0.153654
O O8 0.583250 0.199565 0.209749
O O9 0.914308 0.901467 0.112217
O O10 0.085854 0.780386 0.405871
O O11 0.126249 0.604211 0.089113
O O12 0.500000 0.000000 0.000000
O O13 0.000000 0.500000 0.000000
#
# Coordination Sequence:
#
# PCOD8005056 Si02
#       6
#     2   2   2   2   2   2
#     4   8  17  34  62  86 114 158 202 242 288 363
#     4  10  20  38  64  90 125 159 201 250 310 355
#     4  11  22  39  66  90 123 161 198 257 307 352
#     4  12  24  40  62  90 125 161 204 251 299 364
#     4  11  22  39  64  91 121 158 211 245 301 365
#     4   8  16  34  64  88 113 162 200 239 299 358
#
# _framework density 22.759402000000001
#
# number of rings (size 3 to 8) (size 9 to 14) (size 15 to 20)
#    1.000    1.000    1.667    3.000    0.000    0.667 
#    0.000    4.167    0.000    0.000    0.000    0.000 
#    0.000    0.000    0.000    0.000    0.000    0.000 
#
# Total GULP energy -148749.275955 kJ/mol
# GULP energy per Si atom -12395.772996 kJ/mol
# Density = 2.270760 g / cm^3
# Si number density = 22.759402 Si / 1000 Ang^3
#
#
#
# Elastic Constant Matrix: (Units=GPa)
#
#
# Indices 1 2 3 4 5 6 
#
# 1 115.7703 22.4468 58.2944 -14.0684 -0.5704 37.6868
# 2 22.4468 43.9735 29.6046 -2.6362 4.7485 20.8850
# 3 58.2944 29.6046 186.2539 4.2001 -23.0838 24.9477
# 4 -14.0684 -2.6362 4.2001 25.7561 14.7003 1.6363
# 5 -0.5704 4.7485 -23.0838 14.7003 46.7063 4.6816
# 6 37.6868 20.8850 24.9477 1.6363 4.6816 29.5263
#
#
#
# Elastic Compliance Matrix: (Units=1/GPa)
#
#
# Indices 1 2 3 4 5 6 
#
# 1 0.021175 0.007936 -0.005294 0.018561 -0.006178 -0.028218
# 2 0.007936 0.040405 -0.005925 0.016587 -0.008829 -0.033223
# 3 -0.005294 -0.005925 0.008721 -0.009393 0.007513 0.002908
# 4 0.018561 0.016587 -0.009393 0.068078 -0.024789 -0.027329
# 5 -0.006178 -0.008829 0.007513 -0.024789 0.033360 0.003868
# 6 -0.028218 -0.033223 0.002908 -0.027329 0.003868 0.091829
#
#
# Mechanical properties :
#
#
# Convention : Reuss Voigt Hill
#
# Bulk Modulus (GPa) = 15.68918 62.96547 39.32733
# Shear Modulus (GPa) = 17.15982 36.10788 26.63385
#
# Velocity S-wave (km/s) = 2.74882 3.98741 3.42458
# Velocity P-wave (km/s) = 4.12106 6.99465 5.74057
#
# Compressibility (1/GPa) = 0.06373818
#
# Stress axis : x y z
#
# Youngs Moduli (GPa) = 47.22472 24.74912 114.66738
#
# Poissons Ratio (x) = -0.19642 0.60700
# Poissons Ratio (y) = -0.37479 0.67935
# Poissons Ratio (z) = 0.24999 0.14663
#
# Static dielectric constant tensor:
#      x y z
#    x 4.022050 0.280650 -0.284230 
#    y 0.280650 3.898410 -0.098570 
#    z -0.284230 -0.098570 4.229780 
# 
# 
# High freq. dielectric constant tensor:
#      x y z
#    x 1.891700 0.025310 -0.015860 
#    y 0.025310 1.874610 0.006950 
#    z -0.015860 0.006950 1.907800 
# 
# From -- ./inp_files/169678.got.cif
#   From: 2010.06.25/outbox.cif.g09.slc.cpg/sg2_85_cif.got.tgz:169678.got - 2010.06.27 13:26:56.
