data_PCOD8005456
_publ_section_title
;
Structure prediction by ZEFSAII (Michael W. Deem and Ramdas Pophale) SiO2 
 PCOD8005456
Probable space group: P -1
;
_chemical_formula_sum "Si O2"
_cell_formula_units_Z 16
_cell_length_a 31.601175
_cell_length_b 15.465985
_cell_length_c 9.159445
_cell_angle_alpha 43.512752
_cell_angle_beta 145.735225
_cell_angle_gamma 161.832659
_cell_volume 738.480941
_symmetry_space_group_name_H-M "P -1"
_symmetry_group_IT_number 2
_symmetry_cell_setting 'triclinic'
loop_
_space_group_symop_operation_xyz
x,y,z
-x,-y,-z
loop_
_atom_site_type_symbol
_atom_site_label
_atom_site_fract_x
_atom_site_fract_y
_atom_site_fract_z
Si Si1 0.687496 0.951636 0.785201
Si Si2 0.025139 0.927562 0.048986
Si Si3 0.828361 0.388883 0.199184
Si Si4 0.467164 0.092224 0.836608
Si Si5 0.319505 0.276744 0.643870
Si Si6 0.175475 0.283259 0.783782
Si Si7 0.148435 0.055456 0.740243
Si Si8 0.835485 0.210825 0.183303
O O1 0.636797 0.980327 0.488543
O O2 0.516211 0.628058 0.768558
O O3 0.800256 0.004918 0.974131
O O4 0.810301 0.206539 0.945190
O O5 0.860959 0.584369 0.019925
O O6 0.214141 0.154116 0.348541
O O7 0.035813 0.986786 0.839519
O O8 0.000000 0.000000 0.000000
O O9 0.823583 0.315270 0.119485
O O10 0.974397 0.563521 0.517907
O O11 0.639290 0.075509 0.111759
O O12 0.654441 0.438052 0.974711
O O13 0.500000 0.000000 0.000000
O O14 0.218871 0.172055 0.631887
O O15 0.320140 0.125970 0.819468
O O16 0.230799 0.292217 0.784154
O O17 0.065615 0.247161 0.489693
#
# Coordination Sequence:
#
# PCOD8005456 Si02
#       8
#     2   2   2   2   2   2   2   2
#     4  11  24  42  70  98 130 178 229 269 327 401
#     4  11  20  41  70  89 128 179 221 256 325 405
#     4  10  24  42  66  97 135 174 215 275 335 390
#     4  12  28  44  63  99 139 172 217 278 340 385
#     4  10  20  38  71  95 128 169 227 268 323 389
#     4  11  24  44  68  99 134 169 221 276 326 396
#     4  10  23  41  68 101 128 170 221 278 326 383
#     4   9  21  43  66  96 130 175 219 274 329 394
#
# _framework density 21.666094999999999
#
# number of rings (size 3 to 8) (size 9 to 14) (size 15 to 20)
#    0.000    1.500    2.500    2.250    7.000    4.000 
#    4.500    0.625    0.000    0.000    0.000    0.000 
#    0.000    0.000    0.000    0.000    0.000    0.000 
#
# Total GULP energy -198264.101696 kJ/mol
# GULP energy per Si atom -12391.506356 kJ/mol
# Density = 2.161678 g / cm^3
# Si number density = 21.666095 Si / 1000 Ang^3
#
#
#
# Elastic Constant Matrix: (Units=GPa)
#
#
# Indices 1 2 3 4 5 6 
#
# 1 113.3687 47.2333 41.1608 -8.9722 7.1116 -20.0109
# 2 47.2333 92.8549 31.5547 -9.1965 0.5259 -7.7745
# 3 41.1608 31.5547 124.6925 -6.2063 6.4727 -12.9559
# 4 -8.9722 -9.1965 -6.2063 27.1348 -9.2638 3.8962
# 5 7.1116 0.5259 6.4727 -9.2638 32.5562 4.1903
# 6 -20.0109 -7.7745 -12.9559 3.8962 4.1903 26.0923
#
#
#
# Elastic Compliance Matrix: (Units=1/GPa)
#
#
# Indices 1 2 3 4 5 6 
#
# 1 0.013529 -0.005500 -0.002033 -0.000291 -0.003620 0.008352
# 2 -0.005500 0.014446 -0.001988 0.003816 0.002694 -0.001903
# 3 -0.002033 -0.001988 0.009586 -0.000214 -0.001869 0.002940
# 4 -0.000291 0.003816 -0.000214 0.043746 0.013508 -0.007894
# 5 -0.003620 0.002694 -0.001869 0.013508 0.037078 -0.010873
# 6 0.008352 -0.001903 0.002940 -0.007894 -0.010873 0.048549
#
#
# Mechanical properties :
#
#
# Convention : Reuss Voigt Hill
#
# Bulk Modulus (GPa) = 53.99778 63.42375 58.71076
# Shear Modulus (GPa) = 26.02163 31.22114 28.62138
#
# Velocity S-wave (km/s) = 3.46935 3.80019 3.63853
# Velocity P-wave (km/s) = 6.40510 6.97080 6.69393
#
# Compressibility (1/GPa) = 0.01851928
#
# Stress axis : x y z
#
# Youngs Moduli (GPa) = 73.91773 69.22314 104.32239
#
# Poissons Ratio (x) = 0.38072 0.21206
# Poissons Ratio (y) = 0.40654 0.20738
# Poissons Ratio (z) = 0.15025 0.13761
#
# Static dielectric constant tensor:
#      x y z
#    x 3.827290 -0.188050 -0.088050 
#    y -0.188050 3.564850 -0.011290 
#    z -0.088050 -0.011290 4.688990 
# 
# 
# High freq. dielectric constant tensor:
#      x y z
#    x 1.849910 -0.009670 -0.003220 
#    y -0.009670 1.835380 0.004310 
#    z -0.003220 0.004310 1.864650 
# 
# From -- ./inp_files/358772.got.cif
#   From: 2010.06.25/outbox.cif.g09.slc.cpg/sg2_180_cif.got.tgz:358772.got - 2010.06.27 13:26:56.
