data_PCOD8005807
_publ_section_title
;
Structure prediction by ZEFSAII (Michael W. Deem and Ramdas Pophale) SiO2 
 PCOD8005807
Probable space group: P -1
;
_chemical_formula_sum "Si O2"
_cell_formula_units_Z 16
_cell_length_a 14.932252
_cell_length_b 9.887327
_cell_length_c 13.092931
_cell_angle_alpha 147.282690
_cell_angle_beta 135.769519
_cell_angle_gamma 43.463054
_cell_volume 688.947104
_symmetry_space_group_name_H-M "P -1"
_symmetry_group_IT_number 2
_symmetry_cell_setting 'triclinic'
loop_
_space_group_symop_operation_xyz
x,y,z
-x,-y,-z
loop_
_atom_site_type_symbol
_atom_site_label
_atom_site_fract_x
_atom_site_fract_y
_atom_site_fract_z
Si Si1 0.982900 0.117180 0.675260
Si Si2 0.532311 0.740593 0.478051
Si Si3 0.348730 0.473342 0.053053
Si Si4 0.026767 0.189247 0.329225
Si Si5 0.757354 0.252693 0.064050
Si Si6 0.430190 0.028233 0.153182
Si Si7 0.294139 0.219388 0.521262
Si Si8 0.206619 0.376552 0.061236
O O1 0.850822 0.380441 0.750840
O O2 0.111655 0.197964 0.862462
O O3 0.000000 0.000000 0.500000
O O4 0.975665 0.892360 0.605968
O O5 0.467464 0.526350 0.249858
O O6 0.551146 0.735399 0.611764
O O7 0.680088 0.693180 0.516703
O O8 0.436493 0.035783 0.563136
O O9 0.222354 0.485681 0.030688
O O10 0.290883 0.694477 0.059048
O O11 0.421643 0.179417 0.881631
O O12 0.180802 0.068787 0.333771
O O13 0.000000 0.500000 0.500000
O O14 0.919684 0.093512 0.112449
O O15 0.746318 0.529306 0.280520
O O16 0.663669 0.110915 0.952294
O O17 0.354083 0.178671 0.087179
#
# Coordination Sequence:
#
# PCOD8005807 Si02
#       8
#     2   2   2   2   2   2   2   2
#     4  11  26  51  74  99 148 184 230 295 351 420
#     4  11  23  39  67  99 139 181 234 284 350 412
#     4  12  25  44  69 102 144 185 233 294 344 417
#     4  10  23  41  74 108 130 181 236 288 353 416
#     4  11  21  42  69 100 144 179 230 297 349 406
#     4  12  24  45  69 101 141 188 233 292 348 412
#     4  10  20  39  63 104 138 175 230 286 354 412
#     4  11  28  47  70 106 137 193 239 275 357 428
#
# _framework density 23.223842000000001
#
# number of rings (size 3 to 8) (size 9 to 14) (size 15 to 20)
#    0.000    1.000    3.750    3.000    3.500    4.500 
#    2.250    1.875    0.000    0.000    0.000    0.000 
#    0.000    0.000    0.000    0.000    0.000    0.000 
#
# Total GULP energy -198316.947680 kJ/mol
# GULP energy per Si atom -12394.809230 kJ/mol
# Density = 2.317098 g / cm^3
# Si number density = 23.223842 Si / 1000 Ang^3
#
#
#
# Elastic Constant Matrix: (Units=GPa)
#
#
# Indices 1 2 3 4 5 6 
#
# 1 138.2244 22.8795 43.2246 -6.3096 0.4264 1.8957
# 2 22.8795 78.1829 21.5724 -11.3278 -1.9332 13.7961
# 3 43.2246 21.5724 86.0745 -4.2838 -12.7027 2.3612
# 4 -6.3096 -11.3278 -4.2838 28.7420 -0.7105 7.1058
# 5 0.4264 -1.9332 -12.7027 -0.7105 31.4030 -2.0588
# 6 1.8957 13.7961 2.3612 7.1058 -2.0588 31.7737
#
#
#
# Elastic Compliance Matrix: (Units=1/GPa)
#
#
# Indices 1 2 3 4 5 6 
#
# 1 0.008860 -0.001355 -0.004366 0.000686 -0.001947 0.000105
# 2 -0.001355 0.016693 -0.002944 0.007998 -0.000539 -0.008772
# 3 -0.004366 -0.002944 0.015447 0.000149 0.006179 0.000758
# 4 0.000686 0.007998 0.000149 0.041276 0.000644 -0.012714
# 5 -0.001947 -0.000539 0.006179 0.000644 0.034481 0.001981
# 6 0.000105 -0.008772 0.000758 -0.012714 0.001981 0.038190
#
#
# Mechanical properties :
#
#
# Convention : Reuss Voigt Hill
#
# Bulk Modulus (GPa) = 42.24847 53.09274 47.67061
# Shear Modulus (GPa) = 27.75195 32.70409 30.22802
#
# Velocity S-wave (km/s) = 3.46059 3.75669 3.61168
# Velocity P-wave (km/s) = 5.84799 6.45971 6.16145
#
# Compressibility (1/GPa) = 0.02366949
#
# Stress axis : x y z
#
# Youngs Moduli (GPa) = 112.86576 59.90602 64.73935
#
# Poissons Ratio (x) = 0.08120 0.28263
# Poissons Ratio (y) = 0.15298 0.19058
# Poissons Ratio (z) = 0.49274 0.17635
#
# Static dielectric constant tensor:
#      x y z
#    x 5.609800 -0.885980 0.399100 
#    y -0.885980 4.621650 -0.399860 
#    z 0.399100 -0.399860 4.347950 
# 
# 
# High freq. dielectric constant tensor:
#      x y z
#    x 1.930290 -0.005690 0.001950 
#    y -0.005690 1.907710 0.000940 
#    z 0.001950 0.000940 1.916110 
# 
# From -- ./inp_files/448402.got.cif
#   From: 2010.06.25/outbox.cif.g09.slc.cpg/sg2_225_cif.got.tgz:448402.got - 2010.06.27 13:26:56.
