data_PCOD8005981
_publ_section_title
;
Structure prediction by ZEFSAII (Michael W. Deem and Ramdas Pophale) SiO2 
 PCOD8005981
Probable space group: P -1
;
_chemical_formula_sum "Si O2"
_cell_formula_units_Z 14
_cell_length_a 9.527550
_cell_length_b 10.565480
_cell_length_c 14.228897
_cell_angle_alpha 126.487615
_cell_angle_beta 116.190685
_cell_angle_gamma 107.118624
_cell_volume 657.067600
_symmetry_space_group_name_H-M "P -1"
_symmetry_group_IT_number 2
_symmetry_cell_setting 'triclinic'
loop_
_space_group_symop_operation_xyz
x,y,z
-x,-y,-z
loop_
_atom_site_type_symbol
_atom_site_label
_atom_site_fract_x
_atom_site_fract_y
_atom_site_fract_z
Si Si1 0.088279 0.316540 0.140349
Si Si2 0.482677 0.291460 0.857135
Si Si3 0.077161 0.103890 0.425074
Si Si4 0.935006 0.014095 0.133847
Si Si5 0.558363 0.444726 0.143816
Si Si6 0.212707 0.751927 0.116944
Si Si7 0.579932 0.891095 0.514072
O O1 0.357797 0.598324 0.334304
O O2 0.049384 0.137611 0.982785
O O3 0.040779 0.236816 0.199481
O O4 0.886715 0.287397 0.033960
O O5 0.574326 0.491995 0.897189
O O6 0.543617 0.168171 0.779368
O O7 0.637073 0.426464 0.059844
O O8 0.195175 0.105537 0.705959
O O9 0.216539 0.354966 0.630028
O O10 0.218650 0.047184 0.463386
O O11 0.086275 0.137526 0.330566
O O12 0.646847 0.822612 0.984953
O O13 0.291254 0.974570 0.288790
O O14 0.000000 0.500000 0.000000
O O15 0.500000 0.000000 0.500000
#
# Coordination Sequence:
#
# PCOD8005981 Si02
#       7
#     2   2   2   2   2   2   2
#     4  11  23  40  63  95 130 165 216 261 320 370
#     4  10  24  38  65  95 126 168 212 260 327 376
#     4  11  22  40  64  96 128 170 213 262 316 381
#     4  10  22  40  63  94 125 172 216 260 306 384
#     4  10  20  39  64  90 127 165 217 255 311 376
#     4  12  24  42  65  93 131 163 205 273 326 374
#     4  12  24  37  67  98 129 160 208 268 323 371
#
# _framework density 21.306789999999999
#
# number of rings (size 3 to 8) (size 9 to 14) (size 15 to 20)
#    0.000    1.143    4.286    2.143    4.000    2.857 
#    0.000    2.857    0.000    5.143    0.000    0.000 
#    0.000    0.000    0.000    0.000    0.000    0.000 
#
# Total GULP energy -173512.533710 kJ/mol
# GULP energy per Si atom -12393.752408 kJ/mol
# Density = 2.125829 g / cm^3
# Si number density = 21.306790 Si / 1000 Ang^3
#
#
#
# Elastic Constant Matrix: (Units=GPa)
#
#
# Indices 1 2 3 4 5 6 
#
# 1 90.5207 26.0926 32.8618 13.8119 17.7595 2.3056
# 2 26.0926 117.3943 35.5724 6.6467 10.3696 7.3628
# 3 32.8618 35.5724 127.5765 1.1012 -2.7211 7.3692
# 4 13.8119 6.6467 1.1012 24.8815 1.7016 -3.9679
# 5 17.7595 10.3696 -2.7211 1.7016 32.7297 -5.1452
# 6 2.3056 7.3628 7.3692 -3.9679 -5.1452 23.2187
#
#
#
# Elastic Compliance Matrix: (Units=1/GPa)
#
#
# Indices 1 2 3 4 5 6 
#
# 1 0.015700 -0.000922 -0.003703 -0.008259 -0.008643 -0.003418
# 2 -0.000922 0.010109 -0.002430 -0.002410 -0.003328 -0.003492
# 3 -0.003703 -0.002430 0.009572 0.001920 0.003344 -0.000831
# 4 -0.008259 -0.002410 0.001920 0.046610 0.004545 0.009948
# 5 -0.008643 -0.003328 0.003344 0.004545 0.037916 0.010031
# 6 -0.003418 -0.003492 -0.000831 0.009948 0.010031 0.048702
#
#
# Mechanical properties :
#
#
# Convention : Reuss Voigt Hill
#
# Bulk Modulus (GPa) = 47.00884 58.28278 52.64581
# Shear Modulus (GPa) = 26.34230 32.23029 29.28629
#
# Velocity S-wave (km/s) = 3.51997 3.89353 3.71145
# Velocity P-wave (km/s) = 6.21538 6.90118 6.56724
#
# Compressibility (1/GPa) = 0.02127260
#
# Stress axis : x y z
#
# Youngs Moduli (GPa) = 63.69405 98.92213 104.46729
#
# Poissons Ratio (x) = 0.09123 0.38680
# Poissons Ratio (y) = 0.05874 0.25381
# Poissons Ratio (z) = 0.23583 0.24034
#
# Static dielectric constant tensor:
#      x y z
#    x 3.788000 0.122630 -0.188880 
#    y 0.122630 3.826540 -0.214680 
#    z -0.188880 -0.214680 4.163780 
# 
# 
# High freq. dielectric constant tensor:
#      x y z
#    x 1.822390 0.014500 -0.007310 
#    y 0.014500 1.815280 -0.013730 
#    z -0.007310 -0.013730 1.855040 
# 
# From -- ./inp_files/270625.got.cif
#   From: 2010.06.25/outbox.cif.g09.slc.cpg/sg2_136_cif.got.tgz:270625.got - 2010.06.27 13:26:56.
