data_PCOD8005638
_publ_section_title
;
Structure prediction by ZEFSAII (Michael W. Deem and Ramdas Pophale) SiO2 
 PCOD8005638
Probable space group: P -1
;
_chemical_formula_sum "Si O2"
_cell_formula_units_Z 16
_cell_length_a 20.487268
_cell_length_b 17.177896
_cell_length_c 7.627148
_cell_angle_alpha 125.893206
_cell_angle_beta 127.192134
_cell_angle_gamma 19.364912
_cell_volume 707.717057
_symmetry_space_group_name_H-M "P -1"
_symmetry_group_IT_number 2
_symmetry_cell_setting 'triclinic'
loop_
_space_group_symop_operation_xyz
x,y,z
-x,-y,-z
loop_
_atom_site_type_symbol
_atom_site_label
_atom_site_fract_x
_atom_site_fract_y
_atom_site_fract_z
Si Si1 0.442576 0.278295 0.664933
Si Si2 0.087411 0.086212 0.848594
Si Si3 0.273554 0.293607 0.870659
Si Si4 0.648760 0.256186 0.469364
Si Si5 0.344646 0.426714 0.096421
Si Si6 0.386303 0.717081 0.157657
Si Si7 0.158413 0.221490 0.205338
Si Si8 0.326983 0.211940 0.241510
O O1 0.459105 0.357515 0.679457
O O2 0.292554 0.358686 0.445753
O O3 0.664255 0.992716 0.655877
O O4 0.352027 0.407322 0.873577
O O5 0.859997 0.302557 0.815821
O O6 0.154173 0.952543 0.610563
O O7 0.113953 0.170999 0.956082
O O8 0.218095 0.919576 0.009948
O O9 0.059649 0.520996 0.720421
O O10 0.432649 0.062237 0.712528
O O11 0.365010 0.301471 0.051716
O O12 0.248068 0.280109 0.007134
O O13 0.500000 0.500000 0.500000
O O14 0.536480 0.277633 0.276580
O O15 0.712629 0.193422 0.693584
O O16 0.500000 0.500000 0.000000
O O17 0.211018 0.256922 0.222229
#
# Coordination Sequence:
#
# PCOD8005638 Si02
#       8
#     2   2   2   2   2   2   2   2
#     4  11  22  40  63  91 130 169 207 270 315 370
#     4  10  23  44  65  96 127 172 211 263 314 380
#     4  10  22  37  61  88 125 171 210 263 306 384
#     4  12  22  43  71  90 128 170 203 267 325 368
#     4  11  22  44  62  91 134 167 214 261 317 379
#     4  11  22  45  68  96 127 163 214 263 319 381
#     4  10  20  39  61  85 127 166 209 256 316 366
#     4  11  21  38  58  92 125 164 216 259 316 369
#
# _framework density 22.607904999999999
#
# number of rings (size 3 to 8) (size 9 to 14) (size 15 to 20)
#    0.000    1.250    5.000    1.500    0.000    2.000 
#   11.250    1.250    0.000    0.000    0.000    0.000 
#    0.000    0.000    0.000    0.000    0.000    0.000 
#
# Total GULP energy -198318.425411 kJ/mol
# GULP energy per Si atom -12394.901588 kJ/mol
# Density = 2.255645 g / cm^3
# Si number density = 22.607905 Si / 1000 Ang^3
#
#
#
# Elastic Constant Matrix: (Units=GPa)
#
#
# Indices 1 2 3 4 5 6 
#
# 1 91.5311 27.3592 13.6928 5.3629 -5.1873 9.8868
# 2 27.3592 88.4885 33.3835 16.4920 -8.3547 -13.8584
# 3 13.6928 33.3835 68.3120 15.6687 -12.9726 -7.1124
# 4 5.3629 16.4920 15.6687 17.7581 -3.7211 1.7750
# 5 -5.1873 -8.3547 -12.9726 -3.7211 39.5104 9.6008
# 6 9.8868 -13.8584 -7.1124 1.7750 9.6008 28.7042
#
#
#
# Elastic Compliance Matrix: (Units=1/GPa)
#
#
# Indices 1 2 3 4 5 6 
#
# 1 0.013665 -0.005544 -0.001257 0.003575 0.002688 -0.008815
# 2 -0.005544 0.018712 -0.004115 -0.013686 -0.002208 0.011509
# 3 -0.001257 -0.004115 0.021182 -0.014021 0.003799 0.003291
# 4 0.003575 -0.013686 -0.014021 0.083231 0.005236 -0.018211
# 5 0.002688 -0.002208 0.003799 0.005236 0.029683 -0.011302
# 6 -0.008815 0.011509 0.003291 -0.018211 -0.011302 0.049153
#
#
# Mechanical properties :
#
#
# Convention : Reuss Voigt Hill
#
# Bulk Modulus (GPa) = 31.51924 44.13362 37.82643
# Shear Modulus (GPa) = 20.15846 28.78760 24.47303
#
# Velocity S-wave (km/s) = 2.98930 3.57226 3.29370
# Velocity P-wave (km/s) = 5.08788 6.04801 5.58860
#
# Compressibility (1/GPa) = 0.03172666
#
# Stress axis : x y z
#
# Youngs Moduli (GPa) = 73.17702 53.44125 47.21005
#
# Poissons Ratio (x) = 0.29628 0.05936
# Poissons Ratio (y) = 0.40569 0.19427
# Poissons Ratio (z) = 0.09201 0.21992
#
# Static dielectric constant tensor:
#      x y z
#    x 4.336330 0.009470 0.179910 
#    y 0.009470 4.263900 0.287140 
#    z 0.179910 0.287140 3.999100 
# 
# 
# High freq. dielectric constant tensor:
#      x y z
#    x 1.897830 -0.000650 0.010070 
#    y -0.000650 1.883360 0.017560 
#    z 0.010070 0.017560 1.883950 
# 
# From -- ./inp_files/348901.got.cif
#   From: 2010.06.25/outbox.cif.g09.slc.cpg/sg2_175_cif.got.tgz:348901.got - 2010.06.27 13:26:56.
