data_PCOD8005309
_publ_section_title
;
Structure prediction by ZEFSAII (Michael W. Deem and Ramdas Pophale) SiO2 
 PCOD8005309
Probable space group: P -1
;
_chemical_formula_sum "Si O2"
_cell_formula_units_Z 16
_cell_length_a 13.842435
_cell_length_b 10.993741
_cell_length_c 8.553004
_cell_angle_alpha 116.128336
_cell_angle_beta 40.604361
_cell_angle_gamma 117.569106
_cell_volume 741.944100
_symmetry_space_group_name_H-M "P -1"
_symmetry_group_IT_number 2
_symmetry_cell_setting 'triclinic'
loop_
_space_group_symop_operation_xyz
x,y,z
-x,-y,-z
loop_
_atom_site_type_symbol
_atom_site_label
_atom_site_fract_x
_atom_site_fract_y
_atom_site_fract_z
Si Si1 0.848426 0.020892 0.457651
Si Si2 0.240743 0.561385 0.210099
Si Si3 0.670976 0.491267 0.265381
Si Si4 0.625382 0.995137 0.971418
Si Si5 0.743434 0.237318 0.187795
Si Si6 0.624543 0.177415 0.635100
Si Si7 0.935017 0.753205 0.078451
Si Si8 0.971225 0.702683 0.648097
O O1 0.734999 0.095466 0.542488
O O2 0.999588 0.143663 0.379660
O O3 0.893116 0.902714 0.230277
O O4 0.769290 0.957016 0.681388
O O5 0.343612 0.659718 0.265398
O O6 0.193334 0.400427 0.240475
O O7 0.091716 0.619427 0.387660
O O8 0.325928 0.566137 0.945183
O O9 0.500000 0.500000 0.500000
O O10 0.712869 0.388760 0.285152
O O11 0.785570 0.638050 0.238759
O O12 0.681291 0.145773 0.062717
O O13 0.551552 0.886173 0.136001
O O14 0.500000 0.000000 0.000000
O O15 0.649292 0.166405 0.413974
O O16 0.924637 0.251836 0.983295
O O17 0.993542 0.729347 0.821075
#
# Coordination Sequence:
#
# PCOD8005309 Si02
#       8
#     2   2   2   2   2   2   2   2
#     4  10  20  38  66  95 134 172 215 256 333 392
#     4   9  18  38  65  90 127 171 221 250 325 389
#     4  11  26  42  66  95 131 180 221 261 330 398
#     4  10  23  40  65  96 131 180 208 267 330 405
#     4  12  23  43  66  96 129 170 225 277 323 374
#     4  10  21  39  69  97 130 173 219 268 322 389
#     4  11  23  39  67  99 135 167 222 274 317 384
#     4   9  17  35  63  98 124 170 212 260 310 393
#
# _framework density 21.564968
#
# number of rings (size 3 to 8) (size 9 to 14) (size 15 to 20)
#    0.000    1.750    2.500    3.375    5.250    0.500 
#    2.250    0.625    0.000    0.000    0.000    0.000 
#    0.000    0.000    0.000    0.000    0.000    0.000 
#
# Total GULP energy -198312.758464 kJ/mol
# GULP energy per Si atom -12394.547404 kJ/mol
# Density = 2.151589 g / cm^3
# Si number density = 21.564968 Si / 1000 Ang^3
#
#
#
# Elastic Constant Matrix: (Units=GPa)
#
#
# Indices 1 2 3 4 5 6 
#
# 1 63.1542 39.4148 37.5753 -0.7636 -2.3649 16.8679
# 2 39.4148 126.6096 56.1664 -0.5102 -16.0143 18.7173
# 3 37.5753 56.1664 141.2238 -7.0930 1.4901 2.9091
# 4 -0.7636 -0.5102 -7.0930 41.8261 7.3569 2.5959
# 5 -2.3649 -16.0143 1.4901 7.3569 20.2097 1.4166
# 6 16.8679 18.7173 2.9091 2.5959 1.4166 27.5199
#
#
#
# Elastic Compliance Matrix: (Units=1/GPa)
#
#
# Indices 1 2 3 4 5 6 
#
# 1 0.024088 -0.003436 -0.004803 0.000108 0.001252 -0.011994
# 2 -0.003436 0.013545 -0.004573 -0.002351 0.012016 -0.007019
# 3 -0.004803 -0.004573 0.010257 0.002365 -0.006158 0.005064
# 4 0.000108 -0.002351 0.002365 0.026357 -0.011577 -0.000607
# 5 0.001252 0.012016 -0.006158 -0.011577 0.064555 -0.010520
# 6 -0.011994 -0.007019 0.005064 -0.000607 -0.010520 0.048527
#
#
# Mechanical properties :
#
#
# Convention : Reuss Voigt Hill
#
# Bulk Modulus (GPa) = 44.91261 66.36673 55.63967
# Shear Modulus (GPa) = 22.68860 31.09988 26.89424
#
# Velocity S-wave (km/s) = 3.24713 3.80168 3.53530
# Velocity P-wave (km/s) = 5.91019 7.07901 6.52084
#
# Compressibility (1/GPa) = 0.02226546
#
# Stress axis : x y z
#
# Youngs Moduli (GPa) = 41.51369 73.82969 97.49352
#
# Poissons Ratio (x) = 0.25369 0.46829
# Poissons Ratio (y) = 0.14265 0.44583
# Poissons Ratio (z) = 0.19940 0.33761
#
# Static dielectric constant tensor:
#      x y z
#    x 3.405880 0.241620 0.071300 
#    y 0.241620 4.464520 -0.390910 
#    z 0.071300 -0.390910 4.198690 
# 
# 
# High freq. dielectric constant tensor:
#      x y z
#    x 1.798680 0.022820 0.014230 
#    y 0.022820 1.864580 -0.013250 
#    z 0.014230 -0.013250 1.862960 
# 
# From -- ./inp_files/308263.got.cif
#   From: 2010.06.25/outbox.cif.g09.slc.cpg/sg2_155_cif.got.tgz:308263.got - 2010.06.27 13:26:56.
