data_PCOD8005614
_publ_section_title
;
Structure prediction by ZEFSAII (Michael W. Deem and Ramdas Pophale) SiO2 
 PCOD8005614
Probable space group: P -1
;
_chemical_formula_sum "Si O2"
_cell_formula_units_Z 14
_cell_length_a 17.746406
_cell_length_b 12.041651
_cell_length_c 8.545259
_cell_angle_alpha 71.979852
_cell_angle_beta 44.401323
_cell_angle_gamma 37.700476
_cell_volume 626.148988
_symmetry_space_group_name_H-M "P -1"
_symmetry_group_IT_number 2
_symmetry_cell_setting 'triclinic'
loop_
_space_group_symop_operation_xyz
x,y,z
-x,-y,-z
loop_
_atom_site_type_symbol
_atom_site_label
_atom_site_fract_x
_atom_site_fract_y
_atom_site_fract_z
Si Si1 0.921188 0.688549 0.616565
Si Si2 0.672707 0.304021 0.603769
Si Si3 0.730198 0.586888 0.555005
Si Si4 0.485394 0.025425 0.823154
Si Si5 0.646528 0.230129 0.002471
Si Si6 0.724183 0.021176 0.492183
Si Si7 0.000239 0.190672 0.117792
O O1 0.826775 0.868782 0.558333
O O2 0.000000 0.500000 0.500000
O O3 0.108525 0.581993 0.468776
O O4 0.745961 0.805760 0.951197
O O5 0.457905 0.577856 0.809862
O O6 0.862733 0.202207 0.296026
O O7 0.630672 0.233871 0.582662
O O8 0.743499 0.202360 0.718576
O O9 0.530949 0.691014 0.836255
O O10 0.849771 0.438213 0.284047
O O11 0.656569 0.790066 0.576344
O O12 0.534899 0.114608 0.667936
O O13 0.500000 0.000000 0.000000
O O14 0.820920 0.995582 0.936760
O O15 0.902275 0.866743 0.166292
#
# Coordination Sequence:
#
# PCOD8005614 Si02
#       7
#     2   2   2   2   2   2   2
#     4  11  22  42  68  94 120 163 216 259 305 376
#     4  10  22  41  65  91 125 167 218 256 304 374
#     4  11  21  41  67  90 128 163 214 257 305 379
#     4  10  20  39  60  94 121 158 211 253 311 365
#     4  10  22  42  66  92 123 169 214 259 308 368
#     4  11  23  41  64  95 133 164 205 265 315 368
#     4  11  24  42  61  96 132 167 206 256 321 370
#
# _framework density 22.358896999999999
#
# number of rings (size 3 to 8) (size 9 to 14) (size 15 to 20)
#    0.000    1.429    2.857    4.286    0.000    3.429 
#    5.143    1.429    0.000    0.000    0.000    0.000 
#    0.000    0.000    0.000    0.000    0.000    0.000 
#
# Total GULP energy -173570.160292 kJ/mol
# GULP energy per Si atom -12397.868592 kJ/mol
# Density = 2.230801 g / cm^3
# Si number density = 22.358897 Si / 1000 Ang^3
#
#
#
# Elastic Constant Matrix: (Units=GPa)
#
#
# Indices 1 2 3 4 5 6 
#
# 1 87.6748 46.7047 45.4595 3.3627 -6.9275 40.9608
# 2 46.7047 61.0117 40.7497 15.1165 -9.1253 30.1201
# 3 45.4595 40.7497 147.2766 -7.3297 -3.4073 22.3714
# 4 3.3627 15.1165 -7.3297 34.7665 6.8544 2.1737
# 5 -6.9275 -9.1253 -3.4073 6.8544 33.1604 7.1778
# 6 40.9608 30.1201 22.3714 2.1737 7.1778 39.9919
#
#
#
# Elastic Compliance Matrix: (Units=1/GPa)
#
#
# Indices 1 2 3 4 5 6 
#
# 1 0.028520 -0.005483 -0.003352 -0.001456 0.009792 -0.024885
# 2 -0.005483 0.053045 -0.008835 -0.027340 0.025216 -0.032433
# 3 -0.003352 -0.008835 0.009724 0.006813 -0.004647 0.005112
# 4 -0.001456 -0.027340 0.006813 0.045083 -0.020674 0.019532
# 5 0.009792 0.025216 -0.004647 -0.020674 0.050370 -0.034338
# 6 -0.024885 -0.032433 0.005112 0.019532 -0.034338 0.077161
#
#
# Mechanical properties :
#
#
# Convention : Reuss Voigt Hill
#
# Bulk Modulus (GPa) = 17.87347 62.42122 40.14735
# Shear Modulus (GPa) = 15.72848 32.45370 24.09109
#
# Velocity S-wave (km/s) = 2.65515 3.81397 3.28605
# Velocity P-wave (km/s) = 4.17265 6.88285 5.69143
#
# Compressibility (1/GPa) = 0.05594883
#
# Stress axis : x y z
#
# Youngs Moduli (GPa) = 35.06294 18.85177 102.83506
#
# Poissons Ratio (x) = 0.10337 0.34470
# Poissons Ratio (y) = 0.19226 0.90858
# Poissons Ratio (z) = 0.11753 0.16656
#
# Static dielectric constant tensor:
#      x y z
#    x 4.149790 0.368420 -0.221790 
#    y 0.368420 4.136660 0.154460 
#    z -0.221790 0.154460 4.441710 
# 
# 
# High freq. dielectric constant tensor:
#      x y z
#    x 1.879270 0.032460 -0.007780 
#    y 0.032460 1.861170 0.016020 
#    z -0.007780 0.016020 1.891280 
# 
# From -- ./inp_files/333081.got.cif
#   From: 2010.06.25/outbox.cif.g09.slc.cpg/sg2_167_cif.got.tgz:333081.got - 2010.06.27 13:26:56.
