data_PCOD8005341
_publ_section_title
;
Structure prediction by ZEFSAII (Michael W. Deem and Ramdas Pophale) SiO2 
 PCOD8005341
Probable space group: P -1
;
_chemical_formula_sum "Si O2"
_cell_formula_units_Z 16
_cell_length_a 16.743170
_cell_length_b 9.108395
_cell_length_c 9.825634
_cell_angle_alpha 49.871855
_cell_angle_beta 73.517746
_cell_angle_gamma 108.951829
_cell_volume 792.722011
_symmetry_space_group_name_H-M "P -1"
_symmetry_group_IT_number 2
_symmetry_cell_setting 'triclinic'
loop_
_space_group_symop_operation_xyz
x,y,z
-x,-y,-z
loop_
_atom_site_type_symbol
_atom_site_label
_atom_site_fract_x
_atom_site_fract_y
_atom_site_fract_z
Si Si1 0.363906 0.789017 0.218149
Si Si2 0.200417 0.942121 0.613390
Si Si3 0.639683 0.841709 0.121286
Si Si4 0.162985 0.086230 0.050643
Si Si5 0.045731 0.868137 0.512097
Si Si6 0.048795 0.685217 0.099495
Si Si7 0.202145 0.583159 0.660752
Si Si8 0.617851 0.608684 0.558756
O O1 0.313303 0.790700 0.384509
O O2 0.318347 0.497827 0.408728
O O3 0.500000 0.000000 0.000000
O O4 0.318664 0.867722 0.078205
O O5 0.160252 0.996953 0.466943
O O6 0.214591 0.740032 0.691969
O O7 0.327680 0.203725 0.447704
O O8 0.101976 0.825675 0.843616
O O9 0.641939 0.775245 0.314985
O O10 0.519202 0.633096 0.222925
O O11 0.722778 0.838369 0.995333
O O12 0.067758 0.922740 0.309096
O O13 0.126772 0.907776 0.042214
O O14 0.196809 0.356488 0.843773
O O15 0.951132 0.547173 0.759750
O O16 0.000000 0.000000 0.500000
O O17 0.920117 0.559160 0.264498
#
# Coordination Sequence:
#
# PCOD8005341 Si02
#       8
#     2   2   2   2   2   2   2   2
#     4  10  21  40  64  91 121 164 209 259 307 367
#     4  11  22  42  61  90 131 165 199 261 327 365
#     4  10  20  38  67  91 119 157 218 257 300 362
#     4  12  22  40  64  91 122 166 215 255 305 377
#     4  11  24  39  58  93 131 161 206 258 315 376
#     4  11  22  39  63  88 122 171 208 252 311 378
#     4  11  22  39  62  90 130 162 203 264 317 367
#     4  10  21  41  64  90 125 163 206 259 310 372
#
# _framework density 20.183620000000001
#
# number of rings (size 3 to 8) (size 9 to 14) (size 15 to 20)
#    0.000    1.250    2.500    5.250    0.000    2.000 
#    2.250    6.250    0.000    0.000    0.000    0.000 
#    0.000    0.000    0.000    0.000    0.000    0.000 
#
# Total GULP energy -198224.092122 kJ/mol
# GULP energy per Si atom -12389.005758 kJ/mol
# Density = 2.013768 g / cm^3
# Si number density = 20.183620 Si / 1000 Ang^3
#
#
#
# Elastic Constant Matrix: (Units=GPa)
#
#
# Indices 1 2 3 4 5 6 
#
# 1 121.7995 62.0178 42.6235 -15.5830 16.9940 -25.3158
# 2 62.0178 130.1824 30.4178 -8.2798 9.4072 -5.2730
# 3 42.6235 30.4178 89.3394 10.2544 11.7681 -7.5582
# 4 -15.5830 -8.2798 10.2544 26.1799 -14.5251 -1.0523
# 5 16.9940 9.4072 11.7681 -14.5251 49.0394 -6.7639
# 6 -25.3158 -5.2730 -7.5582 -1.0523 -6.7639 33.3218
#
#
#
# Elastic Compliance Matrix: (Units=1/GPa)
#
#
# Indices 1 2 3 4 5 6 
#
# 1 0.017215 -0.005384 -0.007208 0.013078 0.002251 0.011462
# 2 -0.005384 0.010466 -0.001266 0.000446 -0.000082 -0.002724
# 3 -0.007208 -0.001266 0.017352 -0.015183 -0.006406 -0.003521
# 4 0.013078 0.000446 -0.015183 0.063413 0.019537 0.012531
# 5 0.002251 -0.000082 -0.006406 0.019537 0.027850 0.006515
# 6 0.011462 -0.002724 -0.003521 0.012531 0.006515 0.039207
#
#
# Mechanical properties :
#
#
# Convention : Reuss Voigt Hill
#
# Bulk Modulus (GPa) = 57.74363 67.93773 62.84068
# Shear Modulus (GPa) = 23.92442 35.45903 29.69172
#
# Velocity S-wave (km/s) = 3.44661 4.19599 3.83963
# Velocity P-wave (km/s) = 6.67159 7.56360 7.13155
#
# Compressibility (1/GPa) = 0.01731793
#
# Stress axis : x y z
#
# Youngs Moduli (GPa) = 58.08727 95.54742 57.63024
#
# Poissons Ratio (x) = 0.51440 0.41542
# Poissons Ratio (y) = 0.31272 0.07295
# Poissons Ratio (z) = 0.41871 0.12094
#
# Static dielectric constant tensor:
#      x y z
#    x 3.965610 -0.233490 0.078470 
#    y -0.233490 3.609690 -0.128530 
#    z 0.078470 -0.128530 3.969510 
# 
# 
# High freq. dielectric constant tensor:
#      x y z
#    x 1.798730 -0.018360 0.006670 
#    y -0.018360 1.770510 -0.006030 
#    z 0.006670 -0.006030 1.800230 
# 
# From -- ./inp_files/227239.got.cif
#   From: 2010.06.25/outbox.cif.g09.slc.cpg/sg2_114_cif.got.tgz:227239.got - 2010.06.27 13:26:56.
