data_PCOD8005211
_publ_section_title
;
Structure prediction by ZEFSAII (Michael W. Deem and Ramdas Pophale) SiO2 
 PCOD8005211
Probable space group: P -1
;
_chemical_formula_sum "Si O2"
_cell_formula_units_Z 16
_cell_length_a 10.892902
_cell_length_b 19.328451
_cell_length_c 8.217054
_cell_angle_alpha 36.530998
_cell_angle_beta 120.147323
_cell_angle_gamma 135.769618
_cell_volume 706.990032
_symmetry_space_group_name_H-M "P -1"
_symmetry_group_IT_number 2
_symmetry_cell_setting 'triclinic'
loop_
_space_group_symop_operation_xyz
x,y,z
-x,-y,-z
loop_
_atom_site_type_symbol
_atom_site_label
_atom_site_fract_x
_atom_site_fract_y
_atom_site_fract_z
Si Si1 0.811518 0.161358 0.498801
Si Si2 0.815168 0.944602 0.404737
Si Si3 0.803777 0.525851 0.409490
Si Si4 0.669593 0.318613 0.232485
Si Si5 0.485660 0.359688 0.312831
Si Si6 0.996558 0.583088 0.092103
Si Si7 0.949353 0.817177 0.123567
Si Si8 0.328849 0.122246 0.222189
O O1 0.712508 0.201806 0.477432
O O2 0.987674 0.194155 0.637108
O O3 0.672860 0.991031 0.679958
O O4 0.874716 0.254002 0.199197
O O5 0.719509 0.787521 0.543652
O O6 0.699851 0.932176 0.504893
O O7 0.000000 0.000000 0.500000
O O8 0.866174 0.066696 0.073879
O O9 0.589254 0.401407 0.475795
O O10 0.898460 0.578446 0.196859
O O11 0.828254 0.662723 0.246419
O O12 0.882660 0.467994 0.688876
O O13 0.584699 0.314036 0.354225
O O14 0.858469 0.481295 0.045293
O O15 0.531028 0.277965 0.067599
O O16 0.500000 0.500000 0.000000
O O17 0.821820 0.865297 0.966512
#
# Coordination Sequence:
#
# PCOD8005211 Si02
#       8
#     2   2   2   2   2   2   2   2
#     4  12  23  40  61  86 127 165 203 248 307 367
#     4   9  19  38  62  90 117 157 205 247 305 356
#     4  10  20  39  64  90 118 156 210 251 301 361
#     4  10  21  39  61  88 120 160 202 248 304 358
#     4  10  20  38  65  94 123 154 202 261 303 355
#     4  10  22  40  63  88 119 165 202 249 307 367
#     4  11  22  39  64  90 123 159 206 255 304 364
#     4  10  22  41  60  87 121 164 202 251 306 356
#
# _framework density 22.631155
#
# number of rings (size 3 to 8) (size 9 to 14) (size 15 to 20)
#    0.000    1.750    1.250    4.125    0.000    3.000 
#    4.500    1.875    0.000    0.000    0.000    0.000 
#    0.000    0.000    0.000    0.000    0.000    0.000 
#
# Total GULP energy -198247.918043 kJ/mol
# GULP energy per Si atom -12390.494878 kJ/mol
# Density = 2.257965 g / cm^3
# Si number density = 22.631155 Si / 1000 Ang^3
#
#
#
# Elastic Constant Matrix: (Units=GPa)
#
#
# Indices 1 2 3 4 5 6 
#
# 1 49.9103 25.2380 23.0593 7.0013 17.6233 -3.7473
# 2 25.2380 172.7117 37.7047 -16.7003 7.4365 8.3322
# 3 23.0593 37.7047 85.9261 7.3498 8.1352 -2.7415
# 4 7.0013 -16.7003 7.3498 28.8623 -2.6722 10.6781
# 5 17.6233 7.4365 8.1352 -2.6722 24.3727 -5.1393
# 6 -3.7473 8.3322 -2.7415 10.6781 -5.1393 34.8354
#
#
#
# Elastic Compliance Matrix: (Units=1/GPa)
#
#
# Indices 1 2 3 4 5 6 
#
# 1 0.034760 -0.005032 -0.003517 -0.014709 -0.022813 0.005809
# 2 -0.005032 0.008314 -0.003442 0.009051 0.002134 -0.005260
# 3 -0.003517 -0.003442 0.014864 -0.006285 -0.001353 0.003342
# 4 -0.014709 0.009051 -0.006285 0.053094 0.011835 -0.018771
# 5 -0.022813 0.002134 -0.001353 0.011835 0.059047 0.002013
# 6 0.005809 -0.005260 0.003342 -0.018771 0.002013 0.036903
#
#
# Mechanical properties :
#
#
# Convention : Reuss Voigt Hill
#
# Bulk Modulus (GPa) = 29.44912 53.39468 41.42190
# Shear Modulus (GPa) = 20.63706 32.45048 26.54377
#
# Velocity S-wave (km/s) = 3.02302 3.79078 3.42846
# Velocity P-wave (km/s) = 5.02253 6.54253 5.83226
#
# Compressibility (1/GPa) = 0.03395687
#
# Stress axis : x y z
#
# Youngs Moduli (GPa) = 28.76866 120.28161 67.27534
#
# Poissons Ratio (x) = 0.60525 0.23660
# Poissons Ratio (y) = 0.14476 0.23155
# Poissons Ratio (z) = 0.10117 0.41399
#
# Static dielectric constant tensor:
#      x y z
#    x 4.204910 0.282120 -0.183940 
#    y 0.282120 4.782230 -0.205650 
#    z -0.183940 -0.205650 4.172210 
# 
# 
# High freq. dielectric constant tensor:
#      x y z
#    x 1.876520 0.002570 0.016930 
#    y 0.002570 1.926080 -0.005530 
#    z 0.016930 -0.005530 1.862070 
# 
# From -- ./inp_files/282659.got.cif
#   From: 2010.06.25/outbox.cif.g09.slc.cpg/sg2_142_cif.got.tgz:282659.got - 2010.06.27 13:26:56.
