data_PCOD8005394
_publ_section_title
;
Structure prediction by ZEFSAII (Michael W. Deem and Ramdas Pophale) SiO2 
 PCOD8005394
Probable space group: P -1
;
_chemical_formula_sum "Si O2"
_cell_formula_units_Z 16
_cell_length_a 12.389105
_cell_length_b 9.239766
_cell_length_c 8.591369
_cell_angle_alpha 49.365440
_cell_angle_beta 63.960618
_cell_angle_gamma 80.454748
_cell_volume 660.102402
_symmetry_space_group_name_H-M "P -1"
_symmetry_group_IT_number 2
_symmetry_cell_setting 'triclinic'
loop_
_space_group_symop_operation_xyz
x,y,z
-x,-y,-z
loop_
_atom_site_type_symbol
_atom_site_label
_atom_site_fract_x
_atom_site_fract_y
_atom_site_fract_z
Si Si1 0.952135 0.021157 0.686594
Si Si2 0.227874 0.600516 0.052685
Si Si3 0.029578 0.560138 0.612401
Si Si4 0.801358 0.976692 0.294753
Si Si5 0.393145 0.573723 0.670867
Si Si6 0.552618 0.393389 0.902298
Si Si7 0.793279 0.707388 0.199833
Si Si8 0.426546 0.004988 0.383209
O O1 0.898411 0.220589 0.581110
O O2 0.063195 0.035553 0.727507
O O3 0.000000 0.000000 0.500000
O O4 0.841388 0.855520 0.925949
O O5 0.103608 0.447387 0.219344
O O6 0.308320 0.564660 0.881327
O O7 0.300232 0.573909 0.188003
O O8 0.196703 0.814744 0.928349
O O9 0.000000 0.500000 0.500000
O O10 0.102825 0.420113 0.753105
O O11 0.762297 0.815690 0.299541
O O12 0.706209 0.945539 0.521558
O O13 0.329352 0.435594 0.672578
O O14 0.420866 0.798783 0.443124
O O15 0.515716 0.487329 0.698500
O O16 0.495190 0.165005 0.109603
O O17 0.500000 0.500000 0.000000
O O18 0.500000 0.000000 0.500000
#
# Coordination Sequence:
#
# PCOD8005394 Si02
#       8
#     2   2   2   2   2   2   2   2
#     4  12  27  41  69 100 132 181 228 273 325 402
#     4  10  21  41  68  94 126 175 227 273 323 387
#     4  12  25  42  67  98 135 181 220 264 342 403
#     4  11  23  43  68  94 134 182 209 281 339 389
#     4  10  24  39  66  96 128 173 213 281 326 387
#     4  10  20  38  68  95 125 164 225 276 322 384
#     4  12  26  46  61 100 148 169 218 279 340 400
#     4  11  21  41  69  96 122 169 234 267 323 396
#
# _framework density 24.238665000000001
#
# number of rings (size 3 to 8) (size 9 to 14) (size 15 to 20)
#    0.000    1.000    6.250    1.875    8.750    1.000 
#    0.000    1.250    0.000    0.000    0.000    0.000 
#    0.000    0.000    0.000    0.000    0.000    0.000 
#
# Total GULP energy -198399.311767 kJ/mol
# GULP energy per Si atom -12399.956985 kJ/mol
# Density = 2.418350 g / cm^3
# Si number density = 24.238665 Si / 1000 Ang^3
#
#
#
# Elastic Constant Matrix: (Units=GPa)
#
#
# Indices 1 2 3 4 5 6 
#
# 1 85.9957 18.0966 17.8895 -11.2501 16.3284 7.9254
# 2 18.0966 127.2633 41.2500 -27.4916 11.4536 16.8115
# 3 17.8895 41.2500 96.0526 -29.8395 6.6772 -3.5122
# 4 -11.2501 -27.4916 -29.8395 35.2208 -1.5977 -1.2000
# 5 16.3284 11.4536 6.6772 -1.5977 21.9133 -4.0691
# 6 7.9254 16.8115 -3.5122 -1.2000 -4.0691 40.3051
#
#
#
# Elastic Compliance Matrix: (Units=1/GPa)
#
#
# Indices 1 2 3 4 5 6 
#
# 1 0.014812 0.000695 -0.001337 0.003467 -0.011553 -0.004382
# 2 0.000695 0.011294 -0.002840 0.006164 -0.006133 -0.005530
# 3 -0.001337 -0.002840 0.015265 0.010352 -0.000859 0.002999
# 4 0.003467 0.006164 0.010352 0.042744 -0.006159 -0.001700
# 5 -0.011553 -0.006133 -0.000859 -0.006159 0.059220 0.010550
# 6 -0.004382 -0.005530 0.002999 -0.001700 0.010550 0.029255
#
#
# Mechanical properties :
#
#
# Convention : Reuss Voigt Hill
#
# Bulk Modulus (GPa) = 29.06548 51.53152 40.29850
# Shear Modulus (GPa) = 26.17482 34.95955 30.56718
#
# Velocity S-wave (km/s) = 3.28972 3.80189 3.55504
# Velocity P-wave (km/s) = 5.14267 6.37014 5.78903
#
# Compressibility (1/GPa) = 0.03440508
#
# Stress axis : x y z
#
# Youngs Moduli (GPa) = 67.51506 88.54494 65.50907
#
# Poissons Ratio (x) = -0.06152 0.08758
# Poissons Ratio (y) = -0.04691 0.18608
# Poissons Ratio (z) = 0.09026 0.25151
#
# Static dielectric constant tensor:
#      x y z
#    x 2.571200 -0.167040 1.142840 
#    y -0.167040 4.331110 -0.294750 
#    z 1.142840 -0.294750 4.239080 
# 
# 
# High freq. dielectric constant tensor:
#      x y z
#    x 1.966610 -0.006980 0.000030 
#    y -0.006980 1.958330 -0.021780 
#    z 0.000030 -0.021780 1.962960 
# 
# From -- ./inp_files/242037.got.cif
#   From: 2010.06.25/outbox.cif.g09.slc.cpg/sg2_122_cif.got.tgz:242037.got - 2010.06.27 13:26:56.
