data_PCOD8005495
_publ_section_title
;
Structure prediction by ZEFSAII (Michael W. Deem and Ramdas Pophale) SiO2 
 PCOD8005495
Probable space group: P -1
;
_chemical_formula_sum "Si O2"
_cell_formula_units_Z 14
_cell_length_a 17.665152
_cell_length_b 7.647018
_cell_length_c 7.167324
_cell_angle_alpha 39.956262
_cell_angle_beta 82.472208
_cell_angle_gamma 69.461888
_cell_volume 566.743257
_symmetry_space_group_name_H-M "P -1"
_symmetry_group_IT_number 2
_symmetry_cell_setting 'triclinic'
loop_
_space_group_symop_operation_xyz
x,y,z
-x,-y,-z
loop_
_atom_site_type_symbol
_atom_site_label
_atom_site_fract_x
_atom_site_fract_y
_atom_site_fract_z
Si Si1 0.410554 0.826475 0.073231
Si Si2 0.211057 0.396010 0.373090
Si Si3 0.860804 0.577713 0.267870
Si Si4 0.602034 0.559112 0.287321
Si Si5 0.696453 0.253919 0.148101
Si Si6 0.908796 0.923930 0.695025
Si Si7 0.033188 0.536812 0.242216
O O1 0.508975 0.647064 0.172172
O O2 0.373731 0.704553 0.355609
O O3 0.375804 0.782597 0.920219
O O4 0.386956 0.171098 0.833192
O O5 0.220760 0.327994 0.650439
O O6 0.111412 0.596999 0.248078
O O7 0.242871 0.072951 0.530057
O O8 0.256240 0.596419 0.119073
O O9 0.948522 0.554566 0.369206
O O10 0.874011 0.275263 0.405258
O O11 0.842885 0.823285 0.911026
O O12 0.661849 0.457213 0.172767
O O13 0.924255 0.792841 0.589821
O O14 0.997468 0.784580 0.887804
#
# Coordination Sequence:
#
# PCOD8005495 Si02
#       7
#     2   2   2   2   2   2   2
#     4  10  22  45  75 102 128 173 223 259 312 390
#     4  12  26  39  59  90 135 170 206 258 346 382
#     4  10  20  39  58  83 110 165 216 266 307 375
#     4  10  22  45  76 100 128 175 221 262 312 381
#     4  12  26  45  60 104 143 170 208 269 331 396
#     4   9  20  36  63  81 110 148 231 274 318 350
#     4   9  22  38  60  85 113 162 223 271 309 382
#
# _framework density 24.702545000000001
#
# number of rings (size 3 to 8) (size 9 to 14) (size 15 to 20)
#    0.857    0.857    0.000    3.857    2.000    0.571 
#   15.429    5.714    0.000    0.000    0.000    0.000 
#    0.000    0.000    0.000    0.000    0.000    0.000 
#
# Total GULP energy -173474.671118 kJ/mol
# GULP energy per Si atom -12391.047937 kJ/mol
# Density = 2.464632 g / cm^3
# Si number density = 24.702545 Si / 1000 Ang^3
#
#
#
# Elastic Constant Matrix: (Units=GPa)
#
#
# Indices 1 2 3 4 5 6 
#
# 1 52.7601 13.7624 30.6858 11.2738 -12.2689 -11.8205
# 2 13.7624 76.5251 -9.8344 2.8597 -14.9159 -11.7368
# 3 30.6858 -9.8344 68.8068 -0.6989 -29.2134 5.7446
# 4 11.2738 2.8597 -0.6989 31.1786 -2.0609 -11.4820
# 5 -12.2689 -14.9159 -29.2134 -2.0609 37.9559 -0.3759
# 6 -11.8205 -11.7368 5.7446 -11.4820 -0.3759 15.6513
#
#
#
# Elastic Compliance Matrix: (Units=1/GPa)
#
#
# Indices 1 2 3 4 5 6 
#
# 1 0.042963 -0.007980 -0.027512 -0.003736 -0.010294 0.033573
# 2 -0.007980 0.020212 0.012156 0.005695 0.015120 0.009209
# 3 -0.027512 0.012156 0.042848 0.002551 0.028755 -0.024827
# 4 -0.003736 0.005695 0.002551 0.046017 0.005833 0.034411
# 5 -0.010294 0.015120 0.028755 0.005833 0.051395 -0.001477
# 6 0.033573 0.009209 -0.024827 0.034411 -0.001477 0.130475
#
#
# Mechanical properties :
#
#
# Convention : Reuss Voigt Hill
#
# Bulk Modulus (GPa) = 16.84920 29.70219 23.27569
# Shear Modulus (GPa) = 12.48860 27.85571 20.17216
#
# Velocity S-wave (km/s) = 2.25090 3.36169 2.86073
# Velocity P-wave (km/s) = 3.68661 5.20749 4.51160
#
# Compressibility (1/GPa) = 0.05935001
#
# Stress axis : x y z
#
# Youngs Moduli (GPa) = 23.27587 49.47658 23.33837
#
# Poissons Ratio (x) = 0.39482 0.64209
# Poissons Ratio (y) = 0.18574 -0.28370
# Poissons Ratio (z) = 0.64037 -0.60144
#
# Static dielectric constant tensor:
#      x y z
#    x 4.466060 -0.125660 -0.023360 
#    y -0.125660 4.301780 0.103740 
#    z -0.023360 0.103740 4.267440 
# 
# 
# High freq. dielectric constant tensor:
#      x y z
#    x 1.979340 -0.005320 -0.009080 
#    y -0.005320 1.984140 0.009650 
#    z -0.009080 0.009650 1.985340 
# 
# From -- ./inp_files/328269.got.cif
#   From: 2010.06.25/outbox.cif.g09.slc.cpg/sg2_165_cif.got.tgz:328269.got - 2010.06.27 13:26:56.
