data_PCOD8005804
_publ_section_title
;
Structure prediction by ZEFSAII (Michael W. Deem and Ramdas Pophale) SiO2 
 PCOD8005804
Probable space group: P -1
;
_chemical_formula_sum "Si O2"
_cell_formula_units_Z 16
_cell_length_a 21.716344
_cell_length_b 18.447494
_cell_length_c 12.462765
_cell_angle_alpha 139.640648
_cell_angle_beta 29.836929
_cell_angle_gamma 161.096387
_cell_volume 749.589766
_symmetry_space_group_name_H-M "P -1"
_symmetry_group_IT_number 2
_symmetry_cell_setting 'triclinic'
loop_
_space_group_symop_operation_xyz
x,y,z
-x,-y,-z
loop_
_atom_site_type_symbol
_atom_site_label
_atom_site_fract_x
_atom_site_fract_y
_atom_site_fract_z
Si Si1 0.716909 0.490064 0.301153
Si Si2 0.753266 0.545852 0.919969
Si Si3 0.688718 0.696197 0.029432
Si Si4 0.779583 0.531772 0.486336
Si Si5 0.301111 0.679733 0.429685
Si Si6 0.843485 0.969587 0.436645
Si Si7 0.889040 0.224943 0.171006
Si Si8 0.269731 0.240626 0.421109
O O1 0.846902 0.546676 0.279499
O O2 0.648483 0.566399 0.504388
O O3 0.432920 0.201703 0.385044
O O4 0.920154 0.633349 0.059459
O O5 0.743507 0.652559 0.990573
O O6 0.481474 0.321719 0.145340
O O7 0.790594 0.474356 0.700481
O O8 0.993173 0.735648 0.855505
O O9 0.529657 0.676049 0.290383
O O10 0.500000 0.500000 0.000000
O O11 0.980419 0.955832 0.833725
O O12 0.795025 0.443740 0.448753
O O13 0.986001 0.793593 0.502970
O O14 0.159179 0.683475 0.630243
O O15 0.618004 0.942687 0.239434
O O16 0.764380 0.809601 0.458713
O O17 0.000000 0.000000 0.500000
#
# Coordination Sequence:
#
# PCOD8005804 Si02
#       8
#     2   2   2   2   2   2   2   2
#     4  12  25  41  64 101 136 166 214 270 327 396
#     4  12  22  44  70  96 132 170 221 274 323 397
#     4  10  20  39  63 100 131 166 216 259 334 395
#     4  11  24  42  66  96 133 178 209 267 334 387
#     4  11  26  48  70  90 132 177 228 278 316 382
#     4  11  23  39  61  98 137 170 211 261 333 396
#     4  11  28  45  67 100 124 180 231 267 325 385
#     4  12  22  38  65 101 136 173 206 264 343 393
#
# _framework density 21.345006999999999
#
# number of rings (size 3 to 8) (size 9 to 14) (size 15 to 20)
#    0.000    0.750    6.250    2.250    3.500    1.000 
#    0.000    0.625    0.000    0.000    0.000    0.000 
#    0.000    0.000    0.000    0.000    0.000    0.000 
#
# Total GULP energy -198383.274298 kJ/mol
# GULP energy per Si atom -12398.954644 kJ/mol
# Density = 2.129643 g / cm^3
# Si number density = 21.345007 Si / 1000 Ang^3
#
#
#
# Elastic Constant Matrix: (Units=GPa)
#
#
# Indices 1 2 3 4 5 6 
#
# 1 121.7975 27.2281 38.2519 -14.0709 11.6374 3.7219
# 2 27.2281 46.0620 20.1296 -16.2668 11.0802 8.6944
# 3 38.2519 20.1296 70.4576 -9.3649 12.9394 9.7606
# 4 -14.0709 -16.2668 -9.3649 27.2573 -3.8997 1.8157
# 5 11.6374 11.0802 12.9394 -3.8997 33.3125 -4.4320
# 6 3.7219 8.6944 9.7606 1.8157 -4.4320 34.5105
#
#
#
# Elastic Compliance Matrix: (Units=1/GPa)
#
#
# Indices 1 2 3 4 5 6 
#
# 1 0.010692 -0.003894 -0.004563 0.001511 -0.000359 0.000993
# 2 -0.003894 0.035288 -0.002717 0.017538 -0.008562 -0.009724
# 3 -0.004563 -0.002717 0.019470 0.002271 -0.005484 -0.005154
# 4 0.001511 0.017538 0.002271 0.048883 -0.002602 -0.008130
# 5 -0.000359 -0.008562 -0.005484 -0.002602 0.035949 0.008501
# 6 0.000993 -0.009724 -0.005154 -0.008130 0.008501 0.034296
#
#
# Mechanical properties :
#
#
# Convention : Reuss Voigt Hill
#
# Bulk Modulus (GPa) = 23.20120 45.50403 34.35261
# Shear Modulus (GPa) = 22.59439 29.19658 25.89548
#
# Velocity S-wave (km/s) = 3.25704 3.70245 3.48686
# Velocity P-wave (km/s) = 5.00376 6.29620 5.68681
#
# Compressibility (1/GPa) = 0.04310121
#
# Stress axis : x y z
#
# Youngs Moduli (GPa) = 93.52351 28.33841 51.36193
#
# Poissons Ratio (x) = 0.11035 0.23439
# Poissons Ratio (y) = 0.36418 0.13955
# Poissons Ratio (z) = 0.42679 0.07699
#
# Static dielectric constant tensor:
#      x y z
#    x 4.066890 -0.027350 0.266980 
#    y -0.027350 4.035630 -0.077730 
#    z 0.266980 -0.077730 3.116390 
# 
# 
# High freq. dielectric constant tensor:
#      x y z
#    x 1.852790 0.010080 0.020260 
#    y 0.010080 1.833800 -0.016830 
#    z 0.020260 -0.016830 1.828780 
# 
# From -- ./inp_files/428092.got.cif
#   From: 2010.06.25/outbox.cif.g09.slc.cpg/sg2_215_cif.got.tgz:428092.got - 2010.06.27 13:26:56.
