data_PCOD8005395
_publ_section_title
;
Structure prediction by ZEFSAII (Michael W. Deem and Ramdas Pophale) SiO2 
 PCOD8005395
Probable space group: P -1
;
_chemical_formula_sum "Si O2"
_cell_formula_units_Z 16
_cell_length_a 11.561189
_cell_length_b 13.074373
_cell_length_c 7.873664
_cell_angle_alpha 136.029902
_cell_angle_beta 64.950361
_cell_angle_gamma 97.445344
_cell_volume 718.970199
_symmetry_space_group_name_H-M "P -1"
_symmetry_group_IT_number 2
_symmetry_cell_setting 'triclinic'
loop_
_space_group_symop_operation_xyz
x,y,z
-x,-y,-z
loop_
_atom_site_type_symbol
_atom_site_label
_atom_site_fract_x
_atom_site_fract_y
_atom_site_fract_z
Si Si1 0.758623 0.426377 0.271785
Si Si2 0.572919 0.065649 0.887282
Si Si3 0.261272 0.195366 0.748928
Si Si4 0.668760 0.529879 0.089681
Si Si5 0.638359 0.338830 0.579463
Si Si6 0.301302 0.249839 0.172261
Si Si7 0.228183 0.958970 0.991797
Si Si8 0.986023 0.126914 0.802585
O O1 0.684744 0.443142 0.155839
O O2 0.669650 0.387331 0.429728
O O3 0.781644 0.589217 0.504461
O O4 0.897645 0.296762 0.008469
O O5 0.620133 0.946427 0.561714
O O6 0.459791 0.215478 0.072476
O O7 0.701358 0.098952 0.936323
O O8 0.500000 0.000000 0.000000
O O9 0.246905 0.344398 0.814823
O O10 0.128286 0.143460 0.784080
O O11 0.295290 0.250291 0.975365
O O12 0.517801 0.620702 0.252445
O O13 0.711999 0.407687 0.763528
O O14 0.693797 0.153872 0.339120
O O15 0.230400 0.129982 0.154238
O O16 0.080058 0.938805 0.075314
O O17 0.000000 0.000000 0.500000
#
# Coordination Sequence:
#
# PCOD8005395 Si02
#       8
#     2   2   2   2   2   2   2   2
#     4  11  24  45  70  97 136 186 221 280 345 400
#     4  10  20  38  68  95 134 171 219 278 343 398
#     4  12  24  43  66 102 141 179 230 281 333 410
#     4  11  22  41  69 102 140 174 227 284 342 403
#     4  10  22  42  66 104 140 172 223 285 342 409
#     4  11  23  41  70 107 132 177 228 281 352 400
#     4  10  21  44  67  95 139 179 224 279 339 400
#     4  11  26  47  68  95 134 184 235 276 330 414
#
# _framework density 22.254052000000001
#
# number of rings (size 3 to 8) (size 9 to 14) (size 15 to 20)
#    0.000    1.250    2.500    4.500    0.000    3.500 
#    0.000    0.000    0.000    0.000    0.000    0.000 
#    0.000    0.000    0.000    0.000    0.000    0.000 
#
# Total GULP energy -198340.406680 kJ/mol
# GULP energy per Si atom -12396.275418 kJ/mol
# Density = 2.220340 g / cm^3
# Si number density = 22.254052 Si / 1000 Ang^3
#
#
#
# Elastic Constant Matrix: (Units=GPa)
#
#
# Indices 1 2 3 4 5 6 
#
# 1 65.1002 30.3908 35.6681 -7.9557 3.5606 8.4217
# 2 30.3908 83.5585 40.9489 2.6738 6.1571 7.6422
# 3 35.6681 40.9489 170.2753 17.9009 12.6552 -6.0926
# 4 -7.9557 2.6738 17.9009 41.4015 -1.5382 8.2215
# 5 3.5606 6.1571 12.6552 -1.5382 34.2475 -5.9150
# 6 8.4217 7.6422 -6.0926 8.2215 -5.9150 32.3119
#
#
#
# Elastic Compliance Matrix: (Units=1/GPa)
#
#
# Indices 1 2 3 4 5 6 
#
# 1 0.022331 -0.005475 -0.004427 0.008028 -0.000640 -0.007520
# 2 -0.005475 0.015621 -0.002533 -0.000444 -0.001836 -0.002968
# 3 -0.004427 -0.002533 0.008226 -0.005162 -0.001609 0.004323
# 4 0.008028 -0.000444 -0.005162 0.030065 0.000692 -0.010484
# 5 -0.000640 -0.001836 -0.001609 0.000692 0.031230 0.005838
# 6 -0.007520 -0.002968 0.004323 -0.010484 0.005838 0.038162
#
#
# Mechanical properties :
#
#
# Convention : Reuss Voigt Hill
#
# Bulk Modulus (GPa) = 46.92653 59.21664 53.07158
# Shear Modulus (GPa) = 28.15222 35.72061 31.93641
#
# Velocity S-wave (km/s) = 3.56060 4.01075 3.79236
# Velocity P-wave (km/s) = 6.16736 6.93652 6.56322
#
# Compressibility (1/GPa) = 0.02130991
#
# Stress axis : x y z
#
# Youngs Moduli (GPa) = 44.78101 64.01621 121.56266
#
# Poissons Ratio (x) = 0.35046 0.53812
# Poissons Ratio (y) = 0.24515 0.30791
# Poissons Ratio (z) = 0.19823 0.16215
#
# Static dielectric constant tensor:
#      x y z
#    x 4.523450 0.055470 0.140590 
#    y 0.055470 4.015880 0.098900 
#    z 0.140590 0.098900 4.411650 
# 
# 
# High freq. dielectric constant tensor:
#      x y z
#    x 1.857580 0.011350 0.016850 
#    y 0.011350 1.873410 0.001770 
#    z 0.016850 0.001770 1.895690 
# 
# From -- ./inp_files/274579.got.cif
#   From: 2010.06.25/outbox.cif.g09.slc.cpg/sg2_138_cif.got.tgz:274579.got - 2010.06.27 13:26:56.
