data_PCOD8005121
_publ_section_title
;
Structure prediction by ZEFSAII (Michael W. Deem and Ramdas Pophale) SiO2 
 PCOD8005121
Probable space group: P -1
;
_chemical_formula_sum "Si O2"
_cell_formula_units_Z 16
_cell_length_a 10.097802
_cell_length_b 11.276760
_cell_length_c 9.662265
_cell_angle_alpha 100.637102
_cell_angle_beta 136.322237
_cell_angle_gamma 90.492710
_cell_volume 730.225944
_symmetry_space_group_name_H-M "P -1"
_symmetry_group_IT_number 2
_symmetry_cell_setting 'triclinic'
loop_
_space_group_symop_operation_xyz
x,y,z
-x,-y,-z
loop_
_atom_site_type_symbol
_atom_site_label
_atom_site_fract_x
_atom_site_fract_y
_atom_site_fract_z
Si Si1 0.199422 0.206856 0.639496
Si Si2 0.596554 0.874046 0.686653
Si Si3 0.416563 0.608508 0.029425
Si Si4 0.748349 0.998275 0.557141
Si Si5 0.341238 0.617423 0.488513
Si Si6 0.115995 0.637190 0.590909
Si Si7 0.126380 0.195355 0.900508
Si Si8 0.283693 0.465206 0.155058
O O1 0.404749 0.287421 0.757233
O O2 0.209471 0.200238 0.810251
O O3 0.021550 0.266597 0.466693
O O4 0.171266 0.071165 0.523661
O O5 0.460874 0.972223 0.634454
O O6 0.464367 0.738642 0.533309
O O7 0.728028 0.912059 0.658380
O O8 0.739123 0.877319 0.925238
O O9 0.272964 0.553234 0.034771
O O10 0.500000 0.500000 0.000000
O O11 0.295909 0.670634 0.840126
O O12 0.901416 0.126057 0.727064
O O13 0.188667 0.651996 0.490304
O O14 0.221848 0.528088 0.261333
O O15 0.490020 0.548209 0.666104
O O16 0.000000 0.500000 0.500000
O O17 0.137847 0.333270 0.996771
#
# Coordination Sequence:
#
# PCOD8005121 Si02
#       8
#     2   2   2   2   2   2   2   2
#     4  12  25  41  64  94 127 166 208 258 312 371
#     4  10  23  44  67  89 123 168 210 261 314 364
#     4  12  20  41  66  91 132 162 204 254 311 374
#     4  11  25  44  64  90 125 165 216 259 309 371
#     4  10  20  38  65  93 126 164 207 253 317 374
#     4  12  23  39  64  96 132 164 200 256 319 375
#     4  11  22  41  65  91 128 163 207 262 308 369
#     4  10  20  38  64  96 126 165 203 256 316 369
#
# _framework density 21.911024999999999
#
# number of rings (size 3 to 8) (size 9 to 14) (size 15 to 20)
#    0.000    1.000    3.750    3.000    0.000    3.500 
#    0.000   10.625    0.000    0.000    0.000    0.000 
#    0.000    0.000    0.000    0.000    0.000    0.000 
#
# Total GULP energy -198526.455578 kJ/mol
# GULP energy per Si atom -12407.903474 kJ/mol
# Density = 2.186115 g / cm^3
# Si number density = 21.911025 Si / 1000 Ang^3
#
#
#
# Elastic Constant Matrix: (Units=GPa)
#
#
# Indices 1 2 3 4 5 6 
#
# 1 89.0985 39.3341 39.9806 6.6660 -6.8679 4.1788
# 2 39.3341 77.7655 44.5559 1.8156 -9.4888 6.2957
# 3 39.9806 44.5559 111.8516 -0.4329 -6.3496 -5.6322
# 4 6.6660 1.8156 -0.4329 46.1661 2.9764 4.3645
# 5 -6.8679 -9.4888 -6.3496 2.9764 33.1461 1.0269
# 6 4.1788 6.2957 -5.6322 4.3645 1.0269 45.7502
#
#
#
# Elastic Compliance Matrix: (Units=1/GPa)
#
#
# Indices 1 2 3 4 5 6 
#
# 1 0.015484 -0.005715 -0.003243 -0.002035 0.001160 -0.000859
# 2 -0.005715 0.019713 -0.005764 0.000056 0.003442 -0.002983
# 3 -0.003243 -0.005764 0.012525 0.000572 -0.000054 0.002578
# 4 -0.002035 0.000056 0.000572 0.022275 -0.002240 -0.001826
# 5 0.001160 0.003442 -0.000054 -0.002240 0.031620 -0.001082
# 6 -0.000859 -0.002983 0.002578 -0.001826 -0.001082 0.022863
#
#
# Mechanical properties :
#
#
# Convention : Reuss Voigt Hill
#
# Bulk Modulus (GPa) = 54.71574 58.49521 56.60548
# Shear Modulus (GPa) = 31.24694 35.33549 33.29122
#
# Velocity S-wave (km/s) = 3.78045 4.02018 3.90215
# Velocity P-wave (km/s) = 6.63941 6.95009 6.79652
#
# Compressibility (1/GPa) = 0.01827628
#
# Stress axis : x y z
#
# Youngs Moduli (GPa) = 64.58366 50.72883 79.84086
#
# Poissons Ratio (x) = 0.28991 0.25895
# Poissons Ratio (y) = 0.36908 0.46023
# Poissons Ratio (z) = 0.20947 0.29242
#
# Static dielectric constant tensor:
#      x y z
#    x 3.851430 0.186190 0.044100 
#    y 0.186190 4.013150 -0.072260 
#    z 0.044100 -0.072260 4.169650 
# 
# 
# High freq. dielectric constant tensor:
#      x y z
#    x 1.857520 0.011200 0.000740 
#    y 0.011200 1.862330 -0.007830 
#    z 0.000740 -0.007830 1.866520 
# 
# From -- ./inp_files/188939.got.cif
#   From: 2010.06.25/outbox.cif.g09.slc.cpg/sg2_95_cif.got.tgz:188939.got - 2010.06.27 13:26:56.
