data_PCOD8005032
_publ_section_title
;
Structure prediction by ZEFSAII (Michael W. Deem and Ramdas Pophale) SiO2 
 PCOD8005032
Probable space group: P -1
;
_chemical_formula_sum "Si O2"
_cell_formula_units_Z 16
_cell_length_a 22.736998
_cell_length_b 7.547245
_cell_length_c 8.742294
_cell_angle_alpha 90.525292
_cell_angle_beta 131.515371
_cell_angle_gamma 51.404167
_cell_volume 634.726948
_symmetry_space_group_name_H-M "P -1"
_symmetry_group_IT_number 2
_symmetry_cell_setting 'triclinic'
loop_
_space_group_symop_operation_xyz
x,y,z
-x,-y,-z
loop_
_atom_site_type_symbol
_atom_site_label
_atom_site_fract_x
_atom_site_fract_y
_atom_site_fract_z
Si Si1 0.421988 0.829149 0.964635
Si Si2 0.748552 0.820093 0.780812
Si Si3 0.235412 0.323216 0.873548
Si Si4 0.816316 0.183118 0.185620
Si Si5 0.471400 0.372470 0.158851
Si Si6 0.999877 0.259148 0.760896
Si Si7 0.842094 0.834971 0.665568
Si Si8 0.016154 0.107979 0.225664
O O1 0.519107 0.732145 0.997172
O O2 0.375946 0.063616 0.009455
O O3 0.284598 0.997414 0.653156
O O4 0.504474 0.520258 0.192717
O O5 0.797343 0.900916 0.768284
O O6 0.590735 0.061097 0.466032
O O7 0.750718 0.846783 0.967279
O O8 0.857135 0.460557 0.925966
O O9 0.212813 0.559007 0.905433
O O10 0.111774 0.485713 0.557697
O O11 0.942248 0.938314 0.524039
O O12 0.677945 0.360072 0.019568
O O13 0.856728 0.013319 0.093023
O O14 0.979153 0.453768 0.854549
O O15 0.968024 0.130137 0.788409
O O16 0.876941 0.976398 0.694506
#
# Coordination Sequence:
#
# PCOD8005032 Si02
#       8
#     2   2   2   2   2   2   2   2
#     4   9  20  41  60  88 119 165 206 251 295 381
#     4  11  22  39  61  91 130 157 196 268 306 359
#     4  10  20  38  64  87 126 155 206 257 308 355
#     4  11  20  39  65  88 117 167 205 249 303 372
#     4  10  22  38  63  85 123 162 206 248 310 367
#     4  10  21  40  65  94 121 163 211 252 299 372
#     4  10  22  38  67  93 120 168 206 248 317 359
#     4  11  20  40  64  92 123 159 207 259 298 361
#
# _framework density 25.207689999999999
#
# number of rings (size 3 to 8) (size 9 to 14) (size 15 to 20)
#    0.000    1.750    3.750    1.125    0.000    3.500 
#    0.000    0.000    0.000    0.000    0.000    0.000 
#    0.000    0.000    0.000    0.000    0.000    0.000 
#
# Total GULP energy -198271.247229 kJ/mol
# GULP energy per Si atom -12391.952952 kJ/mol
# Density = 2.515032 g / cm^3
# Si number density = 25.207690 Si / 1000 Ang^3
#
#
#
# Elastic Constant Matrix: (Units=GPa)
#
#
# Indices 1 2 3 4 5 6 
#
# 1 159.3328 62.9086 31.2620 1.2203 -22.5216 -26.5268
# 2 62.9086 145.9330 34.8778 -1.8958 -3.2413 -37.8392
# 3 31.2620 34.8778 97.3284 -18.7261 -16.8409 -2.8268
# 4 1.2203 -1.8958 -18.7261 26.1682 -5.0609 4.2733
# 5 -22.5216 -3.2413 -16.8409 -5.0609 39.2914 -2.2218
# 6 -26.5268 -37.8392 -2.8268 4.2733 -2.2218 39.1637
#
#
#
# Elastic Compliance Matrix: (Units=1/GPa)
#
#
# Indices 1 2 3 4 5 6 
#
# 1 0.008743 -0.002334 -0.001385 -0.001389 0.004270 0.003961
# 2 -0.002334 0.011117 -0.004100 -0.003936 -0.002167 0.009171
# 3 -0.001385 -0.004100 0.015823 0.013245 0.007085 -0.004801
# 4 -0.001389 -0.003936 0.013245 0.050955 0.010625 -0.008745
# 5 0.004270 -0.002167 0.007085 0.010625 0.032237 0.001980
# 6 0.003961 0.009171 -0.004801 -0.008745 0.001980 0.037797
#
#
# Mechanical properties :
#
#
# Convention : Reuss Voigt Hill
#
# Bulk Modulus (GPa) = 49.88748 73.41011 61.64880
# Shear Modulus (GPa) = 27.93393 39.16104 33.54748
#
# Velocity S-wave (km/s) = 3.33250 3.94577 3.65203
# Velocity P-wave (km/s) = 5.88566 7.06711 6.50327
#
# Compressibility (1/GPa) = 0.02004511
#
# Stress axis : x y z
#
# Youngs Moduli (GPa) = 114.37477 89.95003 63.19734
#
# Poissons Ratio (x) = 0.20996 0.08754
# Poissons Ratio (y) = 0.26697 0.25911
# Poissons Ratio (z) = 0.15843 0.36880
#
# Static dielectric constant tensor:
#      x y z
#    x 4.693290 -0.499540 -0.274470 
#    y -0.499540 4.726090 -0.256250 
#    z -0.274470 -0.256250 4.762260 
# 
# 
# High freq. dielectric constant tensor:
#      x y z
#    x 2.007720 -0.032350 -0.017960 
#    y -0.032350 1.992900 -0.017920 
#    z -0.017960 -0.017920 2.008860 
# 
# From -- ./inp_files/352203.got.cif
#   From: 2010.06.25/outbox.cif.g09.slc.cpg/sg2_177_cif.got.tgz:352203.got - 2010.06.27 13:26:56.
