data_PCOD8005467
_publ_section_title
;
Structure prediction by ZEFSAII (Michael W. Deem and Ramdas Pophale) SiO2 
 PCOD8005467
Probable space group: P -1
;
_chemical_formula_sum "Si O2"
_cell_formula_units_Z 16
_cell_length_a 5.081845
_cell_length_b 11.450120
_cell_length_c 23.596565
_cell_angle_alpha 43.266011
_cell_angle_beta 116.821276
_cell_angle_gamma 117.734968
_cell_volume 818.535301
_symmetry_space_group_name_H-M "P -1"
_symmetry_group_IT_number 2
_symmetry_cell_setting 'triclinic'
loop_
_space_group_symop_operation_xyz
x,y,z
-x,-y,-z
loop_
_atom_site_type_symbol
_atom_site_label
_atom_site_fract_x
_atom_site_fract_y
_atom_site_fract_z
Si Si1 0.389366 0.667489 0.909037
Si Si2 0.176091 0.787833 0.074040
Si Si3 0.527834 0.321957 0.594059
Si Si4 0.984654 0.264046 0.740630
Si Si5 0.731540 0.959063 0.909381
Si Si6 0.665307 0.583551 0.176621
Si Si7 0.976119 0.123125 0.673548
Si Si8 0.246090 0.275947 0.188943
O O1 0.442107 0.817101 0.909534
O O2 0.588073 0.742042 0.847488
O O3 0.029114 0.623002 0.878530
O O4 0.500000 0.500000 0.000000
O O5 0.946979 0.642922 0.140511
O O6 0.435002 0.708517 0.098648
O O7 0.001038 0.858897 0.981484
O O8 0.343986 0.950411 0.072082
O O9 0.500000 0.500000 0.500000
O O10 0.202023 0.202343 0.617844
O O11 0.731527 0.362588 0.656893
O O12 0.682906 0.206209 0.607509
O O13 0.230932 0.400791 0.752849
O O14 0.129346 0.181849 0.729690
O O15 0.828675 0.103471 0.820494
O O16 0.495685 0.384660 0.217807
O O17 0.886108 0.915112 0.731061
#
# Coordination Sequence:
#
# PCOD8005467 Si02
#       8
#     2   2   2   2   2   2   2   2
#     4  12  24  36  56  79 117 160 203 246 295 329
#     4  10  24  36  55  79 115 159 198 246 286 316
#     4  10  21  39  64  94 116 139 187 242 295 354
#     4   9  22  35  62  84 112 149 194 231 291 339
#     4  10  20  39  55  82 113 153 202 246 279 342
#     4  11  23  39  55  82 119 156 199 235 282 338
#     4  10  21  38  61  90 110 152 186 234 298 342
#     4  12  23  39  56  84 119 152 199 241 287 348
#
# _framework density 19.547111999999998
#
# number of rings (size 3 to 8) (size 9 to 14) (size 15 to 20)
#    0.750    0.750    1.250    4.500    5.250    5.500 
#    0.000    0.000    0.000    1.500    0.000    0.000 
#    0.000    0.000    0.000    0.000    0.000    0.000 
#
# Total GULP energy -198354.985583 kJ/mol
# GULP energy per Si atom -12397.186599 kJ/mol
# Density = 1.950262 g / cm^3
# Si number density = 19.547112 Si / 1000 Ang^3
#
#
#
# Elastic Constant Matrix: (Units=GPa)
#
#
# Indices 1 2 3 4 5 6 
#
# 1 72.3020 17.2926 16.6732 -2.3305 8.4212 7.6758
# 2 17.2926 136.3700 41.0673 -11.7440 -2.4136 18.3834
# 3 16.6732 41.0673 106.1966 -11.1628 5.8680 9.6303
# 4 -2.3305 -11.7440 -11.1628 20.1671 0.1272 0.1933
# 5 8.4212 -2.4136 5.8680 0.1272 21.3334 -6.9977
# 6 7.6758 18.3834 9.6303 0.1933 -6.9977 22.3912
#
#
#
# Elastic Compliance Matrix: (Units=1/GPa)
#
#
# Indices 1 2 3 4 5 6 
#
# 1 0.016023 -0.000860 -0.000982 0.000928 -0.008459 -0.007016
# 2 -0.000860 0.009404 -0.002493 0.004059 -0.000034 -0.006400
# 3 -0.000982 -0.002493 0.011673 0.004964 -0.004473 -0.004078
# 4 0.000928 0.004059 0.004964 0.054902 -0.004070 -0.007531
# 5 -0.008459 -0.000034 -0.004473 -0.004070 0.059129 0.023365
# 6 -0.007016 -0.006400 -0.004078 -0.007531 0.023365 0.061441
#
#
# Mechanical properties :
#
#
# Convention : Reuss Voigt Hill
#
# Bulk Modulus (GPa) = 35.17288 51.65940 43.41614
# Shear Modulus (GPa) = 21.67140 28.76738 25.21939
#
# Velocity S-wave (km/s) = 3.33329 3.84043 3.59581
# Velocity P-wave (km/s) = 5.73126 6.79343 6.28483
#
# Compressibility (1/GPa) = 0.02843100
#
# Stress axis : x y z
#
# Youngs Moduli (GPa) = 62.41028 106.33265 85.66526
#
# Poissons Ratio (x) = 0.09147 0.08411
# Poissons Ratio (y) = 0.05368 0.21355
# Poissons Ratio (z) = 0.06128 0.26507
#
# Static dielectric constant tensor:
#      x y z
#    x 3.593490 0.053930 0.013210 
#    y 0.053930 3.765270 0.053450 
#    z 0.013210 0.053450 3.326580 
# 
# 
# High freq. dielectric constant tensor:
#      x y z
#    x 1.770010 0.003550 0.002510 
#    y 0.003550 1.756760 -0.006710 
#    z 0.002510 -0.006710 1.728750 
# 
# From -- ./inp_files/604315.got.cif
#   From: 2010.06.25/outbox.cif.g09.slc.cpg/sg2_303_cif.got.tgz:604315.got - 2010.06.27 13:26:56.
