data_PCOD8005850
_publ_section_title
;
Structure prediction by ZEFSAII (Michael W. Deem and Ramdas Pophale) SiO2 
 PCOD8005850
Probable space group: P -1
;
_chemical_formula_sum "Si O2"
_cell_formula_units_Z 12
_cell_length_a 9.186854
_cell_length_b 14.715317
_cell_length_c 8.376774
_cell_angle_alpha 129.953803
_cell_angle_beta 106.562353
_cell_angle_gamma 43.658428
_cell_volume 563.747584
_symmetry_space_group_name_H-M "P -1"
_symmetry_group_IT_number 2
_symmetry_cell_setting 'triclinic'
loop_
_space_group_symop_operation_xyz
x,y,z
-x,-y,-z
loop_
_atom_site_type_symbol
_atom_site_label
_atom_site_fract_x
_atom_site_fract_y
_atom_site_fract_z
Si Si1 0.934495 0.011248 0.812620
Si Si2 0.752679 0.869625 0.489868
Si Si3 0.462983 0.617166 0.847665
Si Si4 0.429123 0.704743 0.574422
Si Si5 0.906815 0.430931 0.953662
Si Si6 0.815156 0.606509 0.428082
O O1 0.796853 0.967873 0.703336
O O2 0.764440 0.214690 0.937663
O O3 0.168350 0.873010 0.631940
O O4 0.000000 0.000000 0.000000
O O5 0.817377 0.729848 0.476666
O O6 0.914787 0.771400 0.273668
O O7 0.500000 0.000000 0.500000
O O8 0.463602 0.682051 0.749684
O O9 0.473200 0.471178 0.668871
O O10 0.667670 0.546404 0.932488
O O11 0.571191 0.729934 0.571431
O O12 0.873721 0.461370 0.167607
O O13 0.000000 0.500000 0.000000
O O14 0.000000 0.500000 0.500000
#
# Coordination Sequence:
#
# PCOD8005850 Si02
#       6
#     2   2   2   2   2   2
#     4  10  21  38  67  97 127 178 222 262 329 405
#     4  11  23  45  67  96 135 179 221 273 337 405
#     4  10  20  39  68  90 133 178 216 260 342 397
#     4  10  21  40  65  97 129 171 223 277 320 396
#     4  10  20  39  63  89 128 176 212 262 336 394
#     4  11  25  41  68  98 131 171 227 277 331 391
#
# _framework density 21.286121000000001
#
# number of rings (size 3 to 8) (size 9 to 14) (size 15 to 20)
#    0.000    1.667    1.667    4.000    4.667    2.000 
#    3.000    5.833    0.000    0.000    0.000    0.000 
#    0.000    0.000    0.000    0.000    0.000    0.000 
#
# Total GULP energy -148745.497546 kJ/mol
# GULP energy per Si atom -12395.458129 kJ/mol
# Density = 2.123767 g / cm^3
# Si number density = 21.286121 Si / 1000 Ang^3
#
#
#
# Elastic Constant Matrix: (Units=GPa)
#
#
# Indices 1 2 3 4 5 6 
#
# 1 84.9058 41.3841 46.9440 1.2254 -10.6203 -31.1874
# 2 41.3841 139.5053 72.1693 9.2420 -4.3287 -43.9658
# 3 46.9440 72.1693 138.8195 16.3643 5.1144 -22.2587
# 4 1.2254 9.2420 16.3643 46.5273 -13.5158 -0.7243
# 5 -10.6203 -4.3287 5.1144 -13.5158 33.6513 -0.5366
# 6 -31.1874 -43.9658 -22.2587 -0.7243 -0.5366 40.4352
#
#
#
# Elastic Compliance Matrix: (Units=1/GPa)
#
#
# Indices 1 2 3 4 5 6 
#
# 1 0.021230 0.001870 -0.006659 0.004555 0.010021 0.014956
# 2 0.001870 0.014023 -0.005968 0.000560 0.003741 0.013464
# 3 -0.006659 -0.005968 0.012648 -0.005182 -0.006950 -0.004848
# 4 0.004555 0.000560 -0.005182 0.026933 0.013145 0.001927
# 5 0.010021 0.003741 -0.006950 0.013145 0.039836 0.008735
# 6 0.014956 0.013464 -0.004848 0.001927 0.008735 0.048388
#
#
# Mechanical properties :
#
#
# Convention : Reuss Voigt Hill
#
# Bulk Modulus (GPa) = 37.89849 76.02505 56.96177
# Shear Modulus (GPa) = 25.85771 37.63832 31.74801
#
# Velocity S-wave (km/s) = 3.48913 4.20957 3.86617
# Velocity P-wave (km/s) = 5.83738 7.70848 6.83724
#
# Compressibility (1/GPa) = 0.02638628
#
# Stress axis : x y z
#
# Youngs Moduli (GPa) = 47.10401 71.31197 79.06653
#
# Poissons Ratio (x) = -0.13335 0.52653
# Poissons Ratio (y) = -0.08808 0.47183
# Poissons Ratio (z) = 0.31368 0.42556
#
# Static dielectric constant tensor:
#      x y z
#    x 3.958510 -0.166910 -0.131900 
#    y -0.166910 3.996180 0.298770 
#    z -0.131900 0.298770 4.808690 
# 
# 
# High freq. dielectric constant tensor:
#      x y z
#    x 1.826200 -0.031760 0.000900 
#    y -0.031760 1.828540 0.004020 
#    z 0.000900 0.004020 1.854040 
# 
# From -- ./inp_files/150209.got.cif
#   From: 2010.06.25/outbox.cif.g09.slc.cpg/sg2_76_cif.got.tgz:150209.got - 2010.06.27 13:26:56.
