data_PCOD8005400
_publ_section_title
;
Structure prediction by ZEFSAII (Michael W. Deem and Ramdas Pophale) SiO2 
 PCOD8005400
Probable space group: P -1
;
_chemical_formula_sum "Si O2"
_cell_formula_units_Z 16
_cell_length_a 14.266137
_cell_length_b 11.058028
_cell_length_c 10.671419
_cell_angle_alpha 118.071022
_cell_angle_beta 44.308242
_cell_angle_gamma 139.307448
_cell_volume 757.066189
_symmetry_space_group_name_H-M "P -1"
_symmetry_group_IT_number 2
_symmetry_cell_setting 'triclinic'
loop_
_space_group_symop_operation_xyz
x,y,z
-x,-y,-z
loop_
_atom_site_type_symbol
_atom_site_label
_atom_site_fract_x
_atom_site_fract_y
_atom_site_fract_z
Si Si1 0.696681 0.264263 0.209393
Si Si2 0.965731 0.686689 0.168310
Si Si3 0.285534 0.362177 0.142534
Si Si4 0.694177 0.085194 0.649555
Si Si5 0.101795 0.987345 0.000237
Si Si6 0.014934 0.162917 0.516632
Si Si7 0.221888 0.810424 0.667324
Si Si8 0.877571 0.473109 0.717586
O O1 0.777153 0.472835 0.217615
O O2 0.655855 0.203352 0.367029
O O3 0.510993 0.117979 0.233229
O O4 0.848869 0.263729 0.018265
O O5 0.980978 0.729601 0.320822
O O6 0.959257 0.817514 0.151530
O O7 0.207034 0.315985 0.335497
O O8 0.222279 0.453653 0.175710
O O9 0.224095 0.177570 0.051749
O O10 0.500000 0.500000 0.000000
O O11 0.708729 0.133613 0.513013
O O12 0.726737 0.248167 0.779016
O O13 0.845037 0.078218 0.543645
O O14 0.227373 0.964407 0.798177
O O15 0.000000 0.000000 0.000000
O O16 0.000000 0.000000 0.500000
O O17 0.014033 0.599397 0.765239
O O18 0.000000 0.500000 0.500000
#
# Coordination Sequence:
#
# PCOD8005400 Si02
#       8
#     2   2   2   2   2   2   2   2
#     4  10  23  42  64 102 131 170 223 283 335 406
#     4  10  24  42  66  92 138 177 218 275 349 397
#     4  12  26  43  68 104 135 177 234 279 336 404
#     4  11  23  40  70  99 133 172 233 277 338 401
#     4  11  21  43  65  91 132 179 223 275 330 405
#     4  12  24  46  68  91 141 184 219 282 346 404
#     4  10  20  38  68  96 132 173 218 276 341 396
#     4  10  20  39  66  99 131 171 221 275 334 396
#
# _framework density 21.134215999999999
#
# number of rings (size 3 to 8) (size 9 to 14) (size 15 to 20)
#    0.000    1.250    5.000    1.125    5.250    1.500 
#    2.250    0.625    0.000    0.000    0.000    0.000 
#    0.000    0.000    0.000    0.000    0.000    0.000 
#
# Total GULP energy -198327.909102 kJ/mol
# GULP energy per Si atom -12395.494319 kJ/mol
# Density = 2.108611 g / cm^3
# Si number density = 21.134216 Si / 1000 Ang^3
#
#
#
# Elastic Constant Matrix: (Units=GPa)
#
#
# Indices 1 2 3 4 5 6 
#
# 1 102.1301 60.8379 32.4756 -15.1662 -5.6890 -3.4642
# 2 60.8379 172.5110 40.4570 -3.9959 -15.8234 1.9775
# 3 32.4756 40.4570 64.2839 -4.1342 0.0272 7.2197
# 4 -15.1662 -3.9959 -4.1342 36.6967 3.8436 -2.9313
# 5 -5.6890 -15.8234 0.0272 3.8436 30.6865 2.8598
# 6 -3.4642 1.9775 7.2197 -2.9313 2.8598 30.6097
#
#
#
# Elastic Compliance Matrix: (Units=1/GPa)
#
#
# Indices 1 2 3 4 5 6 
#
# 1 0.014621 -0.003938 -0.004969 0.005378 -0.000327 0.003627
# 2 -0.003938 0.008264 -0.003232 -0.001547 0.003795 -0.000720
# 3 -0.004969 -0.003232 0.020652 -0.000263 -0.002102 -0.005053
# 4 0.005378 -0.001547 -0.000263 0.030007 -0.003933 0.004011
# 5 -0.000327 0.003795 -0.002102 -0.003933 0.035301 -0.003461
# 6 0.003627 -0.000720 -0.005053 0.004011 -0.003461 0.035026
#
#
# Mechanical properties :
#
#
# Convention : Reuss Voigt Hill
#
# Bulk Modulus (GPa) = 51.92439 67.38511 59.65475
# Shear Modulus (GPa) = 28.64223 33.27555 30.95889
#
# Velocity S-wave (km/s) = 3.68537 3.97229 3.83151
# Velocity P-wave (km/s) = 6.53693 7.27958 6.91823
#
# Compressibility (1/GPa) = 0.01925877
#
# Stress axis : x y z
#
# Youngs Moduli (GPa) = 68.39629 121.00928 48.42173
#
# Poissons Ratio (x) = 0.47650 0.24062
# Poissons Ratio (y) = 0.26933 0.15649
# Poissons Ratio (z) = 0.33988 0.39107
#
# Static dielectric constant tensor:
#      x y z
#    x 4.034180 0.086770 0.198170 
#    y 0.086770 4.155090 0.054390 
#    z 0.198170 0.054390 3.704160 
# 
# 
# High freq. dielectric constant tensor:
#      x y z
#    x 1.827900 -0.002680 0.011300 
#    y -0.002680 1.847150 0.011700 
#    z 0.011300 0.011700 1.809630 
# 
# From -- ./inp_files/452550.got.cif
#   From: 2010.06.25/outbox.cif.g09.slc.cpg/sg2_227_cif.got.tgz:452550.got - 2010.06.27 13:26:56.
