data_PCOD8005027
_publ_section_title
;
Structure prediction by ZEFSAII (Michael W. Deem and Ramdas Pophale) SiO2 
 PCOD8005027
Probable space group: P -1
;
_chemical_formula_sum "Si O2"
_cell_formula_units_Z 16
_cell_length_a 9.264343
_cell_length_b 19.057800
_cell_length_c 13.211738
_cell_angle_alpha 37.299396
_cell_angle_beta 131.901054
_cell_angle_gamma 103.411598
_cell_volume 787.036201
_symmetry_space_group_name_H-M "P -1"
_symmetry_group_IT_number 2
_symmetry_cell_setting 'triclinic'
loop_
_space_group_symop_operation_xyz
x,y,z
-x,-y,-z
loop_
_atom_site_type_symbol
_atom_site_label
_atom_site_fract_x
_atom_site_fract_y
_atom_site_fract_z
Si Si1 0.364789 0.585947 0.236920
Si Si2 0.310039 0.380694 0.792504
Si Si3 0.071607 0.131240 0.170754
Si Si4 0.266367 0.458267 0.168015
Si Si5 0.420882 0.091242 0.222458
Si Si6 0.365964 0.626062 0.878674
Si Si7 0.984666 0.954959 0.214941
Si Si8 0.364922 0.898879 0.292111
O O1 0.500000 0.500000 0.500000
O O2 0.550943 0.600507 0.249850
O O3 0.339126 0.475584 0.292615
O O4 0.082300 0.747969 0.947992
O O5 0.000000 0.500000 0.500000
O O6 0.393919 0.216262 0.999533
O O7 0.416464 0.383609 0.948941
O O8 0.147491 0.183555 0.050508
O O9 0.348462 0.975115 0.515971
O O10 0.908212 0.083501 0.113389
O O11 0.472064 0.283344 0.427226
O O12 0.236867 0.583859 0.940905
O O13 0.000000 0.500000 0.000000
O O14 0.508043 0.951700 0.349476
O O15 0.136203 0.791889 0.529522
O O16 0.500000 0.500000 0.000000
O O17 0.143121 0.957648 0.199822
O O18 0.729833 0.018237 0.958831
#
# Coordination Sequence:
#
# PCOD8005027 Si02
#       8
#     2   2   2   2   2   2   2   2
#     4  11  24  42  64  91 127 171 205 261 321 375
#     4  11  25  41  63  97 128 162 216 265 315 380
#     4  10  20  38  64  86 125 165 206 253 316 379
#     4  11  24  43  63  94 128 168 212 257 320 382
#     4  10  21  38  62  95 121 161 212 256 309 374
#     4  11  23  41  67  93 126 166 215 263 316 372
#     4  10  20  39  63  93 121 162 213 259 312 375
#     4  10  21  37  64  90 126 164 205 261 313 370
#
# _framework density 20.329433000000002
#
# number of rings (size 3 to 8) (size 9 to 14) (size 15 to 20)
#    0.000    1.500    2.500    2.250    1.750    4.500 
#    2.250    0.625    0.000    0.000    0.000    0.000 
#    0.000    0.000    0.000    0.000    0.000    0.000 
#
# Total GULP energy -198252.335213 kJ/mol
# GULP energy per Si atom -12390.770951 kJ/mol
# Density = 2.028316 g / cm^3
# Si number density = 20.329433 Si / 1000 Ang^3
#
#
#
# Elastic Constant Matrix: (Units=GPa)
#
#
# Indices 1 2 3 4 5 6 
#
# 1 78.8003 45.1696 34.1243 4.7370 0.0834 8.8885
# 2 45.1696 130.0500 24.9577 -5.5980 -13.4362 3.8226
# 3 34.1243 24.9577 87.3065 4.7174 -21.0354 10.0534
# 4 4.7370 -5.5980 4.7174 38.3632 -4.4717 0.5260
# 5 0.0834 -13.4362 -21.0354 -4.4717 33.2553 -4.0067
# 6 8.8885 3.8226 10.0534 0.5260 -4.0067 30.6781
#
#
#
# Elastic Compliance Matrix: (Units=1/GPa)
#
#
# Indices 1 2 3 4 5 6 
#
# 1 0.020281 -0.006512 -0.007460 -0.003455 -0.008305 -0.003646
# 2 -0.006512 0.010471 0.000501 0.002847 0.005071 0.001031
# 3 -0.007460 0.000501 0.017054 0.000183 0.010782 -0.002085
# 4 -0.003455 0.002847 0.000183 0.027466 0.005061 0.000777
# 5 -0.008305 0.005071 0.010782 0.005061 0.040049 0.003385
# 6 -0.003646 0.001031 -0.002085 0.000777 0.003385 0.034636
#
#
# Mechanical properties :
#
#
# Convention : Reuss Voigt Hill
#
# Bulk Modulus (GPa) = 47.92651 56.07335 51.99993
# Shear Modulus (GPa) = 27.19544 33.25300 30.22422
#
# Velocity S-wave (km/s) = 3.66148 4.04878 3.85999
# Velocity P-wave (km/s) = 6.44215 7.03555 6.74538
#
# Compressibility (1/GPa) = 0.02086528
#
# Stress axis : x y z
#
# Youngs Moduli (GPa) = 49.30629 95.50020 58.63584
#
# Poissons Ratio (x) = 0.62191 0.43742
# Poissons Ratio (y) = 0.32109 -0.02939
# Poissons Ratio (z) = 0.36782 -0.04787
#
# Static dielectric constant tensor:
#      x y z
#    x 3.638840 -0.108710 0.079890 
#    y -0.108710 4.759730 -0.883370 
#    z 0.079890 -0.883370 5.195930 
# 
# 
# High freq. dielectric constant tensor:
#      x y z
#    x 1.773520 0.001780 -0.010180 
#    y 0.001780 1.815700 0.002940 
#    z -0.010180 0.002940 1.797020 
# 
# From -- ./inp_files/278184.got.cif
#   From: 2010.06.25/outbox.cif.g09.slc.cpg/sg2_140_cif.got.tgz:278184.got - 2010.06.27 13:26:56.
