data_PCOD8005991
_publ_section_title
;
Structure prediction by ZEFSAII (Michael W. Deem and Ramdas Pophale) SiO2 
 PCOD8005991
Probable space group: P -1
;
_chemical_formula_sum "Si O2"
_cell_formula_units_Z 12
_cell_length_a 5.545432
_cell_length_b 22.851603
_cell_length_c 5.222914
_cell_angle_alpha 86.935046
_cell_angle_beta 87.883102
_cell_angle_gamma 134.798633
_cell_volume 466.367230
_symmetry_space_group_name_H-M "P -1"
_symmetry_group_IT_number 2
_symmetry_cell_setting 'triclinic'
loop_
_space_group_symop_operation_xyz
x,y,z
-x,-y,-z
loop_
_atom_site_type_symbol
_atom_site_label
_atom_site_fract_x
_atom_site_fract_y
_atom_site_fract_z
Si Si1 0.522561 0.834796 0.436909
Si Si2 0.914158 0.242756 0.034502
Si Si3 0.902427 0.551163 0.478479
Si Si4 0.330031 0.014027 0.702438
Si Si5 0.139563 0.405075 0.029846
Si Si6 0.982519 0.131538 0.953927
O O1 0.373664 0.792620 0.730927
O O2 0.733733 0.932834 0.430534
O O3 0.228407 0.784391 0.243417
O O4 0.801396 0.836259 0.324090
O O5 0.091194 0.209773 0.085019
O O6 0.185581 0.342710 0.020980
O O7 0.500000 0.500000 0.500000
O O8 0.067459 0.611907 0.703169
O O9 0.000000 0.500000 0.500000
O O10 0.073015 0.607556 0.203431
O O11 0.500000 0.000000 0.500000
O O12 0.989975 0.922028 0.850420
O O13 0.583645 0.069963 0.917478
O O14 0.500000 0.500000 0.000000
#
# Coordination Sequence:
#
# PCOD8005991 Si02
#       6
#     2   2   2   2   2   2
#     4  11  24  40  65  96 132 175 218 273 340 398
#     4  11  24  44  62  95 137 168 226 276 335 410
#     4  10  21  42  70 100 133 171 228 288 347 416
#     4  10  20  39  64  91 130 171 224 272 318 410
#     4  10  22  44  69  97 132 178 227 286 347 416
#     4  10  23  40  62  94 131 175 217 275 334 389
#
# _framework density 25.730796000000002
#
# number of rings (size 3 to 8) (size 9 to 14) (size 15 to 20)
#    0.000    1.667    1.667    2.000    2.333    0.667 
#   18.000    0.000    0.000    0.000    0.000    0.000 
#    0.000    0.000    0.000    0.000    0.000    0.000 
#
# Total GULP energy -148656.602213 kJ/mol
# GULP energy per Si atom -12388.050184 kJ/mol
# Density = 2.567223 g / cm^3
# Si number density = 25.730796 Si / 1000 Ang^3
#
#
#
# Elastic Constant Matrix: (Units=GPa)
#
#
# Indices 1 2 3 4 5 6 
#
# 1 78.1932 39.5089 12.9155 2.2974 -22.2665 -33.8960
# 2 39.5089 185.5889 33.3596 15.4490 -9.6830 -49.3355
# 3 12.9155 33.3596 161.5191 5.2704 -11.3351 -22.8390
# 4 2.2974 15.4490 5.2704 35.0107 -11.8178 -7.4529
# 5 -22.2665 -9.6830 -11.3351 -11.8178 37.5733 3.8507
# 6 -33.8960 -49.3355 -22.8390 -7.4529 3.8507 46.1566
#
#
#
# Elastic Compliance Matrix: (Units=1/GPa)
#
#
# Indices 1 2 3 4 5 6 
#
# 1 0.025082 -0.000495 0.001579 0.007590 0.015695 0.018588
# 2 -0.000495 0.007672 -0.000434 -0.001629 0.000289 0.007335
# 3 0.001579 -0.000434 0.006887 0.000834 0.002753 0.004008
# 4 0.007590 -0.001629 0.000834 0.035442 0.014580 0.008752
# 5 0.015695 0.000289 0.002753 0.014580 0.040156 0.012201
# 6 0.018588 0.007335 0.004008 0.008752 0.012201 0.045535
#
#
# Mechanical properties :
#
#
# Convention : Reuss Voigt Hill
#
# Bulk Modulus (GPa) = 24.42569 66.31878 45.37223
# Shear Modulus (GPa) = 28.88117 46.38259 37.63188
#
# Velocity S-wave (km/s) = 3.35391 4.25032 3.82844
# Velocity P-wave (km/s) = 4.95093 7.06520 6.10036
#
# Compressibility (1/GPa) = 0.04094050
#
# Stress axis : x y z
#
# Youngs Moduli (GPa) = 39.86891 130.33939 145.19201
#
# Poissons Ratio (x) = 0.06452 -0.22922
# Poissons Ratio (y) = 0.01974 0.06307
# Poissons Ratio (z) = -0.06294 0.05662
#
# Static dielectric constant tensor:
#      x y z
#    x 4.222060 -0.291890 0.883600 
#    y -0.291890 4.725220 -0.287960 
#    z 0.883600 -0.287960 4.605770 
# 
# 
# High freq. dielectric constant tensor:
#      x y z
#    x 1.994350 -0.027820 0.001450 
#    y -0.027820 2.023380 0.009600 
#    z 0.001450 0.009600 2.057200 
# 
# From -- ./inp_files/9887.got.cif
#   From: 2010.06.25/outbox.cif.g09.slc.cpg/sg2_5_cif.got.tgz:9887.got - 2010.06.27 13:26:56.
