data_PCOD8005291
_publ_section_title
;
Structure prediction by ZEFSAII (Michael W. Deem and Ramdas Pophale) SiO2 
 PCOD8005291
Probable space group: P -1
;
_chemical_formula_sum "Si O2"
_cell_formula_units_Z 16
_cell_length_a 9.912001
_cell_length_b 8.908546
_cell_length_c 13.208184
_cell_angle_alpha 101.904508
_cell_angle_beta 45.949765
_cell_angle_gamma 83.663835
_cell_volume 764.959982
_symmetry_space_group_name_H-M "P -1"
_symmetry_group_IT_number 2
_symmetry_cell_setting 'triclinic'
loop_
_space_group_symop_operation_xyz
x,y,z
-x,-y,-z
loop_
_atom_site_type_symbol
_atom_site_label
_atom_site_fract_x
_atom_site_fract_y
_atom_site_fract_z
Si Si1 0.218534 0.371465 0.880136
Si Si2 0.738384 0.931403 0.867857
Si Si3 0.254317 0.367349 0.301484
Si Si4 0.954935 0.849362 0.955089
Si Si5 0.482395 0.557288 0.131046
Si Si6 0.108845 0.870484 0.339231
Si Si7 0.293092 0.514937 0.666767
Si Si8 0.899960 0.635841 0.418227
O O1 0.314124 0.422673 0.936047
O O2 0.344509 0.381483 0.714363
O O3 0.000000 0.500000 0.000000
O O4 0.187397 0.200320 0.896920
O O5 0.802149 0.757367 0.756668
O O6 0.822301 0.912626 0.933823
O O7 0.830854 0.047305 0.776772
O O8 0.500000 0.000000 0.000000
O O9 0.458788 0.402517 0.181225
O O10 0.279059 0.308200 0.397600
O O11 0.083993 0.539243 0.382988
O O12 0.165728 0.699358 0.798117
O O13 0.000000 0.000000 0.000000
O O14 0.306601 0.733643 0.264481
O O15 0.500000 0.500000 0.000000
O O16 0.951109 0.788757 0.368577
O O17 0.000000 0.000000 0.500000
O O18 0.500000 0.500000 0.500000
O O19 0.146682 0.467805 0.660645
#
# Coordination Sequence:
#
# PCOD8005291 Si02
#       8
#     2   2   2   2   2   2   2   2
#     4  10  24  43  67  93 135 172 222 267 327 395
#     4  12  24  41  66  98 134 170 217 269 331 389
#     4  10  20  38  66  93 128 163 214 272 321 382
#     4  11  26  46  64  94 138 175 216 269 334 390
#     4  11  23  40  68  98 127 170 225 269 323 387
#     4  11  24  40  65  99 136 166 210 277 334 383
#     4  11  24  44  71  96 127 174 228 268 325 397
#     4  10  21  39  66  93 125 169 216 265 325 385
#
# _framework density 20.916128
#
# number of rings (size 3 to 8) (size 9 to 14) (size 15 to 20)
#    0.000    1.250    2.500    3.000    7.000    5.000 
#    2.250    0.625    0.000    0.000    0.000    0.000 
#    0.000    0.000    0.000    0.000    0.000    0.000 
#
# Total GULP energy -198271.371983 kJ/mol
# GULP energy per Si atom -12391.960749 kJ/mol
# Density = 2.086852 g / cm^3
# Si number density = 20.916128 Si / 1000 Ang^3
#
#
#
# Elastic Constant Matrix: (Units=GPa)
#
#
# Indices 1 2 3 4 5 6 
#
# 1 113.5054 60.5559 45.4404 -1.8441 9.2722 15.2863
# 2 60.5559 156.2340 73.2347 -31.4033 6.3111 26.4426
# 3 45.4404 73.2347 133.3309 -22.8932 4.3450 5.8327
# 4 -1.8441 -31.4033 -22.8932 52.6918 3.9446 2.4293
# 5 9.2722 6.3111 4.3450 3.9446 32.6911 -1.5235
# 6 15.2863 26.4426 5.8327 2.4293 -1.5235 39.7280
#
#
#
# Elastic Compliance Matrix: (Units=1/GPa)
#
#
# Indices 1 2 3 4 5 6 
#
# 1 0.012119 -0.003709 -0.002387 -0.002579 -0.002175 -0.001769
# 2 -0.003709 0.012026 -0.004024 0.005713 -0.001722 -0.006402
# 3 -0.002387 -0.004024 0.010815 0.002142 -0.000155 0.001872
# 4 -0.002579 0.005713 0.002142 0.023721 -0.003738 -0.004719
# 5 -0.002175 -0.001722 -0.000155 -0.003738 0.032172 0.003468
# 6 -0.001769 -0.006402 0.001872 -0.004719 0.003468 0.030260
#
#
# Mechanical properties :
#
#
# Convention : Reuss Voigt Hill
#
# Bulk Modulus (GPa) = 67.94295 84.61470 76.27882
# Shear Modulus (GPa) = 34.18535 39.94480 37.06508
#
# Velocity S-wave (km/s) = 4.04716 4.37482 4.21418
# Velocity P-wave (km/s) = 7.37519 8.12778 7.76061
#
# Compressibility (1/GPa) = 0.01471823
#
# Stress axis : x y z
#
# Youngs Moduli (GPa) = 82.51553 83.15144 92.46261
#
# Poissons Ratio (x) = 0.30843 0.22075
# Poissons Ratio (y) = 0.30608 0.37210
# Poissons Ratio (z) = 0.19700 0.33463
#
# Static dielectric constant tensor:
#      x y z
#    x 3.575310 0.041400 -0.028950 
#    y 0.041400 4.208400 -0.562040 
#    z -0.028950 -0.562040 4.302670 
# 
# 
# High freq. dielectric constant tensor:
#      x y z
#    x 1.812780 0.014070 0.003150 
#    y 0.014070 1.828750 -0.023760 
#    z 0.003150 -0.023760 1.824910 
# 
# From -- ./inp_files/382506.got.cif
#   From: 2010.06.25/outbox.cif.g09.slc.cpg/sg2_192_cif.got.tgz:382506.got - 2010.06.27 13:26:56.
