data_PCOD8005508
_publ_section_title
;
Structure prediction by ZEFSAII (Michael W. Deem and Ramdas Pophale) SiO2 
 PCOD8005508
Probable space group: P -1
;
_chemical_formula_sum "Si O2"
_cell_formula_units_Z 14
_cell_length_a 12.657084
_cell_length_b 11.967565
_cell_length_c 17.968795
_cell_angle_alpha 43.851840
_cell_angle_beta 29.224057
_cell_angle_gamma 64.727925
_cell_volume 737.554777
_symmetry_space_group_name_H-M "P -1"
_symmetry_group_IT_number 2
_symmetry_cell_setting 'triclinic'
loop_
_space_group_symop_operation_xyz
x,y,z
-x,-y,-z
loop_
_atom_site_type_symbol
_atom_site_label
_atom_site_fract_x
_atom_site_fract_y
_atom_site_fract_z
Si Si1 0.239587 0.753842 0.994802
Si Si2 0.831601 0.978391 0.542775
Si Si3 0.918052 0.112467 0.698050
Si Si4 0.157992 0.295632 0.617087
Si Si5 0.700000 0.887959 0.267574
Si Si6 0.227090 0.690888 0.549305
Si Si7 0.361004 0.737418 0.278772
O O1 0.109499 0.780434 0.134600
O O2 0.030439 0.540521 0.186821
O O3 0.513311 0.788575 0.837951
O O4 0.329763 0.930707 0.793899
O O5 0.935425 0.938889 0.424476
O O6 0.868607 0.187205 0.411470
O O7 0.000000 0.000000 0.500000
O O8 0.880664 0.274902 0.608502
O O9 0.095645 0.203495 0.618423
O O10 0.635638 0.906414 0.989701
O O11 0.329430 0.228223 0.582971
O O12 0.336492 0.534905 0.384821
O O13 0.467314 0.716377 0.437489
O O14 0.000000 0.000000 0.000000
O O15 0.353375 0.788505 0.344622
#
# Coordination Sequence:
#
# PCOD8005508 Si02
#       7
#     2   2   2   2   2   2   2
#     4   9  21  37  60  86 113 148 190 237 277 335
#     4  11  22  38  57  82 115 154 189 230 282 336
#     4  11  22  36  56  81 119 149 183 233 282 336
#     4  10  21  37  58  87 112 146 188 231 284 333
#     4   9  18  34  61  87 114 144 186 240 279 327
#     4  10  20  39  58  88 114 147 195 229 278 336
#     4  10  21  36  57  83 112 151 185 234 278 334
#
# _framework density 18.981641
#
# number of rings (size 3 to 8) (size 9 to 14) (size 15 to 20)
#    0.000    2.000    1.429    3.000    2.000    8.000 
#    0.000    2.857    0.000    5.143    0.000    0.000 
#    0.000    0.000    0.000    0.000    0.000    0.000 
#
# Total GULP energy -173527.839445 kJ/mol
# GULP energy per Si atom -12394.845675 kJ/mol
# Density = 1.893844 g / cm^3
# Si number density = 18.981641 Si / 1000 Ang^3
#
#
#
# Elastic Constant Matrix: (Units=GPa)
#
#
# Indices 1 2 3 4 5 6 
#
# 1 196.8380 86.6076 71.9758 11.9315 -24.0734 1.4895
# 2 86.6076 133.3673 68.9554 13.7288 -12.5710 16.3806
# 3 71.9758 68.9554 109.4451 3.1311 -26.8709 2.5297
# 4 11.9315 13.7288 3.1311 40.8018 -5.7314 4.7317
# 5 -24.0734 -12.5710 -26.8709 -5.7314 42.1250 -2.6576
# 6 1.4895 16.3806 2.5297 4.7317 -2.6576 33.8009
#
#
#
# Elastic Compliance Matrix: (Units=1/GPa)
#
#
# Indices 1 2 3 4 5 6 
#
# 1 0.007915 -0.003952 -0.002269 -0.000773 0.001917 0.001995
# 2 -0.003952 0.014486 -0.007100 -0.002916 -0.003250 -0.006162
# 3 -0.002269 -0.007100 0.016904 0.002568 0.007877 0.002536
# 4 -0.000773 -0.002916 0.002568 0.026295 0.003769 -0.002130
# 5 0.001917 -0.003250 0.007877 0.003769 0.029572 0.002698
# 6 0.001995 -0.006162 0.002536 -0.002130 0.002698 0.032804
#
#
# Mechanical properties :
#
#
# Convention : Reuss Voigt Hill
#
# Bulk Modulus (GPa) = 78.96249 99.41422 89.18835
# Shear Modulus (GPa) = 31.47854 37.48632 34.48243
#
# Velocity S-wave (km/s) = 4.07672 4.44878 4.26681
# Velocity P-wave (km/s) = 7.99057 8.88124 8.44765
#
# Compressibility (1/GPa) = 0.01266424
#
# Stress axis : x y z
#
# Youngs Moduli (GPa) = 126.34547 69.03305 59.15688
#
# Poissons Ratio (x) = 0.27279 0.13421
# Poissons Ratio (y) = 0.49926 0.42002
# Poissons Ratio (z) = 0.28664 0.49014
#
# Static dielectric constant tensor:
#      x y z
#    x 3.920280 -0.242150 -0.082360 
#    y -0.242150 3.825770 -0.245330 
#    z -0.082360 -0.245330 3.477330 
# 
# 
# High freq. dielectric constant tensor:
#      x y z
#    x 1.745740 -0.011520 -0.012530 
#    y -0.011520 1.731500 -0.014780 
#    z -0.012530 -0.014780 1.729220 
# 
# From -- ./inp_files/255726.got.cif
#   From: 2010.06.25/outbox.cif.g09.slc.cpg/sg2_128_cif.got.tgz:255726.got - 2010.06.27 13:26:56.
