data_PCOD8005671
_publ_section_title
;
Structure prediction by ZEFSAII (Michael W. Deem and Ramdas Pophale) SiO2 
 PCOD8005671
Probable space group: P -1
;
_chemical_formula_sum "Si O2"
_cell_formula_units_Z 16
_cell_length_a 24.854562
_cell_length_b 18.549034
_cell_length_c 14.774647
_cell_angle_alpha 20.740276
_cell_angle_beta 149.614487
_cell_angle_gamma 160.485344
_cell_volume 795.508371
_symmetry_space_group_name_H-M "P -1"
_symmetry_group_IT_number 2
_symmetry_cell_setting 'triclinic'
loop_
_space_group_symop_operation_xyz
x,y,z
-x,-y,-z
loop_
_atom_site_type_symbol
_atom_site_label
_atom_site_fract_x
_atom_site_fract_y
_atom_site_fract_z
Si Si1 0.712736 0.363902 0.618973
Si Si2 0.300624 0.058261 0.810593
Si Si3 0.088795 0.206127 0.767704
Si Si4 0.370384 0.970744 0.641632
Si Si5 0.915799 0.205713 0.661582
Si Si6 0.203569 0.306945 0.178387
Si Si7 0.012719 0.904917 0.536998
Si Si8 0.431093 0.251182 0.586569
O O1 0.786996 0.516367 0.449505
O O2 0.833059 0.597107 0.601253
O O3 0.545034 0.247795 0.520154
O O4 0.683953 0.079409 0.923114
O O5 0.391503 0.093316 0.812513
O O6 0.384150 0.395157 0.564254
O O7 0.112515 0.838710 0.772816
O O8 0.057985 0.330060 0.655017
O O9 0.915024 0.895389 0.839897
O O10 0.158047 0.092645 0.039374
O O11 0.238703 0.934073 0.453359
O O12 0.395093 0.039344 0.704179
O O13 0.311691 0.659196 0.904735
O O14 0.000000 0.500000 0.500000
O O15 0.317082 0.279098 0.379368
O O16 0.101516 0.182770 0.268421
O O17 0.000000 0.000000 0.500000
#
# Coordination Sequence:
#
# PCOD8005671 Si02
#       8
#     2   2   2   2   2   2   2   2
#     4  11  24  40  61  96 128 163 205 263 318 359
#     4  10  21  39  60  86 132 170 212 246 311 354
#     4  10  23  45  65  92 128 155 206 267 315 375
#     4  12  23  38  69  94 123 164 214 253 314 369
#     4  11  23  43  72  92 116 167 211 252 318 392
#     4  10  20  39  61  90 124 164 211 250 308 373
#     4  10  22  37  56  89 128 169 211 253 299 370
#     4  10  21  38  60  93 125 168 211 260 283 368
#
# _framework density 20.112925000000001
#
# number of rings (size 3 to 8) (size 9 to 14) (size 15 to 20)
#    0.000    1.500    3.750    1.125    1.750    2.000 
#    2.250    0.625    0.000    0.000    0.000    0.000 
#    0.000    0.000    0.000    0.000    0.000    0.000 
#
# Total GULP energy -198391.661515 kJ/mol
# GULP energy per Si atom -12399.478845 kJ/mol
# Density = 2.006715 g / cm^3
# Si number density = 20.112925 Si / 1000 Ang^3
#
#
#
# Elastic Constant Matrix: (Units=GPa)
#
#
# Indices 1 2 3 4 5 6 
#
# 1 119.7291 22.1707 42.0612 -17.5767 -0.5996 -5.6033
# 2 22.1707 83.4600 29.9174 -1.3237 0.5610 5.0286
# 3 42.0612 29.9174 119.0857 8.5045 -14.2432 3.3710
# 4 -17.5767 -1.3237 8.5045 33.6311 -3.8824 -1.7552
# 5 -0.5996 0.5610 -14.2432 -3.8824 29.9393 -0.8808
# 6 -5.6033 5.0286 3.3710 -1.7552 -0.8808 31.4888
#
#
#
# Elastic Compliance Matrix: (Units=1/GPa)
#
#
# Indices 1 2 3 4 5 6 
#
# 1 0.011314 -0.001536 -0.004292 0.007008 -0.000787 0.003087
# 2 -0.001536 0.013627 -0.003045 0.000186 -0.001774 -0.002163
# 3 -0.004292 -0.003045 0.011649 -0.004837 0.004837 -0.001659
# 4 0.007008 0.000186 -0.004837 0.035112 0.002500 0.003762
# 5 -0.000787 -0.001774 0.004837 0.002500 0.036066 0.000774
# 6 0.003087 -0.002163 -0.001659 0.003762 0.000774 0.033061
#
#
# Mechanical properties :
#
#
# Convention : Reuss Voigt Hill
#
# Bulk Modulus (GPa) = 53.07076 56.73038 54.90057
# Shear Modulus (GPa) = 30.32926 34.22019 32.27472
#
# Velocity S-wave (km/s) = 3.88744 4.12928 4.01019
# Velocity P-wave (km/s) = 6.82593 7.14155 6.98552
#
# Compressibility (1/GPa) = 0.01884277
#
# Stress axis : x y z
#
# Youngs Moduli (GPa) = 88.38717 73.38575 85.84308
#
# Poissons Ratio (x) = 0.11275 0.36844
# Poissons Ratio (y) = 0.13580 0.26139
# Poissons Ratio (z) = 0.37936 0.22345
#
# Static dielectric constant tensor:
#      x y z
#    x 3.701000 -0.070710 -0.197840 
#    y -0.070710 4.052640 0.074260 
#    z -0.197840 0.074260 3.743100 
# 
# 
# High freq. dielectric constant tensor:
#      x y z
#    x 1.779100 -0.000040 -0.001670 
#    y -0.000040 1.795460 0.004430 
#    z -0.001670 0.004430 1.780580 
# 
# From -- ./inp_files/37326.got.cif
#   From: 2010.06.25/outbox.cif.g09.slc.cpg/sg2_19_cif.got.tgz:37326.got - 2010.06.27 13:26:56.
