data_PCOD8005437
_publ_section_title
;
Structure prediction by ZEFSAII (Michael W. Deem and Ramdas Pophale) SiO2 
 PCOD8005437
Probable space group: P -1
;
_chemical_formula_sum "Si O2"
_cell_formula_units_Z 14
_cell_length_a 22.644958
_cell_length_b 6.787124
_cell_length_c 4.999551
_cell_angle_alpha 83.520018
_cell_angle_beta 108.421965
_cell_angle_gamma 129.334378
_cell_volume 559.853642
_symmetry_space_group_name_H-M "P -1"
_symmetry_group_IT_number 2
_symmetry_cell_setting 'triclinic'
loop_
_space_group_symop_operation_xyz
x,y,z
-x,-y,-z
loop_
_atom_site_type_symbol
_atom_site_label
_atom_site_fract_x
_atom_site_fract_y
_atom_site_fract_z
Si Si1 0.546240 0.895636 0.163244
Si Si2 0.264444 0.946973 0.329525
Si Si3 0.166560 0.104749 0.264151
Si Si4 0.404593 0.354049 0.102019
Si Si5 0.908035 0.868432 0.357084
Si Si6 0.238177 0.656983 0.834987
Si Si7 0.326747 0.553947 0.661833
O O1 0.487171 0.628722 0.286022
O O2 0.618594 0.143402 0.403531
O O3 0.578218 0.830150 0.965797
O O4 0.500000 0.000000 0.000000
O O5 0.278900 0.907837 0.663845
O O6 0.184407 0.919410 0.221039
O O7 0.345636 0.216803 0.293539
O O8 0.240419 0.718468 0.137584
O O9 0.118286 0.014401 0.488498
O O10 0.256014 0.382196 0.372341
O O11 0.109814 0.097073 0.972814
O O12 0.370542 0.434324 0.808814
O O13 0.853456 0.561130 0.368072
O O14 0.000000 0.000000 0.500000
O O15 0.286300 0.546737 0.884877
#
# Coordination Sequence:
#
# PCOD8005437 Si02
#       7
#     2   2   2   2   2   2   2
#     4   9  19  38  68 102 145 186 246 293 365 414
#     4  12  23  42  67 104 139 179 239 295 340 416
#     4  11  24  42  72 104 140 185 238 288 351 423
#     4  10  20  38  70 100 145 191 236 307 355 405
#     4  11  24  48  72 103 143 186 229 286 361 429
#     4  11  23  40  69 101 133 183 234 283 353 423
#     4  10  20  40  67  99 138 188 245 291 346 421
#
# _framework density 25.006539
#
# number of rings (size 3 to 8) (size 9 to 14) (size 15 to 20)
#    0.000    1.429    1.429    5.571    0.000    0.000 
#    0.000    5.714    0.000    0.000    0.000    0.000 
#    0.000    0.000    0.000    0.000    0.000    0.000 
#
# Total GULP energy -173438.510029 kJ/mol
# GULP energy per Si atom -12388.465002 kJ/mol
# Density = 2.494962 g / cm^3
# Si number density = 25.006539 Si / 1000 Ang^3
#
#
#
# Elastic Constant Matrix: (Units=GPa)
#
#
# Indices 1 2 3 4 5 6 
#
# 1 147.1929 43.7202 25.5222 19.9919 -3.1713 -6.2775
# 2 43.7202 84.2170 7.1129 4.0890 1.6514 -12.3269
# 3 25.5222 7.1129 71.2146 9.5642 -6.9160 -8.3182
# 4 19.9919 4.0890 9.5642 37.8747 7.8324 -1.4937
# 5 -3.1713 1.6514 -6.9160 7.8324 33.8935 6.9234
# 6 -6.2775 -12.3269 -8.3182 -1.4937 6.9234 46.0484
#
#
#
# Elastic Compliance Matrix: (Units=1/GPa)
#
#
# Indices 1 2 3 4 5 6 
#
# 1 0.009063 -0.004464 -0.002165 -0.004143 0.001734 -0.000746
# 2 -0.004464 0.014700 0.000180 0.001318 -0.002163 0.003727
# 3 -0.002165 0.000180 0.015835 -0.003505 0.003424 0.001985
# 4 -0.004143 0.001318 -0.003505 0.031185 -0.008674 0.001471
# 5 0.001734 -0.002163 0.003424 -0.008674 0.033505 -0.005043
# 6 -0.000746 0.003727 0.001985 0.001471 -0.005043 0.023777
#
#
# Mechanical properties :
#
#
# Convention : Reuss Voigt Hill
#
# Bulk Modulus (GPa) = 37.45186 50.59280 44.02233
# Shear Modulus (GPa) = 33.36360 38.64793 36.00576
#
# Velocity S-wave (km/s) = 3.65663 3.93557 3.79866
# Velocity P-wave (km/s) = 5.73038 6.39745 6.07308
#
# Compressibility (1/GPa) = 0.02670095
#
# Stress axis : x y z
#
# Youngs Moduli (GPa) = 110.33302 68.02515 63.15110
#
# Poissons Ratio (x) = 0.30369 0.13669
# Poissons Ratio (y) = 0.49256 -0.01136
# Poissons Ratio (z) = 0.23882 -0.01224
#
# Static dielectric constant tensor:
#      x y z
#    x 4.814540 -0.032320 0.028000 
#    y -0.032320 4.872690 0.229320 
#    z 0.028000 0.229320 4.072460 
# 
# 
# High freq. dielectric constant tensor:
#      x y z
#    x 2.006380 -0.013910 -0.001960 
#    y -0.013910 1.994420 0.011680 
#    z -0.001960 0.011680 1.981750 
# 
# From -- ./inp_files/114683.got.cif
#   From: 2010.06.25/outbox.cif.g09.slc.cpg/sg2_58_cif.got.tgz:114683.got - 2010.06.27 13:26:56.
