data_PCOD8005411
_publ_section_title
;
Structure prediction by ZEFSAII (Michael W. Deem and Ramdas Pophale) SiO2 
 PCOD8005411
Probable space group: P -1
;
_chemical_formula_sum "Si O2"
_cell_formula_units_Z 14
_cell_length_a 12.466742
_cell_length_b 15.345401
_cell_length_c 10.007273
_cell_angle_alpha 152.101257
_cell_angle_beta 128.096743
_cell_angle_gamma 44.626687
_cell_volume 628.864853
_symmetry_space_group_name_H-M "P -1"
_symmetry_group_IT_number 2
_symmetry_cell_setting 'triclinic'
loop_
_space_group_symop_operation_xyz
x,y,z
-x,-y,-z
loop_
_atom_site_type_symbol
_atom_site_label
_atom_site_fract_x
_atom_site_fract_y
_atom_site_fract_z
Si Si1 0.405301 0.465515 0.266117
Si Si2 0.622497 0.036939 0.725918
Si Si3 0.091760 0.580463 0.585945
Si Si4 0.676851 0.307167 0.748293
Si Si5 0.623121 0.681867 0.397303
Si Si6 0.090749 0.573081 0.270122
Si Si7 0.104473 0.959933 0.229906
O O1 0.500000 0.500000 0.500000
O O2 0.319255 0.664173 0.369532
O O3 0.268952 0.432408 0.183776
O O4 0.536435 0.268739 0.027803
O O5 0.766175 0.007227 0.707070
O O6 0.500000 0.000000 0.500000
O O7 0.675765 0.859881 0.642701
O O8 0.272087 0.453867 0.584405
O O9 0.059225 0.537369 0.351252
O O10 0.000000 0.500000 0.500000
O O11 0.044302 0.824129 0.909732
O O12 0.552731 0.221443 0.562392
O O13 0.833506 0.145557 0.720157
O O14 0.634976 0.536504 0.083540
O O15 0.038767 0.819821 0.549346
O O16 0.000000 0.500000 0.000000
#
# Coordination Sequence:
#
# PCOD8005411 Si02
#       7
#     2   2   2   2   2   2   2
#     4  12  26  44  65  99 145 180 222 289 357 404
#     4  12  20  40  74 102 130 183 237 276 338 419
#     4  11  25  46  71  97 135 188 242 279 332 423
#     4  10  20  39  67  99 130 172 230 284 333 400
#     4  10  20  38  69 100 126 170 240 286 314 398
#     4  12  28  46  67 105 150 178 222 294 367 405
#     4  11  24  44  74  99 135 188 239 279 336 425
#
# _framework density 22.262335
#
# number of rings (size 3 to 8) (size 9 to 14) (size 15 to 20)
#    0.000    0.857    2.857    5.571    4.000    1.714 
#    2.571    1.429    0.000    0.000    0.000    0.000 
#    0.000    0.000    0.000    0.000    0.000    0.000 
#
# Total GULP energy -173567.260699 kJ/mol
# GULP energy per Si atom -12397.661479 kJ/mol
# Density = 2.221166 g / cm^3
# Si number density = 22.262335 Si / 1000 Ang^3
#
#
#
# Elastic Constant Matrix: (Units=GPa)
#
#
# Indices 1 2 3 4 5 6 
#
# 1 83.6656 21.5502 17.4575 -10.9441 10.0267 11.3638
# 2 21.5502 96.7086 42.0349 -20.5602 -9.3913 20.3679
# 3 17.4575 42.0349 82.3774 -21.6556 6.5268 7.2973
# 4 -10.9441 -20.5602 -21.6556 50.6473 -0.4042 -0.0743
# 5 10.0267 -9.3913 6.5268 -0.4042 33.8520 -0.3088
# 6 11.3638 20.3679 7.2973 -0.0743 -0.3088 43.8003
#
#
#
# Elastic Compliance Matrix: (Units=1/GPa)
#
#
# Indices 1 2 3 4 5 6 
#
# 1 0.013804 -0.002354 -0.000703 0.001686 -0.004608 -0.002399
# 2 -0.002354 0.016496 -0.007085 0.003203 0.006625 -0.005828
# 3 -0.000703 -0.007085 0.017406 0.004374 -0.005056 0.000549
# 4 0.001686 0.003203 0.004374 0.023274 -0.000200 -0.002618
# 5 -0.004608 0.006625 -0.005056 -0.000200 0.033708 -0.000806
# 6 -0.002399 -0.005828 0.000549 -0.002618 -0.000806 0.026062
#
#
# Mechanical properties :
#
#
# Convention : Reuss Voigt Hill
#
# Bulk Modulus (GPa) = 36.46906 47.20410 41.83658
# Shear Modulus (GPa) = 31.21579 37.77385 34.49482
#
# Velocity S-wave (km/s) = 3.74863 4.12364 3.94060
# Velocity P-wave (km/s) = 5.92903 6.62738 6.28791
#
# Compressibility (1/GPa) = 0.02742051
#
# Stress axis : x y z
#
# Youngs Moduli (GPa) = 72.44225 60.61994 57.45252
#
# Poissons Ratio (x) = 0.14270 0.04040
# Poissons Ratio (y) = 0.17053 0.40707
# Poissons Ratio (z) = 0.05095 0.42952
#
# Static dielectric constant tensor:
#      x y z
#    x 5.729620 1.705430 2.404810 
#    y 1.705430 5.875710 1.936510 
#    z 2.404810 1.936510 6.586710 
# 
# 
# High freq. dielectric constant tensor:
#      x y z
#    x 1.872890 0.001680 0.011420 
#    y 0.001680 1.898460 -0.007510 
#    z 0.011420 -0.007510 1.858430 
# 
# From -- ./inp_files/157188.got.cif
#   From: 2010.06.25/outbox.cif.g09.slc.cpg/sg2_79_cif.got.tgz:157188.got - 2010.06.27 13:26:56.
