data_PCOD8005017
_publ_section_title
;
Structure prediction by ZEFSAII (Michael W. Deem and Ramdas Pophale) SiO2 
 PCOD8005017
Probable space group: P -1
;
_chemical_formula_sum "Si O2"
_cell_formula_units_Z 12
_cell_length_a 8.550058
_cell_length_b 12.664995
_cell_length_c 12.663021
_cell_angle_alpha 51.975447
_cell_angle_beta 46.550709
_cell_angle_gamma 90.169749
_cell_volume 522.290452
_symmetry_space_group_name_H-M "P -1"
_symmetry_group_IT_number 2
_symmetry_cell_setting 'triclinic'
loop_
_space_group_symop_operation_xyz
x,y,z
-x,-y,-z
loop_
_atom_site_type_symbol
_atom_site_label
_atom_site_fract_x
_atom_site_fract_y
_atom_site_fract_z
Si Si1 0.785461 0.653400 0.154667
Si Si2 0.750303 0.760307 0.442783
Si Si3 0.357958 0.144616 0.827555
Si Si4 0.581846 0.078246 0.176393
Si Si5 0.751167 0.008890 0.421290
Si Si6 0.796157 0.271667 0.734668
O O1 0.570283 0.429984 0.354621
O O2 0.576378 0.663627 0.318273
O O3 0.087261 0.736893 0.027989
O O4 0.897889 0.788643 0.913688
O O5 0.945145 0.722993 0.417451
O O6 0.657606 0.814908 0.548680
O O7 0.967921 0.941575 0.143835
O O8 0.518870 0.146508 0.852850
O O9 0.475309 0.110639 0.693484
O O10 0.277153 0.996251 0.434491
O O11 0.614317 0.166478 0.995284
O O12 0.500000 0.000000 0.500000
O O13 0.000000 0.500000 0.500000
#
# Coordination Sequence:
#
# PCOD8005017 Si02
#       6
#     2   2   2   2   2   2
#     4  10  20  39  63  91 120 151 199 244 298 353
#     4  10  20  38  64  85 122 156 193 245 297 341
#     4  10  21  40  62  85 121 155 199 249 295 345
#     4  10  21  38  61  89 119 158 196 246 294 347
#     4   9  21  40  58  89 125 155 191 243 300 352
#     4  11  22  42  61  86 120 160 201 244 293 350
#
# _framework density 22.975722999999999
#
# number of rings (size 3 to 8) (size 9 to 14) (size 15 to 20)
#    0.000    2.000    1.667    2.500    0.000    6.667 
#   12.000    8.333    0.000    0.000    0.000    0.000 
#    0.000    0.000    0.000    0.000    0.000    0.000 
#
# Total GULP energy -148752.286575 kJ/mol
# GULP energy per Si atom -12396.023881 kJ/mol
# Density = 2.292343 g / cm^3
# Si number density = 22.975723 Si / 1000 Ang^3
#
#
#
# Elastic Constant Matrix: (Units=GPa)
#
#
# Indices 1 2 3 4 5 6 
#
# 1 42.3219 13.8509 -0.9745 -0.2862 2.5985 -0.9789
# 2 13.8509 199.7657 59.1847 7.7758 6.8379 -11.6066
# 3 -0.9745 59.1847 55.4800 -0.4419 -1.6524 12.8519
# 4 -0.2862 7.7758 -0.4419 44.5019 5.1032 0.6457
# 5 2.5985 6.8379 -1.6524 5.1032 23.0976 -5.3911
# 6 -0.9789 -11.6066 12.8519 0.6457 -5.3911 42.1202
#
#
#
# Elastic Compliance Matrix: (Units=1/GPa)
#
#
# Indices 1 2 3 4 5 6 
#
# 1 0.024786 -0.002940 0.003914 0.000997 -0.002263 -0.001733
# 2 -0.002940 0.008847 -0.010821 -0.001589 -0.001425 0.005513
# 3 0.003914 -0.010821 0.032640 0.002235 0.001646 -0.012674
# 4 0.000997 -0.001589 0.002235 0.023398 -0.005145 -0.002114
# 5 -0.002263 -0.001425 0.001646 -0.005145 0.046409 0.005071
# 6 -0.001733 0.005513 -0.012674 -0.002114 0.005071 0.029769
#
#
# Mechanical properties :
#
#
# Convention : Reuss Voigt Hill
#
# Bulk Modulus (GPa) = 21.46940 49.07666 35.27303
# Shear Modulus (GPa) = 24.86696 36.97770 30.92233
#
# Velocity S-wave (km/s) = 3.29342 4.01612 3.67259
# Velocity P-wave (km/s) = 4.88128 6.55074 5.77664
#
# Compressibility (1/GPa) = 0.04657791
#
# Stress axis : x y z
#
# Youngs Moduli (GPa) = 40.34471 113.03627 30.63732
#
# Poissons Ratio (x) = 0.33236 -0.11992
# Poissons Ratio (y) = 0.11862 0.33154
# Poissons Ratio (z) = -0.15791 1.22321
#
# Static dielectric constant tensor:
#      x y z
#    x 4.106820 0.058990 0.080940 
#    y 0.058990 4.756100 0.314360 
#    z 0.080940 0.314360 4.399530 
# 
# 
# High freq. dielectric constant tensor:
#      x y z
#    x 1.901410 -0.002950 0.006160 
#    y -0.002950 1.925560 -0.008320 
#    z 0.006160 -0.008320 1.885780 
# 
# From -- ./inp_files/198436.got.cif
#   From: 2010.06.25/outbox.cif.g09.slc.cpg/sg2_100_cif.got.tgz:198436.got - 2010.06.27 13:26:56.
