data_PCOD8005425
_publ_section_title
;
Structure prediction by ZEFSAII (Michael W. Deem and Ramdas Pophale) SiO2 
 PCOD8005425
Probable space group: P -1
;
_chemical_formula_sum "Si O2"
_cell_formula_units_Z 16
_cell_length_a 16.150062
_cell_length_b 21.333233
_cell_length_c 9.803749
_cell_angle_alpha 146.382200
_cell_angle_beta 35.624904
_cell_angle_gamma 153.230943
_cell_volume 809.049111
_symmetry_space_group_name_H-M "P -1"
_symmetry_group_IT_number 2
_symmetry_cell_setting 'triclinic'
loop_
_space_group_symop_operation_xyz
x,y,z
-x,-y,-z
loop_
_atom_site_type_symbol
_atom_site_label
_atom_site_fract_x
_atom_site_fract_y
_atom_site_fract_z
Si Si1 0.006416 0.554513 0.737917
Si Si2 0.806827 0.946205 0.725099
Si Si3 0.235074 0.109481 0.014671
Si Si4 0.721154 0.100111 0.921442
Si Si5 0.465429 0.589663 0.526473
Si Si6 0.931238 0.557842 0.301466
Si Si7 0.066394 0.864464 0.568008
Si Si8 0.603457 0.433162 0.113148
O O1 0.003624 0.445017 0.642031
O O2 0.000000 0.500000 0.500000
O O3 0.186545 0.730468 0.852917
O O4 0.816402 0.525584 0.949186
O O5 0.827534 0.981700 0.923840
O O6 0.643864 0.767036 0.595739
O O7 0.743681 0.029331 0.891465
O O8 0.000000 0.000000 0.500000
O O9 0.462530 0.250941 0.955665
O O10 0.133233 0.178207 0.269697
O O11 0.190293 0.007232 0.761683
O O12 0.824365 0.096722 0.649015
O O13 0.500000 0.000000 0.000000
O O14 0.297693 0.548225 0.580890
O O15 0.532467 0.499236 0.232728
O O16 0.379853 0.529175 0.682092
O O17 0.034654 0.729201 0.438649
O O18 0.000000 0.500000 0.000000
#
# Coordination Sequence:
#
# PCOD8005425 Si02
#       8
#     2   2   2   2   2   2   2   2
#     4  12  28  44  64  97 138 171 214 279 336 384
#     4  11  22  39  65  95 129 168 214 263 331 386
#     4  10  23  41  68  99 129 171 223 279 318 388
#     4  12  26  44  64  93 139 178 212 265 337 400
#     4  10  20  38  69  95 120 171 225 260 319 394
#     4  12  22  43  67  94 125 173 220 260 324 395
#     4  11  23  43  67  96 131 173 222 275 324 388
#     4  10  20  41  67  94 129 166 222 275 320 378
#
# _framework density 19.776302999999999
#
# number of rings (size 3 to 8) (size 9 to 14) (size 15 to 20)
#    0.000    1.000    5.000    1.500    5.250    0.000 
#    0.000    1.875    0.000    0.000    0.000    0.000 
#    0.000    0.000    0.000    0.000    0.000    0.000 
#
# Total GULP energy -198417.940431 kJ/mol
# GULP energy per Si atom -12401.121277 kJ/mol
# Density = 1.973129 g / cm^3
# Si number density = 19.776303 Si / 1000 Ang^3
#
#
#
# Elastic Constant Matrix: (Units=GPa)
#
#
# Indices 1 2 3 4 5 6 
#
# 1 121.7452 31.1724 53.0121 0.5451 -8.1953 -10.4617
# 2 31.1724 91.6201 46.4258 0.3366 -3.1761 2.0189
# 3 53.0121 46.4258 93.7456 7.7461 -0.9115 -0.2309
# 4 0.5451 0.3366 7.7461 24.9439 1.1881 -9.1239
# 5 -8.1953 -3.1761 -0.9115 1.1881 41.3530 -0.7975
# 6 -10.4617 2.0189 -0.2309 -9.1239 -0.7975 45.7324
#
#
#
# Elastic Compliance Matrix: (Units=1/GPa)
#
#
# Indices 1 2 3 4 5 6 
#
# 1 0.011594 -0.000705 -0.006414 0.002839 0.002083 0.003254
# 2 -0.000705 0.014759 -0.007053 0.001795 0.000778 -0.000477
# 3 -0.006414 -0.007053 0.018284 -0.006234 -0.001276 -0.002329
# 4 0.002839 0.001795 -0.006234 0.045478 -0.000558 0.009602
# 5 0.002083 0.000778 -0.001276 -0.000558 0.024657 0.000754
# 6 0.003254 -0.000477 -0.002329 0.009602 0.000754 0.024549
#
#
# Mechanical properties :
#
#
# Convention : Reuss Voigt Hill
#
# Bulk Modulus (GPa) = 61.36881 63.14796 62.25838
# Shear Modulus (GPa) = 28.88595 34.17256 31.52925
#
# Velocity S-wave (km/s) = 3.82597 4.16138 3.99719
# Velocity P-wave (km/s) = 7.11451 7.42225 7.27001
#
# Compressibility (1/GPa) = 0.01629492
#
# Stress axis : x y z
#
# Youngs Moduli (GPa) = 86.25012 67.75561 54.69380
#
# Poissons Ratio (x) = 0.04775 0.35079
# Poissons Ratio (y) = 0.06078 0.38573
# Poissons Ratio (z) = 0.55318 0.47785
#
# Static dielectric constant tensor:
#      x y z
#    x 3.732350 0.098160 -0.177920 
#    y 0.098160 3.514140 -0.027630 
#    z -0.177920 -0.027630 3.599600 
# 
# 
# High freq. dielectric constant tensor:
#      x y z
#    x 1.783020 0.002340 -0.012430 
#    y 0.002340 1.781440 0.003170 
#    z -0.012430 0.003170 1.762900 
# 
# From -- ./inp_files/318147.got.cif
#   From: 2010.06.25/outbox.cif.g09.slc.cpg/sg2_160_cif.got.tgz:318147.got - 2010.06.27 13:26:56.
