data_PCOD8005930
_publ_section_title
;
Structure prediction by ZEFSAII (Michael W. Deem and Ramdas Pophale) SiO2 
 PCOD8005930
Probable space group: P -1
;
_chemical_formula_sum "Si O2"
_cell_formula_units_Z 16
_cell_length_a 13.139581
_cell_length_b 19.189666
_cell_length_c 7.974101
_cell_angle_alpha 149.601836
_cell_angle_beta 57.446524
_cell_angle_gamma 133.846528
_cell_volume 723.948334
_symmetry_space_group_name_H-M "P -1"
_symmetry_group_IT_number 2
_symmetry_cell_setting 'triclinic'
loop_
_space_group_symop_operation_xyz
x,y,z
-x,-y,-z
loop_
_atom_site_type_symbol
_atom_site_label
_atom_site_fract_x
_atom_site_fract_y
_atom_site_fract_z
Si Si1 0.622235 0.677365 0.705746
Si Si2 0.893342 0.586975 0.943643
Si Si3 0.851161 0.612499 0.399987
Si Si4 0.404821 0.755812 0.130307
Si Si5 0.316589 0.038522 0.229514
Si Si6 0.933570 0.298945 0.303544
Si Si7 0.455773 0.944780 0.162293
Si Si8 0.352091 0.353396 0.763433
O O1 0.500000 0.500000 0.500000
O O2 0.776395 0.716096 0.716070
O O3 0.631972 0.698518 0.542464
O O4 0.566297 0.788275 0.057623
O O5 0.860397 0.403936 0.593322
O O6 0.010177 0.693263 0.919054
O O7 0.939958 0.664949 0.253523
O O8 0.752358 0.581165 0.000194
O O9 0.944780 0.631157 0.515683
O O10 0.723234 0.425599 0.090365
O O11 0.373137 0.800044 0.068360
O O12 0.414391 0.884323 0.522006
O O13 0.296096 0.190577 0.588594
O O14 0.331960 0.966136 0.240098
O O15 0.468466 0.109287 0.149372
O O16 0.180171 0.890245 0.946145
O O17 0.500000 0.500000 0.000000
#
# Coordination Sequence:
#
# PCOD8005930 Si02
#       8
#     2   2   2   2   2   2   2   2
#     4   9  20  37  62  96 124 159 217 263 327 385
#     4  10  25  43  66  99 128 179 224 265 324 394
#     4  10  22  41  69  93 132 172 221 268 321 398
#     4  10  20  39  64 100 126 171 212 269 337 382
#     4  11  25  42  63  99 131 173 214 273 330 388
#     4  11  25  43  68  93 136 177 221 269 324 394
#     4  10  23  38  65  94 136 162 216 276 326 392
#     4  11  25  41  68  93 130 171 215 277 330 386
#
# _framework density 22.101025
#
# number of rings (size 3 to 8) (size 9 to 14) (size 15 to 20)
#    0.000    1.750    1.250    1.125   15.750    0.500 
#    2.250    2.500    0.000    0.000    0.000    0.000 
#    0.000    0.000    0.000    0.000    0.000    0.000 
#
# Total GULP energy -198302.347683 kJ/mol
# GULP energy per Si atom -12393.896730 kJ/mol
# Density = 2.205072 g / cm^3
# Si number density = 22.101025 Si / 1000 Ang^3
#
#
#
# Elastic Constant Matrix: (Units=GPa)
#
#
# Indices 1 2 3 4 5 6 
#
# 1 131.5094 35.5999 44.3792 0.2478 -24.2009 -6.9948
# 2 35.5999 65.0500 25.5482 -11.7687 -5.7133 -3.9429
# 3 44.3792 25.5482 69.5944 5.0315 -16.2580 5.2993
# 4 0.2478 -11.7687 5.0315 34.2871 -0.1435 2.6399
# 5 -24.2009 -5.7133 -16.2580 -0.1435 31.9556 2.6680
# 6 -6.9948 -3.9429 5.2993 2.6399 2.6680 27.5395
#
#
#
# Elastic Compliance Matrix: (Units=1/GPa)
#
#
# Indices 1 2 3 4 5 6 
#
# 1 0.011382 -0.003898 -0.004745 -0.000919 0.005269 0.002823
# 2 -0.003898 0.021653 -0.006941 0.008241 -0.002819 0.002929
# 3 -0.004745 -0.006941 0.022494 -0.005101 0.007149 -0.006731
# 4 -0.000919 0.008241 -0.005101 0.032825 -0.001581 -0.001065
# 5 0.005269 -0.002819 0.007149 -0.001581 0.038747 -0.004043
# 6 0.002823 0.002929 -0.006731 -0.001065 -0.004043 0.039237
#
#
# Mechanical properties :
#
#
# Convention : Reuss Voigt Hill
#
# Bulk Modulus (GPa) = 41.04739 53.02315 47.03527
# Shear Modulus (GPa) = 24.31607 29.46487 26.89047
#
# Velocity S-wave (km/s) = 3.32056 3.65525 3.49192
# Velocity P-wave (km/s) = 5.77187 6.46976 6.13075
#
# Compressibility (1/GPa) = 0.02436209
#
# Stress axis : x y z
#
# Youngs Moduli (GPa) = 87.85890 46.18336 44.45632
#
# Poissons Ratio (x) = 0.18002 0.21093
# Poissons Ratio (y) = 0.34246 0.30856
# Poissons Ratio (z) = 0.41687 0.32054
#
# Static dielectric constant tensor:
#      x y z
#    x 4.253530 -0.170620 -0.427750 
#    y -0.170620 3.975490 -0.304660 
#    z -0.427750 -0.304660 3.966840 
# 
# 
# High freq. dielectric constant tensor:
#      x y z
#    x 1.878090 -0.017460 -0.020820 
#    y -0.017460 1.861850 -0.014430 
#    z -0.020820 -0.014430 1.856360 
# 
# From -- ./inp_files/283494.got.cif
#   From: 2010.06.25/outbox.cif.g09.slc.cpg/sg2_142_cif.got.tgz:283494.got - 2010.06.27 13:26:56.
