data_PCOD8005529
_publ_section_title
;
Structure prediction by ZEFSAII (Michael W. Deem and Ramdas Pophale) SiO2 
 PCOD8005529
Probable space group: P -1
;
_chemical_formula_sum "Si O2"
_cell_formula_units_Z 14
_cell_length_a 11.746640
_cell_length_b 12.721902
_cell_length_c 6.649430
_cell_angle_alpha 43.437252
_cell_angle_beta 91.537250
_cell_angle_gamma 84.384507
_cell_volume 672.948841
_symmetry_space_group_name_H-M "P -1"
_symmetry_group_IT_number 2
_symmetry_cell_setting 'triclinic'
loop_
_space_group_symop_operation_xyz
x,y,z
-x,-y,-z
loop_
_atom_site_type_symbol
_atom_site_label
_atom_site_fract_x
_atom_site_fract_y
_atom_site_fract_z
Si Si1 0.363439 0.630383 0.738660
Si Si2 0.111764 0.624743 0.704975
Si Si3 0.565721 0.136719 0.880970
Si Si4 0.904454 0.717198 0.828222
Si Si5 0.170697 0.005319 0.831183
Si Si6 0.017488 0.184451 0.903866
Si Si7 0.498202 0.615604 0.155090
O O1 0.228734 0.696171 0.607694
O O2 0.439169 0.742212 0.472655
O O3 0.393567 0.455701 0.884766
O O4 0.387732 0.626390 0.985120
O O5 0.038198 0.670066 0.437496
O O6 0.036667 0.699380 0.784917
O O7 0.145002 0.440370 0.990113
O O8 0.502630 0.217493 0.968593
O O9 0.500000 0.000000 0.000000
O O10 0.699073 0.078357 0.019158
O O11 0.823319 0.853547 0.516501
O O12 0.904826 0.753058 0.012562
O O13 0.111125 0.061109 0.962181
O O14 0.086594 0.891907 0.897554
O O15 0.500000 0.500000 0.500000
#
# Coordination Sequence:
#
# PCOD8005529 Si02
#       7
#     2   2   2   2   2   2   2
#     4  10  21  41  64  84 122 165 203 254 303 366
#     4  10  21  37  60  89 119 153 204 239 298 365
#     4  11  24  41  62  91 122 160 210 256 306 362
#     4  10  22  35  58  93 120 154 196 248 296 358
#     4  10  22  37  57  89 121 155 200 243 298 362
#     4  10  20  39  59  86 123 159 196 239 304 358
#     4   9  22  40  61  89 114 160 210 249 301 361
#
# _framework density 20.803958000000002
#
# number of rings (size 3 to 8) (size 9 to 14) (size 15 to 20)
#    0.000    2.000    1.429    0.857    2.000    6.286 
#    0.000    0.000    0.000    0.000    0.000    0.000 
#    0.000    0.000    0.000    0.000    0.000    0.000 
#
# Total GULP energy -173515.566399 kJ/mol
# GULP energy per Si atom -12393.969028 kJ/mol
# Density = 2.075661 g / cm^3
# Si number density = 20.803958 Si / 1000 Ang^3
#
#
#
# Elastic Constant Matrix: (Units=GPa)
#
#
# Indices 1 2 3 4 5 6 
#
# 1 66.1521 29.9303 7.4139 -2.0942 1.4473 -2.4944
# 2 29.9303 120.2332 38.1318 11.7047 7.4733 3.1791
# 3 7.4139 38.1318 90.8549 -4.3821 3.0873 4.1451
# 4 -2.0942 11.7047 -4.3821 30.5585 0.3978 9.6337
# 5 1.4473 7.4733 3.0873 0.3978 26.7785 -0.3658
# 6 -2.4944 3.1791 4.1451 9.6337 -0.3658 12.5859
#
#
#
# Elastic Compliance Matrix: (Units=1/GPa)
#
#
# Indices 1 2 3 4 5 6 
#
# 1 0.017405 -0.004829 0.000577 0.002248 0.000345 0.002769
# 2 -0.004829 0.011755 -0.004872 -0.006259 -0.002332 0.002401
# 3 0.000577 -0.004872 0.013699 0.006430 -0.000457 -0.008102
# 4 0.002248 -0.006259 0.006430 0.047758 -0.000326 -0.036657
# 5 0.000345 -0.002332 -0.000457 -0.000326 0.038063 0.002164
# 6 0.002769 0.002401 -0.008102 -0.036657 0.002164 0.110187
#
#
# Mechanical properties :
#
#
# Convention : Reuss Voigt Hill
#
# Bulk Modulus (GPa) = 40.63117 47.57690 44.10404
# Shear Modulus (GPa) = 18.84526 27.43552 23.14039
#
# Velocity S-wave (km/s) = 3.01300 3.63542 3.33874
# Velocity P-wave (km/s) = 5.62824 6.36714 6.00906
#
# Compressibility (1/GPa) = 0.02461165
#
# Stress axis : x y z
#
# Youngs Moduli (GPa) = 57.45476 85.06918 72.99550
#
# Poissons Ratio (x) = 0.41081 -0.04211
# Poissons Ratio (y) = 0.27746 0.35561
# Poissons Ratio (z) = -0.03315 0.41443
#
# Static dielectric constant tensor:
#      x y z
#    x 3.494790 -0.190050 0.011130 
#    y -0.190050 3.988470 -0.050910 
#    z 0.011130 -0.050910 3.863360 
# 
# 
# High freq. dielectric constant tensor:
#      x y z
#    x 1.789110 -0.011470 0.012270 
#    y -0.011470 1.817610 -0.002850 
#    z 0.012270 -0.002850 1.824060 
# 
# From -- ./inp_files/27114.got.cif
#   From: 2010.06.25/outbox.cif.g09.slc.cpg/sg2_14_cif.got.tgz:27114.got - 2010.06.27 13:26:56.
