data_PCOD8005700
_publ_section_title
;
Structure prediction by ZEFSAII (Michael W. Deem and Ramdas Pophale) SiO2 
 PCOD8005700
Probable space group: P -1
;
_chemical_formula_sum "Si O2"
_cell_formula_units_Z 14
_cell_length_a 11.786476
_cell_length_b 13.687127
_cell_length_c 8.750372
_cell_angle_alpha 98.989828
_cell_angle_beta 36.209902
_cell_angle_gamma 118.190440
_cell_volume 662.895030
_symmetry_space_group_name_H-M "P -1"
_symmetry_group_IT_number 2
_symmetry_cell_setting 'triclinic'
loop_
_space_group_symop_operation_xyz
x,y,z
-x,-y,-z
loop_
_atom_site_type_symbol
_atom_site_label
_atom_site_fract_x
_atom_site_fract_y
_atom_site_fract_z
Si Si1 0.464495 0.315857 0.896724
Si Si2 0.309463 0.677029 0.776318
Si Si3 0.222327 0.473719 0.603208
Si Si4 0.425483 0.848680 0.407725
Si Si5 0.673738 0.710165 0.613908
Si Si6 0.986640 0.852915 0.839508
Si Si7 0.953023 0.061116 0.877062
O O1 0.686424 0.451298 0.636740
O O2 0.536164 0.222916 0.780082
O O3 0.407663 0.324812 0.133166
O O4 0.237620 0.271354 0.023377
O O5 0.302009 0.567386 0.678826
O O6 0.364723 0.780539 0.620008
O O7 0.506282 0.734569 0.708853
O O8 0.062143 0.623910 0.116722
O O9 0.334140 0.399483 0.483137
O O10 0.217090 0.855032 0.575886
O O11 0.667965 0.987311 0.190561
O O12 0.941334 0.839234 0.349966
O O13 0.026144 0.970048 0.740747
O O14 0.918752 0.858354 0.089183
#
# Coordination Sequence:
#
# PCOD8005700 Si02
#       7
#     2   2   2   2   2   2   2
#     4  10  24  39  57  86 117 154 191 226 287 348
#     4  10  22  38  63  90 108 145 199 238 282 335
#     4  10  22  40  59  84 114 151 193 236 283 332
#     4  10  21  40  61  85 116 149 190 240 282 332
#     4  12  23  38  58  86 122 151 185 235 284 342
#     4  10  20  39  62  83 115 151 189 239 284 331
#     4  10  21  36  60  89 112 148 196 233 281 337
#
# _framework density 21.119482999999999
#
# number of rings (size 3 to 8) (size 9 to 14) (size 15 to 20)
#    0.000    1.714    0.000    5.571    0.000    8.571 
#    0.000    1.429    0.000    0.000    0.000    0.000 
#    0.000    0.000    0.000    0.000    0.000    0.000 
#
# Total GULP energy -173614.829004 kJ/mol
# GULP energy per Si atom -12401.059215 kJ/mol
# Density = 2.107141 g / cm^3
# Si number density = 21.119483 Si / 1000 Ang^3
#
#
#
# Elastic Constant Matrix: (Units=GPa)
#
#
# Indices 1 2 3 4 5 6 
#
# 1 69.8057 23.4025 60.5714 11.0484 -20.1840 -3.0319
# 2 23.4025 59.6664 42.9455 -2.6192 -2.9525 -4.8555
# 3 60.5714 42.9455 149.9384 -14.9638 0.0530 -1.6696
# 4 11.0484 -2.6192 -14.9638 30.2497 -8.6229 -5.0680
# 5 -20.1840 -2.9525 0.0530 -8.6229 34.3015 0.9747
# 6 -3.0319 -4.8555 -1.6696 -5.0680 0.9747 21.1398
#
#
#
# Elastic Compliance Matrix: (Units=1/GPa)
#
#
# Indices 1 2 3 4 5 6 
#
# 1 0.036168 -0.003118 -0.015389 -0.016516 0.016928 -0.001484
# 2 -0.003118 0.021897 -0.004812 0.001504 0.000306 0.004549
# 3 -0.015389 -0.004812 0.015377 0.011032 -0.006744 0.000858
# 4 -0.016516 0.001504 0.011032 0.046895 0.001899 0.010003
# 5 0.016928 0.000306 -0.006744 0.001899 0.039611 0.000594
# 6 -0.001484 0.004549 0.000858 0.010003 0.000594 0.050574
#
#
# Mechanical properties :
#
#
# Convention : Reuss Voigt Hill
#
# Bulk Modulus (GPa) = 37.30507 59.24990 48.27749
# Shear Modulus (GPa) = 18.79029 27.30427 23.04728
#
# Velocity S-wave (km/s) = 2.98604 3.59952 3.30704
# Velocity P-wave (km/s) = 5.43974 6.73728 6.12298
#
# Compressibility (1/GPa) = 0.02680600
#
# Stress axis : x y z
#
# Youngs Moduli (GPa) = 27.64879 45.66762 65.03149
#
# Poissons Ratio (x) = 0.14238 1.00075
# Poissons Ratio (y) = 0.08620 0.31291
# Poissons Ratio (z) = 0.42548 0.21974
#
# Static dielectric constant tensor:
#      x y z
#    x 3.455940 -0.102980 -0.094990 
#    y -0.102980 3.840480 -0.144590 
#    z -0.094990 -0.144590 3.956340 
# 
# 
# High freq. dielectric constant tensor:
#      x y z
#    x 1.798310 -0.011360 -0.010470 
#    y -0.011360 1.830870 -0.009250 
#    z -0.010470 -0.009250 1.839260 
# 
# From -- ./inp_files/267993.got.cif
#   From: 2010.06.25/outbox.cif.g09.slc.cpg/sg2_134_cif.got.tgz:267993.got - 2010.06.27 13:26:56.
