data_PCOD8005098
_publ_section_title
;
Structure prediction by ZEFSAII (Michael W. Deem and Ramdas Pophale) SiO2 
 PCOD8005098
Probable space group: P -1
;
_chemical_formula_sum "Si O2"
_cell_formula_units_Z 16
_cell_length_a 19.658274
_cell_length_b 8.225987
_cell_length_c 20.386012
_cell_angle_alpha 108.648424
_cell_angle_beta 166.077217
_cell_angle_gamma 69.989226
_cell_volume 744.201056
_symmetry_space_group_name_H-M "P -1"
_symmetry_group_IT_number 2
_symmetry_cell_setting 'triclinic'
loop_
_space_group_symop_operation_xyz
x,y,z
-x,-y,-z
loop_
_atom_site_type_symbol
_atom_site_label
_atom_site_fract_x
_atom_site_fract_y
_atom_site_fract_z
Si Si1 0.248209 0.529005 0.009092
Si Si2 0.443054 0.352496 0.808634
Si Si3 0.825670 0.261087 0.384982
Si Si4 0.271838 0.876965 0.263268
Si Si5 0.076583 0.835089 0.681884
Si Si6 0.803053 0.407690 0.755620
Si Si7 0.657195 0.574953 0.509700
Si Si8 0.248046 0.194626 0.885727
O O1 0.400047 0.639963 0.113188
O O2 0.472034 0.483083 0.272391
O O3 0.175849 0.346613 0.890560
O O4 0.938796 0.642107 0.750688
O O5 0.281029 0.537851 0.702264
O O6 0.226340 0.210561 0.582027
O O7 0.673165 0.304660 0.074446
O O8 0.917359 0.163388 0.391007
O O9 0.102126 0.253616 0.688006
O O10 0.588236 0.163940 0.186617
O O11 0.176502 0.794806 0.231876
O O12 0.418381 0.725285 0.333179
O O13 0.500000 0.000000 0.500000
O O14 0.000000 0.000000 0.000000
O O15 0.132028 0.024346 0.783335
O O16 0.500000 0.500000 0.500000
O O17 0.824354 0.438217 0.701560
O O18 0.000000 0.500000 0.000000
#
# Coordination Sequence:
#
# PCOD8005098 Si02
#       8
#     2   2   2   2   2   2   2   2
#     4  11  23  42  61  85 119 173 215 236 293 376
#     4  11  23  38  60  87 124 161 204 258 309 374
#     4  11  21  39  61  88 119 162 207 255 324 385
#     4  11  22  39  65 101 131 148 186 255 309 341
#     4  12  22  38  61  92 120 155 205 274 327 351
#     4  10  20  38  64  94 122 157 199 237 286 351
#     4  11  22  41  68  88 121 171 206 236 290 376
#     4  11  23  39  61  87 121 159 209 265 303 362
#
# _framework density 21.499566999999999
#
# number of rings (size 3 to 8) (size 9 to 14) (size 15 to 20)
#    0.000    1.000    0.000   10.500    0.000    0.000 
#    0.000    5.000    0.000    3.000    0.000    0.000 
#    0.000    0.000    0.000    0.000    0.000    0.000 
#
# Total GULP energy -198305.824523 kJ/mol
# GULP energy per Si atom -12394.114033 kJ/mol
# Density = 2.145063 g / cm^3
# Si number density = 21.499567 Si / 1000 Ang^3
#
#
#
# Elastic Constant Matrix: (Units=GPa)
#
#
# Indices 1 2 3 4 5 6 
#
# 1 84.9416 47.9684 39.2262 10.1776 2.6214 3.9543
# 2 47.9684 102.5331 37.3952 14.0557 0.3416 19.3277
# 3 39.2262 37.3952 141.0414 11.7352 -3.4445 6.2723
# 4 10.1776 14.0557 11.7352 43.3581 1.9090 3.6785
# 5 2.6214 0.3416 -3.4445 1.9090 50.9728 0.9396
# 6 3.9543 19.3277 6.2723 3.6785 0.9396 19.8337
#
#
#
# Elastic Compliance Matrix: (Units=1/GPa)
#
#
# Indices 1 2 3 4 5 6 
#
# 1 0.017580 -0.008032 -0.002937 -0.001147 -0.001107 0.005516
# 2 -0.008032 0.016986 -0.001457 -0.002051 0.000538 -0.014136
# 3 -0.002937 -0.001457 0.008427 -0.001112 0.000781 -0.000490
# 4 -0.001147 -0.002051 -0.001112 0.024501 -0.000885 -0.001923
# 5 -0.001107 0.000538 0.000781 -0.000885 0.019782 -0.001324
# 6 0.005516 -0.014136 -0.000490 -0.001923 -0.001324 0.063669
#
#
# Mechanical properties :
#
#
# Convention : Reuss Voigt Hill
#
# Bulk Modulus (GPa) = 55.12592 64.18840 59.65716
# Shear Modulus (GPa) = 27.49622 36.42801 31.96211
#
# Velocity S-wave (km/s) = 3.58008 4.12073 3.85988
# Velocity P-wave (km/s) = 6.54106 7.24990 6.90458
#
# Compressibility (1/GPa) = 0.01814029
#
# Stress axis : x y z
#
# Youngs Moduli (GPa) = 56.88380 58.87135 118.67227
#
# Poissons Ratio (x) = 0.47287 0.34848
# Poissons Ratio (y) = 0.45691 0.17294
# Poissons Ratio (z) = 0.16704 0.08579
#
# Static dielectric constant tensor:
#      x y z
#    x 5.740180 0.403330 -0.401020 
#    y 0.403330 3.859180 0.005590 
#    z -0.401020 0.005590 4.281760 
# 
# 
# High freq. dielectric constant tensor:
#      x y z
#    x 1.835480 0.014030 0.001270 
#    y 0.014030 1.830270 0.002150 
#    z 0.001270 0.002150 1.877560 
# 
# From -- ./inp_files/614041.got.cif
#   From: 2010.06.25/outbox.cif.g09.slc.cpg/sg2_308_cif.got.tgz:614041.got - 2010.06.27 13:26:56.
