data_PCOD8005289
_publ_section_title
;
Structure prediction by ZEFSAII (Michael W. Deem and Ramdas Pophale) SiO2 
 PCOD8005289
Probable space group: P -1
;
_chemical_formula_sum "Si O2"
_cell_formula_units_Z 14
_cell_length_a 9.026469
_cell_length_b 9.467378
_cell_length_c 11.224960
_cell_angle_alpha 91.534026
_cell_angle_beta 106.723989
_cell_angle_gamma 47.291639
_cell_volume 655.443722
_symmetry_space_group_name_H-M "P -1"
_symmetry_group_IT_number 2
_symmetry_cell_setting 'triclinic'
loop_
_space_group_symop_operation_xyz
x,y,z
-x,-y,-z
loop_
_atom_site_type_symbol
_atom_site_label
_atom_site_fract_x
_atom_site_fract_y
_atom_site_fract_z
Si Si1 0.814740 0.900666 0.858139
Si Si2 0.102937 0.711531 0.712913
Si Si3 0.344568 0.832204 0.738710
Si Si4 0.138065 0.181710 0.858762
Si Si5 0.305213 0.079645 0.540952
Si Si6 0.652220 0.736280 0.241287
Si Si7 0.812781 0.591435 0.860425
O O1 0.764160 0.774336 0.793176
O O2 0.014214 0.827727 0.822455
O O3 0.601998 0.131617 0.792538
O O4 0.868706 0.866343 0.008602
O O5 0.269479 0.719840 0.699727
O O6 0.227764 0.486144 0.758327
O O7 0.909810 0.813599 0.579474
O O8 0.580434 0.682570 0.856212
O O9 0.161958 0.029280 0.778829
O O10 0.369493 0.893048 0.618637
O O11 0.327006 0.175238 0.869463
O O12 0.911423 0.411981 0.787459
O O13 0.248842 0.241635 0.623643
O O14 0.500000 0.000000 0.500000
O O15 0.000000 0.500000 0.000000
#
# Coordination Sequence:
#
# PCOD8005289 Si02
#       7
#     2   2   2   2   2   2   2
#     4  11  21  39  68  95 126 168 223 260 300 396
#     4  12  25  41  63  98 135 166 210 269 329 366
#     4  11  25  43  63  98 136 163 205 277 326 371
#     4  10  22  38  69  94 124 173 217 257 318 378
#     4  11  22  46  69  89 123 173 225 261 307 384
#     4  11  22  39  70  93 125 170 222 260 313 383
#     4  10  20  38  66  93 119 170 219 255 301 389
#
# _framework density 21.359576000000001
#
# number of rings (size 3 to 8) (size 9 to 14) (size 15 to 20)
#    0.000    1.143    5.714    1.286    2.000    1.714 
#    0.000    5.714    0.000    0.000    0.000    0.000 
#    0.000    0.000    0.000    0.000    0.000    0.000 
#
# Total GULP energy -173516.637165 kJ/mol
# GULP energy per Si atom -12394.045512 kJ/mol
# Density = 2.131096 g / cm^3
# Si number density = 21.359576 Si / 1000 Ang^3
#
#
#
# Elastic Constant Matrix: (Units=GPa)
#
#
# Indices 1 2 3 4 5 6 
#
# 1 113.6060 32.8523 43.4105 -6.9270 -6.1388 -0.9967
# 2 32.8523 92.8778 30.8107 -1.7572 1.9633 -16.7840
# 3 43.4105 30.8107 95.1761 -4.2750 -15.0434 -3.1904
# 4 -6.9270 -1.7572 -4.2750 26.2254 -8.2512 -1.9570
# 5 -6.1388 1.9633 -15.0434 -8.2512 31.3145 -2.1191
# 6 -0.9967 -16.7840 -3.1904 -1.9570 -2.1191 33.9769
#
#
#
# Elastic Compliance Matrix: (Units=1/GPa)
#
#
# Indices 1 2 3 4 5 6 
#
# 1 0.011364 -0.002892 -0.004022 0.002377 0.001017 -0.001273
# 2 -0.002892 0.014163 -0.003560 -0.000853 -0.002960 0.006344
# 3 -0.004022 -0.003560 0.014842 0.003491 0.007497 0.000186
# 4 0.002377 -0.000853 0.003491 0.043928 0.014000 0.003379
# 5 0.001017 -0.002960 0.007497 0.014000 0.039783 0.002559
# 6 -0.001273 0.006344 0.000186 0.003379 0.002559 0.032900
#
#
# Mechanical properties :
#
#
# Convention : Reuss Voigt Hill
#
# Bulk Modulus (GPa) = 51.48818 57.31187 54.40002
# Shear Modulus (GPa) = 27.11476 31.27579 29.19528
#
# Velocity S-wave (km/s) = 3.56679 3.83071 3.70110
# Velocity P-wave (km/s) = 6.41252 6.81586 6.61726
#
# Compressibility (1/GPa) = 0.01942193
#
# Stress axis : x y z
#
# Youngs Moduli (GPa) = 87.99443 70.60464 67.37735
#
# Poissons Ratio (x) = 0.20418 0.27101
# Poissons Ratio (y) = 0.25447 0.23984
# Poissons Ratio (z) = 0.35394 0.25132
#
# Static dielectric constant tensor:
#      x y z
#    x 3.753620 -0.235130 -0.178350 
#    y -0.235130 4.321490 0.020470 
#    z -0.178350 0.020470 3.724110 
# 
# 
# High freq. dielectric constant tensor:
#      x y z
#    x 1.823320 -0.015340 -0.013720 
#    y -0.015340 1.851330 -0.002190 
#    z -0.013720 -0.002190 1.820150 
# 
# From -- ./inp_files/195440.got.cif
#   From: 2010.06.25/outbox.cif.g09.slc.cpg/sg2_98_cif.got.tgz:195440.got - 2010.06.27 13:26:56.
