data_PCOD8005933
_publ_section_title
;
Structure prediction by ZEFSAII (Michael W. Deem and Ramdas Pophale) SiO2 
 PCOD8005933
Probable space group: P -1
;
_chemical_formula_sum "Si O2"
_cell_formula_units_Z 14
_cell_length_a 29.044185
_cell_length_b 4.977963
_cell_length_c 12.819132
_cell_angle_alpha 61.305359
_cell_angle_beta 152.484482
_cell_angle_gamma 122.121637
_cell_volume 725.003000
_symmetry_space_group_name_H-M "P -1"
_symmetry_group_IT_number 2
_symmetry_cell_setting 'triclinic'
loop_
_space_group_symop_operation_xyz
x,y,z
-x,-y,-z
loop_
_atom_site_type_symbol
_atom_site_label
_atom_site_fract_x
_atom_site_fract_y
_atom_site_fract_z
Si Si1 0.711040 0.692556 0.217177
Si Si2 0.705505 0.861192 0.601063
Si Si3 0.195741 0.591145 0.726517
Si Si4 0.837467 0.705528 0.068755
Si Si5 0.710782 0.554120 0.468767
Si Si6 0.029531 0.727700 0.676422
Si Si7 0.485048 0.336590 0.869909
O O1 0.736584 0.461572 0.225115
O O2 0.760394 0.645913 0.437743
O O3 0.759554 0.050186 0.211841
O O4 0.587890 0.601213 0.997793
O O5 0.760486 0.811328 0.609969
O O6 0.582564 0.722105 0.362729
O O7 0.732513 0.230587 0.611797
O O8 0.743855 0.673350 0.806088
O O9 0.206673 0.372985 0.888210
O O10 0.077362 0.523927 0.460167
O O11 0.903303 0.458265 0.219557
O O12 0.906424 0.075103 0.134747
O O13 0.585732 0.528373 0.213205
O O14 0.000000 0.000000 0.500000
O O15 0.500000 0.000000 0.000000
#
# Coordination Sequence:
#
# PCOD8005933 Si02
#       7
#     2   2   2   2   2   2   2
#     4  12  21  35  59  88 122 145 192 248 281 332
#     4  10  22  35  62  86 115 148 209 228 281 341
#     4  11  23  35  59  91 114 148 191 239 301 337
#     4  11  21  41  62  86 117 152 191 243 290 347
#     4  10  21  36  58  84 114 150 203 233 275 327
#     4  10  20  39  64  83 111 152 205 238 273 346
#     4  10  21  37  61  89 111 157 205 234 269 340
#
# _framework density 19.310264
#
# number of rings (size 3 to 8) (size 9 to 14) (size 15 to 20)
#    0.857    0.571    1.429    7.286    2.000    0.000 
#    0.000    1.429    0.000   17.143    0.000    0.000 
#    0.000    0.000    0.000    0.000    0.000    0.000 
#
# Total GULP energy -173484.629964 kJ/mol
# GULP energy per Si atom -12391.759283 kJ/mol
# Density = 1.926631 g / cm^3
# Si number density = 19.310264 Si / 1000 Ang^3
#
#
#
# Elastic Constant Matrix: (Units=GPa)
#
#
# Indices 1 2 3 4 5 6 
#
# 1 96.6161 17.3792 28.6942 -9.8196 1.6181 -7.7642
# 2 17.3792 96.3745 31.5299 8.0014 7.4954 -4.3826
# 3 28.6942 31.5299 85.5179 -1.6342 -7.3595 13.1233
# 4 -9.8196 8.0014 -1.6342 29.1732 -2.7862 3.2305
# 5 1.6181 7.4954 -7.3595 -2.7862 24.2200 -3.1217
# 6 -7.7642 -4.3826 13.1233 3.2305 -3.1217 32.7290
#
#
#
# Elastic Compliance Matrix: (Units=1/GPa)
#
#
# Indices 1 2 3 4 5 6 
#
# 1 0.012590 -0.000789 -0.004608 0.003625 -0.001030 0.004273
# 2 -0.000789 0.013567 -0.005971 -0.005340 -0.006063 0.003972
# 3 -0.004608 -0.005971 0.017365 0.002633 0.006642 -0.008482
# 4 0.003625 -0.005340 0.002633 0.038144 0.006070 -0.004097
# 5 -0.001030 -0.006063 0.006642 0.006070 0.045958 0.000065
# 6 0.004273 0.003972 -0.008482 -0.004097 0.000065 0.035911
#
#
# Mechanical properties :
#
#
# Convention : Reuss Voigt Hill
#
# Bulk Modulus (GPa) = 48.11139 48.19057 48.15098
# Shear Modulus (GPa) = 25.87996 30.61812 28.24904
#
# Velocity S-wave (km/s) = 3.66487 3.98626 3.82894
# Velocity P-wave (km/s) = 6.54808 6.79685 6.67363
#
# Compressibility (1/GPa) = 0.02078510
#
# Stress axis : x y z
#
# Youngs Moduli (GPa) = 79.42917 73.70585 57.58847
#
# Poissons Ratio (x) = 0.05817 0.26539
# Poissons Ratio (y) = 0.06269 0.34385
# Poissons Ratio (z) = 0.36604 0.44008
#
# Static dielectric constant tensor:
#      x y z
#    x 3.501430 -0.277130 -0.040350 
#    y -0.277130 3.614850 0.284740 
#    z -0.040350 0.284740 3.553140 
# 
# 
# High freq. dielectric constant tensor:
#      x y z
#    x 1.748280 -0.030730 -0.004830 
#    y -0.030730 1.749820 0.005050 
#    z -0.004830 0.005050 1.737230 
# 
# From -- ./inp_files/475868.got.cif
#   From: 2010.06.25/outbox.cif.g09.slc.cpg/sg2_238_cif.got.tgz:475868.got - 2010.06.27 13:26:56.
