data_PCOD8005305
_publ_section_title
;
Structure prediction by ZEFSAII (Michael W. Deem and Ramdas Pophale) SiO2 
 PCOD8005305
Probable space group: P -1
;
_chemical_formula_sum "Si O2"
_cell_formula_units_Z 14
_cell_length_a 17.847681
_cell_length_b 25.154681
_cell_length_c 14.214748
_cell_angle_alpha 22.115964
_cell_angle_beta 156.561197
_cell_angle_gamma 164.007228
_cell_volume 639.282113
_symmetry_space_group_name_H-M "P -1"
_symmetry_group_IT_number 2
_symmetry_cell_setting 'triclinic'
loop_
_space_group_symop_operation_xyz
x,y,z
-x,-y,-z
loop_
_atom_site_type_symbol
_atom_site_label
_atom_site_fract_x
_atom_site_fract_y
_atom_site_fract_z
Si Si1 0.172536 0.318597 0.510204
Si Si2 0.410818 0.684272 0.053128
Si Si3 0.374646 0.058662 0.817338
Si Si4 0.726492 0.508501 0.275623
Si Si5 0.886444 0.542683 0.610089
Si Si6 0.790492 0.943187 0.557284
Si Si7 0.823268 0.098634 0.948464
O O1 0.321461 0.538649 0.277313
O O2 0.374614 0.294574 0.793384
O O3 0.068465 0.302686 0.519692
O O4 0.902056 0.134648 0.434574
O O5 0.537518 0.901409 0.886359
O O6 0.155589 0.587641 0.849560
O O7 0.157791 0.004911 0.580369
O O8 0.612924 0.302772 0.720096
O O9 0.213507 0.916263 0.957625
O O10 0.500000 0.000000 0.000000
O O11 0.544002 0.260826 0.468317
O O12 0.846100 0.592486 0.381102
O O13 0.500000 0.500000 0.000000
O O14 0.005144 0.663971 0.274532
O O15 0.969832 0.905866 0.846397
#
# Coordination Sequence:
#
# PCOD8005305 Si02
#       7
#     2   2   2   2   2   2   2
#     4  10  20  38  66  95 126 156 203 259 309 365
#     4  10  21  36  63  99 123 157 207 254 312 366
#     4  11  22  36  61  93 118 160 206 252 310 358
#     4   9  21  43  63  86 125 167 206 249 310 362
#     4  11  22  40  66  90 126 165 202 258 307 366
#     4   9  20  38  62  89 120 159 206 250 306 367
#     4  10  20  39  62  86 125 160 202 258 297 366
#
# _framework density 21.899566
#
# number of rings (size 3 to 8) (size 9 to 14) (size 15 to 20)
#    0.000    2.000    1.429    1.714    2.000    0.571 
#    7.714    9.286    3.143    0.000    0.000    0.000 
#    0.000    0.000    0.000    0.000    0.000    0.000 
#
# Total GULP energy -173473.802901 kJ/mol
# GULP energy per Si atom -12390.985921 kJ/mol
# Density = 2.184972 g / cm^3
# Si number density = 21.899566 Si / 1000 Ang^3
#
#
#
# Elastic Constant Matrix: (Units=GPa)
#
#
# Indices 1 2 3 4 5 6 
#
# 1 124.5267 75.7955 41.3630 -9.1205 -24.1686 -2.5454
# 2 75.7955 127.7563 28.4462 2.0761 -18.1755 -8.0906
# 3 41.3630 28.4462 77.4977 21.9663 -14.6745 -1.0997
# 4 -9.1205 2.0761 21.9663 35.6140 -1.4250 -11.2510
# 5 -24.1686 -18.1755 -14.6745 -1.4250 33.1520 -7.0636
# 6 -2.5454 -8.0906 -1.0997 -11.2510 -7.0636 31.9457
#
#
#
# Elastic Compliance Matrix: (Units=1/GPa)
#
#
# Indices 1 2 3 4 5 6 
#
# 1 0.017907 -0.007579 -0.008989 0.012417 0.006523 0.005013
# 2 -0.007579 0.012705 0.000395 -0.002107 0.002022 0.002332
# 3 -0.008989 0.000395 0.023000 -0.018293 0.001808 -0.005867
# 4 0.012417 -0.002107 -0.018293 0.048658 0.005778 0.018240
# 5 0.006523 0.002022 0.001808 0.005778 0.039609 0.011887
# 6 0.005013 0.002332 -0.005867 0.018240 0.011887 0.041144
#
#
# Mechanical properties :
#
#
# Convention : Reuss Voigt Hill
#
# Bulk Modulus (GPa) = 47.02195 68.99892 58.01043
# Shear Modulus (GPa) = 22.47617 32.42073 27.44845
#
# Velocity S-wave (km/s) = 3.20711 3.85181 3.54415
# Velocity P-wave (km/s) = 5.93568 7.16640 6.57988
#
# Compressibility (1/GPa) = 0.02126666
#
# Stress axis : x y z
#
# Youngs Moduli (GPa) = 55.84442 78.70638 43.47743
#
# Poissons Ratio (x) = 0.59650 0.39081
# Poissons Ratio (y) = 0.42323 -0.01715
# Poissons Ratio (z) = 0.50198 -0.03105
#
# Static dielectric constant tensor:
#      x y z
#    x 3.807510 -0.053330 -0.423720 
#    y -0.053330 4.734990 0.135530 
#    z -0.423720 0.135530 4.517780 
# 
# 
# High freq. dielectric constant tensor:
#      x y z
#    x 1.840850 -0.006810 -0.003520 
#    y -0.006810 1.875450 0.004270 
#    z -0.003520 0.004270 1.849210 
# 
# From -- ./inp_files/155309.got.cif
#   From: 2010.06.25/outbox.cif.g09.slc.cpg/sg2_78_cif.got.tgz:155309.got - 2010.06.27 13:26:56.
