data_PCOD8005679
_publ_section_title
;
Structure prediction by ZEFSAII (Michael W. Deem and Ramdas Pophale) SiO2 
 PCOD8005679
Probable space group: P -1
;
_chemical_formula_sum "Si O2"
_cell_formula_units_Z 16
_cell_length_a 7.060536
_cell_length_b 29.126245
_cell_length_c 5.169935
_cell_angle_alpha 88.606227
_cell_angle_beta 71.795281
_cell_angle_gamma 46.820634
_cell_volume 708.401652
_symmetry_space_group_name_H-M "P -1"
_symmetry_group_IT_number 2
_symmetry_cell_setting 'triclinic'
loop_
_space_group_symop_operation_xyz
x,y,z
-x,-y,-z
loop_
_atom_site_type_symbol
_atom_site_label
_atom_site_fract_x
_atom_site_fract_y
_atom_site_fract_z
Si Si1 0.337451 0.417880 0.610814
Si Si2 0.297893 0.969433 0.472499
Si Si3 0.079561 0.801772 0.562697
Si Si4 0.960361 0.565837 0.774586
Si Si5 0.643111 0.945089 0.737024
Si Si6 0.777694 0.824932 0.166394
Si Si7 0.033118 0.656777 0.628787
Si Si8 0.693094 0.736953 0.262686
O O1 0.244473 0.415422 0.372057
O O2 0.676935 0.362276 0.471264
O O3 0.221391 0.487987 0.706226
O O4 0.223362 0.402678 0.886483
O O5 0.422527 0.941962 0.716106
O O6 0.543473 0.904290 0.199724
O O7 0.264251 0.029941 0.502671
O O8 0.000000 0.000000 0.500000
O O9 0.416191 0.751752 0.430031
O O10 0.935760 0.873248 0.704444
O O11 0.984533 0.803568 0.316816
O O12 0.973263 0.784087 0.833788
O O13 0.095997 0.592763 0.653809
O O14 0.500000 0.000000 0.000000
O O15 0.619754 0.803254 0.305778
O O16 0.920592 0.684470 0.385452
O O17 0.807413 0.709699 0.930344
#
# Coordination Sequence:
#
# PCOD8005679 Si02
#       8
#     2   2   2   2   2   2   2   2
#     4  10  22  41  67  98 131 162 207 263 306 377
#     4  10  21  38  61  90 120 155 201 261 326 389
#     4  11  24  44  65  87 130 162 208 269 317 378
#     4  10  22  41  67  98 129 168 205 253 326 356
#     4  10  20  39  61  91 116 154 205 260 329 386
#     4  11  24  44  63  89 124 167 208 259 318 374
#     4  12  25  42  65  94 129 167 217 257 305 365
#     4  12  27  42  62  94 123 175 218 253 307 375
#
# _framework density 22.586057
#
# number of rings (size 3 to 8) (size 9 to 14) (size 15 to 20)
#    0.000    1.250    1.250    4.125    0.000    6.500 
#    4.500    5.000    0.000    0.000    0.000    0.000 
#    0.000    0.000    0.000    0.000    0.000    0.000 
#
# Total GULP energy -198267.357345 kJ/mol
# GULP energy per Si atom -12391.709834 kJ/mol
# Density = 2.253465 g / cm^3
# Si number density = 22.586057 Si / 1000 Ang^3
#
#
#
# Elastic Constant Matrix: (Units=GPa)
#
#
# Indices 1 2 3 4 5 6 
#
# 1 90.8137 11.3383 13.2076 2.0219 -9.3764 -26.8005
# 2 11.3383 52.0931 7.9435 -5.8002 -3.1384 -7.1810
# 3 13.2076 7.9435 99.4125 -4.6513 -4.7158 -21.8664
# 4 2.0219 -5.8002 -4.6513 33.6979 -0.3866 -3.1654
# 5 -9.3764 -3.1384 -4.7158 -0.3866 32.8934 0.2688
# 6 -26.8005 -7.1810 -21.8664 -3.1654 0.2688 47.6742
#
#
#
# Elastic Compliance Matrix: (Units=1/GPa)
#
#
# Indices 1 2 3 4 5 6 
#
# 1 0.013829 -0.001811 0.000118 -0.000377 0.003720 0.007510
# 2 -0.001811 0.020470 -0.000721 0.003734 0.001361 0.001975
# 3 0.000118 -0.000721 0.011440 0.001966 0.001584 0.005326
# 4 -0.000377 0.003734 0.001966 0.030932 0.000867 0.003301
# 5 0.003720 0.001361 0.001584 0.000867 0.031805 0.002901
# 6 0.007510 0.001975 0.005326 0.003301 0.002901 0.028141
#
#
# Mechanical properties :
#
#
# Convention : Reuss Voigt Hill
#
# Bulk Modulus (GPa) = 24.44318 34.14423 29.29371
# Shear Modulus (GPa) = 32.24086 36.84175 34.54130
#
# Velocity S-wave (km/s) = 3.78228 4.04316 3.91489
# Velocity P-wave (km/s) = 5.46991 6.07835 5.78214
#
# Compressibility (1/GPa) = 0.04091121
#
# Stress axis : x y z
#
# Youngs Moduli (GPa) = 72.31098 48.85084 87.41430
#
# Poissons Ratio (x) = 0.08845 -0.01031
# Poissons Ratio (y) = 0.13093 0.06307
# Poissons Ratio (z) = -0.00853 0.03524
#
# Static dielectric constant tensor:
#      x y z
#    x 4.240350 -0.053930 0.302520 
#    y -0.053930 3.918870 -0.058700 
#    z 0.302520 -0.058700 4.184870 
# 
# 
# High freq. dielectric constant tensor:
#      x y z
#    x 1.886710 0.004660 0.011000 
#    y 0.004660 1.901140 -0.007290 
#    z 0.011000 -0.007290 1.895560 
# 
# From -- ./inp_files/14992.got.cif
#   From: 2010.06.25/outbox.cif.g09.slc.cpg/sg2_8_cif.got.tgz:14992.got - 2010.06.27 13:26:56.
