data_PCOD8005473
_publ_section_title
;
Structure prediction by ZEFSAII (Michael W. Deem and Ramdas Pophale) SiO2 
 PCOD8005473
Probable space group: P -1
;
_chemical_formula_sum "Si O2"
_cell_formula_units_Z 14
_cell_length_a 10.645167
_cell_length_b 6.418506
_cell_length_c 11.915570
_cell_angle_alpha 117.364377
_cell_angle_beta 72.866231
_cell_angle_gamma 93.511963
_cell_volume 688.310704
_symmetry_space_group_name_H-M "P -1"
_symmetry_group_IT_number 2
_symmetry_cell_setting 'triclinic'
loop_
_space_group_symop_operation_xyz
x,y,z
-x,-y,-z
loop_
_atom_site_type_symbol
_atom_site_label
_atom_site_fract_x
_atom_site_fract_y
_atom_site_fract_z
Si Si1 0.076578 0.244684 0.154628
Si Si2 0.387512 0.462595 0.675230
Si Si3 0.780399 0.940986 0.332511
Si Si4 0.898331 0.776206 0.605159
Si Si5 0.677397 0.450130 0.542848
Si Si6 0.192697 0.882934 0.876809
Si Si7 0.039789 0.739489 0.340797
O O1 0.042883 0.178761 0.275949
O O2 0.943325 0.242525 0.116560
O O3 0.119062 0.512707 0.206779
O O4 0.191536 0.066668 0.026805
O O5 0.343997 0.214698 0.667710
O O6 0.543667 0.465394 0.654719
O O7 0.352005 0.483348 0.559996
O O8 0.313833 0.686146 0.814774
O O9 0.904044 0.802628 0.326041
O O10 0.748906 0.188095 0.466444
O O11 0.801901 0.972476 0.203084
O O12 0.766911 0.643276 0.618008
O O13 0.004531 0.652316 0.456798
O O14 0.869727 0.042037 0.625976
#
# Coordination Sequence:
#
# PCOD8005473 Si02
#       7
#     2   2   2   2   2   2   2
#     4  11  22  37  55  83 115 147 183 225 273 333
#     4  10  20  39  57  82 112 146 185 231 268 324
#     4  11  19  36  58  87 111 140 184 231 276 325
#     4  11  23  36  56  85 115 146 179 227 281 331
#     4  10  22  35  58  84 113 145 184 224 280 326
#     4  10  22  37  57  81 112 149 186 223 273 326
#     4  11  22  33  58  88 115 139 178 231 286 325
#
# _framework density 20.339651
#
# number of rings (size 3 to 8) (size 9 to 14) (size 15 to 20)
#    0.000    1.429    4.286    1.714    4.000    1.714 
#    0.000    0.714    0.000    1.714    0.000    0.000 
#    0.000    0.000    0.000    0.000    0.000    0.000 
#
# Total GULP energy -173581.615462 kJ/mol
# GULP energy per Si atom -12398.686819 kJ/mol
# Density = 2.029336 g / cm^3
# Si number density = 20.339651 Si / 1000 Ang^3
#
#
#
# Elastic Constant Matrix: (Units=GPa)
#
#
# Indices 1 2 3 4 5 6 
#
# 1 64.0624 33.8771 32.1782 9.1519 -3.5537 16.3369
# 2 33.8771 90.9187 50.4802 17.9953 -3.6802 25.5377
# 3 32.1782 50.4802 131.0785 29.1591 -10.2672 3.2567
# 4 9.1519 17.9953 29.1591 28.5514 -2.0018 8.0397
# 5 -3.5537 -3.6802 -10.2672 -2.0018 23.3493 -0.3715
# 6 16.3369 25.5377 3.2567 8.0397 -0.3715 33.7661
#
#
#
# Elastic Compliance Matrix: (Units=1/GPa)
#
#
# Indices 1 2 3 4 5 6 
#
# 1 0.021343 -0.004121 -0.003780 0.001725 0.000969 -0.007245
# 2 -0.004121 0.019363 -0.005817 -0.001682 -0.000463 -0.011694
# 3 -0.003780 -0.005817 0.013221 -0.010485 0.003542 0.007488
# 4 0.001725 -0.001682 -0.010485 0.049085 -0.000568 -0.010244
# 5 0.000969 -0.000463 0.003542 -0.000568 0.044414 0.000164
# 6 -0.007245 -0.011694 0.007488 -0.010244 0.000164 0.043684
#
#
# Mechanical properties :
#
#
# Convention : Reuss Voigt Hill
#
# Bulk Modulus (GPa) = 37.74903 57.68117 47.71510
# Shear Modulus (GPa) = 21.99020 28.43496 25.21258
#
# Velocity S-wave (km/s) = 3.29165 3.74305 3.52458
# Velocity P-wave (km/s) = 5.74859 6.86302 6.33038
#
# Compressibility (1/GPa) = 0.02649074
#
# Stress axis : x y z
#
# Youngs Moduli (GPa) = 46.85472 51.64536 75.63795
#
# Poissons Ratio (x) = 0.21282 0.28592
# Poissons Ratio (y) = 0.19308 0.43998
# Poissons Ratio (z) = 0.17712 0.30042
#
# Static dielectric constant tensor:
#      x y z
#    x 3.513990 0.072560 -0.072690 
#    y 0.072560 3.950120 0.125580 
#    z -0.072690 0.125580 3.733340 
# 
# 
# High freq. dielectric constant tensor:
#      x y z
#    x 1.760360 0.001150 0.002830 
#    y 0.001150 1.816450 0.012890 
#    z 0.002830 0.012890 1.780370 
# 
# From -- ./inp_files/65459.got.cif
#   From: 2010.06.25/outbox.cif.g09.slc.cpg/sg2_33_cif.got.tgz:65459.got - 2010.06.27 13:26:56.
