data_PCOD8005825
_publ_section_title
;
Structure prediction by ZEFSAII (Michael W. Deem and Ramdas Pophale) SiO2 
 PCOD8005825
Probable space group: P -1
;
_chemical_formula_sum "Si O2"
_cell_formula_units_Z 16
_cell_length_a 7.962415
_cell_length_b 16.222280
_cell_length_c 15.653918
_cell_angle_alpha 146.385071
_cell_angle_beta 62.936925
_cell_angle_gamma 94.076357
_cell_volume 778.658883
_symmetry_space_group_name_H-M "P -1"
_symmetry_group_IT_number 2
_symmetry_cell_setting 'triclinic'
loop_
_space_group_symop_operation_xyz
x,y,z
-x,-y,-z
loop_
_atom_site_type_symbol
_atom_site_label
_atom_site_fract_x
_atom_site_fract_y
_atom_site_fract_z
Si Si1 0.071593 0.593817 0.446653
Si Si2 0.707828 0.289730 0.174431
Si Si3 0.673878 0.757553 0.162470
Si Si4 0.077484 0.040480 0.284387
Si Si5 0.428796 0.856118 0.484881
Si Si6 0.767332 0.468868 0.156946
Si Si7 0.173037 0.569276 0.588303
Si Si8 0.447366 0.700407 0.011344
O O1 0.947567 0.495837 0.379775
O O2 0.032665 0.667070 0.616661
O O3 0.353102 0.436753 0.224397
O O4 0.947945 0.772167 0.565534
O O5 0.713733 0.423602 0.222001
O O6 0.437747 0.379878 0.339928
O O7 0.836735 0.275762 0.220424
O O8 0.847735 0.079025 0.923455
O O9 0.559299 0.777327 0.296437
O O10 0.603028 0.956937 0.318406
O O11 0.570825 0.684377 0.057816
O O12 0.961199 0.603285 0.972366
O O13 0.281226 0.917908 0.203842
O O14 0.828385 0.095723 0.423791
O O15 0.588142 0.696356 0.382097
O O16 0.718885 0.367842 0.006034
#
# Coordination Sequence:
#
# PCOD8005825 Si02
#       8
#     2   2   2   2   2   2   2   2
#     4  11  22  40  61  90 124 163 204 258 309 365
#     4  10  20  39  63  87 121 168 199 256 313 359
#     4  11  25  41  65  96 124 164 215 254 307 374
#     4  11  22  42  63  89 129 166 201 258 317 363
#     4  11  23  43  64  94 126 164 208 261 306 373
#     4  11  21  45  64  88 132 164 202 259 314 364
#     4  10  21  38  62  89 122 158 214 252 300 377
#     4  11  23  42  65  90 127 168 203 256 316 369
#
# _framework density 20.548152000000002
#
# number of rings (size 3 to 8) (size 9 to 14) (size 15 to 20)
#    0.000    1.250    6.250    1.125    0.000    4.000 
#    0.000    0.000    0.000    0.000    0.000    0.000 
#    0.000    0.000    0.000    0.000    0.000    0.000 
#
# Total GULP energy -198393.586420 kJ/mol
# GULP energy per Si atom -12399.599151 kJ/mol
# Density = 2.050138 g / cm^3
# Si number density = 20.548152 Si / 1000 Ang^3
#
#
#
# Elastic Constant Matrix: (Units=GPa)
#
#
# Indices 1 2 3 4 5 6 
#
# 1 93.1719 2.6948 15.2450 -3.8758 -8.5730 -13.7909
# 2 2.6948 49.5815 18.4593 12.5097 -11.6513 3.0364
# 3 15.2450 18.4593 71.6015 5.9886 -25.2386 -4.3268
# 4 -3.8758 12.5097 5.9886 35.0937 -3.3063 -1.9931
# 5 -8.5730 -11.6513 -25.2386 -3.3063 29.9356 -4.7896
# 6 -13.7909 3.0364 -4.3268 -1.9931 -4.7896 23.0781
#
#
#
# Elastic Compliance Matrix: (Units=1/GPa)
#
#
# Indices 1 2 3 4 5 6 
#
# 1 0.012670 -0.000580 -0.000641 0.002638 0.004545 0.008699
# 2 -0.000580 0.025174 -0.004425 -0.008120 0.004317 -0.004294
# 3 -0.000641 -0.004425 0.022080 -0.000109 0.017988 0.008063
# 4 0.002638 -0.008120 -0.000109 0.032218 0.001993 0.005820
# 5 0.004545 0.004317 0.017988 0.001993 0.054493 0.017002
# 6 0.008699 -0.004294 0.008063 0.005820 0.017002 0.054637
#
#
# Mechanical properties :
#
#
# Convention : Reuss Voigt Hill
#
# Bulk Modulus (GPa) = 20.56250 31.90592 26.23421
# Shear Modulus (GPa) = 21.85554 29.48520 25.67037
#
# Velocity S-wave (km/s) = 3.26487 3.79216 3.53835
# Velocity P-wave (km/s) = 4.92353 5.89365 5.43030
#
# Compressibility (1/GPa) = 0.04863222
#
# Stress axis : x y z
#
# Youngs Moduli (GPa) = 78.92671 39.72366 45.28926
#
# Poissons Ratio (x) = 0.02304 0.02902
# Poissons Ratio (y) = 0.04579 0.20041
# Poissons Ratio (z) = 0.05058 0.17578
#
# Static dielectric constant tensor:
#      x y z
#    x 3.774470 0.084590 -0.106290 
#    y 0.084590 3.637510 -0.031000 
#    z -0.106290 -0.031000 3.693960 
# 
# 
# High freq. dielectric constant tensor:
#      x y z
#    x 1.809480 0.004820 -0.010460 
#    y 0.004820 1.796070 -0.005580 
#    z -0.010460 -0.005580 1.799050 
# 
# From -- ./inp_files/504367.got.cif
#   From: 2010.06.25/outbox.cif.g09.slc.cpg/sg2_253_cif.got.tgz:504367.got - 2010.06.27 13:26:56.
