data_PCOD8005820
_publ_section_title
;
Structure prediction by ZEFSAII (Michael W. Deem and Ramdas Pophale) SiO2 
 PCOD8005820
Probable space group: P -1
;
_chemical_formula_sum "Si O2"
_cell_formula_units_Z 16
_cell_length_a 10.832731
_cell_length_b 8.612308
_cell_length_c 11.829622
_cell_angle_alpha 39.585704
_cell_angle_beta 99.822047
_cell_angle_gamma 97.277925
_cell_volume 692.947432
_symmetry_space_group_name_H-M "P -1"
_symmetry_group_IT_number 2
_symmetry_cell_setting 'triclinic'
loop_
_space_group_symop_operation_xyz
x,y,z
-x,-y,-z
loop_
_atom_site_type_symbol
_atom_site_label
_atom_site_fract_x
_atom_site_fract_y
_atom_site_fract_z
Si Si1 0.877254 0.147627 0.929110
Si Si2 0.518645 0.990613 0.689683
Si Si3 0.221873 0.746249 0.384354
Si Si4 0.757228 0.658050 0.213502
Si Si5 0.628176 0.701238 0.669929
Si Si6 0.490768 0.775023 0.041848
Si Si7 0.058721 0.487698 0.867251
Si Si8 0.119461 0.173580 0.255898
O O1 0.822989 0.283441 0.734094
O O2 0.923237 0.349425 0.912049
O O3 0.780956 0.946709 0.075700
O O4 0.000000 0.000000 0.000000
O O5 0.538612 0.790428 0.707891
O O6 0.648827 0.110443 0.677416
O O7 0.421610 0.195238 0.515349
O O8 0.459753 0.861897 0.861830
O O9 0.238705 0.477456 0.589510
O O10 0.121096 0.901519 0.356529
O O11 0.622369 0.626017 0.151966
O O12 0.859871 0.521588 0.227821
O O13 0.619919 0.405941 0.832550
O O14 0.768428 0.794276 0.655587
O O15 0.500000 0.000000 0.000000
O O16 0.014154 0.763522 0.738758
O O17 0.139187 0.362501 0.049123
#
# Coordination Sequence:
#
# PCOD8005820 Si02
#       8
#     2   2   2   2   2   2   2   2
#     4  10  20  39  63  86 121 173 203 255 306 366
#     4  10  21  42  66  92 127 171 207 255 327 377
#     4  11  20  39  68  90 127 162 211 258 308 382
#     4  11  22  40  66  91 122 167 209 248 319 374
#     4  10  22  41  68  94 126 169 208 259 316 388
#     4  12  25  41  66  97 128 165 211 266 316 380
#     4  10  22  41  67  88 128 169 207 260 311 370
#     4  10  21  41  63  96 125 164 209 262 311 359
#
# _framework density 23.089773999999998
#
# number of rings (size 3 to 8) (size 9 to 14) (size 15 to 20)
#    0.000    1.500    5.000    1.125    1.750    3.000 
#    2.250    0.000    0.000    0.000    0.000    0.000 
#    0.000    0.000    0.000    0.000    0.000    0.000 
#
# Total GULP energy -198390.586680 kJ/mol
# GULP energy per Si atom -12399.411668 kJ/mol
# Density = 2.303722 g / cm^3
# Si number density = 23.089774 Si / 1000 Ang^3
#
#
#
# Elastic Constant Matrix: (Units=GPa)
#
#
# Indices 1 2 3 4 5 6 
#
# 1 36.8734 2.1578 12.6573 9.2277 8.1215 6.7934
# 2 2.1578 54.1602 26.0219 3.6339 10.3385 5.8641
# 3 12.6573 26.0219 158.8222 18.1179 14.7040 4.3548
# 4 9.2277 3.6339 18.1179 31.7020 9.2142 7.6419
# 5 8.1215 10.3385 14.7040 9.2142 27.7875 2.0977
# 6 6.7934 5.8641 4.3548 7.6419 2.0977 29.2696
#
#
#
# Elastic Compliance Matrix: (Units=1/GPa)
#
#
# Indices 1 2 3 4 5 6 
#
# 1 0.031340 0.001689 -0.001392 -0.005170 -0.006918 -0.005560
# 2 0.001689 0.021595 -0.003110 0.001926 -0.007201 -0.004243
# 3 -0.001392 -0.003110 0.007390 -0.003269 -0.001323 0.000795
# 4 -0.005170 0.001926 -0.003269 0.039603 -0.009979 -0.008324
# 5 -0.006918 -0.007201 -0.001323 -0.009979 0.044497 0.002662
# 6 -0.005560 -0.004243 0.000795 -0.008324 0.002662 0.038170
#
#
# Mechanical properties :
#
#
# Convention : Reuss Voigt Hill
#
# Bulk Modulus (GPa) = 18.28074 36.83665 27.55869
# Shear Modulus (GPa) = 24.21849 31.68641 27.95245
#
# Velocity S-wave (km/s) = 3.24216 3.70849 3.48314
# Velocity P-wave (km/s) = 4.68507 5.85880 5.30450
#
# Compressibility (1/GPa) = 0.05470239
#
# Stress axis : x y z
#
# Youngs Moduli (GPa) = 31.90765 46.30646 135.31138
#
# Poissons Ratio (x) = -0.07823 0.18833
# Poissons Ratio (y) = -0.05391 0.42075
# Poissons Ratio (z) = 0.04441 0.14399
#
# Static dielectric constant tensor:
#      x y z
#    x 4.192510 0.365560 0.171530 
#    y 0.365560 4.837380 -0.268640 
#    z 0.171530 -0.268640 4.190140 
# 
# 
# High freq. dielectric constant tensor:
#      x y z
#    x 1.901400 0.002400 0.024860 
#    y 0.002400 1.905930 0.003460 
#    z 0.024860 0.003460 1.910460 
# 
# From -- ./inp_files/306352.got.cif
#   From: 2010.06.25/outbox.cif.g09.slc.cpg/sg2_154_cif.got.tgz:306352.got - 2010.06.27 13:26:56.
