data_PCOD8005162
_publ_section_title
;
Structure prediction by ZEFSAII (Michael W. Deem and Ramdas Pophale) SiO2 
 PCOD8005162
Probable space group: P -1
;
_chemical_formula_sum "Si O2"
_cell_formula_units_Z 16
_cell_length_a 11.764562
_cell_length_b 8.933013
_cell_length_c 19.673275
_cell_angle_alpha 51.082207
_cell_angle_beta 32.572165
_cell_angle_gamma 41.952722
_cell_volume 744.103301
_symmetry_space_group_name_H-M "P -1"
_symmetry_group_IT_number 2
_symmetry_cell_setting 'triclinic'
loop_
_space_group_symop_operation_xyz
x,y,z
-x,-y,-z
loop_
_atom_site_type_symbol
_atom_site_label
_atom_site_fract_x
_atom_site_fract_y
_atom_site_fract_z
Si Si1 0.890770 0.590367 0.727276
Si Si2 0.406068 0.011265 0.896812
Si Si3 0.919631 0.402982 0.008221
Si Si4 0.849321 0.458629 0.530938
Si Si5 0.700191 0.275429 0.266596
Si Si6 0.280601 0.837657 0.240727
Si Si7 0.977180 0.352559 0.215615
Si Si8 0.825375 0.197511 0.837467
O O1 0.642833 0.835306 0.784528
O O2 0.824077 0.397527 0.821428
O O3 0.024962 0.581068 0.593417
O O4 0.075728 0.548788 0.709323
O O5 0.463058 0.187922 0.856573
O O6 0.352220 0.872157 0.018176
O O7 0.159577 0.161210 0.934082
O O8 0.709963 0.365816 0.159096
O O9 0.000000 0.500000 0.000000
O O10 0.848462 0.565685 0.932158
O O11 0.575113 0.676329 0.601215
O O12 0.832764 0.239983 0.620029
O O13 0.000000 0.500000 0.500000
O O14 0.746723 0.413053 0.264633
O O15 0.894205 0.011441 0.249046
O O16 0.296856 0.700998 0.203469
O O17 0.112308 0.090347 0.230452
#
# Coordination Sequence:
#
# PCOD8005162 Si02
#       8
#     2   2   2   2   2   2   2   2
#     4  11  24  41  58  94 136 164 200 257 318 363
#     4  10  21  37  66  97 128 156 203 262 315 367
#     4   9  17  38  64  96 122 153 204 254 307 364
#     4  12  25  44  62  88 125 171 216 254 304 374
#     4   9  21  40  67  89 119 167 216 250 298 375
#     4  10  20  38  65  89 119 168 212 252 297 370
#     4   9  20  39  64  96 121 157 205 262 313 360
#     4  10  20  41  62  96 125 161 205 256 316 371
#
# _framework density 21.502390999999999
#
# number of rings (size 3 to 8) (size 9 to 14) (size 15 to 20)
#    0.000    2.000    1.250    3.000    0.000    7.000 
#    4.500    1.250    0.000    0.000    0.000    0.000 
#    0.000    0.000    0.000    0.000    0.000    0.000 
#
# Total GULP energy -198211.572304 kJ/mol
# GULP energy per Si atom -12388.223269 kJ/mol
# Density = 2.145345 g / cm^3
# Si number density = 21.502391 Si / 1000 Ang^3
#
#
#
# Elastic Constant Matrix: (Units=GPa)
#
#
# Indices 1 2 3 4 5 6 
#
# 1 117.0928 29.5085 49.7156 2.2763 4.9739 6.3546
# 2 29.5085 71.3994 31.2730 -2.6030 0.4809 -1.2564
# 3 49.7156 31.2730 133.3119 7.4780 4.8222 -9.3925
# 4 2.2763 -2.6030 7.4780 41.2449 -3.2390 4.3751
# 5 4.9739 0.4809 4.8222 -3.2390 33.8361 -7.3890
# 6 6.3546 -1.2564 -9.3925 4.3751 -7.3890 24.7054
#
#
#
# Elastic Compliance Matrix: (Units=1/GPa)
#
#
# Indices 1 2 3 4 5 6 
#
# 1 0.011296 -0.003075 -0.003793 0.000250 -0.002188 -0.005203
# 2 -0.003075 0.016587 -0.002839 0.001747 0.000901 0.000515
# 3 -0.003793 -0.002839 0.010069 -0.002331 0.000051 0.005087
# 4 0.000250 0.001747 -0.002331 0.025410 0.001639 -0.004871
# 5 -0.002188 0.000901 0.000051 0.001639 0.032189 0.009965
# 6 -0.005203 0.000515 0.005087 -0.004871 0.009965 0.047618
#
#
# Mechanical properties :
#
#
# Convention : Reuss Voigt Hill
#
# Bulk Modulus (GPa) = 53.94025 60.31090 57.12558
# Shear Modulus (GPa) = 29.62784 34.04441 31.83612
#
# Velocity S-wave (km/s) = 3.71602 3.98337 3.85201
# Velocity P-wave (km/s) = 6.59938 7.01895 6.81240
#
# Compressibility (1/GPa) = 0.01853903
#
# Stress axis : x y z
#
# Youngs Moduli (GPa) = 88.52794 60.28988 99.31695
#
# Poissons Ratio (x) = 0.18539 0.37667
# Poissons Ratio (y) = 0.27222 0.28191
# Poissons Ratio (z) = 0.33575 0.17113
#
# Static dielectric constant tensor:
#      x y z
#    x 6.593540 -2.705210 1.226660 
#    y -2.705210 6.839180 -1.461730 
#    z 1.226660 -1.461730 4.522960 
# 
# 
# High freq. dielectric constant tensor:
#      x y z
#    x 1.835500 -0.013890 0.000410 
#    y -0.013890 1.848780 -0.011040 
#    z 0.000410 -0.011040 1.832460 
# 
# From -- ./inp_files/594017.got.cif
#   From: 2010.06.25/outbox.cif.g09.slc.cpg/sg2_298_cif.got.tgz:594017.got - 2010.06.27 13:26:56.
