data_PCOD8005281
_publ_section_title
;
Structure prediction by ZEFSAII (Michael W. Deem and Ramdas Pophale) SiO2 
 PCOD8005281
Probable space group: P -1
;
_chemical_formula_sum "Si O2"
_cell_formula_units_Z 14
_cell_length_a 13.731356
_cell_length_b 8.363917
_cell_length_c 7.336725
_cell_angle_alpha 82.424941
_cell_angle_beta 110.438263
_cell_angle_gamma 54.996440
_cell_volume 583.059606
_symmetry_space_group_name_H-M "P -1"
_symmetry_group_IT_number 2
_symmetry_cell_setting 'triclinic'
loop_
_space_group_symop_operation_xyz
x,y,z
-x,-y,-z
loop_
_atom_site_type_symbol
_atom_site_label
_atom_site_fract_x
_atom_site_fract_y
_atom_site_fract_z
Si Si1 0.601914 0.037402 0.408183
Si Si2 0.079600 0.126448 0.875269
Si Si3 0.870298 0.934037 0.501086
Si Si4 0.437883 0.295532 0.574277
Si Si5 0.909648 0.535084 0.262229
Si Si6 0.405884 0.249375 0.942064
Si Si7 0.807986 0.229929 0.728122
O O1 0.584676 0.140996 0.581155
O O2 0.737042 0.955590 0.402456
O O3 0.621067 0.825581 0.471175
O O4 0.461601 0.245253 0.177122
O O5 0.091958 0.059985 0.682201
O O6 0.105834 0.290812 0.901336
O O7 0.927220 0.240328 0.836019
O O8 0.191728 0.910009 0.097914
O O9 0.997751 0.707761 0.721847
O O10 0.833398 0.132241 0.557565
O O11 0.446049 0.329946 0.790351
O O12 0.339155 0.530373 0.383934
O O13 0.757910 0.619966 0.193104
O O14 0.000000 0.500000 0.500000
O O15 0.500000 0.000000 0.000000
#
# Coordination Sequence:
#
# PCOD8005281 Si02
#       7
#     2   2   2   2   2   2   2
#     4  10  23  40  65  90 118 160 205 248 297 358
#     4  10  22  40  60  89 124 157 202 249 299 362
#     4  11  23  41  63  91 121 159 204 250 301 354
#     4  10  21  40  61  86 122 158 201 246 298 360
#     4  10  20  39  68  90 117 160 206 251 296 352
#     4  10  20  38  66  92 117 155 201 253 299 346
#     4  11  24  38  60  90 125 162 195 250 310 356
#
# _framework density 24.011268000000001
#
# number of rings (size 3 to 8) (size 9 to 14) (size 15 to 20)
#    0.000    1.714    0.000    6.429    0.000    9.143 
#    0.000    1.429    0.000    0.000    0.000    0.000 
#    0.000    0.000    0.000    0.000    0.000    0.000 
#
# Total GULP energy -173482.334578 kJ/mol
# GULP energy per Si atom -12391.595327 kJ/mol
# Density = 2.395662 g / cm^3
# Si number density = 24.011268 Si / 1000 Ang^3
#
#
#
# Elastic Constant Matrix: (Units=GPa)
#
#
# Indices 1 2 3 4 5 6 
#
# 1 73.6521 15.1775 40.7006 -8.7194 -12.9223 -21.2834
# 2 15.1775 96.3176 33.9727 -20.0706 -5.8662 -5.9112
# 3 40.7006 33.9727 112.4736 -27.4574 -15.5190 -5.1932
# 4 -8.7194 -20.0706 -27.4574 39.0423 0.1060 1.8846
# 5 -12.9223 -5.8662 -15.5190 0.1060 45.2525 -7.3851
# 6 -21.2834 -5.9112 -5.1932 1.8846 -7.3851 23.6170
#
#
#
# Elastic Compliance Matrix: (Units=1/GPa)
#
#
# Indices 1 2 3 4 5 6 
#
# 1 0.026387 0.000478 -0.007323 -0.000252 0.009196 0.025185
# 2 0.000478 0.012407 -0.002465 0.004600 0.001389 0.003062
# 3 -0.007323 -0.002465 0.014090 0.007203 0.001727 -0.004152
# 4 -0.000252 0.004600 0.007203 0.032939 0.003054 0.000835
# 5 0.009196 0.001389 0.001727 0.003054 0.028369 0.017642
# 6 0.025185 0.003062 -0.004152 0.000835 0.017642 0.070342
#
#
# Mechanical properties :
#
#
# Convention : Reuss Voigt Hill
#
# Bulk Modulus (GPa) = 29.18352 51.34943 40.26648
# Shear Modulus (GPa) = 23.30197 34.42188 28.86192
#
# Velocity S-wave (km/s) = 3.11860 3.79036 3.47077
# Velocity P-wave (km/s) = 5.01478 6.37085 5.73305
#
# Compressibility (1/GPa) = 0.03426591
#
# Stress axis : x y z
#
# Youngs Moduli (GPa) = 37.89770 80.59738 70.97161
#
# Poissons Ratio (x) = -0.03854 0.51970
# Poissons Ratio (y) = -0.01812 0.17493
# Poissons Ratio (z) = 0.27751 0.19865
#
# Static dielectric constant tensor:
#      x y z
#    x 4.291000 -0.107860 -0.382600 
#    y -0.107860 4.454520 0.151940 
#    z -0.382600 0.151940 5.781240 
# 
# 
# High freq. dielectric constant tensor:
#      x y z
#    x 1.947970 -0.012930 -0.012420 
#    y -0.012930 1.946410 -0.010510 
#    z -0.012420 -0.010510 1.949270 
# 
# From -- ./inp_files/295263.got.cif
#   From: 2010.06.25/outbox.cif.g09.slc.cpg/sg2_148_cif.got.tgz:295263.got - 2010.06.27 13:26:56.
