data_PCOD8005736
_publ_section_title
;
Structure prediction by ZEFSAII (Michael W. Deem and Ramdas Pophale) SiO2 
 PCOD8005736
Probable space group: P -1
;
_chemical_formula_sum "Si O2"
_cell_formula_units_Z 14
_cell_length_a 10.064362
_cell_length_b 11.803762
_cell_length_c 10.009964
_cell_angle_alpha 115.246117
_cell_angle_beta 137.214255
_cell_angle_gamma 64.494833
_cell_volume 717.088629
_symmetry_space_group_name_H-M "P -1"
_symmetry_group_IT_number 2
_symmetry_cell_setting 'triclinic'
loop_
_space_group_symop_operation_xyz
x,y,z
-x,-y,-z
loop_
_atom_site_type_symbol
_atom_site_label
_atom_site_fract_x
_atom_site_fract_y
_atom_site_fract_z
Si Si1 0.969695 0.614608 0.293541
Si Si2 0.361591 0.417906 0.426071
Si Si3 0.071479 0.951909 0.173281
Si Si4 0.543749 0.243564 0.707716
Si Si5 0.885942 0.787820 0.562577
Si Si6 0.157620 0.624126 0.897114
Si Si7 0.906183 0.717809 0.001952
O O1 0.176214 0.514843 0.400000
O O2 0.973592 0.726590 0.457725
O O3 0.807207 0.528816 0.179170
O O4 0.925539 0.675105 0.147114
O O5 0.500000 0.500000 0.500000
O O6 0.487044 0.342145 0.597184
O O7 0.297656 0.315383 0.224218
O O8 0.298224 0.876258 0.291563
O O9 0.917335 0.867527 0.075369
O O10 0.062474 0.071958 0.324629
O O11 0.000000 0.000000 0.000000
O O12 0.352552 0.197033 0.602472
O O13 0.642382 0.316978 0.936184
O O14 0.983853 0.701624 0.714748
O O15 0.088298 0.641485 0.010138
#
# Coordination Sequence:
#
# PCOD8005736 Si02
#       7
#     2   2   2   2   2   2   2
#     4  11  23  39  61  93 136 152 196 265 316 354
#     4  11  20  38  65  95 121 161 212 247 303 377
#     4  11  21  42  65  86 122 164 214 251 292 369
#     4  11  21  37  67  92 113 167 215 243 300 367
#     4  12  23  40  62  94 125 166 198 255 312 357
#     4  10  20  40  62  89 124 159 202 252 303 360
#     4  10  20  39  62  88 121 167 199 251 300 356
#
# _framework density 19.523389999999999
#
# number of rings (size 3 to 8) (size 9 to 14) (size 15 to 20)
#    0.000    1.143    5.714    5.143    0.000    1.143 
#    2.571    0.000    0.000    2.571    0.000    0.000 
#    0.000    0.000    0.000    0.000    0.000    0.000 
#
# Total GULP energy -173556.394530 kJ/mol
# GULP energy per Si atom -12396.885324 kJ/mol
# Density = 1.947895 g / cm^3
# Si number density = 19.523390 Si / 1000 Ang^3
#
#
#
# Elastic Constant Matrix: (Units=GPa)
#
#
# Indices 1 2 3 4 5 6 
#
# 1 55.4600 29.8521 40.0097 11.9449 3.6993 3.3351
# 2 29.8521 99.2894 44.1487 26.0087 6.1371 3.7062
# 3 40.0097 44.1487 114.3137 20.0767 11.0314 -5.1995
# 4 11.9449 26.0087 20.0767 46.1609 4.0265 2.7607
# 5 3.6993 6.1371 11.0314 4.0265 29.9090 13.1259
# 6 3.3351 3.7062 -5.1995 2.7607 13.1259 26.2855
#
#
#
# Elastic Compliance Matrix: (Units=1/GPa)
#
#
# Indices 1 2 3 4 5 6 
#
# 1 0.026397 -0.004075 -0.008083 -0.000951 0.003273 -0.005908
# 2 -0.004075 0.014199 -0.003193 -0.005478 0.000233 -0.001658
# 3 -0.008083 -0.003193 0.014201 -0.002168 -0.006751 0.007884
# 4 -0.000951 -0.005478 -0.002168 0.026110 -0.000607 -0.001975
# 5 0.003273 0.000233 -0.006751 -0.000607 0.046498 -0.024939
# 6 -0.005908 -0.001658 0.007884 -0.001975 -0.024939 0.053248
#
#
# Mechanical properties :
#
#
# Convention : Reuss Voigt Hill
#
# Bulk Modulus (GPa) = 41.50228 55.23159 48.36693
# Shear Modulus (GPa) = 22.79068 30.80790 26.79929
#
# Velocity S-wave (km/s) = 3.42036 3.97671 3.70898
# Velocity P-wave (km/s) = 6.07473 7.03115 6.57037
#
# Compressibility (1/GPa) = 0.02409506
#
# Stress axis : x y z
#
# Youngs Moduli (GPa) = 37.88255 70.42681 70.41800
#
# Poissons Ratio (x) = 0.28700 0.56917
# Poissons Ratio (y) = 0.15438 0.22487
# Poissons Ratio (z) = 0.30619 0.22489
#
# Static dielectric constant tensor:
#      x y z
#    x 3.373600 0.313330 0.371010 
#    y 0.313330 5.913520 1.594880 
#    z 0.371010 1.594880 4.784050 
# 
# 
# High freq. dielectric constant tensor:
#      x y z
#    x 1.731170 0.018480 0.010760 
#    y 0.018480 1.765820 0.007530 
#    z 0.010760 0.007530 1.776280 
# 
# From -- ./inp_files/175710.got.cif
#   From: 2010.06.25/outbox.cif.g09.slc.cpg/sg2_88_cif.got.tgz:175710.got - 2010.06.27 13:26:56.
