data_PCOD8005755
_publ_section_title
;
Structure prediction by ZEFSAII (Michael W. Deem and Ramdas Pophale) SiO2 
 PCOD8005755
Probable space group: P -1
;
_chemical_formula_sum "Si O2"
_cell_formula_units_Z 16
_cell_length_a 6.429048
_cell_length_b 14.213312
_cell_length_c 13.246636
_cell_angle_alpha 44.665297
_cell_angle_beta 120.804115
_cell_angle_gamma 116.569794
_cell_volume 723.911945
_symmetry_space_group_name_H-M "P -1"
_symmetry_group_IT_number 2
_symmetry_cell_setting 'triclinic'
loop_
_space_group_symop_operation_xyz
x,y,z
-x,-y,-z
loop_
_atom_site_type_symbol
_atom_site_label
_atom_site_fract_x
_atom_site_fract_y
_atom_site_fract_z
Si Si1 0.288789 0.993262 0.169255
Si Si2 0.404246 0.641896 0.651149
Si Si3 0.820005 0.086392 0.217355
Si Si4 0.888503 0.632607 0.902616
Si Si5 0.962625 0.163176 0.594986
Si Si6 0.973855 0.567231 0.194193
Si Si7 0.637616 0.605737 0.532919
Si Si8 0.137558 0.852864 0.046403
O O1 0.123486 0.882243 0.280109
O O2 0.316374 0.933079 0.110688
O O3 0.561604 0.038753 0.245490
O O4 0.143883 0.121520 0.029990
O O5 0.635732 0.644959 0.777379
O O6 0.254167 0.760869 0.562063
O O7 0.238498 0.497651 0.734291
O O8 0.460462 0.657204 0.533792
O O9 0.939107 0.227437 0.189012
O O10 0.759508 0.108223 0.068466
O O11 0.995735 0.968425 0.361526
O O12 0.850973 0.619730 0.023176
O O13 0.000000 0.500000 0.000000
O O14 0.218219 0.264801 0.588448
O O15 0.165122 0.462641 0.299648
O O16 0.132284 0.694713 0.189743
O O17 0.500000 0.500000 0.500000
#
# Coordination Sequence:
#
# PCOD8005755 Si02
#       8
#     2   2   2   2   2   2   2   2
#     4  10  20  39  62  90 132 168 206 264 316 385
#     4  11  24  43  67  90 133 172 212 272 316 377
#     4  10  22  41  64  92 128 166 216 267 319 377
#     4  11  23  45  68  96 126 168 220 272 323 377
#     4  10  24  42  61  95 128 168 222 253 324 386
#     4  10  23  40  66  99 125 168 216 259 330 383
#     4  11  25  41  65  98 133 171 213 263 319 384
#     4   9  21  35  60  97 124 165 212 254 324 386
#
# _framework density 22.102135000000001
#
# number of rings (size 3 to 8) (size 9 to 14) (size 15 to 20)
#    0.000    1.750    1.250    1.500    7.000    1.500 
#    4.500    2.500    0.000    0.000    0.000    0.000 
#    0.000    0.000    0.000    0.000    0.000    0.000 
#
# Total GULP energy -198348.859490 kJ/mol
# GULP energy per Si atom -12396.803718 kJ/mol
# Density = 2.205183 g / cm^3
# Si number density = 22.102135 Si / 1000 Ang^3
#
#
#
# Elastic Constant Matrix: (Units=GPa)
#
#
# Indices 1 2 3 4 5 6 
#
# 1 107.7688 45.5246 35.0986 -18.9660 -1.4276 19.5790
# 2 45.5246 95.7417 37.6644 -29.3026 9.7734 9.0915
# 3 35.0986 37.6644 85.9464 -23.8756 8.1360 10.8006
# 4 -18.9660 -29.3026 -23.8756 40.7251 1.7224 -0.9031
# 5 -1.4276 9.7734 8.1360 1.7224 36.5660 -4.4049
# 6 19.5790 9.0915 10.8006 -0.9031 -4.4049 30.2906
#
#
#
# Elastic Compliance Matrix: (Units=1/GPa)
#
#
# Indices 1 2 3 4 5 6 
#
# 1 0.013374 -0.004557 -0.002473 0.001300 0.001490 -0.006139
# 2 -0.004557 0.016906 -0.002448 0.008771 -0.004769 -0.001688
# 3 -0.002473 -0.002448 0.016473 0.006823 -0.003899 -0.003904
# 4 0.001300 0.008771 0.006823 0.035606 -0.006181 -0.005743
# 5 0.001490 -0.004769 -0.003899 -0.006181 0.030577 0.006121
# 6 -0.006139 -0.001688 -0.003904 -0.005743 0.006121 0.039599
#
#
# Mechanical properties :
#
#
# Convention : Reuss Voigt Hill
#
# Bulk Modulus (GPa) = 35.97456 58.44801 47.21128
# Shear Modulus (GPa) = 27.66174 32.92764 30.29469
#
# Velocity S-wave (km/s) = 3.54155 3.86397 3.70627
# Velocity P-wave (km/s) = 5.74763 6.81241 6.30255
#
# Compressibility (1/GPa) = 0.02779742
#
# Stress axis : x y z
#
# Youngs Moduli (GPa) = 74.77462 59.14982 60.70658
#
# Poissons Ratio (x) = 0.26957 0.15010
# Poissons Ratio (y) = 0.34078 0.14858
# Poissons Ratio (z) = 0.18488 0.14477
#
# Static dielectric constant tensor:
#      x y z
#    x 4.005270 0.003070 0.127030 
#    y 0.003070 3.873840 -0.309470 
#    z 0.127030 -0.309470 4.134090 
# 
# 
# High freq. dielectric constant tensor:
#      x y z
#    x 1.871150 0.007110 0.006350 
#    y 0.007110 1.855590 -0.022080 
#    z 0.006350 -0.022080 1.875330 
# 
# From -- ./inp_files/81090.got.cif
#   From: 2010.06.25/outbox.cif.g09.slc.cpg/sg2_41_cif.got.tgz:81090.got - 2010.06.27 13:26:56.
