data_PCOD8005140
_publ_section_title
;
Structure prediction by ZEFSAII (Michael W. Deem and Ramdas Pophale) SiO2 
 PCOD8005140
Probable space group: P -1
;
_chemical_formula_sum "Si O2"
_cell_formula_units_Z 14
_cell_length_a 10.085683
_cell_length_b 17.383455
_cell_length_c 5.088481
_cell_angle_alpha 49.898968
_cell_angle_beta 77.146923
_cell_angle_gamma 64.787211
_cell_volume 615.648949
_symmetry_space_group_name_H-M "P -1"
_symmetry_group_IT_number 2
_symmetry_cell_setting 'triclinic'
loop_
_space_group_symop_operation_xyz
x,y,z
-x,-y,-z
loop_
_atom_site_type_symbol
_atom_site_label
_atom_site_fract_x
_atom_site_fract_y
_atom_site_fract_z
Si Si1 0.324240 0.564097 0.436674
Si Si2 0.280828 0.704239 0.648974
Si Si3 0.645830 0.993311 0.096886
Si Si4 0.474919 0.223489 0.762751
Si Si5 0.902865 0.545541 0.189673
Si Si6 0.900546 0.047056 0.692616
Si Si7 0.301301 0.232831 0.303563
O O1 0.500000 0.500000 0.500000
O O2 0.256164 0.658984 0.476247
O O3 0.244908 0.479358 0.692609
O O4 0.277833 0.618762 0.054458
O O5 0.445003 0.703097 0.556738
O O6 0.164347 0.822156 0.529714
O O7 0.704835 0.885602 0.491581
O O8 0.500000 0.000000 0.000000
O O9 0.595307 0.103713 0.044524
O O10 0.772539 0.998462 0.835367
O O11 0.349057 0.229860 0.593657
O O12 0.407992 0.262717 0.991295
O O13 0.000000 0.500000 0.500000
O O14 0.857372 0.675400 0.888302
O O15 0.000000 0.500000 0.000000
O O16 0.000000 0.000000 0.500000
O O17 0.000000 0.000000 0.000000
#
# Coordination Sequence:
#
# PCOD8005140 Si02
#       7
#     2   2   2   2   2   2   2
#     4  12  25  44  70  97 127 174 226 272 324 385
#     4  11  23  41  67  97 133 170 216 273 327 385
#     4   9  22  41  67  97 126 163 213 263 321 391
#     4  10  20  38  65 100 127 157 207 269 325 383
#     4  12  27  45  64  94 132 172 219 269 320 382
#     4  11  25  43  66  98 136 173 213 264 330 399
#     4  11  22  40  64  91 128 169 209 264 323 377
#
# _framework density 22.740231999999999
#
# number of rings (size 3 to 8) (size 9 to 14) (size 15 to 20)
#    0.000    1.143    0.000    6.000    0.000   11.429 
#    0.000    0.000    0.000    0.000    0.000    0.000 
#    0.000    0.000    0.000    0.000    0.000    0.000 
#
# Total GULP energy -173495.397534 kJ/mol
# GULP energy per Si atom -12392.528395 kJ/mol
# Density = 2.268847 g / cm^3
# Si number density = 22.740232 Si / 1000 Ang^3
#
#
#
# Elastic Constant Matrix: (Units=GPa)
#
#
# Indices 1 2 3 4 5 6 
#
# 1 103.5736 36.1337 38.3411 2.4015 -3.1942 -13.7974
# 2 36.1337 147.6512 66.6964 8.3367 5.1235 -19.0471
# 3 38.3411 66.6964 141.4080 -3.9691 12.1893 -14.3821
# 4 2.4015 8.3367 -3.9691 47.2264 -5.1476 3.0913
# 5 -3.1942 5.1235 12.1893 -5.1476 37.3124 2.7831
# 6 -13.7974 -19.0471 -14.3821 3.0913 2.7831 36.0326
#
#
#
# Elastic Compliance Matrix: (Units=1/GPa)
#
#
# Indices 1 2 3 4 5 6 
#
# 1 0.011424 -0.001446 -0.002309 -0.000508 0.001666 0.002603
# 2 -0.001446 0.009351 -0.003695 -0.002175 -0.000736 0.003158
# 3 -0.002309 -0.003695 0.009841 0.001210 -0.002828 0.001205
# 4 -0.000508 -0.002175 0.001210 0.022227 0.003151 -0.003012
# 5 0.001666 -0.000736 -0.002828 0.003151 0.028654 -0.003364
# 6 0.002603 0.003158 0.001205 -0.003012 -0.003364 0.031418
#
#
# Mechanical properties :
#
#
# Convention : Reuss Voigt Hill
#
# Bulk Modulus (GPa) = 63.62564 74.99727 69.31145
# Shear Modulus (GPa) = 37.57888 40.87837 39.22862
#
# Velocity S-wave (km/s) = 4.06954 4.24444 4.15791
# Velocity P-wave (km/s) = 7.07966 7.55460 7.32098
#
# Compressibility (1/GPa) = 0.01571694
#
# Stress axis : x y z
#
# Youngs Moduli (GPa) = 87.53444 106.93530 101.61837
#
# Poissons Ratio (x) = 0.15465 0.23459
# Poissons Ratio (y) = 0.12659 0.37547
# Poissons Ratio (z) = 0.20207 0.39512
#
# Static dielectric constant tensor:
#      x y z
#    x 4.099530 -0.062800 -0.224140 
#    y -0.062800 4.299480 -0.212840 
#    z -0.224140 -0.212840 4.321440 
# 
# 
# High freq. dielectric constant tensor:
#      x y z
#    x 1.881040 -0.008420 -0.008270 
#    y -0.008420 1.912060 -0.007450 
#    z -0.008270 -0.007450 1.912160 
# 
# From -- ./inp_files/52137.got.cif
#   From: 2010.06.25/outbox.cif.g09.slc.cpg/sg2_27_cif.got.tgz:52137.got - 2010.06.27 13:26:56.
