data_PCOD8005687
_publ_section_title
;
Structure prediction by ZEFSAII (Michael W. Deem and Ramdas Pophale) SiO2 
 PCOD8005687
Probable space group: P -1
;
_chemical_formula_sum "Si O2"
_cell_formula_units_Z 16
_cell_length_a 12.142170
_cell_length_b 14.269236
_cell_length_c 8.396972
_cell_angle_alpha 39.584994
_cell_angle_beta 124.979603
_cell_angle_gamma 131.560286
_cell_volume 687.793245
_symmetry_space_group_name_H-M "P -1"
_symmetry_group_IT_number 2
_symmetry_cell_setting 'triclinic'
loop_
_space_group_symop_operation_xyz
x,y,z
-x,-y,-z
loop_
_atom_site_type_symbol
_atom_site_label
_atom_site_fract_x
_atom_site_fract_y
_atom_site_fract_z
Si Si1 0.155396 0.397954 0.654276
Si Si2 0.727399 0.246561 0.112166
Si Si3 0.973431 0.729431 0.597733
Si Si4 0.857846 0.905657 0.793219
Si Si5 0.295482 0.610633 0.759892
Si Si6 0.436100 0.079943 0.470183
Si Si7 0.728518 0.692763 0.684897
Si Si8 0.432267 0.586655 0.449152
O O1 0.160201 0.528240 0.625321
O O2 0.326455 0.459646 0.656828
O O3 0.053375 0.384783 0.432606
O O4 0.093998 0.215384 0.910767
O O5 0.899000 0.283212 0.168191
O O6 0.740147 0.302720 0.233617
O O7 0.625350 0.052920 0.264274
O O8 0.662764 0.333806 0.823699
O O9 0.818299 0.662016 0.652522
O O10 0.013545 0.912775 0.332784
O O11 0.703784 0.896580 0.749445
O O12 0.835260 0.852251 0.659030
O O13 0.435399 0.745043 0.602642
O O14 0.332533 0.465197 0.044765
O O15 0.500000 0.000000 0.500000
O O16 0.583219 0.720355 0.479004
O O17 0.500000 0.500000 0.500000
#
# Coordination Sequence:
#
# PCOD8005687 Si02
#       8
#     2   2   2   2   2   2   2   2
#     4  11  23  37  65  91 124 160 211 261 294 368
#     4  10  23  41  63  88 129 163 202 252 315 370
#     4  11  23  42  61  92 128 170 200 252 316 367
#     4  10  22  40  63  93 123 165 212 253 305 364
#     4  10  20  39  61  95 119 160 208 257 306 353
#     4   9  19  36  61  88 124 160 198 256 312 357
#     4  11  22  39  67  92 123 163 212 258 298 369
#     4  12  22  40  63  96 117 159 208 254 306 369
#
# _framework density 23.262803999999999
#
# number of rings (size 3 to 8) (size 9 to 14) (size 15 to 20)
#    0.000    1.500    2.500    2.250    1.750    4.500 
#    0.000    6.875    0.000    1.500    0.000    0.000 
#    0.000    0.000    0.000    0.000    0.000    0.000 
#
# Total GULP energy -198238.980057 kJ/mol
# GULP energy per Si atom -12389.936254 kJ/mol
# Density = 2.320986 g / cm^3
# Si number density = 23.262804 Si / 1000 Ang^3
#
#
#
# Elastic Constant Matrix: (Units=GPa)
#
#
# Indices 1 2 3 4 5 6 
#
# 1 51.4600 15.8905 26.5503 3.0442 -5.5515 7.4479
# 2 15.8905 129.0490 51.2164 -1.9842 -14.7421 9.7775
# 3 26.5503 51.2164 101.8382 3.0890 -1.8231 19.2933
# 4 3.0442 -1.9842 3.0890 39.0883 2.1103 -1.9418
# 5 -5.5515 -14.7421 -1.8231 2.1103 27.0324 2.1114
# 6 7.4479 9.7775 19.2933 -1.9418 2.1114 40.3643
#
#
#
# Elastic Compliance Matrix: (Units=1/GPa)
#
#
# Indices 1 2 3 4 5 6 
#
# 1 0.023178 -0.000001 -0.005535 -0.001717 0.004673 -0.001958
# 2 -0.000001 0.010414 -0.005098 0.000628 0.005312 -0.000333
# 3 -0.005535 -0.005098 0.014705 -0.001089 -0.002473 -0.004695
# 4 -0.001717 0.000628 -0.001089 0.026060 -0.002279 0.002058
# 5 0.004673 0.005312 -0.002473 -0.002279 0.041112 -0.003227
# 6 -0.001958 -0.000333 -0.004695 0.002058 -0.003227 0.027728
#
#
# Mechanical properties :
#
#
# Convention : Reuss Voigt Hill
#
# Bulk Modulus (GPa) = 36.99953 52.18463 44.59208
# Shear Modulus (GPa) = 28.82233 33.87631 31.34932
#
# Velocity S-wave (km/s) = 3.52374 3.82022 3.67497
# Velocity P-wave (km/s) = 5.70046 6.47612 6.10063
#
# Compressibility (1/GPa) = 0.02702737
#
# Stress axis : x y z
#
# Youngs Moduli (GPa) = 43.14445 96.02288 68.00508
#
# Poissons Ratio (x) = 0.00014 0.37644
# Poissons Ratio (y) = 0.00006 0.34669
# Poissons Ratio (z) = 0.23882 0.48952
#
# Static dielectric constant tensor:
#      x y z
#    x 4.103540 0.121480 -0.142890 
#    y 0.121480 4.899200 -0.029340 
#    z -0.142890 -0.029340 4.262100 
# 
# 
# High freq. dielectric constant tensor:
#      x y z
#    x 1.911690 0.004510 -0.005350 
#    y 0.004510 1.937550 -0.010510 
#    z -0.005350 -0.010510 1.897210 
# 
# From -- ./inp_files/271661.got.cif
#   From: 2010.06.25/outbox.cif.g09.slc.cpg/sg2_136_cif.got.tgz:271661.got - 2010.06.27 13:26:56.
