data_PCOD8005347
_publ_section_title
;
Structure prediction by ZEFSAII (Michael W. Deem and Ramdas Pophale) SiO2 
 PCOD8005347
Probable space group: P -1
;
_chemical_formula_sum "Si O2"
_cell_formula_units_Z 16
_cell_length_a 21.990688
_cell_length_b 25.935866
_cell_length_c 10.064531
_cell_angle_alpha 27.107688
_cell_angle_beta 143.095824
_cell_angle_gamma 161.529687
_cell_volume 788.023393
_symmetry_space_group_name_H-M "P -1"
_symmetry_group_IT_number 2
_symmetry_cell_setting 'triclinic'
loop_
_space_group_symop_operation_xyz
x,y,z
-x,-y,-z
loop_
_atom_site_type_symbol
_atom_site_label
_atom_site_fract_x
_atom_site_fract_y
_atom_site_fract_z
Si Si1 0.666192 0.463950 0.409303
Si Si2 0.795191 0.735769 0.248699
Si Si3 0.151586 0.341188 0.212451
Si Si4 0.759826 0.934402 0.304449
Si Si5 0.619163 0.556913 0.848055
Si Si6 0.718242 0.074187 0.699901
Si Si7 0.242896 0.627746 0.874514
Si Si8 0.026452 0.394254 0.294962
O O1 0.794908 0.654420 0.308014
O O2 0.443849 0.219323 0.630748
O O3 0.794400 0.471732 0.597074
O O4 0.652446 0.527615 0.111609
O O5 0.772312 0.645728 0.551541
O O6 0.614727 0.650963 0.114105
O O7 0.000000 0.000000 0.000000
O O8 0.299486 0.446892 0.112593
O O9 0.172390 0.497168 0.915301
O O10 0.925330 0.089321 0.354203
O O11 0.736024 0.789520 0.525143
O O12 0.822094 0.084542 0.956258
O O13 0.782176 0.261415 0.432294
O O14 0.812910 0.141804 0.562051
O O15 0.478488 0.825612 0.855124
O O16 0.099413 0.431702 0.187550
O O17 0.000000 0.500000 0.000000
#
# Coordination Sequence:
#
# PCOD8005347 Si02
#       8
#     2   2   2   2   2   2   2   2
#     4  11  21  42  63  88 130 168 212 258 317 387
#     4  11  22  38  61  90 124 166 209 264 318 368
#     4  12  23  39  60  92 133 159 215 270 309 373
#     4  11  22  40  63  90 129 177 208 256 323 380
#     4  11  24  40  62  92 131 170 213 252 321 392
#     4  10  21  39  70  88 124 172 211 258 323 381
#     4  10  21  42  61  96 126 163 216 268 313 373
#     4  10  20  38  67  92 119 161 216 256 308 378
#
# _framework density 20.303965999999999
#
# number of rings (size 3 to 8) (size 9 to 14) (size 15 to 20)
#    0.000    1.250    2.500    5.250    0.000    2.500 
#    2.250    0.000    0.000    2.250    0.000    0.000 
#    0.000    0.000    0.000    0.000    0.000    0.000 
#
# Total GULP energy -198302.091146 kJ/mol
# GULP energy per Si atom -12393.880697 kJ/mol
# Density = 2.025775 g / cm^3
# Si number density = 20.303966 Si / 1000 Ang^3
#
#
#
# Elastic Constant Matrix: (Units=GPa)
#
#
# Indices 1 2 3 4 5 6 
#
# 1 120.6574 58.7195 54.3445 -14.4995 -11.1007 6.0351
# 2 58.7195 123.4875 50.5549 7.7684 6.8098 -1.5307
# 3 54.3445 50.5549 116.1094 7.1020 -14.3695 0.4290
# 4 -14.4995 7.7684 7.1020 23.9504 -6.3418 3.4000
# 5 -11.1007 6.8098 -14.3695 -6.3418 29.8095 4.2637
# 6 6.0351 -1.5307 0.4290 3.4000 4.2637 32.7036
#
#
#
# Elastic Compliance Matrix: (Units=1/GPa)
#
#
# Indices 1 2 3 4 5 6 
#
# 1 0.018486 -0.008966 -0.004434 0.019648 0.012031 -0.007384
# 2 -0.008966 0.015191 -0.003094 -0.013349 -0.011905 0.005346
# 3 -0.004434 -0.003094 0.012829 -0.004420 0.004240 0.000412
# 4 0.019648 -0.013349 -0.004420 0.067898 0.024751 -0.014479
# 5 0.012031 -0.011905 0.004240 0.024751 0.049757 -0.011893
# 6 -0.007384 0.005346 0.000412 -0.014479 -0.011893 0.035241
#
#
# Mechanical properties :
#
#
# Convention : Reuss Voigt Hill
#
# Bulk Modulus (GPa) = 73.98150 76.38800 75.18475
# Shear Modulus (GPa) = 21.10642 30.40173 25.75407
#
# Velocity S-wave (km/s) = 3.22766 3.87373 3.56536
# Velocity P-wave (km/s) = 7.09975 7.59682 7.35248
#
# Compressibility (1/GPa) = 0.01351689
#
# Stress axis : x y z
#
# Youngs Moduli (GPa) = 54.09597 65.82970 77.94989
#
# Poissons Ratio (x) = 0.59022 0.34562
# Poissons Ratio (y) = 0.48502 0.24120
# Poissons Ratio (z) = 0.23986 0.20370
#
# Static dielectric constant tensor:
#      x y z
#    x 4.260740 0.082470 -0.336410 
#    y 0.082470 4.107390 0.413430 
#    z -0.336410 0.413430 4.212650 
# 
# 
# High freq. dielectric constant tensor:
#      x y z
#    x 1.795770 0.023050 -0.005090 
#    y 0.023050 1.787000 0.010890 
#    z -0.005090 0.010890 1.803840 
# 
# From -- ./inp_files/208134.got.cif
#   From: 2010.06.25/outbox.cif.g09.slc.cpg/sg2_105_cif.got.tgz:208134.got - 2010.06.27 13:26:56.
