data_PCOD8005128
_publ_section_title
;
Structure prediction by ZEFSAII (Michael W. Deem and Ramdas Pophale) SiO2 
 PCOD8005128
Probable space group: P -1
;
_chemical_formula_sum "Si O2"
_cell_formula_units_Z 16
_cell_length_a 19.529155
_cell_length_b 9.319824
_cell_length_c 11.325346
_cell_angle_alpha 42.941799
_cell_angle_beta 150.294707
_cell_angle_gamma 130.089266
_cell_volume 695.671200
_symmetry_space_group_name_H-M "P -1"
_symmetry_group_IT_number 2
_symmetry_cell_setting 'triclinic'
loop_
_space_group_symop_operation_xyz
x,y,z
-x,-y,-z
loop_
_atom_site_type_symbol
_atom_site_label
_atom_site_fract_x
_atom_site_fract_y
_atom_site_fract_z
Si Si1 0.465954 0.013350 0.578589
Si Si2 0.256806 0.362376 0.136114
Si Si3 0.737018 0.367673 0.224133
Si Si4 0.414472 0.364878 0.714724
Si Si5 0.817036 0.901440 0.600950
Si Si6 0.926210 0.279577 0.006015
Si Si7 0.293363 0.608015 0.579515
Si Si8 0.690296 0.287030 0.814926
O O1 0.366736 0.204401 0.345089
O O2 0.604183 0.066324 0.831608
O O3 0.500000 0.000000 0.500000
O O4 0.406431 0.791900 0.668309
O O5 0.159749 0.235085 0.161144
O O6 0.319845 0.572096 0.168473
O O7 0.186696 0.469057 0.851813
O O8 0.759066 0.471770 0.323144
O O9 0.809647 0.145214 0.470125
O O10 0.576344 0.324054 0.974756
O O11 0.322934 0.182318 0.623058
O O12 0.361005 0.403300 0.745095
O O13 0.385052 0.590367 0.477017
O O14 0.953320 0.886110 0.733645
O O15 0.826418 0.284790 0.740298
O O16 0.844472 0.231433 0.034891
O O17 0.000000 0.500000 0.000000
#
# Coordination Sequence:
#
# PCOD8005128 Si02
#       8
#     2   2   2   2   2   2   2   2
#     4  12  20  38  63 104 132 160 227 272 336 385
#     4  11  23  41  65  98 138 173 217 279 329 395
#     4  12  24  39  63 103 140 165 224 276 341 393
#     4  10  20  38  64  96 132 170 218 277 332 383
#     4  11  24  42  71  95 128 184 226 270 326 402
#     4  11  20  44  74  89 130 184 230 265 328 403
#     4  11  23  39  68 100 131 180 216 277 341 392
#     4  10  21  38  71  97 128 183 221 272 331 395
#
# _framework density 22.999371
#
# number of rings (size 3 to 8) (size 9 to 14) (size 15 to 20)
#    0.000    1.000    8.750    1.125    1.750    1.500 
#    0.000    1.250    0.000    0.000    0.000    0.000 
#    0.000    0.000    0.000    0.000    0.000    0.000 
#
# Total GULP energy -198276.069789 kJ/mol
# GULP energy per Si atom -12392.254362 kJ/mol
# Density = 2.294702 g / cm^3
# Si number density = 22.999371 Si / 1000 Ang^3
#
#
#
# Elastic Constant Matrix: (Units=GPa)
#
#
# Indices 1 2 3 4 5 6 
#
# 1 104.3402 37.3679 26.8157 -19.1940 -3.1606 -33.0436
# 2 37.3679 61.7798 -0.0369 -6.8881 -6.1314 -2.5145
# 3 26.8157 -0.0369 50.8528 -7.7440 3.8566 -1.9556
# 4 -19.1940 -6.8881 -7.7440 23.0074 3.3245 3.0555
# 5 -3.1606 -6.1314 3.8566 3.3245 39.9472 0.3606
# 6 -33.0436 -2.5145 -1.9556 3.0555 0.3606 31.1158
#
#
#
# Elastic Compliance Matrix: (Units=1/GPa)
#
#
# Indices 1 2 3 4 5 6 
#
# 1 0.029356 -0.015297 -0.012589 0.011967 -0.000058 0.027973
# 2 -0.015297 0.024949 0.007186 -0.001371 0.002163 -0.013667
# 3 -0.012589 0.007186 0.026434 0.002419 -0.002544 -0.011335
# 4 0.011967 -0.001371 0.002419 0.053429 -0.004012 0.007550
# 5 -0.000058 0.002163 -0.002544 -0.004012 0.025939 0.000046
# 6 0.027973 -0.013667 -0.011335 0.007550 0.000046 0.059285
#
#
# Mechanical properties :
#
#
# Convention : Reuss Voigt Hill
#
# Bulk Modulus (GPa) = 25.41961 38.36290 31.89125
# Shear Modulus (GPa) = 18.25460 29.00250 23.62855
#
# Velocity S-wave (km/s) = 2.82032 3.55493 3.20872
# Velocity P-wave (km/s) = 4.65639 5.79363 5.25586
#
# Compressibility (1/GPa) = 0.03933971
#
# Stress axis : x y z
#
# Youngs Moduli (GPa) = 34.06458 40.08230 37.83074
#
# Poissons Ratio (x) = 0.61313 0.47624
# Poissons Ratio (y) = 0.52108 -0.27185
# Poissons Ratio (z) = 0.42882 -0.28803
#
# Static dielectric constant tensor:
#      x y z
#    x 4.401320 -0.235640 -0.369470 
#    y -0.235640 4.130420 -0.009150 
#    z -0.369470 -0.009150 3.562300 
# 
# 
# High freq. dielectric constant tensor:
#      x y z
#    x 1.924600 -0.021870 0.006620 
#    y -0.021870 1.900830 -0.006640 
#    z 0.006620 -0.006640 1.876100 
# 
# From -- ./inp_files/469798.got.cif
#   From: 2010.06.25/outbox.cif.g09.slc.cpg/sg2_235_cif.got.tgz:469798.got - 2010.06.27 13:26:56.
