data_PCOD8005941
_publ_section_title
;
Structure prediction by ZEFSAII (Michael W. Deem and Ramdas Pophale) SiO2 
 PCOD8005941
Probable space group: P -1
;
_chemical_formula_sum "Si O2"
_cell_formula_units_Z 16
_cell_length_a 11.014800
_cell_length_b 13.455872
_cell_length_c 15.751191
_cell_angle_alpha 27.547814
_cell_angle_beta 67.953576
_cell_angle_gamma 86.068540
_cell_volume 788.015507
_symmetry_space_group_name_H-M "P -1"
_symmetry_group_IT_number 2
_symmetry_cell_setting 'triclinic'
loop_
_space_group_symop_operation_xyz
x,y,z
-x,-y,-z
loop_
_atom_site_type_symbol
_atom_site_label
_atom_site_fract_x
_atom_site_fract_y
_atom_site_fract_z
Si Si1 0.802393 0.072955 0.352535
Si Si2 0.355649 0.482527 0.722271
Si Si3 0.151104 0.872534 0.028662
Si Si4 0.676209 0.575061 0.882847
Si Si5 0.461856 0.179445 0.832287
Si Si6 0.812642 0.554887 0.036797
Si Si7 0.194126 0.379673 0.675878
Si Si8 0.659502 0.071589 0.219369
O O1 0.695538 0.971792 0.370948
O O2 0.993449 0.255293 0.137552
O O3 0.770314 0.829181 0.601396
O O4 0.754808 0.246046 0.283292
O O5 0.447490 0.350081 0.777829
O O6 0.201787 0.350896 0.797360
O O7 0.487141 0.807874 0.427376
O O8 0.285047 0.416425 0.886193
O O9 0.960860 0.610403 0.305517
O O10 0.191358 0.804646 0.980271
O O11 0.288973 0.961857 0.994756
O O12 0.147366 0.125259 0.824952
O O13 0.778895 0.649179 0.886898
O O14 0.500000 0.500000 0.000000
O O15 0.645868 0.311531 0.051616
O O16 0.616233 0.371993 0.583436
O O17 0.500000 0.000000 0.000000
#
# Coordination Sequence:
#
# PCOD8005941 Si02
#       8
#     2   2   2   2   2   2   2   2
#     4  10  22  41  60  89 123 156 203 254 303 362
#     4  11  20  40  62  85 117 159 207 244 302 369
#     4  10  20  39  64  87 116 162 203 243 305 362
#     4  11  23  39  59  90 123 157 202 252 304 362
#     4  11  23  40  59  90 128 155 200 256 303 362
#     4  10  22  40  63  86 121 163 198 252 309 358
#     4  10  20  40  64  85 119 158 201 252 300 360
#     4  11  21  38  64  88 120 162 205 248 302 365
#
# _framework density 20.304169000000002
#
# number of rings (size 3 to 8) (size 9 to 14) (size 15 to 20)
#    0.000    1.500    2.500    3.375    0.000    4.500 
#    4.500    0.000    0.000    0.000    0.000    0.000 
#    0.000    0.000    0.000    0.000    0.000    0.000 
#
# Total GULP energy -198270.741675 kJ/mol
# GULP energy per Si atom -12391.921355 kJ/mol
# Density = 2.025796 g / cm^3
# Si number density = 20.304169 Si / 1000 Ang^3
#
#
#
# Elastic Constant Matrix: (Units=GPa)
#
#
# Indices 1 2 3 4 5 6 
#
# 1 122.9695 57.1238 54.0446 1.2340 -7.0510 -13.2928
# 2 57.1238 143.7521 48.8976 4.6220 3.4577 -12.7193
# 3 54.0446 48.8976 66.3644 -5.5880 5.9787 -9.3126
# 4 1.2340 4.6220 -5.5880 22.9761 -3.6482 -8.7770
# 5 -7.0510 3.4577 5.9787 -3.6482 43.9826 1.7860
# 6 -13.2928 -12.7193 -9.3126 -8.7770 1.7860 21.5431
#
#
#
# Elastic Compliance Matrix: (Units=1/GPa)
#
#
# Indices 1 2 3 4 5 6 
#
# 1 0.013892 -0.001968 -0.009980 -0.001357 0.003534 0.002250
# 2 -0.001968 0.009890 -0.005749 -0.003009 -0.000600 0.000964
# 3 -0.009980 -0.005749 0.030006 0.011499 -0.004618 0.008487
# 4 -0.001357 -0.003009 0.011499 0.057052 0.002156 0.025422
# 5 0.003534 -0.000600 -0.004618 0.002156 0.024209 -0.001298
# 6 0.002250 0.000964 0.008487 0.025422 -0.001298 0.062510
#
#
# Mechanical properties :
#
#
# Convention : Reuss Voigt Hill
#
# Bulk Modulus (GPa) = 54.36118 72.57979 63.47049
# Shear Modulus (GPa) = 20.91308 29.23502 25.07405
#
# Velocity S-wave (km/s) = 3.21283 3.79866 3.51796
# Velocity P-wave (km/s) = 6.37138 7.42048 6.91586
#
# Compressibility (1/GPa) = 0.01839548
#
# Stress axis : x y z
#
# Youngs Moduli (GPa) = 71.98408 101.10882 33.32616
#
# Poissons Ratio (x) = 0.19898 0.33260
# Poissons Ratio (y) = 0.14166 0.19158
# Poissons Ratio (z) = 0.71840 0.58124
#
# Static dielectric constant tensor:
#      x y z
#    x 3.810490 -0.149810 0.075140 
#    y -0.149810 3.701420 -0.123930 
#    z 0.075140 -0.123930 3.738400 
# 
# 
# High freq. dielectric constant tensor:
#      x y z
#    x 1.803550 -0.003140 -0.021990 
#    y -0.003140 1.803260 0.001120 
#    z -0.021990 0.001120 1.778050 
# 
# From -- ./inp_files/306009.got.cif
#   From: 2010.06.25/outbox.cif.g09.slc.cpg/sg2_154_cif.got.tgz:306009.got - 2010.06.27 13:26:56.
