data_PCOD8005377
_publ_section_title
;
Structure prediction by ZEFSAII (Michael W. Deem and Ramdas Pophale) SiO2 
 PCOD8005377
Probable space group: P -1
;
_chemical_formula_sum "Si O2"
_cell_formula_units_Z 14
_cell_length_a 8.209702
_cell_length_b 9.368670
_cell_length_c 14.244023
_cell_angle_alpha 83.875075
_cell_angle_beta 42.365964
_cell_angle_gamma 61.570676
_cell_volume 591.120139
_symmetry_space_group_name_H-M "P -1"
_symmetry_group_IT_number 2
_symmetry_cell_setting 'triclinic'
loop_
_space_group_symop_operation_xyz
x,y,z
-x,-y,-z
loop_
_atom_site_type_symbol
_atom_site_label
_atom_site_fract_x
_atom_site_fract_y
_atom_site_fract_z
Si Si1 0.621733 0.803825 0.367553
Si Si2 0.023794 0.240766 0.477366
Si Si3 0.339320 0.875503 0.290556
Si Si4 0.715097 0.521637 0.843629
Si Si5 0.600395 0.613851 0.669641
Si Si6 0.534052 0.152800 0.960437
Si Si7 0.774998 0.067374 0.301507
O O1 0.545471 0.766746 0.300380
O O2 0.362507 0.840130 0.545589
O O3 0.942004 0.644932 0.282914
O O4 0.608467 0.980183 0.345839
O O5 0.934105 0.145289 0.596158
O O6 0.720012 0.438358 0.566094
O O7 0.213260 0.304747 0.437239
O O8 0.199004 0.088755 0.332764
O O9 0.547435 0.781731 0.117551
O O10 0.604282 0.562980 0.780124
O O11 0.500000 0.500000 0.000000
O O12 0.689026 0.691049 0.883806
O O13 0.274363 0.780876 0.760780
O O14 0.873619 0.086045 0.835107
O O15 0.500000 0.000000 0.000000
#
# Coordination Sequence:
#
# PCOD8005377 Si02
#       7
#     2   2   2   2   2   2   2
#     4  11  24  43  75 104 130 180 239 282 339 409
#     4  10  20  38  68 100 135 173 220 288 352 383
#     4  11  23  42  67 100 142 181 219 287 349 402
#     4  12  26  45  68 101 143 185 227 276 342 418
#     4  11  23  40  69 105 137 176 230 291 337 400
#     4  12  28  45  66 101 148 185 223 277 350 413
#     4  11  24  44  73 105 132 178 237 285 339 409
#
# _framework density 23.683848999999999
#
# number of rings (size 3 to 8) (size 9 to 14) (size 15 to 20)
#    0.000    0.857    2.857    5.143    4.000    3.429 
#    0.000    2.857    0.000    0.000    0.000    0.000 
#    0.000    0.000    0.000    0.000    0.000    0.000 
#
# Total GULP energy -173458.375826 kJ/mol
# GULP energy per Si atom -12389.883988 kJ/mol
# Density = 2.362994 g / cm^3
# Si number density = 23.683849 Si / 1000 Ang^3
#
#
#
# Elastic Constant Matrix: (Units=GPa)
#
#
# Indices 1 2 3 4 5 6 
#
# 1 73.2355 27.6278 16.1072 -8.2294 16.4550 -19.4029
# 2 27.6278 139.6439 18.3849 12.7649 6.1016 -3.3070
# 3 16.1072 18.3849 59.6802 3.4209 3.3035 -14.4309
# 4 -8.2294 12.7649 3.4209 45.8007 3.9235 -0.1667
# 5 16.4550 6.1016 3.3035 3.9235 20.9023 -11.9669
# 6 -19.4029 -3.3070 -14.4309 -0.1667 -11.9669 52.7233
#
#
#
# Elastic Compliance Matrix: (Units=1/GPa)
#
#
# Indices 1 2 3 4 5 6 
#
# 1 0.020297 -0.003469 -0.003203 0.006040 -0.013715 0.003282
# 2 -0.003469 0.008291 -0.001756 -0.002847 0.000470 -0.001140
# 3 -0.003203 -0.001756 0.019220 -0.001760 0.002986 0.004644
# 4 0.006040 -0.002847 -0.001760 0.024564 -0.008410 -0.000269
# 5 -0.013715 0.000470 0.002986 -0.008410 0.065729 0.010692
# 6 0.003282 -0.001140 0.004644 -0.000269 0.010692 0.023800
#
#
# Mechanical properties :
#
#
# Convention : Reuss Voigt Hill
#
# Bulk Modulus (GPa) = 32.30809 44.08883 38.19846
# Shear Modulus (GPa) = 26.44442 37.91459 32.17950
#
# Velocity S-wave (km/s) = 3.34512 4.00542 3.69007
# Velocity P-wave (km/s) = 5.34704 6.32828 5.85824
#
# Compressibility (1/GPa) = 0.03095200
#
# Stress axis : x y z
#
# Youngs Moduli (GPa) = 49.26723 120.60683 52.02909
#
# Poissons Ratio (x) = 0.41841 0.16665
# Poissons Ratio (y) = 0.17092 0.09138
# Poissons Ratio (z) = 0.15780 0.21182
#
# Static dielectric constant tensor:
#      x y z
#    x 4.222240 0.143020 -0.082090 
#    y 0.143020 4.679000 0.234860 
#    z -0.082090 0.234860 4.828620 
# 
# 
# High freq. dielectric constant tensor:
#      x y z
#    x 1.919900 0.003190 0.004420 
#    y 0.003190 1.960500 0.004560 
#    z 0.004420 0.004560 1.924690 
# 
# From -- ./inp_files/184781.got.cif
#   From: 2010.06.25/outbox.cif.g09.slc.cpg/sg2_93_cif.got.tgz:184781.got - 2010.06.27 13:26:56.
