data_PCOD8005754
_publ_section_title
;
Structure prediction by ZEFSAII (Michael W. Deem and Ramdas Pophale) SiO2 
 PCOD8005754
Probable space group: P -1
;
_chemical_formula_sum "Si O2"
_cell_formula_units_Z 16
_cell_length_a 9.388605
_cell_length_b 11.243036
_cell_length_c 11.401576
_cell_angle_alpha 65.114428
_cell_angle_beta 68.440068
_cell_angle_gamma 119.299000
_cell_volume 655.947019
_symmetry_space_group_name_H-M "P -1"
_symmetry_group_IT_number 2
_symmetry_cell_setting 'triclinic'
loop_
_space_group_symop_operation_xyz
x,y,z
-x,-y,-z
loop_
_atom_site_type_symbol
_atom_site_label
_atom_site_fract_x
_atom_site_fract_y
_atom_site_fract_z
Si Si1 0.107036 0.609541 0.560131
Si Si2 0.557337 0.184797 0.941894
Si Si3 0.015216 0.898635 0.702401
Si Si4 0.813392 0.255918 0.272816
Si Si5 0.355011 0.673503 0.889501
Si Si6 0.870673 0.634596 0.460624
Si Si7 0.302271 0.307873 0.320705
Si Si8 0.101415 0.015039 0.085580
O O1 0.103608 0.734614 0.422601
O O2 0.247957 0.733398 0.583446
O O3 0.238070 0.566330 0.485765
O O4 0.829244 0.393059 0.748283
O O5 0.508061 0.188980 0.092606
O O6 0.375857 0.153358 0.932807
O O7 0.500000 0.000000 0.000000
O O8 0.812003 0.705256 0.757877
O O9 0.216251 0.920254 0.652385
O O10 0.905797 0.867020 0.872842
O O11 0.116799 0.090507 0.527970
O O12 0.627396 0.196344 0.263463
O O13 0.082227 0.466934 0.076607
O O14 0.460778 0.612048 0.822293
O O15 0.670633 0.559927 0.643964
O O16 0.948226 0.791898 0.274833
O O17 0.000000 0.000000 0.000000
#
# Coordination Sequence:
#
# PCOD8005754 Si02
#       8
#     2   2   2   2   2   2   2   2
#     4  10  21  39  66  92 124 171 206 257 313 373
#     4  11  22  39  63  91 124 167 216 252 307 381
#     4  10  21  37  61  89 126 163 200 256 307 370
#     4  10  22  39  61  94 128 159 207 256 310 365
#     4  10  23  39  62  94 125 165 204 259 309 370
#     4  10  21  41  63  91 127 166 207 256 317 374
#     4  10  20  39  62  90 123 161 208 249 311 372
#     4  11  24  40  63  93 127 166 210 264 311 367
#
# _framework density 24.392213000000002
#
# number of rings (size 3 to 8) (size 9 to 14) (size 15 to 20)
#    0.000    1.750    3.750    0.000    1.750    3.000 
#    0.000    6.250    0.000    0.000    0.000    0.000 
#    0.000    0.000    0.000    0.000    0.000    0.000 
#
# Total GULP energy -198269.910619 kJ/mol
# GULP energy per Si atom -12391.869414 kJ/mol
# Density = 2.433670 g / cm^3
# Si number density = 24.392213 Si / 1000 Ang^3
#
#
#
# Elastic Constant Matrix: (Units=GPa)
#
#
# Indices 1 2 3 4 5 6 
#
# 1 134.5955 68.0542 37.2065 20.1600 36.1613 -7.1999
# 2 68.0542 115.9310 42.8541 40.1160 -1.3161 -29.1387
# 3 37.2065 42.8541 57.7495 25.3067 14.8349 -0.1907
# 4 20.1600 40.1160 25.3067 39.0802 5.7817 -6.9421
# 5 36.1613 -1.3161 14.8349 5.7817 35.2975 10.2310
# 6 -7.1999 -29.1387 -0.1907 -6.9421 10.2310 46.2520
#
#
#
# Elastic Compliance Matrix: (Units=1/GPa)
#
#
# Indices 1 2 3 4 5 6 
#
# 1 0.019275 -0.014472 0.000490 0.007784 -0.021727 -0.000140
# 2 -0.014472 0.029456 -0.009981 -0.017707 0.020383 0.009097
# 3 0.000490 -0.009981 0.031452 -0.009646 -0.011039 -0.005088
# 4 0.007784 -0.017707 -0.009646 0.047818 -0.012394 -0.000065
# 5 -0.021727 0.020383 -0.011039 -0.012394 0.059654 -0.005643
# 6 -0.000140 0.009097 -0.005088 -0.000065 -0.005643 0.028547
#
#
# Mechanical properties :
#
#
# Convention : Reuss Voigt Hill
#
# Bulk Modulus (GPa) = 30.99898 67.16728 49.08313
# Shear Modulus (GPa) = 18.18981 34.80335 26.49658
#
# Velocity S-wave (km/s) = 2.73375 3.78143 3.29944
# Velocity P-wave (km/s) = 4.76452 6.83094 5.88908
#
# Compressibility (1/GPa) = 0.03225913
#
# Stress axis : x y z
#
# Youngs Moduli (GPa) = 51.88020 33.94951 31.79420
#
# Poissons Ratio (x) = 0.49130 -0.01559
# Poissons Ratio (y) = 0.75079 0.31733
# Poissons Ratio (z) = -0.02544 0.33884
#
# Static dielectric constant tensor:
#      x y z
#    x 4.529010 -0.289270 0.316930 
#    y -0.289270 4.595830 0.465290 
#    z 0.316930 0.465290 4.458180 
# 
# 
# High freq. dielectric constant tensor:
#      x y z
#    x 1.965050 -0.025750 0.013280 
#    y -0.025750 1.966680 0.020100 
#    z 0.013280 0.020100 1.970370 
# 
# From -- ./inp_files/389388.got.cif
#   From: 2010.06.25/outbox.cif.g09.slc.cpg/sg2_195_cif.got.tgz:389388.got - 2010.06.27 13:26:56.
