data_PCOD8005125
_publ_section_title
;
Structure prediction by ZEFSAII (Michael W. Deem and Ramdas Pophale) SiO2 
 PCOD8005125
Probable space group: P -1
;
_chemical_formula_sum "Si O2"
_cell_formula_units_Z 14
_cell_length_a 16.437278
_cell_length_b 7.798348
_cell_length_c 11.353502
_cell_angle_alpha 74.198482
_cell_angle_beta 155.185683
_cell_angle_gamma 93.154732
_cell_volume 516.910821
_symmetry_space_group_name_H-M "P -1"
_symmetry_group_IT_number 2
_symmetry_cell_setting 'triclinic'
loop_
_space_group_symop_operation_xyz
x,y,z
-x,-y,-z
loop_
_atom_site_type_symbol
_atom_site_label
_atom_site_fract_x
_atom_site_fract_y
_atom_site_fract_z
Si Si1 0.557223 0.783662 0.666410
Si Si2 0.328062 0.228160 0.770271
Si Si3 0.739729 0.248389 0.371142
Si Si4 0.724339 0.376591 0.574925
Si Si5 0.849800 0.814960 0.679305
Si Si6 0.497860 0.760870 0.343654
Si Si7 0.132730 0.185345 0.760694
O O1 0.359404 0.789190 0.484026
O O2 0.575054 0.655189 0.594391
O O3 0.500000 0.000000 0.500000
O O4 0.776055 0.705176 0.048147
O O5 0.171965 0.320297 0.432610
O O6 0.171340 0.238262 0.669628
O O7 0.479116 0.335155 0.982155
O O8 0.500000 0.000000 0.000000
O O9 0.772683 0.371163 0.500395
O O10 0.856536 0.011968 0.603944
O O11 0.872683 0.273393 0.430049
O O12 0.933864 0.331567 0.937602
O O13 0.528438 0.595151 0.316752
O O14 0.638923 0.877403 0.474721
O O15 0.246919 0.941743 0.976325
#
# Coordination Sequence:
#
# PCOD8005125 Si02
#       7
#     2   2   2   2   2   2   2
#     4  10  20  38  64  96 130 166 222 272 313 385
#     4  10  21  42  67  95 132 169 227 275 311 388
#     4  11  22  41  71  98 124 175 225 270 323 387
#     4  12  23  40  66 101 135 170 213 276 341 383
#     4  11  22  40  64  96 133 169 224 265 325 388
#     4  11  22  39  63  99 137 169 209 282 332 387
#     4  11  21  42  70  99 126 173 228 270 320 390
#
# _framework density 27.083976
#
# number of rings (size 3 to 8) (size 9 to 14) (size 15 to 20)
#    0.000    1.143    4.286    4.714    0.000    2.286 
#    2.571    0.714    0.000    1.714    0.000    3.000 
#    0.000    0.000    0.000    0.000    0.000    0.000 
#
# Total GULP energy -173585.146694 kJ/mol
# GULP energy per Si atom -12398.939050 kJ/mol
# Density = 2.702233 g / cm^3
# Si number density = 27.083976 Si / 1000 Ang^3
#
#
#
# Elastic Constant Matrix: (Units=GPa)
#
#
# Indices 1 2 3 4 5 6 
#
# 1 194.6594 3.8506 79.7818 4.7707 7.3411 -8.5759
# 2 3.8506 50.4116 30.9794 9.9271 -5.8544 -22.3972
# 3 79.7818 30.9794 146.6958 16.8316 -9.5668 -2.4203
# 4 4.7707 9.9271 16.8316 29.6174 0.4624 -7.3072
# 5 7.3411 -5.8544 -9.5668 0.4624 57.2776 14.5101
# 6 -8.5759 -22.3972 -2.4203 -7.3072 14.5101 42.4829
#
#
#
# Elastic Compliance Matrix: (Units=1/GPa)
#
#
# Indices 1 2 3 4 5 6 
#
# 1 0.007418 0.003960 -0.005138 0.001529 -0.002537 0.004422
# 2 0.003960 0.033263 -0.008841 -0.002126 -0.003275 0.018585
# 3 -0.005138 -0.008841 0.012163 -0.004927 0.003622 -0.007090
# 4 0.001529 -0.002126 -0.004927 0.038728 -0.003240 0.006675
# 5 -0.002537 -0.003275 0.003622 -0.003240 0.020511 -0.009595
# 6 0.004422 0.018585 -0.007090 0.006675 -0.009595 0.038251
#
#
# Mechanical properties :
#
#
# Convention : Reuss Voigt Hill
#
# Bulk Modulus (GPa) = 30.48366 68.99893 49.74129
# Shear Modulus (GPa) = 27.57743 44.35259 35.96501
#
# Velocity S-wave (km/s) = 3.19442 4.05111 3.64800
# Velocity P-wave (km/s) = 4.98853 6.88573 6.01243
#
# Compressibility (1/GPa) = 0.03280446
#
# Stress axis : x y z
#
# Youngs Moduli (GPa) = 134.80995 30.06366 82.21599
#
# Poissons Ratio (x) = -0.11905 0.42246
# Poissons Ratio (y) = -0.53385 0.72689
# Poissons Ratio (z) = 0.69271 0.26580
#
# Static dielectric constant tensor:
#      x y z
#    x 5.677480 -0.254310 -0.435940 
#    y -0.254310 4.871160 0.469780 
#    z -0.435940 0.469780 4.852540 
# 
# 
# High freq. dielectric constant tensor:
#      x y z
#    x 2.110440 0.000440 -0.011250 
#    y 0.000440 2.093060 0.019140 
#    z -0.011250 0.019140 2.069160 
# 
# From -- ./inp_files/444522.got.cif
#   From: 2010.06.25/outbox.cif.g09.slc.cpg/sg2_223_cif.got.tgz:444522.got - 2010.06.27 13:26:56.
