data_PCOD8005059
_publ_section_title
;
Structure prediction by ZEFSAII (Michael W. Deem and Ramdas Pophale) SiO2 
 PCOD8005059
Probable space group: P -1
;
_chemical_formula_sum "Si O2"
_cell_formula_units_Z 16
_cell_length_a 14.367811
_cell_length_b 29.090264
_cell_length_c 18.276085
_cell_angle_alpha 160.490810
_cell_angle_beta 20.043509
_cell_angle_gamma 160.272330
_cell_volume 763.340580
_symmetry_space_group_name_H-M "P -1"
_symmetry_group_IT_number 2
_symmetry_cell_setting 'triclinic'
loop_
_space_group_symop_operation_xyz
x,y,z
-x,-y,-z
loop_
_atom_site_type_symbol
_atom_site_label
_atom_site_fract_x
_atom_site_fract_y
_atom_site_fract_z
Si Si1 0.805755 0.154592 0.034060
Si Si2 0.873623 0.687294 0.442785
Si Si3 0.189463 0.535332 0.558425
Si Si4 0.739855 0.967411 0.319681
Si Si5 0.105670 0.797271 0.788639
Si Si6 0.717418 0.949597 0.474781
Si Si7 0.083437 0.310502 0.745492
Si Si8 0.853006 0.486694 0.279063
O O1 0.848505 0.316735 0.214178
O O2 0.797010 0.156539 0.130737
O O3 0.115983 0.150386 0.773632
O O4 0.500000 0.000000 0.000000
O O5 0.016580 0.666864 0.229238
O O6 0.021164 0.642191 0.335815
O O7 0.509817 0.573914 0.541382
O O8 0.940233 0.865980 0.666934
O O9 0.548302 0.585038 0.363975
O O10 0.031662 0.477922 0.669327
O O11 0.010393 0.387288 0.414671
O O12 0.606461 0.916999 0.423783
O O13 0.500000 0.000000 0.500000
O O14 0.835606 0.839935 0.027045
O O15 0.412703 0.904689 0.677952
O O16 0.978033 0.129340 0.565625
O O17 0.918715 0.356591 0.999209
#
# Coordination Sequence:
#
# PCOD8005059 Si02
#       8
#     2   2   2   2   2   2   2   2
#     4  11  24  46  71  91 130 166 217 271 324 381
#     4   9  20  38  56  93 123 171 215 263 305 376
#     4  11  25  41  63  99 127 167 212 270 320 377
#     4  10  23  41  64  90 137 170 209 256 321 379
#     4  11  26  43  66  98 133 162 219 266 323 382
#     4  10  23  42  67  98 123 171 218 263 316 388
#     4  10  20  38  64  90 129 169 213 259 321 373
#     4  10  21  36  63  88 131 161 220 261 313 373
#
# _framework density 20.9605
#
# number of rings (size 3 to 8) (size 9 to 14) (size 15 to 20)
#    0.000    1.750    1.250    1.500    7.000    3.500 
#    4.500    0.000    0.000    0.000    0.000    0.000 
#    0.000    0.000    0.000    0.000    0.000    0.000 
#
# Total GULP energy -198327.147022 kJ/mol
# GULP energy per Si atom -12395.446689 kJ/mol
# Density = 2.091279 g / cm^3
# Si number density = 20.960500 Si / 1000 Ang^3
#
#
#
# Elastic Constant Matrix: (Units=GPa)
#
#
# Indices 1 2 3 4 5 6 
#
# 1 113.7211 39.3789 62.8640 2.8170 -5.6173 -5.8865
# 2 39.3789 81.8608 32.7758 8.6968 9.1198 -7.9606
# 3 62.8640 32.7758 126.6375 7.3231 8.1789 -5.8812
# 4 2.8170 8.6968 7.3231 37.0364 -4.9063 2.6256
# 5 -5.6173 9.1198 8.1789 -4.9063 33.1255 4.8726
# 6 -5.8865 -7.9606 -5.8812 2.6256 4.8726 26.5973
#
#
#
# Elastic Compliance Matrix: (Units=1/GPa)
#
#
# Indices 1 2 3 4 5 6 
#
# 1 0.014310 -0.005390 -0.006280 0.002292 0.005971 -0.001155
# 2 -0.005390 0.016895 -0.000728 -0.004710 -0.006882 0.005429
# 3 -0.006280 -0.000728 0.011720 -0.002397 -0.004412 0.002029
# 4 0.002292 -0.004710 -0.002397 0.029813 0.007540 -0.005757
# 5 0.005971 -0.006882 -0.004412 0.007540 0.036651 -0.009173
# 6 -0.001155 0.005429 0.002029 -0.005757 -0.009173 0.041664
#
#
# Mechanical properties :
#
#
# Convention : Reuss Voigt Hill
#
# Bulk Modulus (GPa) = 55.16210 65.80629 60.48420
# Shear Modulus (GPa) = 27.48862 31.83190 29.66026
#
# Velocity S-wave (km/s) = 3.62532 3.90123 3.76580
# Velocity P-wave (km/s) = 6.62557 7.19419 6.91573
#
# Compressibility (1/GPa) = 0.01812839
#
# Stress axis : x y z
#
# Youngs Moduli (GPa) = 69.88105 59.18815 85.32153
#
# Poissons Ratio (x) = 0.31904 0.53585
# Poissons Ratio (y) = 0.37667 0.06212
# Poissons Ratio (z) = 0.43888 0.04309
#
# Static dielectric constant tensor:
#      x y z
#    x 4.022320 -0.185480 0.037780 
#    y -0.185480 3.817220 0.121810 
#    z 0.037780 0.121810 3.833070 
# 
# 
# High freq. dielectric constant tensor:
#      x y z
#    x 1.819970 -0.010670 0.004380 
#    y -0.010670 1.823800 0.006870 
#    z 0.004380 0.006870 1.825400 
# 
# From -- ./inp_files/106720.got.cif
#   From: 2010.06.25/outbox.cif.g09.slc.cpg/sg2_54_cif.got.tgz:106720.got - 2010.06.27 13:26:56.
