data_PCOD8005943
_publ_section_title
;
Structure prediction by ZEFSAII (Michael W. Deem and Ramdas Pophale) SiO2 
 PCOD8005943
Probable space group: P -1
;
_chemical_formula_sum "Si O2"
_cell_formula_units_Z 16
_cell_length_a 10.070145
_cell_length_b 12.679212
_cell_length_c 9.435340
_cell_angle_alpha 123.316033
_cell_angle_beta 70.499206
_cell_angle_gamma 126.368213
_cell_volume 810.580823
_symmetry_space_group_name_H-M "P -1"
_symmetry_group_IT_number 2
_symmetry_cell_setting 'triclinic'
loop_
_space_group_symop_operation_xyz
x,y,z
-x,-y,-z
loop_
_atom_site_type_symbol
_atom_site_label
_atom_site_fract_x
_atom_site_fract_y
_atom_site_fract_z
Si Si1 0.032482 0.608946 0.442140
Si Si2 0.645475 0.229675 0.712574
Si Si3 0.298141 0.477948 0.637342
Si Si4 0.663188 0.957427 0.507393
Si Si5 0.604391 0.746657 0.621627
Si Si6 0.513114 0.403468 0.050110
Si Si7 0.239036 0.132115 0.077254
Si Si8 0.098487 0.915756 0.733310
O O1 0.190275 0.636964 0.318313
O O2 0.068512 0.754529 0.619299
O O3 0.000000 0.500000 0.500000
O O4 0.884560 0.550258 0.335919
O O5 0.512925 0.142773 0.574888
O O6 0.681795 0.107748 0.676758
O O7 0.584790 0.302279 0.901242
O O8 0.412072 0.618239 0.598198
O O9 0.289655 0.333206 0.470012
O O10 0.368614 0.499283 0.789504
O O11 0.669072 0.855745 0.549185
O O12 0.814893 0.997436 0.377982
O O13 0.638514 0.846678 0.822973
O O14 0.324198 0.291826 0.084719
O O15 0.500000 0.500000 0.000000
O O16 0.066297 0.084267 0.177097
O O17 0.223211 0.005587 0.884821
#
# Coordination Sequence:
#
# PCOD8005943 Si02
#       8
#     2   2   2   2   2   2   2   2
#     4  11  23  40  62  86 126 169 201 248 314 366
#     4  10  22  39  59  88 123 158 211 247 298 383
#     4  10  22  39  60  94 125 156 212 254 297 380
#     4  10  20  39  64  87 118 165 202 250 314 365
#     4  10  20  39  65  89 123 156 204 261 310 356
#     4  11  23  40  67  91 122 164 203 260 313 359
#     4  10  21  39  60  92 124 147 206 263 300 363
#     4  10  21  39  60  90 123 155 206 253 300 371
#
# _framework density 19.738931999999998
#
# number of rings (size 3 to 8) (size 9 to 14) (size 15 to 20)
#    0.000    1.750    2.500    1.500    1.750    1.000 
#    2.250    1.250    0.000    0.000    0.000    0.000 
#    0.000    0.000    0.000    0.000    0.000    0.000 
#
# Total GULP energy -198286.281476 kJ/mol
# GULP energy per Si atom -12392.892592 kJ/mol
# Density = 1.969401 g / cm^3
# Si number density = 19.738932 Si / 1000 Ang^3
#
#
#
# Elastic Constant Matrix: (Units=GPa)
#
#
# Indices 1 2 3 4 5 6 
#
# 1 73.0138 57.3615 30.7285 -9.5854 5.1385 9.7914
# 2 57.3615 152.7579 52.7935 -21.1228 7.5432 -1.6841
# 3 30.7285 52.7935 107.0739 1.8978 5.6797 -6.9219
# 4 -9.5854 -21.1228 1.8978 31.5323 6.6180 -0.2829
# 5 5.1385 7.5432 5.6797 6.6180 32.2463 -4.9477
# 6 9.7914 -1.6841 -6.9219 -0.2829 -4.9477 23.6513
#
#
#
# Elastic Compliance Matrix: (Units=1/GPa)
#
#
# Indices 1 2 3 4 5 6 
#
# 1 0.022944 -0.006740 -0.003883 0.003410 -0.003920 -0.011894
# 2 -0.006740 0.011235 -0.003469 0.006094 -0.001847 0.002261
# 3 -0.003883 -0.003469 0.012527 -0.004405 0.000921 0.005167
# 4 0.003410 0.006094 -0.004405 0.039122 -0.009813 -0.003852
# 5 -0.003920 -0.001847 0.000921 -0.009813 0.035305 0.009029
# 6 -0.011894 0.002261 0.005167 -0.003852 0.009029 0.050721
#
#
# Mechanical properties :
#
#
# Convention : Reuss Voigt Hill
#
# Bulk Modulus (GPa) = 53.98793 68.29030 61.13911
# Shear Modulus (GPa) = 24.24701 30.28345 27.26523
#
# Velocity S-wave (km/s) = 3.50863 3.92113 3.72061
# Velocity P-wave (km/s) = 6.62000 7.42780 7.03550
#
# Compressibility (1/GPa) = 0.01852266
#
# Stress axis : x y z
#
# Youngs Moduli (GPa) = 43.58533 89.00965 79.82533
#
# Poissons Ratio (x) = 0.59989 0.30995
# Poissons Ratio (y) = 0.29375 0.27692
# Poissons Ratio (z) = 0.16923 0.30878
#
# Static dielectric constant tensor:
#      x y z
#    x 3.478810 0.270580 -0.006500 
#    y 0.270580 3.861550 0.084720 
#    z -0.006500 0.084720 3.775210 
# 
# 
# High freq. dielectric constant tensor:
#      x y z
#    x 1.750020 0.021960 0.001070 
#    y 0.021960 1.782030 0.001020 
#    z 0.001070 0.001020 1.774130 
# 
# From -- ./inp_files/189901.got.cif
#   From: 2010.06.25/outbox.cif.g09.slc.cpg/sg2_95_cif.got.tgz:189901.got - 2010.06.27 13:26:56.
