data_PCOD8005690
_publ_section_title
;
Structure prediction by ZEFSAII (Michael W. Deem and Ramdas Pophale) SiO2 
 PCOD8005690
Probable space group: P -1
;
_chemical_formula_sum "Si O2"
_cell_formula_units_Z 14
_cell_length_a 11.486423
_cell_length_b 10.483020
_cell_length_c 6.792360
_cell_angle_alpha 73.222669
_cell_angle_beta 56.943881
_cell_angle_gamma 67.187437
_cell_volume 628.717940
_symmetry_space_group_name_H-M "P -1"
_symmetry_group_IT_number 2
_symmetry_cell_setting 'triclinic'
loop_
_space_group_symop_operation_xyz
x,y,z
-x,-y,-z
loop_
_atom_site_type_symbol
_atom_site_label
_atom_site_fract_x
_atom_site_fract_y
_atom_site_fract_z
Si Si1 0.829213 0.703392 0.055896
Si Si2 0.550816 0.187816 0.366629
Si Si3 0.152387 0.889874 0.706531
Si Si4 0.406144 0.033551 0.877156
Si Si5 0.367067 0.459666 0.539272
Si Si6 0.907876 0.309760 0.435864
Si Si7 0.043204 0.193495 0.755497
O O1 0.749929 0.858670 0.973955
O O2 0.723519 0.603870 0.188096
O O3 0.867500 0.720979 0.242719
O O4 0.973981 0.637618 0.822557
O O5 0.685729 0.204716 0.360004
O O6 0.473099 0.103127 0.613600
O O7 0.440236 0.340505 0.363755
O O8 0.605336 0.111593 0.141711
O O9 0.098158 0.839670 0.575155
O O10 0.148460 0.052234 0.624530
O O11 0.061459 0.857993 0.983972
O O12 0.500000 0.000000 0.000000
O O13 0.500000 0.500000 0.500000
O O14 0.252644 0.584423 0.477859
O O15 0.953919 0.295767 0.626077
#
# Coordination Sequence:
#
# PCOD8005690 Si02
#       7
#     2   2   2   2   2   2   2
#     4  10  23  41  65  92 127 167 212 272 310 367
#     4  10  21  40  63  87 133 161 202 269 320 365
#     4  10  20  39  61  95 129 159 202 272 314 364
#     4  10  22  38  65  97 121 164 213 261 326 383
#     4  11  23  44  64  91 131 174 212 260 321 375
#     4  11  23  40  68  92 126 177 213 249 314 391
#     4  10  22  39  64  95 126 161 218 259 320 371
#
# _framework density 22.267537999999998
#
# number of rings (size 3 to 8) (size 9 to 14) (size 15 to 20)
#    0.000    1.714    2.857    0.857    2.000    1.714 
#    0.000    6.429    0.000    0.000    0.000    0.000 
#    0.000    0.000    0.000    0.000    0.000    0.000 
#
# Total GULP energy -173541.346948 kJ/mol
# GULP energy per Si atom -12395.810496 kJ/mol
# Density = 2.221686 g / cm^3
# Si number density = 22.267538 Si / 1000 Ang^3
#
#
#
# Elastic Constant Matrix: (Units=GPa)
#
#
# Indices 1 2 3 4 5 6 
#
# 1 147.8134 50.1742 40.4448 -4.7649 8.0425 -14.5618
# 2 50.1742 107.6092 32.1531 0.8334 7.9012 -21.4572
# 3 40.4448 32.1531 29.1721 -0.3054 18.7502 -3.2288
# 4 -4.7649 0.8334 -0.3054 17.2113 -8.1403 -4.2657
# 5 8.0425 7.9012 18.7502 -8.1403 41.0929 -5.8156
# 6 -14.5618 -21.4572 -3.2288 -4.2657 -5.8156 44.9168
#
#
#
# Elastic Compliance Matrix: (Units=1/GPa)
#
#
# Indices 1 2 3 4 5 6 
#
# 1 0.014955 0.002995 -0.032636 0.012144 0.014785 0.007001
# 2 0.002995 0.018339 -0.031814 0.008202 0.013439 0.009964
# 3 -0.032636 -0.031814 0.157589 -0.045979 -0.072501 -0.028204
# 4 0.012144 0.008202 -0.045979 0.081220 0.035501 0.016860
# 5 0.014785 0.013439 -0.072501 0.035501 0.061423 0.017326
# 6 0.007001 0.009964 -0.028204 0.016860 0.017326 0.031110
#
#
# Mechanical properties :
#
#
# Convention : Reuss Voigt Hill
#
# Bulk Modulus (GPa) = 14.71200 58.90434 36.80817
# Shear Modulus (GPa) = 9.79999 31.43238 20.61619
#
# Velocity S-wave (km/s) = 2.10014 3.76117 3.04606
# Velocity P-wave (km/s) = 3.53582 6.73590 5.37933
#
# Compressibility (1/GPa) = 0.06797172
#
# Stress axis : x y z
#
# Youngs Moduli (GPa) = 66.86532 54.52897 6.34563
#
# Poissons Ratio (x) = -0.16330 0.20710
# Poissons Ratio (y) = -0.20024 0.20188
# Poissons Ratio (z) = 2.18224 1.73478
#
# Static dielectric constant tensor:
#      x y z
#    x 4.246040 -0.052580 -0.096880 
#    y -0.052580 4.477500 0.320450 
#    z -0.096880 0.320450 3.690310 
# 
# 
# High freq. dielectric constant tensor:
#      x y z
#    x 1.888950 -0.006230 -0.011610 
#    y -0.006230 1.882710 0.016950 
#    z -0.011610 0.016950 1.842150 
# 
# From -- ./inp_files/68875.got.cif
#   From: 2010.06.25/outbox.cif.g09.slc.cpg/sg2_35_cif.got.tgz:68875.got - 2010.06.27 13:26:56.
