data_PCOD8005030
_publ_section_title
;
Structure prediction by ZEFSAII (Michael W. Deem and Ramdas Pophale) SiO2 
 PCOD8005030
Probable space group: P -1
;
_chemical_formula_sum "Si O2"
_cell_formula_units_Z 12
_cell_length_a 10.514768
_cell_length_b 16.301958
_cell_length_c 20.973043
_cell_angle_alpha 21.878398
_cell_angle_beta 25.243727
_cell_angle_gamma 37.930071
_cell_volume 541.587957
_symmetry_space_group_name_H-M "P -1"
_symmetry_group_IT_number 2
_symmetry_cell_setting 'triclinic'
loop_
_space_group_symop_operation_xyz
x,y,z
-x,-y,-z
loop_
_atom_site_type_symbol
_atom_site_label
_atom_site_fract_x
_atom_site_fract_y
_atom_site_fract_z
Si Si1 0.801413 0.039581 0.764523
Si Si2 0.795699 0.617383 0.876000
Si Si3 0.170646 0.479327 0.338372
Si Si4 0.189936 0.004905 0.500639
Si Si5 0.899642 0.164579 0.800173
Si Si6 0.841471 0.146702 0.156079
O O1 0.893121 0.317103 0.536465
O O2 0.883042 0.005094 0.679164
O O3 0.011658 0.935998 0.789429
O O4 0.432695 0.906575 0.035987
O O5 0.691469 0.767874 0.761547
O O6 0.503307 0.506729 0.135191
O O7 0.907634 0.421487 0.931568
O O8 0.095853 0.774332 0.666405
O O9 0.121376 0.729222 0.196595
O O10 0.158435 0.354628 0.502765
O O11 0.467614 0.012958 0.418149
O O12 0.006604 0.931934 0.920188
#
# Coordination Sequence:
#
# PCOD8005030 Si02
#       6
#     2   2   2   2   2   2
#     4  11  22  40  66  93 125 157 203 256 307 359
#     4  11  24  41  65  88 125 168 201 250 309 358
#     4  10  20  38  64  87 122 167 192 245 314 355
#     4  11  24  41  63  91 126 160 209 250 302 367
#     4  10  23  40  61  95 128 154 203 253 309 362
#     4  11  23  39  65  97 116 161 210 255 296 359
#
# _framework density 22.157064999999999
#
# number of rings (size 3 to 8) (size 9 to 14) (size 15 to 20)
#    0.000    1.333    3.333    3.000    2.333    6.000 
#    0.000    1.667    3.667    0.000    0.000    0.000 
#    0.000    0.000    0.000    0.000    0.000    0.000 
#
# Total GULP energy -148726.551064 kJ/mol
# GULP energy per Si atom -12393.879255 kJ/mol
# Density = 2.210663 g / cm^3
# Si number density = 22.157065 Si / 1000 Ang^3
#
#
#
# Elastic Constant Matrix: (Units=GPa)
#
#
# Indices 1 2 3 4 5 6 
#
# 1 49.9842 34.8959 33.6113 -4.6851 -10.4959 5.0027
# 2 34.8959 177.6802 58.8829 -26.6040 -17.5596 28.3198
# 3 33.6113 58.8829 106.8934 -9.9467 -13.5144 -10.2873
# 4 -4.6851 -26.6040 -9.9467 30.5568 13.5995 -18.6212
# 5 -10.4959 -17.5596 -13.5144 13.5995 23.6754 -4.4206
# 6 5.0027 28.3198 -10.2873 -18.6212 -4.4206 23.3567
#
#
#
# Elastic Compliance Matrix: (Units=1/GPa)
#
#
# Indices 1 2 3 4 5 6 
#
# 1 0.033022 0.001174 -0.014429 -0.024953 0.015674 -0.031779
# 2 0.001174 0.011799 -0.009927 -0.011767 0.005264 -0.027316
# 3 -0.014429 -0.009927 0.026264 0.032103 -0.007718 0.050829
# 4 -0.024953 -0.011767 0.032103 0.130239 -0.052439 0.127660
# 5 0.015674 0.005264 -0.007718 -0.052439 0.071059 -0.041497
# 6 -0.031779 -0.027316 0.050829 0.127660 -0.041497 0.199051
#
#
# Mechanical properties :
#
#
# Convention : Reuss Voigt Hill
#
# Bulk Modulus (GPa) = 40.45074 65.48201 52.96638
# Shear Modulus (GPa) = 9.50500 29.32898 19.41699
#
# Velocity S-wave (km/s) = 2.07344 3.64220 2.96351
# Velocity P-wave (km/s) = 4.90186 6.87788 5.97216
#
# Compressibility (1/GPa) = 0.02472142
#
# Stress axis : x y z
#
# Youngs Moduli (GPa) = 30.28278 84.74946 38.07516
#
# Poissons Ratio (x) = -0.09951 0.54938
# Poissons Ratio (y) = -0.03556 0.37798
# Poissons Ratio (z) = 0.43695 0.84133
#
# Static dielectric constant tensor:
#      x y z
#    x 3.711680 0.535560 -0.232300 
#    y 0.535560 4.511560 -0.206190 
#    z -0.232300 -0.206190 3.961590 
# 
# 
# High freq. dielectric constant tensor:
#      x y z
#    x 1.844430 0.038930 -0.023260 
#    y 0.038930 1.880430 -0.001770 
#    z -0.023260 -0.001770 1.871450 
# 
# From -- ./inp_files/163310.got.cif
#   From: 2010.06.25/outbox.cif.g09.slc.cpg/sg2_82_cif.got.tgz:163310.got - 2010.06.27 13:26:56.
