data_PCOD8005259
_publ_section_title
;
Structure prediction by ZEFSAII (Michael W. Deem and Ramdas Pophale) SiO2 
 PCOD8005259
Probable space group: P -1
;
_chemical_formula_sum "Si O2"
_cell_formula_units_Z 14
_cell_length_a 14.083810
_cell_length_b 11.872729
_cell_length_c 9.237192
_cell_angle_alpha 64.968330
_cell_angle_beta 104.885174
_cell_angle_gamma 49.858009
_cell_volume 689.409183
_symmetry_space_group_name_H-M "P -1"
_symmetry_group_IT_number 2
_symmetry_cell_setting 'triclinic'
loop_
_space_group_symop_operation_xyz
x,y,z
-x,-y,-z
loop_
_atom_site_type_symbol
_atom_site_label
_atom_site_fract_x
_atom_site_fract_y
_atom_site_fract_z
Si Si1 0.861406 0.231243 0.218955
Si Si2 0.205748 0.776549 0.125053
Si Si3 0.522839 0.292250 0.677599
Si Si4 0.101782 0.537742 0.833949
Si Si5 0.398561 0.361304 0.904151
Si Si6 0.401704 0.010957 0.312856
Si Si7 0.319074 0.083415 0.551677
O O1 0.942406 0.284734 0.191677
O O2 0.824657 0.200850 0.071049
O O3 0.662835 0.459833 0.108634
O O4 0.000000 0.000000 0.500000
O O5 0.349246 0.512279 0.379330
O O6 0.307949 0.792911 0.199288
O O7 0.000000 0.000000 0.000000
O O8 0.628086 0.053106 0.793856
O O9 0.423876 0.384506 0.742641
O O10 0.908538 0.675806 0.643225
O O11 0.226910 0.443428 0.792763
O O12 0.232923 0.297908 0.103745
O O13 0.594789 0.089534 0.189068
O O14 0.390945 0.951060 0.495804
O O15 0.607324 0.853981 0.450459
#
# Coordination Sequence:
#
# PCOD8005259 Si02
#       7
#     2   2   2   2   2   2   2
#     4  10  22  43  67  90 127 159 214 261 300 380
#     4  11  26  43  63  96 125 169 210 253 318 372
#     4  11  25  42  64  91 135 164 202 264 314 369
#     4   9  22  39  64  94 118 161 212 256 306 365
#     4   9  22  40  60  95 119 161 212 249 310 371
#     4  10  22  40  62  94 125 162 211 257 309 375
#     4  10  20  38  66  88 125 161 210 256 308 365
#
# _framework density 20.307241999999999
#
# number of rings (size 3 to 8) (size 9 to 14) (size 15 to 20)
#    0.857    1.143    0.000    2.143    6.000    4.000 
#    0.000    1.429    0.000    0.000    0.000    0.000 
#    0.000    0.000    0.000    0.000    0.000    0.000 
#
# Total GULP energy -173466.978384 kJ/mol
# GULP energy per Si atom -12390.498456 kJ/mol
# Density = 2.026102 g / cm^3
# Si number density = 20.307242 Si / 1000 Ang^3
#
#
#
# Elastic Constant Matrix: (Units=GPa)
#
#
# Indices 1 2 3 4 5 6 
#
# 1 88.2396 39.5509 56.3710 -9.1495 17.3311 -4.7937
# 2 39.5509 105.0613 47.0625 12.8646 -2.2778 5.9941
# 3 56.3710 47.0625 122.8484 4.3253 9.0718 -1.1942
# 4 -9.1495 12.8646 4.3253 28.0814 -7.5957 -5.8585
# 5 17.3311 -2.2778 9.0718 -7.5957 34.6409 -4.3011
# 6 -4.7937 5.9941 -1.1942 -5.8585 -4.3011 33.3632
#
#
#
# Elastic Compliance Matrix: (Units=1/GPa)
#
#
# Indices 1 2 3 4 5 6 
#
# 1 0.021475 -0.006568 -0.007185 0.010433 -0.006384 0.005017
# 2 -0.006568 0.014493 -0.002450 -0.008784 0.002349 -0.004875
# 3 -0.007185 -0.002450 0.012546 -0.003528 -0.000732 -0.000857
# 4 0.010433 -0.008784 -0.003528 0.048097 0.007203 0.012325
# 5 -0.006384 0.002349 -0.000732 0.007203 0.034527 0.004351
# 6 0.005017 -0.004875 -0.000857 0.012325 0.004351 0.034264
#
#
# Mechanical properties :
#
#
# Convention : Reuss Voigt Hill
#
# Bulk Modulus (GPa) = 62.08314 66.90202 64.49258
# Shear Modulus (GPa) = 24.60913 30.76144 27.68529
#
# Velocity S-wave (km/s) = 3.48493 3.89627 3.69632
# Velocity P-wave (km/s) = 6.84334 7.29778 7.07421
#
# Compressibility (1/GPa) = 0.01610743
#
# Stress axis : x y z
#
# Youngs Moduli (GPa) = 46.56592 68.99981 79.70911
#
# Poissons Ratio (x) = 0.45318 0.57272
# Poissons Ratio (y) = 0.30584 0.19528
# Poissons Ratio (z) = 0.33458 0.16905
#
# Static dielectric constant tensor:
#      x y z
#    x 3.709700 0.030170 -0.044180 
#    y 0.030170 3.447880 -0.069220 
#    z -0.044180 -0.069220 3.638990 
# 
# 
# High freq. dielectric constant tensor:
#      x y z
#    x 1.794100 -0.003720 -0.004240 
#    y -0.003720 1.776030 -0.005690 
#    z -0.004240 -0.005690 1.797340 
# 
# From -- ./inp_files/305002.got.cif
#   From: 2010.06.25/outbox.cif.g09.slc.cpg/sg2_153_cif.got.tgz:305002.got - 2010.06.27 13:26:56.
