data_PCOD8005913
_publ_section_title
;
Structure prediction by ZEFSAII (Michael W. Deem and Ramdas Pophale) SiO2 
 PCOD8005913
Probable space group: P -1
;
_chemical_formula_sum "Si O2"
_cell_formula_units_Z 16
_cell_length_a 14.528932
_cell_length_b 11.990616
_cell_length_c 12.795791
_cell_angle_alpha 99.281000
_cell_angle_beta 61.468668
_cell_angle_gamma 150.448222
_cell_volume 782.206858
_symmetry_space_group_name_H-M "P -1"
_symmetry_group_IT_number 2
_symmetry_cell_setting 'triclinic'
loop_
_space_group_symop_operation_xyz
x,y,z
-x,-y,-z
loop_
_atom_site_type_symbol
_atom_site_label
_atom_site_fract_x
_atom_site_fract_y
_atom_site_fract_z
Si Si1 0.335297 0.784367 0.964869
Si Si2 0.979477 0.167206 0.861213
Si Si3 0.500377 0.368397 0.471613
Si Si4 0.078210 0.948067 0.467734
Si Si5 0.562672 0.773479 0.861800
Si Si6 0.179903 0.809129 0.892672
Si Si7 0.477015 0.666451 0.310910
Si Si8 0.333124 0.325280 0.959109
O O1 0.465814 0.793939 0.868901
O O2 0.343013 0.875193 0.875633
O O3 0.030990 0.460937 0.109528
O O4 0.500000 0.000000 0.000000
O O5 0.228968 0.411857 0.688407
O O6 0.702272 0.923681 0.920838
O O7 0.001154 0.289552 0.951080
O O8 0.942485 0.005506 0.911614
O O9 0.500000 0.500000 0.500000
O O10 0.438638 0.263567 0.604409
O O11 0.265706 0.103228 0.484588
O O12 0.831376 0.625081 0.571182
O O13 0.207000 0.045646 0.304560
O O14 0.000000 0.000000 0.500000
O O15 0.321686 0.444758 0.943491
O O16 0.390893 0.087470 0.757811
O O17 0.544554 0.628122 0.193372
O O18 0.500000 0.500000 0.000000
#
# Coordination Sequence:
#
# PCOD8005913 Si02
#       8
#     2   2   2   2   2   2   2   2
#     4  11  23  42  69  93 125 168 221 270 322 370
#     4  10  20  39  63  95 131 165 211 261 322 387
#     4  12  23  36  62  92 130 177 208 252 317 388
#     4  12  22  40  64  93 136 171 209 256 323 397
#     4  11  19  38  65  94 127 171 211 265 322 379
#     4  10  24  44  65  96 127 164 217 274 318 376
#     4  11  23  42  63  96 135 169 212 265 317 391
#     4   9  20  35  63  95 131 166 205 263 320 385
#
# _framework density 20.454946
#
# number of rings (size 3 to 8) (size 9 to 14) (size 15 to 20)
#    0.000    1.250    5.000    0.750    1.750    2.000 
#    0.000    3.750    0.000    7.500    0.000    0.000 
#    0.000    0.000    0.000    0.000    0.000    0.000 
#
# Total GULP energy -198253.240271 kJ/mol
# GULP energy per Si atom -12390.827517 kJ/mol
# Density = 2.040839 g / cm^3
# Si number density = 20.454946 Si / 1000 Ang^3
#
#
#
# Elastic Constant Matrix: (Units=GPa)
#
#
# Indices 1 2 3 4 5 6 
#
# 1 129.7286 57.9230 52.1741 -17.7940 5.3823 -18.7928
# 2 57.9230 127.6882 30.1242 -20.2346 17.6070 8.9847
# 3 52.1741 30.1242 92.4191 -5.5429 20.1686 -6.8737
# 4 -17.7940 -20.2346 -5.5429 28.0502 -6.0542 1.7482
# 5 5.3823 17.6070 20.1686 -6.0542 24.6466 -5.1246
# 6 -18.7928 8.9847 -6.8737 1.7482 -5.1246 39.7046
#
#
#
# Elastic Compliance Matrix: (Units=1/GPa)
#
#
# Indices 1 2 3 4 5 6 
#
# 1 0.015180 -0.006228 -0.007926 0.005353 0.010674 0.008364
# 2 -0.006228 0.012785 0.001056 0.003948 -0.009125 -0.007010
# 3 -0.007926 0.001056 0.017817 -0.003838 -0.015104 -0.002686
# 4 0.005353 0.003948 -0.003838 0.043239 0.009844 0.000343
# 5 0.010674 -0.009125 -0.015104 0.009844 0.062050 0.012077
# 6 0.008364 -0.007010 -0.002686 0.000343 0.012077 0.031810
#
#
# Mechanical properties :
#
#
# Convention : Reuss Voigt Hill
#
# Bulk Modulus (GPa) = 51.06069 70.03093 60.54581
# Shear Modulus (GPa) = 23.19049 32.45460 27.82255
#
# Velocity S-wave (km/s) = 3.37075 3.98758 3.69207
# Velocity P-wave (km/s) = 6.33766 7.45064 6.91658
#
# Compressibility (1/GPa) = 0.01958454
#
# Stress axis : x y z
#
# Youngs Moduli (GPa) = 65.87652 78.21719 56.12666
#
# Poissons Ratio (x) = 0.48716 0.44485
# Poissons Ratio (y) = 0.41030 -0.05924
# Poissons Ratio (z) = 0.52212 -0.08256
#
# Static dielectric constant tensor:
#      x y z
#    x 3.853100 -0.080030 0.098430 
#    y -0.080030 4.078270 -0.077900 
#    z 0.098430 -0.077900 3.613780 
# 
# 
# High freq. dielectric constant tensor:
#      x y z
#    x 1.794220 0.011300 0.010930 
#    y 0.011300 1.821420 -0.002880 
#    z 0.010930 -0.002880 1.782820 
# 
# From -- ./inp_files/452463.got.cif
#   From: 2010.06.25/outbox.cif.g09.slc.cpg/sg2_227_cif.got.tgz:452463.got - 2010.06.27 13:26:56.
