data_PCOD8005725
_publ_section_title
;
Structure prediction by ZEFSAII (Michael W. Deem and Ramdas Pophale) SiO2 
 PCOD8005725
Probable space group: P -1
;
_chemical_formula_sum "Si O2"
_cell_formula_units_Z 16
_cell_length_a 7.960287
_cell_length_b 6.233831
_cell_length_c 18.811671
_cell_angle_alpha 94.799219
_cell_angle_beta 113.765297
_cell_angle_gamma 119.947718
_cell_volume 690.864185
_symmetry_space_group_name_H-M "P -1"
_symmetry_group_IT_number 2
_symmetry_cell_setting 'triclinic'
loop_
_space_group_symop_operation_xyz
x,y,z
-x,-y,-z
loop_
_atom_site_type_symbol
_atom_site_label
_atom_site_fract_x
_atom_site_fract_y
_atom_site_fract_z
Si Si1 0.186808 0.766888 0.881139
Si Si2 0.157351 0.726070 0.433369
Si Si3 0.875491 0.611860 0.706421
Si Si4 0.402914 0.639517 0.026834
Si Si5 0.713101 0.197655 0.393332
Si Si6 0.842806 0.777712 0.911287
Si Si7 0.109776 0.089554 0.659376
Si Si8 0.466236 0.343303 0.262200
O O1 0.060636 0.599289 0.783309
O O2 0.007782 0.812697 0.880173
O O3 0.421487 0.051833 0.915628
O O4 0.216870 0.597737 0.938225
O O5 0.227084 0.617540 0.377234
O O6 0.344053 0.837560 0.532111
O O7 0.920270 0.495711 0.421080
O O8 0.115728 0.945482 0.409807
O O9 0.664698 0.562831 0.712605
O O10 0.027265 0.909219 0.709988
O O11 0.290889 0.502746 0.078833
O O12 0.500000 0.500000 0.000000
O O13 0.502347 0.151217 0.310461
O O14 0.779130 0.999965 0.379767
O O15 0.666817 0.808420 0.838177
O O16 0.000000 0.000000 0.000000
O O17 0.298497 0.396176 0.718608
#
# Coordination Sequence:
#
# PCOD8005725 Si02
#       8
#     2   2   2   2   2   2   2   2
#     4  10  23  41  59  89 122 156 204 246 304 359
#     4   9  19  37  62  90 122 158 200 243 298 355
#     4  10  22  39  59  89 123 158 197 249 293 358
#     4  11  22  39  64  88 115 160 202 252 301 361
#     4   9  19  38  62  91 120 157 200 248 294 357
#     4  11  22  43  61  87 122 160 198 251 305 354
#     4  10  20  39  62  87 119 165 195 243 301 353
#     4  10  23  40  60  89 122 155 203 246 299 358
#
# _framework density 23.159396999999998
#
# number of rings (size 3 to 8) (size 9 to 14) (size 15 to 20)
#    0.000    2.000    1.250    1.500    0.000    6.500 
#    6.750    1.250    0.000    0.000    0.000    0.000 
#    0.000    0.000    0.000    0.000    0.000    0.000 
#
# Total GULP energy -198291.805917 kJ/mol
# GULP energy per Si atom -12393.237870 kJ/mol
# Density = 2.310669 g / cm^3
# Si number density = 23.159397 Si / 1000 Ang^3
#
#
#
# Elastic Constant Matrix: (Units=GPa)
#
#
# Indices 1 2 3 4 5 6 
#
# 1 49.0253 21.7290 30.7750 -9.6914 12.2571 -5.7009
# 2 21.7290 43.2324 42.4699 -5.2251 7.3192 -6.0578
# 3 30.7750 42.4699 186.8137 -21.5679 25.3581 -6.3441
# 4 -9.6914 -5.2251 -21.5679 25.9171 -5.5130 4.2740
# 5 12.2571 7.3192 25.3581 -5.5130 36.7634 -10.6777
# 6 -5.7009 -6.0578 -6.3441 4.2740 -10.6777 34.5874
#
#
#
# Elastic Compliance Matrix: (Units=1/GPa)
#
#
# Indices 1 2 3 4 5 6 
#
# 1 0.028921 -0.012368 -0.000367 0.006772 -0.005952 -0.000141
# 2 -0.012368 0.035634 -0.006596 -0.003115 0.002299 0.004087
# 3 -0.000367 -0.006596 0.007899 0.004551 -0.003763 -0.001491
# 4 0.006772 -0.003115 0.004551 0.045102 0.000852 -0.003905
# 5 -0.005952 0.002299 -0.003763 0.000852 0.034110 0.009157
# 6 -0.000141 0.004087 -0.001491 -0.003905 0.009157 0.032641
#
#
# Mechanical properties :
#
#
# Convention : Reuss Voigt Hill
#
# Bulk Modulus (GPa) = 29.59545 52.11324 40.85435
# Shear Modulus (GPa) = 21.34613 31.72674 26.53644
#
# Velocity S-wave (km/s) = 3.03925 3.70527 3.38866
# Velocity P-wave (km/s) = 5.01227 6.39189 5.74365
#
# Compressibility (1/GPa) = 0.03378898
#
# Stress axis : x y z
#
# Youngs Moduli (GPa) = 34.57732 28.06277 126.60289
#
# Poissons Ratio (x) = 0.34709 0.04653
# Poissons Ratio (y) = 0.42767 0.83513
# Poissons Ratio (z) = 0.01271 0.18512
#
# Static dielectric constant tensor:
#      x y z
#    x 3.989340 0.110600 0.279420 
#    y 0.110600 4.146710 -0.558990 
#    z 0.279420 -0.558990 4.976210 
# 
# 
# High freq. dielectric constant tensor:
#      x y z
#    x 1.909480 0.005860 0.006620 
#    y 0.005860 1.899320 -0.015640 
#    z 0.006620 -0.015640 1.932620 
# 
# From -- ./inp_files/51562.got.cif
#   From: 2010.06.25/outbox.cif.g09.slc.cpg/sg2_26_cif.got.tgz:51562.got - 2010.06.27 13:26:56.
