data_PCOD8005326
_publ_section_title
;
Structure prediction by ZEFSAII (Michael W. Deem and Ramdas Pophale) SiO2 
 PCOD8005326
Probable space group: P -1
;
_chemical_formula_sum "Si O2"
_cell_formula_units_Z 14
_cell_length_a 12.128100
_cell_length_b 9.642302
_cell_length_c 9.627052
_cell_angle_alpha 55.486591
_cell_angle_beta 125.925911
_cell_angle_gamma 135.437162
_cell_volume 617.451646
_symmetry_space_group_name_H-M "P -1"
_symmetry_group_IT_number 2
_symmetry_cell_setting 'triclinic'
loop_
_space_group_symop_operation_xyz
x,y,z
-x,-y,-z
loop_
_atom_site_type_symbol
_atom_site_label
_atom_site_fract_x
_atom_site_fract_y
_atom_site_fract_z
Si Si1 0.074018 0.851500 0.790367
Si Si2 0.930436 0.301643 0.651125
Si Si3 0.705010 0.871985 0.619281
Si Si4 0.352679 0.695157 0.411034
Si Si5 0.784366 0.748818 0.461363
Si Si6 0.343880 0.772406 0.043627
Si Si7 0.821158 0.644405 0.971477
O O1 0.960903 0.788267 0.605772
O O2 0.196060 0.100523 0.733871
O O3 0.175436 0.753763 0.907928
O O4 0.963839 0.760589 0.895999
O O5 0.783184 0.267616 0.659077
O O6 0.000000 0.500000 0.500000
O O7 0.083636 0.324427 0.832969
O O8 0.856346 0.109486 0.602632
O O9 0.534471 0.857889 0.517105
O O10 0.705327 0.777398 0.524684
O O11 0.724936 0.755372 0.829897
O O12 0.322882 0.478519 0.551030
O O13 0.358955 0.709983 0.242411
O O14 0.319467 0.596939 0.022273
O O15 0.500000 0.000000 0.000000
#
# Coordination Sequence:
#
# PCOD8005326 Si02
#       7
#     2   2   2   2   2   2   2
#     4  10  20  38  66  99 133 170 223 273 340 390
#     4  12  29  46  69  95 138 189 232 268 333 412
#     4  11  25  45  68  99 140 178 218 280 341 402
#     4  12  24  46  70 102 140 172 221 288 345 390
#     4  10  22  38  76 101 131 170 231 282 340 398
#     4  12  24  38  71 106 137 169 226 289 341 392
#     4  11  24  46  68  95 135 182 227 275 331 405
#
# _framework density 22.673840999999999
#
# number of rings (size 3 to 8) (size 9 to 14) (size 15 to 20)
#    0.000    0.857    4.286    3.429   12.000    0.000 
#    0.000    0.714    0.000    0.000    0.000    0.000 
#    0.000    0.000    0.000    0.000    0.000    0.000 
#
# Total GULP energy -173558.647867 kJ/mol
# GULP energy per Si atom -12397.046276 kJ/mol
# Density = 2.262223 g / cm^3
# Si number density = 22.673841 Si / 1000 Ang^3
#
#
#
# Elastic Constant Matrix: (Units=GPa)
#
#
# Indices 1 2 3 4 5 6 
#
# 1 50.5742 2.9362 12.9892 11.2874 20.9854 5.3836
# 2 2.9362 110.2787 24.1240 -11.8897 3.8621 6.2059
# 3 12.9892 24.1240 94.0611 -3.2722 26.8010 10.2750
# 4 11.2874 -11.8897 -3.2722 37.8991 6.2925 1.5377
# 5 20.9854 3.8621 26.8010 6.2925 37.6915 -1.5752
# 6 5.3836 6.2059 10.2750 1.5377 -1.5752 28.4482
#
#
#
# Elastic Compliance Matrix: (Units=1/GPa)
#
#
# Indices 1 2 3 4 5 6 
#
# 1 0.027897 -0.000729 0.001286 -0.005570 -0.015699 -0.006153
# 2 -0.000729 0.009996 -0.002341 0.003127 0.000468 -0.001340
# 3 0.001286 -0.002341 0.015197 0.002421 -0.011937 -0.006013
# 4 -0.005570 0.003127 0.002421 0.030002 -0.004047 -0.002348
# 5 -0.015699 0.000468 -0.011937 -0.004047 0.044801 0.009880
# 6 -0.006153 -0.001340 -0.006013 -0.002348 0.009880 0.039454
#
#
# Mechanical properties :
#
#
# Convention : Reuss Voigt Hill
#
# Bulk Modulus (GPa) = 20.19288 37.22366 28.70827
# Shear Modulus (GPa) = 26.67781 35.13207 30.90494
#
# Velocity S-wave (km/s) = 3.43387 3.94058 3.69592
# Velocity P-wave (km/s) = 4.96458 6.09564 5.55895
#
# Compressibility (1/GPa) = 0.04952240
#
# Stress axis : x y z
#
# Youngs Moduli (GPa) = 35.84567 100.04326 65.80417
#
# Poissons Ratio (x) = 0.07289 -0.08463
# Poissons Ratio (y) = 0.02612 0.15406
# Poissons Ratio (z) = -0.04610 0.23422
#
# Static dielectric constant tensor:
#      x y z
#    x 4.147630 0.305580 0.318970 
#    y 0.305580 4.447450 -0.316940 
#    z 0.318970 -0.316940 4.422650 
# 
# 
# High freq. dielectric constant tensor:
#      x y z
#    x 1.873990 0.011800 0.025830 
#    y 0.011800 1.902560 -0.018020 
#    z 0.025830 -0.018020 1.899260 
# 
# From -- ./inp_files/158195.got.cif
#   From: 2010.06.25/outbox.cif.g09.slc.cpg/sg2_80_cif.got.tgz:158195.got - 2010.06.27 13:26:56.
