data_PCOD8005621
_publ_section_title
;
Structure prediction by ZEFSAII (Michael W. Deem and Ramdas Pophale) SiO2 
 PCOD8005621
Probable space group: P -1
;
_chemical_formula_sum "Si O2"
_cell_formula_units_Z 16
_cell_length_a 15.984053
_cell_length_b 4.999633
_cell_length_c 11.189601
_cell_angle_alpha 78.960445
_cell_angle_beta 123.285481
_cell_angle_gamma 110.741218
_cell_volume 699.060542
_symmetry_space_group_name_H-M "P -1"
_symmetry_group_IT_number 2
_symmetry_cell_setting 'triclinic'
loop_
_space_group_symop_operation_xyz
x,y,z
-x,-y,-z
loop_
_atom_site_type_symbol
_atom_site_label
_atom_site_fract_x
_atom_site_fract_y
_atom_site_fract_z
Si Si1 0.996545 0.712164 0.584600
Si Si2 0.336305 0.441228 0.904250
Si Si3 0.261077 0.665999 0.183865
Si Si4 0.347140 0.032801 0.545845
Si Si5 0.206510 0.788345 0.878914
Si Si6 0.210441 0.438444 0.411516
Si Si7 0.533316 0.576442 0.211148
Si Si8 0.396987 0.261402 0.318795
O O1 0.092228 0.773740 0.746300
O O2 0.000000 0.500000 0.500000
O O3 0.892507 0.594907 0.590373
O O4 0.000000 0.000000 0.500000
O O5 0.252917 0.614210 0.834316
O O6 0.379038 0.484120 0.799332
O O7 0.283135 0.109861 0.920970
O O8 0.431069 0.582690 0.057274
O O9 0.187925 0.507501 0.250373
O O10 0.358293 0.541025 0.256171
O O11 0.304130 0.000208 0.217242
O O12 0.195222 0.632662 0.012436
O O13 0.247164 0.155366 0.467670
O O14 0.416846 0.113018 0.713835
O O15 0.421940 0.192285 0.480115
O O16 0.304632 0.694850 0.520668
O O17 0.501112 0.330085 0.310714
#
# Coordination Sequence:
#
# PCOD8005621 Si02
#       8
#     2   2   2   2   2   2   2   2
#     4  12  28  46  73  98 131 168 217 269 331 408
#     4  11  27  39  65  96 135 174 224 267 313 391
#     4  10  20  41  69  90 135 164 216 275 317 385
#     4  10  23  38  69  92 138 171 211 274 323 374
#     4  12  24  47  67  95 130 177 212 277 336 366
#     4  10  24  44  64 104 125 170 219 269 327 383
#     4  11  23  41  62  97 135 180 224 258 317 393
#     4  10  20  39  60  98 129 175 217 263 318 378
#
# _framework density 22.887857
#
# number of rings (size 3 to 8) (size 9 to 14) (size 15 to 20)
#    0.000    1.250    2.500    1.875    5.250    5.500 
#    0.000    3.750    0.000    7.500    0.000    0.000 
#    0.000    0.000    0.000    0.000    0.000    0.000 
#
# Total GULP energy -198454.456309 kJ/mol
# GULP energy per Si atom -12403.403519 kJ/mol
# Density = 2.283576 g / cm^3
# Si number density = 22.887857 Si / 1000 Ang^3
#
#
#
# Elastic Constant Matrix: (Units=GPa)
#
#
# Indices 1 2 3 4 5 6 
#
# 1 119.6783 28.8151 31.7761 0.3097 -23.0289 21.4905
# 2 28.8151 82.2610 23.3695 -3.2589 -4.7852 -6.0532
# 3 31.7761 23.3695 124.0205 7.7750 -19.5798 17.3926
# 4 0.3097 -3.2589 7.7750 19.2030 -4.0881 -6.9416
# 5 -23.0289 -4.7852 -19.5798 -4.0881 28.5099 1.6991
# 6 21.4905 -6.0532 17.3926 -6.9416 1.6991 32.3791
#
#
#
# Elastic Compliance Matrix: (Units=1/GPa)
#
#
# Indices 1 2 3 4 5 6 
#
# 1 0.013713 -0.005546 0.001238 -0.003684 0.011194 -0.012181
# 2 -0.005546 0.016173 -0.004302 0.007594 -0.004279 0.010868
# 3 0.001238 -0.004302 0.011633 -0.007365 0.007799 -0.009863
# 4 -0.003684 0.007594 -0.007365 0.064460 0.001198 0.021577
# 5 0.011194 -0.004279 0.007799 0.001198 0.049807 -0.014775
# 6 -0.012181 0.010868 -0.009863 0.021577 -0.014775 0.051699
#
#
# Mechanical properties :
#
#
# Convention : Reuss Voigt Hill
#
# Bulk Modulus (GPa) = 41.15604 54.87569 48.01587
# Shear Modulus (GPa) = 21.47704 32.15167 26.81435
#
# Velocity S-wave (km/s) = 3.06659 3.75206 3.42651
# Velocity P-wave (km/s) = 5.52804 6.54206 6.05631
#
# Compressibility (1/GPa) = 0.02429777
#
# Stress axis : x y z
#
# Youngs Moduli (GPa) = 72.92240 61.83085 85.96408
#
# Poissons Ratio (x) = 0.34294 -0.10642
# Poissons Ratio (y) = 0.40445 0.36984
# Poissons Ratio (z) = -0.09027 0.26601
#
# Static dielectric constant tensor:
#      x y z
#    x 4.238400 -0.015900 -0.433260 
#    y -0.015900 4.110840 0.002260 
#    z -0.433260 0.002260 4.155980 
# 
# 
# High freq. dielectric constant tensor:
#      x y z
#    x 1.905900 -0.008850 -0.027730 
#    y -0.008850 1.907500 -0.001950 
#    z -0.027730 -0.001950 1.906830 
# 
# From -- ./inp_files/441209.got.cif
#   From: 2010.06.25/outbox.cif.g09.slc.cpg/sg2_221_cif.got.tgz:441209.got - 2010.06.27 13:26:56.
