data_PCOD8005965
_publ_section_title
;
Structure prediction by ZEFSAII (Michael W. Deem and Ramdas Pophale) SiO2 
 PCOD8005965
Probable space group: P -1
;
_chemical_formula_sum "Si O2"
_cell_formula_units_Z 16
_cell_length_a 6.526042
_cell_length_b 14.433112
_cell_length_c 20.067203
_cell_angle_alpha 149.196477
_cell_angle_beta 94.518028
_cell_angle_gamma 73.131366
_cell_volume 868.442785
_symmetry_space_group_name_H-M "P -1"
_symmetry_group_IT_number 2
_symmetry_cell_setting 'triclinic'
loop_
_space_group_symop_operation_xyz
x,y,z
-x,-y,-z
loop_
_atom_site_type_symbol
_atom_site_label
_atom_site_fract_x
_atom_site_fract_y
_atom_site_fract_z
Si Si1 0.830612 0.975833 0.888297
Si Si2 0.164524 0.079168 0.587759
Si Si3 0.054311 0.696573 0.834167
Si Si4 0.325652 0.207431 0.013443
Si Si5 0.486331 0.495858 0.121814
Si Si6 0.959267 0.151026 0.887292
Si Si7 0.605508 0.723704 0.370453
Si Si8 0.071062 0.669199 0.134951
O O1 0.906318 0.974918 0.811649
O O2 0.853314 0.163096 0.039013
O O3 0.568001 0.014194 0.913075
O O4 0.993481 0.767350 0.799582
O O5 0.219081 0.194674 0.600512
O O6 0.056800 0.235614 0.741349
O O7 0.394994 0.897764 0.511787
O O8 0.000000 0.000000 0.500000
O O9 0.254830 0.470678 0.699849
O O10 0.822629 0.716832 0.876308
O O11 0.372348 0.386178 0.096459
O O12 0.194664 0.137968 0.913203
O O13 0.479860 0.682093 0.278164
O O14 0.341707 0.566965 0.094119
O O15 0.750491 0.363747 0.030733
O O16 0.979849 0.147690 0.805635
O O17 0.000000 0.500000 0.000000
#
# Coordination Sequence:
#
# PCOD8005965 Si02
#       8
#     2   2   2   2   2   2   2   2
#     4   9  19  31  49  84 114 143 187 242 282 334
#     4  11  25  40  56  84 119 152 193 233 281 343
#     4  10  18  31  54  78 112 151 188 229 293 335
#     4  10  16  30  49  81 115 141 182 236 284 332
#     4  11  19  34  55  83 116 149 183 233 283 338
#     4  10  20  32  49  81 116 143 185 235 282 335
#     4  11  21  38  58  79 118 155 188 234 286 340
#     4  12  22  36  60  83 114 158 192 230 286 340
#
# _framework density 18.423781999999999
#
# number of rings (size 3 to 8) (size 9 to 14) (size 15 to 20)
#    0.000    1.500    6.250    2.250    0.000    0.000 
#    0.000    0.000    0.000    0.750    0.000    1.750 
#    0.000    0.000    0.000    0.000    0.000    0.000 
#
# Total GULP energy -198296.632379 kJ/mol
# GULP energy per Si atom -12393.539524 kJ/mol
# Density = 1.838185 g / cm^3
# Si number density = 18.423782 Si / 1000 Ang^3
#
#
#
# Elastic Constant Matrix: (Units=GPa)
#
#
# Indices 1 2 3 4 5 6 
#
# 1 107.8825 38.8815 28.3325 3.4936 -1.1355 -12.9451
# 2 38.8815 130.6590 26.8936 19.6607 -5.6586 -10.9744
# 3 28.3325 26.8936 64.9220 5.7124 -3.9662 -7.4466
# 4 3.4936 19.6607 5.7124 29.1347 -3.1662 -3.8397
# 5 -1.1355 -5.6586 -3.9662 -3.1662 23.4641 -0.3334
# 6 -12.9451 -10.9744 -7.4466 -3.8397 -0.3334 28.7081
#
#
#
# Elastic Compliance Matrix: (Units=1/GPa)
#
#
# Indices 1 2 3 4 5 6 
#
# 1 0.011553 -0.002633 -0.003719 0.001524 -0.000450 0.003437
# 2 -0.002633 0.009903 -0.002241 -0.005635 0.001140 0.001277
# 3 -0.003719 -0.002241 0.018436 -0.001129 0.002274 0.002124
# 4 0.001524 -0.005635 -0.001129 0.039045 0.003842 0.003507
# 5 -0.000450 0.001140 0.002274 0.003842 0.043800 0.001845
# 6 0.003437 0.001277 0.002124 0.003507 0.001845 0.037913
#
#
# Mechanical properties :
#
#
# Convention : Reuss Voigt Hill
#
# Bulk Modulus (GPa) = 44.03968 54.63096 49.33532
# Shear Modulus (GPa) = 26.96808 30.21844 28.59326
#
# Velocity S-wave (km/s) = 3.83007 4.05432 3.94379
# Velocity P-wave (km/s) = 6.59658 7.18564 6.89740
#
# Compressibility (1/GPa) = 0.02270680
#
# Stress axis : x y z
#
# Youngs Moduli (GPa) = 86.55646 100.98095 54.24080
#
# Poissons Ratio (x) = 0.26586 0.20170
# Poissons Ratio (y) = 0.22788 0.12157
# Poissons Ratio (z) = 0.32187 0.22633
#
# Static dielectric constant tensor:
#      x y z
#    x 3.746220 0.009430 -0.073410 
#    y 0.009430 3.895650 0.094260 
#    z -0.073410 0.094260 2.989330 
# 
# 
# High freq. dielectric constant tensor:
#      x y z
#    x 1.739090 -0.005650 -0.003450 
#    y -0.005650 1.718100 0.014880 
#    z -0.003450 0.014880 1.656420 
# 
# From -- ./inp_files/75857.got.cif
#   From: 2010.06.25/outbox.cif.g09.slc.cpg/sg2_38_cif.got.tgz:75857.got - 2010.06.27 13:26:56.
