data_PCOD8005113
_publ_section_title
;
Structure prediction by ZEFSAII (Michael W. Deem and Ramdas Pophale) SiO2 
 PCOD8005113
Probable space group: P -1
;
_chemical_formula_sum "Si O2"
_cell_formula_units_Z 16
_cell_length_a 11.642489
_cell_length_b 13.953707
_cell_length_c 13.915297
_cell_angle_alpha 42.943257
_cell_angle_beta 148.840072
_cell_angle_gamma 117.844388
_cell_volume 710.831727
_symmetry_space_group_name_H-M "P -1"
_symmetry_group_IT_number 2
_symmetry_cell_setting 'triclinic'
loop_
_space_group_symop_operation_xyz
x,y,z
-x,-y,-z
loop_
_atom_site_type_symbol
_atom_site_label
_atom_site_fract_x
_atom_site_fract_y
_atom_site_fract_z
Si Si1 0.621737 0.626313 0.595222
Si Si2 0.970423 0.885874 0.295092
Si Si3 0.208777 0.079415 0.216206
Si Si4 0.394429 0.449989 0.690485
Si Si5 0.435520 0.649880 0.908731
Si Si6 0.882576 0.728895 0.169042
Si Si7 0.354416 0.800372 0.089305
Si Si8 0.961759 0.697399 0.905072
O O1 0.480733 0.559044 0.612083
O O2 0.434719 0.719884 0.309371
O O3 0.707567 0.739331 0.633271
O O4 0.870656 0.489571 0.828186
O O5 0.162588 0.782082 0.589585
O O6 0.893144 0.778175 0.250856
O O7 0.091155 0.968851 0.251315
O O8 0.731005 0.013749 0.090677
O O9 0.104000 0.243303 0.077751
O O10 0.500000 0.000000 0.500000
O O11 0.125037 0.132039 0.007783
O O12 0.434237 0.292950 0.771667
O O13 0.108672 0.555291 0.438742
O O14 0.564934 0.393799 0.948239
O O15 0.500000 0.500000 0.000000
O O16 0.629278 0.718678 0.977826
O O17 0.110470 0.780767 0.897132
#
# Coordination Sequence:
#
# PCOD8005113 Si02
#       8
#     2   2   2   2   2   2   2   2
#     4  10  20  38  64  95 131 164 216 267 328 382
#     4  11  25  44  66  97 133 173 211 280 329 381
#     4  11  22  37  65  98 130 165 213 269 333 378
#     4  11  23  42  69  93 128 179 219 265 320 390
#     4  12  27  47  65  94 135 175 230 265 313 395
#     4  12  25  44  70  95 132 173 223 270 329 385
#     4  10  22  43  64  99 133 161 216 278 326 383
#     4   9  20  35  58  95 131 168 199 265 330 381
#
# _framework density 22.508842999999999
#
# number of rings (size 3 to 8) (size 9 to 14) (size 15 to 20)
#    0.000    1.250    2.500    4.500    5.250    0.500 
#    2.250    0.625    0.000    0.000    0.000    0.000 
#    0.000    0.000    0.000    0.000    0.000    0.000 
#
# Total GULP energy -198379.519886 kJ/mol
# GULP energy per Si atom -12398.719993 kJ/mol
# Density = 2.245761 g / cm^3
# Si number density = 22.508843 Si / 1000 Ang^3
#
#
#
# Elastic Constant Matrix: (Units=GPa)
#
#
# Indices 1 2 3 4 5 6 
#
# 1 67.8505 16.7523 45.9734 -5.9541 -10.3173 -30.7218
# 2 16.7523 89.1671 29.5609 -1.9983 7.3896 -27.5979
# 3 45.9734 29.5609 117.0393 -15.2473 -7.8468 -26.7657
# 4 -5.9541 -1.9983 -15.2473 32.9670 -7.3543 4.3739
# 5 -10.3173 7.3896 -7.8468 -7.3543 44.1857 -1.8629
# 6 -30.7218 -27.5979 -26.7657 4.3739 -1.8629 29.5423
#
#
#
# Elastic Compliance Matrix: (Units=1/GPa)
#
#
# Indices 1 2 3 4 5 6 
#
# 1 0.036011 0.006532 -0.006478 0.000607 0.007872 0.038088
# 2 0.006532 0.017366 -0.002502 -0.001990 -0.001271 0.020963
# 3 -0.006478 -0.002502 0.012976 0.004872 0.002110 0.002094
# 4 0.000607 -0.001990 0.004872 0.034329 0.006992 -0.001455
# 5 0.007872 -0.001271 0.002110 0.006992 0.026624 0.009554
# 6 0.038088 0.020963 0.002094 -0.001455 0.009554 0.095756
#
#
# Mechanical properties :
#
#
# Convention : Reuss Voigt Hill
#
# Bulk Modulus (GPa) = 16.27187 50.95889 33.61538
# Shear Modulus (GPa) = 20.12534 33.45704 26.79119
#
# Velocity S-wave (km/s) = 2.99341 3.85956 3.45375
# Velocity P-wave (km/s) = 4.38088 6.52306 5.55619
#
# Compressibility (1/GPa) = 0.06145575
#
# Stress axis : x y z
#
# Youngs Moduli (GPa) = 27.76954 57.58302 77.06755
#
# Poissons Ratio (x) = -0.37611 0.49922
# Poissons Ratio (y) = -0.18138 0.19285
# Poissons Ratio (z) = 0.17988 0.14409
#
# Static dielectric constant tensor:
#      x y z
#    x 4.198460 -0.362950 0.328820 
#    y -0.362950 4.176090 -0.038250 
#    z 0.328820 -0.038250 4.482070 
# 
# 
# High freq. dielectric constant tensor:
#      x y z
#    x 1.874670 -0.019590 0.005650 
#    y -0.019590 1.887620 0.002060 
#    z 0.005650 0.002060 1.895940 
# 
# From -- ./inp_files/518794.got.cif
#   From: 2010.06.25/outbox.cif.g09.slc.cpg/sg2_260_cif.got.tgz:518794.got - 2010.06.27 13:26:56.
