data_PCOD8005999
_publ_section_title
;
Structure prediction by ZEFSAII (Michael W. Deem and Ramdas Pophale) SiO2 
 PCOD8005999
Probable space group: P -1
;
_chemical_formula_sum "Si O2"
_cell_formula_units_Z 16
_cell_length_a 17.484498
_cell_length_b 15.681386
_cell_length_c 9.127270
_cell_angle_alpha 141.640430
_cell_angle_beta 137.564753
_cell_angle_gamma 28.966866
_cell_volume 740.805467
_symmetry_space_group_name_H-M "P -1"
_symmetry_group_IT_number 2
_symmetry_cell_setting 'triclinic'
loop_
_space_group_symop_operation_xyz
x,y,z
-x,-y,-z
loop_
_atom_site_type_symbol
_atom_site_label
_atom_site_fract_x
_atom_site_fract_y
_atom_site_fract_z
Si Si1 0.244783 0.191658 0.799810
Si Si2 0.315694 0.515250 0.445948
Si Si3 0.894505 0.221111 0.979836
Si Si4 0.591973 0.782157 0.357760
Si Si5 0.189549 0.497585 0.968131
Si Si6 0.478437 0.453098 0.064964
Si Si7 0.405816 0.177020 0.267543
Si Si8 0.008958 0.820446 0.612095
O O1 0.137889 0.412414 0.883003
O O2 0.150885 0.130608 0.570705
O O3 0.415894 0.039977 0.752167
O O4 0.285436 0.180207 0.013370
O O5 0.400552 0.586391 0.698100
O O6 0.430126 0.296797 0.373072
O O7 0.144677 0.648814 0.464932
O O8 0.293956 0.512508 0.237219
O O9 0.702853 0.370633 0.900722
O O10 0.944450 0.290728 0.017195
O O11 0.941071 0.237563 0.226790
O O12 0.977584 0.005442 0.774029
O O13 0.720340 0.652599 0.239696
O O14 0.675245 0.722614 0.555088
O O15 0.500000 0.000000 0.500000
O O16 0.475874 0.747595 0.149535
O O17 0.500000 0.500000 0.000000
#
# Coordination Sequence:
#
# PCOD8005999 Si02
#       8
#     2   2   2   2   2   2   2   2
#     4  10  22  39  66  90 123 166 205 253 313 363
#     4  11  22  40  67  91 126 164 212 251 311 365
#     4  10  23  40  62  92 126 157 213 258 306 367
#     4  11  21  36  61  95 126 150 203 258 310 359
#     4  10  23  41  60  93 129 159 204 265 306 367
#     4  11  20  39  68  90 118 166 203 257 304 369
#     4  10  20  39  64  92 124 157 209 254 304 376
#     4  11  23  41  64  89 125 171 210 249 303 383
#
# _framework density 21.598113999999999
#
# number of rings (size 3 to 8) (size 9 to 14) (size 15 to 20)
#    0.000    1.500    3.750    1.500    0.000    5.000 
#    2.250    1.250    0.000    0.000    0.000    0.000 
#    0.000    0.000    0.000    0.000    0.000    0.000 
#
# Total GULP energy -198278.863918 kJ/mol
# GULP energy per Si atom -12392.428995 kJ/mol
# Density = 2.154896 g / cm^3
# Si number density = 21.598114 Si / 1000 Ang^3
#
#
#
# Elastic Constant Matrix: (Units=GPa)
#
#
# Indices 1 2 3 4 5 6 
#
# 1 39.1049 22.4167 36.0926 -8.0938 -4.5280 8.6657
# 2 22.4167 90.9433 35.6992 3.7677 2.9309 25.7003
# 3 36.0926 35.6992 153.0355 -7.8702 -15.5491 5.8731
# 4 -8.0938 3.7677 -7.8702 33.7383 6.9300 6.4758
# 5 -4.5280 2.9309 -15.5491 6.9300 36.3988 0.5430
# 6 8.6657 25.7003 5.8731 6.4758 0.5430 36.1383
#
#
#
# Elastic Compliance Matrix: (Units=1/GPa)
#
#
# Indices 1 2 3 4 5 6 
#
# 1 0.038473 -0.005463 -0.007045 0.009207 0.000551 -0.005854
# 2 -0.005463 0.016120 -0.002443 -0.001321 -0.002628 -0.009481
# 3 -0.007045 -0.002443 0.008997 -0.000356 0.003202 0.001981
# 4 0.009207 -0.001321 -0.000356 0.034411 -0.005343 -0.007296
# 5 0.000551 -0.002628 0.003202 -0.005343 0.030113 0.001722
# 6 -0.005854 -0.009481 0.001981 -0.007296 0.001722 0.036777
#
#
# Mechanical properties :
#
#
# Convention : Reuss Voigt Hill
#
# Bulk Modulus (GPa) = 29.68433 52.38896 41.03665
# Shear Modulus (GPa) = 24.26921 33.84676 29.05799
#
# Velocity S-wave (km/s) = 3.35576 3.96298 3.67194
# Velocity P-wave (km/s) = 5.36550 6.72675 6.08432
#
# Compressibility (1/GPa) = 0.03368780
#
# Stress axis : x y z
#
# Youngs Moduli (GPa) = 25.99246 62.03434 111.14862
#
# Poissons Ratio (x) = 0.33886 0.78307
# Poissons Ratio (y) = 0.14198 0.27156
# Poissons Ratio (z) = 0.18312 0.15156
#
# Static dielectric constant tensor:
#      x y z
#    x 3.664660 0.233420 0.418770 
#    y 0.233420 3.819830 0.867690 
#    z 0.418770 0.867690 2.687640 
# 
# 
# High freq. dielectric constant tensor:
#      x y z
#    x 1.824100 0.028080 -0.015640 
#    y 0.028080 1.839820 0.013900 
#    z -0.015640 0.013900 1.869100 
# 
# From -- ./inp_files/206890.got.cif
#   From: 2010.06.25/outbox.cif.g09.slc.cpg/sg2_104_cif.got.tgz:206890.got - 2010.06.27 13:26:56.
