data_PCOD8005434
_publ_section_title
;
Structure prediction by ZEFSAII (Michael W. Deem and Ramdas Pophale) SiO2 
 PCOD8005434
Probable space group: P -1
;
_chemical_formula_sum "Si O2"
_cell_formula_units_Z 14
_cell_length_a 11.703100
_cell_length_b 13.923836
_cell_length_c 12.228684
_cell_angle_alpha 39.331163
_cell_angle_beta 129.278805
_cell_angle_gamma 150.154056
_cell_volume 624.009645
_symmetry_space_group_name_H-M "P -1"
_symmetry_group_IT_number 2
_symmetry_cell_setting 'triclinic'
loop_
_space_group_symop_operation_xyz
x,y,z
-x,-y,-z
loop_
_atom_site_type_symbol
_atom_site_label
_atom_site_fract_x
_atom_site_fract_y
_atom_site_fract_z
Si Si1 0.552806 0.215614 0.362156
Si Si2 0.612994 0.400620 0.466298
Si Si3 0.076280 0.919559 0.261449
Si Si4 0.379278 0.523418 0.189187
Si Si5 0.652278 0.265352 0.825701
Si Si6 0.159296 0.973893 0.033585
Si Si7 0.069828 0.411460 0.920812
O O1 0.650444 0.334501 0.435882
O O2 0.727078 0.405336 0.205529
O O3 0.500000 0.000000 0.500000
O O4 0.305006 0.102128 0.311913
O O5 0.408371 0.365563 0.365965
O O6 0.561251 0.241600 0.671372
O O7 0.854151 0.674472 0.403459
O O8 0.116201 0.858631 0.225708
O O9 0.044465 0.068741 0.077888
O O10 0.379350 0.614156 0.222426
O O11 0.596328 0.750763 0.050236
O O12 0.155237 0.385556 0.101275
O O13 0.931580 0.453909 0.834638
O O14 0.500000 0.000000 0.000000
O O15 0.146921 0.844597 0.042319
#
# Coordination Sequence:
#
# PCOD8005434 Si02
#       7
#     2   2   2   2   2   2   2
#     4  12  26  39  68 105 141 168 220 281 345 409
#     4  11  26  46  71  99 137 182 221 280 343 395
#     4  10  21  40  64 103 138 166 216 269 340 408
#     4  11  24  47  71  98 136 181 232 272 328 408
#     4  12  27  47  69  94 138 186 231 278 330 392
#     4  10  20  38  69  99 133 174 214 272 334 405
#     4  12  24  42  72 100 136 177 222 277 348 392
#
# _framework density 22.435552000000001
#
# number of rings (size 3 to 8) (size 9 to 14) (size 15 to 20)
#    0.000    0.857    4.286    2.571    4.000    2.286 
#    2.571    0.714    0.000    0.000    0.000    0.000 
#    0.000    0.000    0.000    0.000    0.000    0.000 
#
# Total GULP energy -173536.726730 kJ/mol
# GULP energy per Si atom -12395.480481 kJ/mol
# Density = 2.238449 g / cm^3
# Si number density = 22.435552 Si / 1000 Ang^3
#
#
#
# Elastic Constant Matrix: (Units=GPa)
#
#
# Indices 1 2 3 4 5 6 
#
# 1 108.9016 19.6615 37.8769 8.4412 0.6068 5.0504
# 2 19.6615 69.8398 31.8509 9.7433 1.1614 3.8812
# 3 37.8769 31.8509 131.7296 13.0853 -3.3922 2.5469
# 4 8.4412 9.7433 13.0853 29.4535 -1.5716 6.8464
# 5 0.6068 1.1614 -3.3922 -1.5716 31.8255 7.0130
# 6 5.0504 3.8812 2.5469 6.8464 7.0130 33.1184
#
#
#
# Elastic Compliance Matrix: (Units=1/GPa)
#
#
# Indices 1 2 3 4 5 6 
#
# 1 0.010474 -0.001590 -0.002500 -0.001164 -0.000262 -0.000922
# 2 -0.001590 0.016800 -0.003264 -0.003583 -0.000992 -0.000525
# 3 -0.002500 -0.003264 0.009355 -0.002385 0.000973 0.000331
# 4 -0.001164 -0.003583 -0.002385 0.038567 0.003554 -0.007944
# 5 -0.000262 -0.000992 0.000973 0.003554 0.033446 -0.007736
# 6 -0.000922 -0.000525 0.000331 -0.007944 -0.007736 0.033652
#
#
# Mechanical properties :
#
#
# Convention : Reuss Voigt Hill
#
# Bulk Modulus (GPa) = 45.62200 54.36107 49.99153
# Shear Modulus (GPa) = 30.43019 33.61825 32.02422
#
# Velocity S-wave (km/s) = 3.68684 3.87516 3.78218
# Velocity P-wave (km/s) = 6.20505 6.65620 6.43458
#
# Compressibility (1/GPa) = 0.02191925
#
# Stress axis : x y z
#
# Youngs Moduli (GPa) = 95.47590 59.52235 106.89350
#
# Poissons Ratio (x) = 0.09466 0.26727
# Poissons Ratio (y) = 0.15183 0.34895
# Poissons Ratio (z) = 0.23872 0.19431
#
# Static dielectric constant tensor:
#      x y z
#    x 4.339750 0.268920 0.131390 
#    y 0.268920 4.354180 0.294700 
#    z 0.131390 0.294700 3.952690 
# 
# 
# High freq. dielectric constant tensor:
#      x y z
#    x 1.895880 0.004930 0.002500 
#    y 0.004930 1.879140 0.011530 
#    z 0.002500 0.011530 1.874440 
# 
# From -- ./inp_files/94819.got.cif
#   From: 2010.06.25/outbox.cif.g09.slc.cpg/sg2_48_cif.got.tgz:94819.got - 2010.06.27 13:26:56.
