data_PCOD8005320
_publ_section_title
;
Structure prediction by ZEFSAII (Michael W. Deem and Ramdas Pophale) SiO2 
 PCOD8005320
Probable space group: P -1
;
_chemical_formula_sum "Si O2"
_cell_formula_units_Z 16
_cell_length_a 9.283940
_cell_length_b 12.646723
_cell_length_c 8.939333
_cell_angle_alpha 65.369885
_cell_angle_beta 109.080090
_cell_angle_gamma 67.186032
_cell_volume 714.536514
_symmetry_space_group_name_H-M "P -1"
_symmetry_group_IT_number 2
_symmetry_cell_setting 'triclinic'
loop_
_space_group_symop_operation_xyz
x,y,z
-x,-y,-z
loop_
_atom_site_type_symbol
_atom_site_label
_atom_site_fract_x
_atom_site_fract_y
_atom_site_fract_z
Si Si1 0.624840 0.116362 0.129760
Si Si2 0.723407 0.288850 0.613258
Si Si3 0.353086 0.119329 0.260527
Si Si4 0.216994 0.295272 0.390337
Si Si5 0.674672 0.349639 0.074573
Si Si6 0.698817 0.490184 0.733603
Si Si7 0.370119 0.911027 0.193211
Si Si8 0.998543 0.809200 0.493340
O O1 0.450519 0.159566 0.150502
O O2 0.604084 0.264900 0.019889
O O3 0.611851 0.066386 0.989201
O O4 0.820282 0.979478 0.354743
O O5 0.718935 0.403747 0.645607
O O6 0.528261 0.374359 0.397353
O O7 0.737202 0.162256 0.784536
O O8 0.917099 0.213771 0.629316
O O9 0.205051 0.258321 0.234055
O O10 0.500000 0.000000 0.500000
O O11 0.252272 0.063985 0.158679
O O12 0.174346 0.452920 0.281309
O O13 0.419326 0.181042 0.608586
O O14 0.059993 0.297876 0.432255
O O15 0.833562 0.232867 0.312909
O O16 0.500000 0.500000 0.000000
O O17 0.774352 0.386884 0.964756
#
# Coordination Sequence:
#
# PCOD8005320 Si02
#       8
#     2   2   2   2   2   2   2   2
#     4  12  24  43  69 107 135 176 230 284 334 400
#     4  10  22  42  69  97 132 179 229 277 332 401
#     4  10  20  38  66  98 133 181 210 270 347 402
#     4  10  23  43  69 100 140 177 225 278 342 401
#     4  12  25  44  69  97 136 185 228 273 340 410
#     4  10  21  46  68  92 132 188 228 265 338 420
#     4  10  21  41  69  93 136 181 220 270 342 415
#     4  12  26  41  67 105 140 171 229 292 333 387
#
# _framework density 22.392137000000002
#
# number of rings (size 3 to 8) (size 9 to 14) (size 15 to 20)
#    0.000    1.250    5.000    1.500    3.500    2.500 
#    2.250    0.000    0.000    0.000    0.000    0.000 
#    0.000    0.000    0.000    0.000    0.000    0.000 
#
# Total GULP energy -198355.461648 kJ/mol
# GULP energy per Si atom -12397.216353 kJ/mol
# Density = 2.234117 g / cm^3
# Si number density = 22.392137 Si / 1000 Ang^3
#
#
#
# Elastic Constant Matrix: (Units=GPa)
#
#
# Indices 1 2 3 4 5 6 
#
# 1 124.1209 38.6372 11.1006 2.6836 -30.0482 6.1599
# 2 38.6372 97.9715 25.5876 7.8920 -0.3386 26.9584
# 3 11.1006 25.5876 75.4212 10.7631 -18.8958 -0.9561
# 4 2.6836 7.8920 10.7631 30.9069 -1.7973 -4.0516
# 5 -30.0482 -0.3386 -18.8958 -1.7973 31.4605 -2.8616
# 6 6.1599 26.9584 -0.9561 -4.0516 -2.8616 36.7406
#
#
#
# Elastic Compliance Matrix: (Units=1/GPa)
#
#
# Indices 1 2 3 4 5 6 
#
# 1 0.013930 -0.008201 0.004849 0.000846 0.016650 0.005198
# 2 -0.008201 0.020285 -0.008929 -0.004220 -0.014614 -0.015345
# 3 0.004849 -0.008929 0.020474 -0.003314 0.017303 0.007253
# 4 0.000846 -0.004220 -0.003314 0.035500 0.001427 0.006894
# 5 0.016650 -0.014614 0.017303 0.001427 0.059201 0.013150
# 6 0.005198 -0.015345 0.007253 0.006894 0.013150 0.039579
#
#
# Mechanical properties :
#
#
# Convention : Reuss Voigt Hill
#
# Bulk Modulus (GPa) = 33.19204 49.79607 41.49406
# Shear Modulus (GPa) = 22.36383 34.63414 28.49899
#
# Velocity S-wave (km/s) = 3.16371 3.93709 3.57139
# Velocity P-wave (km/s) = 5.31043 6.55393 5.96467
#
# Compressibility (1/GPa) = 0.03012770
#
# Stress axis : x y z
#
# Youngs Moduli (GPa) = 71.78505 49.29710 48.84191
#
# Poissons Ratio (x) = 0.40429 -0.23682
# Poissons Ratio (y) = 0.58872 0.43609
# Poissons Ratio (z) = -0.34807 0.44016
#
# Static dielectric constant tensor:
#      x y z
#    x 3.989090 0.135810 -0.198320 
#    y 0.135810 4.384070 0.093050 
#    z -0.198320 0.093050 3.936130 
# 
# 
# High freq. dielectric constant tensor:
#      x y z
#    x 1.877320 0.013450 -0.022610 
#    y 0.013450 1.883880 0.009930 
#    z -0.022610 0.009930 1.873790 
# 
# From -- ./inp_files/186059.got.cif
#   From: 2010.06.25/outbox.cif.g09.slc.cpg/sg2_94_cif.got.tgz:186059.got - 2010.06.27 13:26:56.
