data_PCOD8005393
_publ_section_title
;
Structure prediction by ZEFSAII (Michael W. Deem and Ramdas Pophale) SiO2 
 PCOD8005393
Probable space group: P -1
;
_chemical_formula_sum "Si O2"
_cell_formula_units_Z 16
_cell_length_a 11.613616
_cell_length_b 12.237090
_cell_length_c 12.339196
_cell_angle_alpha 48.594006
_cell_angle_beta 122.268162
_cell_angle_gamma 144.006380
_cell_volume 772.980256
_symmetry_space_group_name_H-M "P -1"
_symmetry_group_IT_number 2
_symmetry_cell_setting 'triclinic'
loop_
_space_group_symop_operation_xyz
x,y,z
-x,-y,-z
loop_
_atom_site_type_symbol
_atom_site_label
_atom_site_fract_x
_atom_site_fract_y
_atom_site_fract_z
Si Si1 0.842927 0.200249 0.289759
Si Si2 0.836187 0.493269 0.436457
Si Si3 0.906311 0.082841 0.617244
Si Si4 0.594660 0.951195 0.005798
Si Si5 0.499703 0.800889 0.712574
Si Si6 0.024735 0.852122 0.815035
Si Si7 0.711638 0.419539 0.044167
Si Si8 0.417924 0.875603 0.311385
O O1 0.906645 0.194419 0.443665
O O2 0.982586 0.244803 0.236777
O O3 0.839451 0.373589 0.169223
O O4 0.622985 0.971950 0.304846
O O5 0.685295 0.368505 0.345184
O O6 0.721572 0.366849 0.573358
O O7 0.000000 0.500000 0.500000
O O8 0.938623 0.730112 0.341530
O O9 0.695927 0.896531 0.689931
O O10 0.982748 0.986761 0.677866
O O11 0.765901 0.996302 0.121300
O O12 0.419721 0.706456 0.046531
O O13 0.500000 0.000000 0.000000
O O14 0.681603 0.095248 0.846405
O O15 0.441210 0.663003 0.881055
O O16 0.531949 0.994890 0.637227
O O17 0.858803 0.664673 0.935935
#
# Coordination Sequence:
#
# PCOD8005393 Si02
#       8
#     2   2   2   2   2   2   2   2
#     4  10  21  44  65  94 126 165 215 264 306 377
#     4  12  22  37  69  94 121 170 215 258 315 372
#     4  12  26  40  64  97 134 164 208 267 318 382
#     4  10  21  40  64  94 124 160 219 260 297 377
#     4  10  22  42  61  97 128 158 214 267 317 363
#     4  12  25  43  63  95 133 171 206 257 327 381
#     4  10  24  40  72  92 121 173 213 263 311 373
#     4  10  20  38  68  95 121 158 215 274 303 360
#
# _framework density 20.699104999999999
#
# number of rings (size 3 to 8) (size 9 to 14) (size 15 to 20)
#    0.000    1.500    5.000    2.625    3.500    1.500 
#    0.000    5.000    0.000    0.000    0.000    0.000 
#    0.000    0.000    0.000    0.000    0.000    0.000 
#
# Total GULP energy -198340.103302 kJ/mol
# GULP energy per Si atom -12396.256456 kJ/mol
# Density = 2.065199 g / cm^3
# Si number density = 20.699105 Si / 1000 Ang^3
#
#
#
# Elastic Constant Matrix: (Units=GPa)
#
#
# Indices 1 2 3 4 5 6 
#
# 1 64.6074 27.3074 25.5701 5.0665 -7.8408 2.2639
# 2 27.3074 92.3606 35.0040 6.4885 1.7380 8.6493
# 3 25.5701 35.0040 72.4746 2.9242 -5.1943 -1.5803
# 4 5.0665 6.4885 2.9242 34.1949 1.4210 -3.7675
# 5 -7.8408 1.7380 -5.1943 1.4210 28.8354 -1.3892
# 6 2.2639 8.6493 -1.5803 -3.7675 -1.3892 26.2287
#
#
#
# Elastic Compliance Matrix: (Units=1/GPa)
#
#
# Indices 1 2 3 4 5 6 
#
# 1 0.019766 -0.003963 -0.004645 -0.002060 0.004844 -0.000719
# 2 -0.003963 0.015054 -0.006136 -0.002214 -0.003245 -0.005482
# 3 -0.004645 -0.006136 0.018647 0.000564 0.002619 0.003768
# 4 -0.002060 -0.002214 0.000564 0.030565 -0.001578 0.005249
# 5 0.004844 -0.003245 0.002619 -0.001578 0.036864 0.002536
# 6 -0.000719 -0.005482 0.003768 0.005249 0.002536 0.041111
#
#
# Mechanical properties :
#
#
# Convention : Reuss Voigt Hill
#
# Bulk Modulus (GPa) = 41.70057 45.02283 43.36170
# Shear Modulus (GPa) = 25.06416 27.28920 26.17668
#
# Velocity S-wave (km/s) = 3.48355 3.63488 3.56002
# Velocity P-wave (km/s) = 6.03075 6.27812 6.15568
#
# Compressibility (1/GPa) = 0.02398049
#
# Stress axis : x y z
#
# Youngs Moduli (GPa) = 50.59181 66.42752 53.62694
#
# Poissons Ratio (x) = 0.26323 0.24911
# Poissons Ratio (y) = 0.20048 0.32903
# Poissons Ratio (z) = 0.23501 0.40757
#
# Static dielectric constant tensor:
#      x y z
#    x 3.693820 0.182710 -0.304360 
#    y 0.182710 3.875540 0.236220 
#    z -0.304360 0.236220 3.612960 
# 
# 
# High freq. dielectric constant tensor:
#      x y z
#    x 1.796570 0.011610 -0.024980 
#    y 0.011610 1.810400 0.008090 
#    z -0.024980 0.008090 1.802410 
# 
# From -- ./inp_files/425315.got.cif
#   From: 2010.06.25/outbox.cif.g09.slc.cpg/sg2_213_cif.got.tgz:425315.got - 2010.06.27 13:26:56.
