data_PCOD8005025
_publ_section_title
;
Structure prediction by ZEFSAII (Michael W. Deem and Ramdas Pophale) SiO2 
 PCOD8005025
Probable space group: P -1
;
_chemical_formula_sum "Si O2"
_cell_formula_units_Z 16
_cell_length_a 11.849163
_cell_length_b 8.608604
_cell_length_c 11.997181
_cell_angle_alpha 118.896207
_cell_angle_beta 128.671281
_cell_angle_gamma 80.829400
_cell_volume 818.095954
_symmetry_space_group_name_H-M "P -1"
_symmetry_group_IT_number 2
_symmetry_cell_setting 'triclinic'
loop_
_space_group_symop_operation_xyz
x,y,z
-x,-y,-z
loop_
_atom_site_type_symbol
_atom_site_label
_atom_site_fract_x
_atom_site_fract_y
_atom_site_fract_z
Si Si1 0.640210 0.506482 0.170171
Si Si2 0.263597 0.708233 0.531248
Si Si3 0.341871 0.881009 0.861784
Si Si4 0.380519 0.825515 0.408971
Si Si5 0.041618 0.499168 0.658514
Si Si6 0.119167 0.914106 0.906502
Si Si7 0.384946 0.368645 0.562681
Si Si8 0.183034 0.001466 0.221102
O O1 0.645199 0.304919 0.137949
O O2 0.808123 0.577230 0.251044
O O3 0.625944 0.631970 0.310449
O O4 0.500000 0.500000 0.000000
O O5 0.283386 0.855394 0.692021
O O6 0.329361 0.824234 0.504945
O O7 0.356205 0.552806 0.556258
O O8 0.088726 0.622026 0.391043
O O9 0.232043 0.979293 0.897768
O O10 0.500000 0.000000 0.000000
O O11 0.446603 0.646604 0.366574
O O12 0.500000 0.000000 0.500000
O O13 0.234529 0.830731 0.250190
O O14 0.056889 0.699508 0.786709
O O15 0.000000 0.500000 0.500000
O O16 0.985951 0.019162 0.853904
O O17 0.205825 0.976369 0.095478
O O18 0.273112 0.197148 0.383267
#
# Coordination Sequence:
#
# PCOD8005025 Si02
#       8
#     2   2   2   2   2   2   2   2
#     4  10  22  38  65  95 123 160 202 261 318 361
#     4  11  21  41  65  93 115 168 213 255 307 379
#     4  10  23  37  62  90 124 157 207 255 311 371
#     4  10  24  38  59  87 124 159 204 257 307 365
#     4  11  18  40  68  90 119 163 209 254 308 379
#     4  10  20  38  64  86 123 160 206 250 314 369
#     4  10  20  38  64  88 123 160 210 245 315 372
#     4  10  21  38  61  89 119 168 202 249 311 373
#
# _framework density 19.557607000000001
#
# number of rings (size 3 to 8) (size 9 to 14) (size 15 to 20)
#    0.000    1.750    5.000    0.375    7.000    1.000 
#    2.250    1.250    0.000    0.000    0.000    0.000 
#    0.000    0.000    0.000    0.000    0.000    0.000 
#
# Total GULP energy -198257.079593 kJ/mol
# GULP energy per Si atom -12391.067475 kJ/mol
# Density = 1.951309 g / cm^3
# Si number density = 19.557607 Si / 1000 Ang^3
#
#
#
# Elastic Constant Matrix: (Units=GPa)
#
#
# Indices 1 2 3 4 5 6 
#
# 1 181.4866 53.1702 67.2390 -16.0720 -2.4032 -0.9951
# 2 53.1702 46.2798 37.5751 -22.0368 -1.3279 -1.8986
# 3 67.2390 37.5751 132.7865 -11.5393 -9.6305 -6.6967
# 4 -16.0720 -22.0368 -11.5393 36.1127 -3.9068 9.2210
# 5 -2.4032 -1.3279 -9.6305 -3.9068 34.0095 1.9331
# 6 -0.9951 -1.8986 -6.6967 9.2210 1.9331 34.9910
#
#
#
# Elastic Compliance Matrix: (Units=1/GPa)
#
#
# Indices 1 2 3 4 5 6 
#
# 1 0.008915 -0.010034 -0.001967 -0.002888 -0.000658 0.000130
# 2 -0.010034 0.051477 -0.007303 0.026427 0.002610 -0.005998
# 3 -0.001967 -0.007303 0.010666 -0.002205 0.002227 0.002047
# 4 -0.002888 0.026427 -0.002205 0.045386 0.006063 -0.011365
# 5 -0.000658 0.002610 0.002227 0.006063 0.030943 -0.002758
# 6 0.000130 -0.005998 0.002047 -0.011365 -0.002758 0.031796
#
#
# Mechanical properties :
#
#
# Convention : Reuss Voigt Hill
#
# Bulk Modulus (GPa) = 30.81516 75.16906 52.99211
# Shear Modulus (GPa) = 21.87170 34.52720 28.19945
#
# Velocity S-wave (km/s) = 3.34776 4.20624 3.80131
# Velocity P-wave (km/s) = 5.54379 7.88087 6.81328
#
# Compressibility (1/GPa) = 0.03245156
#
# Stress axis : x y z
#
# Youngs Moduli (GPa) = 112.17588 19.42622 93.75215
#
# Poissons Ratio (x) = 0.19492 0.18441
# Poissons Ratio (y) = 1.12553 0.68463
# Poissons Ratio (z) = 0.22064 0.14186
#
# Static dielectric constant tensor:
#      x y z
#    x 4.002820 -0.462280 -0.027600 
#    y -0.462280 3.241220 -0.439920 
#    z -0.027600 -0.439920 3.384390 
# 
# 
# High freq. dielectric constant tensor:
#      x y z
#    x 1.782120 -0.022110 0.000020 
#    y -0.022110 1.732020 -0.003500 
#    z 0.000020 -0.003500 1.766190 
# 
# From -- ./inp_files/354312.got.cif
#   From: 2010.06.25/outbox.cif.g09.slc.cpg/sg2_178_cif.got.tgz:354312.got - 2010.06.27 13:26:56.
