data_PCOD8005037
_publ_section_title
;
Structure prediction by ZEFSAII (Michael W. Deem and Ramdas Pophale) SiO2 
 PCOD8005037
Probable space group: P -1
;
_chemical_formula_sum "Si O2"
_cell_formula_units_Z 16
_cell_length_a 11.610735
_cell_length_b 21.837628
_cell_length_c 16.060550
_cell_angle_alpha 152.132427
_cell_angle_beta 152.400043
_cell_angle_gamma 27.333534
_cell_volume 771.454452
_symmetry_space_group_name_H-M "P -1"
_symmetry_group_IT_number 2
_symmetry_cell_setting 'triclinic'
loop_
_space_group_symop_operation_xyz
x,y,z
-x,-y,-z
loop_
_atom_site_type_symbol
_atom_site_label
_atom_site_fract_x
_atom_site_fract_y
_atom_site_fract_z
Si Si1 0.688498 0.824047 0.318144
Si Si2 0.718330 0.661961 0.701358
Si Si3 0.766767 0.898394 0.280073
Si Si4 0.378887 0.779375 0.464362
Si Si5 0.787984 0.087604 0.763205
Si Si6 0.295441 0.656693 0.098168
Si Si7 0.782594 0.388950 0.501412
Si Si8 0.620570 0.156989 0.146604
O O1 0.695194 0.824416 0.223527
O O2 0.382533 0.847834 0.181690
O O3 0.941589 0.669869 0.332569
O O4 0.728762 0.960426 0.537570
O O5 0.642945 0.697231 0.598137
O O6 0.815227 0.485193 0.563141
O O7 0.449650 0.771992 0.719945
O O8 0.973453 0.690992 0.926187
O O9 0.100935 0.834378 0.409349
O O10 0.613977 0.079033 0.403476
O O11 0.659101 0.841893 0.064966
O O12 0.386563 0.663862 0.260477
O O13 0.665371 0.219570 0.777394
O O14 0.128837 0.015746 0.903164
O O15 0.500000 0.500000 0.000000
O O16 0.500000 0.500000 0.500000
O O17 0.733079 0.250864 0.274670
#
# Coordination Sequence:
#
# PCOD8005037 Si02
#       8
#     2   2   2   2   2   2   2   2
#     4  10  20  38  64  88 128 166 210 271 316 373
#     4  11  23  43  64  94 135 169 215 264 325 381
#     4  11  21  39  65 102 127 157 225 270 318 379
#     4  11  24  40  67  98 130 169 210 272 319 384
#     4  10  21  39  61  89 124 173 212 259 325 374
#     4  12  25  43  65  95 133 173 216 256 326 397
#     4   9  19  38  59  87 124 169 209 259 317 373
#     4  10  21  38  66  95 125 170 215 273 317 376
#
# _framework density 20.740044999999999
#
# number of rings (size 3 to 8) (size 9 to 14) (size 15 to 20)
#    0.000    1.500    2.500    3.750    1.750    2.000 
#    4.500    1.875    0.000    0.000    0.000    0.000 
#    0.000    0.000    0.000    0.000    0.000    0.000 
#
# Total GULP energy -198337.910013 kJ/mol
# GULP energy per Si atom -12396.119376 kJ/mol
# Density = 2.069284 g / cm^3
# Si number density = 20.740045 Si / 1000 Ang^3
#
#
#
# Elastic Constant Matrix: (Units=GPa)
#
#
# Indices 1 2 3 4 5 6 
#
# 1 95.1178 48.2055 23.2805 -4.2681 -7.9744 5.3108
# 2 48.2055 129.2465 29.6962 -1.3721 -11.5139 4.3589
# 3 23.2805 29.6962 89.9210 -12.9063 -16.0089 5.0002
# 4 -4.2681 -1.3721 -12.9063 26.8386 -1.1749 0.2663
# 5 -7.9744 -11.5139 -16.0089 -1.1749 27.4128 -2.8789
# 6 5.3108 4.3589 5.0002 0.2663 -2.8789 32.0486
#
#
#
# Elastic Compliance Matrix: (Units=1/GPa)
#
#
# Indices 1 2 3 4 5 6 
#
# 1 0.013379 -0.004486 -0.001557 0.001207 0.001016 -0.001283
# 2 -0.004486 0.010011 -0.001995 -0.001086 0.001673 -0.000148
# 3 -0.001557 -0.001995 0.014566 0.006990 0.007396 -0.001137
# 4 0.001207 -0.001086 0.006990 0.041014 0.005632 -0.000978
# 5 0.001016 0.001673 0.007396 0.005632 0.042269 0.002200
# 6 -0.001283 -0.000148 -0.001137 -0.000978 0.002200 0.031818
#
#
# Mechanical properties :
#
#
# Convention : Reuss Voigt Hill
#
# Bulk Modulus (GPa) = 45.70170 57.40553 51.55361
# Shear Modulus (GPa) = 28.34073 31.46688 29.90381
#
# Velocity S-wave (km/s) = 3.70060 3.89936 3.80128
# Velocity P-wave (km/s) = 6.35158 6.92907 6.64660
#
# Compressibility (1/GPa) = 0.02188103
#
# Stress axis : x y z
#
# Youngs Moduli (GPa) = 74.74648 99.89083 68.65363
#
# Poissons Ratio (x) = 0.44807 0.10690
# Poissons Ratio (y) = 0.33528 0.13693
# Poissons Ratio (z) = 0.11638 0.19924
#
# Static dielectric constant tensor:
#      x y z
#    x 4.005910 0.188670 0.328430 
#    y 0.188670 4.244960 0.204280 
#    z 0.328430 0.204280 3.658550 
# 
# 
# High freq. dielectric constant tensor:
#      x y z
#    x 1.805170 0.003320 0.018120 
#    y 0.003320 1.817190 0.001390 
#    z 0.018120 0.001390 1.796520 
# 
# From -- ./inp_files/427713.got.cif
#   From: 2010.06.25/outbox.cif.g09.slc.cpg/sg2_214_cif.got.tgz:427713.got - 2010.06.27 13:26:56.
