data_PCOD8005969
_publ_section_title
;
Structure prediction by ZEFSAII (Michael W. Deem and Ramdas Pophale) SiO2 
 PCOD8005969
Probable space group: P -1
;
_chemical_formula_sum "Si O2"
_cell_formula_units_Z 16
_cell_length_a 12.019276
_cell_length_b 11.450699
_cell_length_c 16.852247
_cell_angle_alpha 138.547413
_cell_angle_beta 25.058833
_cell_angle_gamma 132.600877
_cell_volume 650.305825
_symmetry_space_group_name_H-M "P -1"
_symmetry_group_IT_number 2
_symmetry_cell_setting 'triclinic'
loop_
_space_group_symop_operation_xyz
x,y,z
-x,-y,-z
loop_
_atom_site_type_symbol
_atom_site_label
_atom_site_fract_x
_atom_site_fract_y
_atom_site_fract_z
Si Si1 0.783394 0.836663 0.461098
Si Si2 0.206793 0.642406 0.997970
Si Si3 0.028859 0.276713 0.963888
Si Si4 0.952017 0.198774 0.575154
Si Si5 0.108573 0.872006 0.692331
Si Si6 0.535414 0.733292 0.969410
Si Si7 0.807635 0.166387 0.208119
Si Si8 0.799589 0.391215 0.625229
O O1 0.486436 0.880690 0.651562
O O2 0.913957 0.694206 0.245612
O O3 0.808053 0.768272 0.502102
O O4 0.965891 0.010714 0.426063
O O5 0.236693 0.431140 0.887875
O O6 0.213612 0.695468 0.927762
O O7 0.435296 0.745783 0.949105
O O8 0.921785 0.299905 0.135553
O O9 0.163357 0.082278 0.766224
O O10 0.950060 0.350233 0.588527
O O11 0.675047 0.188395 0.794966
O O12 0.798880 0.844767 0.863933
O O13 0.190013 0.769172 0.668994
O O14 0.275211 0.784384 0.466986
O O15 0.559481 0.522768 0.866740
O O16 0.000000 0.000000 0.000000
O O17 0.000000 0.500000 0.500000
#
# Coordination Sequence:
#
# PCOD8005969 Si02
#       8
#     2   2   2   2   2   2   2   2
#     4  10  22  39  63  91 120 159 205 252 301 360
#     4  10  23  40  61  93 124 158 203 253 306 354
#     4  10  22  41  61  88 125 162 201 247 305 363
#     4  10  20  39  64  90 121 159 204 252 305 359
#     4  10  22  40  62  89 122 163 205 248 302 362
#     4  10  22  40  63  91 123 159 203 254 303 358
#     4  10  22  40  61  87 119 159 203 246 300 362
#     4  10  22  37  59  91 124 159 200 250 301 357
#
# _framework density 24.603809999999999
#
# number of rings (size 3 to 8) (size 9 to 14) (size 15 to 20)
#    0.000    2.000    0.000    2.625    0.000   12.000 
#    0.000    3.750    0.000    0.000    0.000    0.000 
#    0.000    0.000    0.000    0.000    0.000    0.000 
#
# Total GULP energy -198250.665237 kJ/mol
# GULP energy per Si atom -12390.666577 kJ/mol
# Density = 2.454781 g / cm^3
# Si number density = 24.603810 Si / 1000 Ang^3
#
#
#
# Elastic Constant Matrix: (Units=GPa)
#
#
# Indices 1 2 3 4 5 6 
#
# 1 157.8517 14.2215 -0.4177 -3.2530 -19.6557 -14.3967
# 2 14.2215 49.7490 5.9356 15.2820 0.1887 -8.3598
# 3 -0.4177 5.9356 59.5240 18.7353 -14.5921 11.8102
# 4 -3.2530 15.2820 18.7353 28.3146 6.0052 -4.4063
# 5 -19.6557 0.1887 -14.5921 6.0052 32.7456 2.0981
# 6 -14.3967 -8.3598 11.8102 -4.4063 2.0981 46.2669
#
#
#
# Elastic Compliance Matrix: (Units=1/GPa)
#
#
# Indices 1 2 3 4 5 6 
#
# 1 0.007246 -0.002154 0.000847 0.000713 0.004512 0.001513
# 2 -0.002154 0.025650 0.002985 -0.016426 0.002805 0.001511
# 3 0.000847 0.002985 0.033682 -0.030238 0.021793 -0.011663
# 4 0.000713 -0.016426 -0.030238 0.072031 -0.026998 0.013057
# 5 0.004512 0.002805 0.021793 -0.026998 0.048433 -0.008420
# 6 0.001513 0.001511 -0.011663 0.013057 -0.008420 0.026960
#
#
# Mechanical properties :
#
#
# Convention : Reuss Voigt Hill
#
# Bulk Modulus (GPa) = 14.29930 34.06705 24.18318
# Shear Modulus (GPa) = 21.37150 37.95777 29.66463
#
# Velocity S-wave (km/s) = 2.95044 3.93206 3.47608
# Velocity P-wave (km/s) = 4.17508 5.87291 5.09521
#
# Compressibility (1/GPa) = 0.06993350
#
# Stress axis : x y z
#
# Youngs Moduli (GPa) = 138.01043 38.98682 29.68915
#
# Poissons Ratio (x) = 0.08400 -0.02515
# Poissons Ratio (y) = 0.29734 -0.08863
# Poissons Ratio (z) = -0.11690 -0.11639
#
# Static dielectric constant tensor:
#      x y z
#    x 5.190610 -0.191800 0.158160 
#    y -0.191800 4.186150 0.740310 
#    z 0.158160 0.740310 5.016410 
# 
# 
# High freq. dielectric constant tensor:
#      x y z
#    x 2.006240 -0.006060 0.000710 
#    y -0.006060 1.944000 0.025920 
#    z 0.000710 0.025920 1.969290 
# 
# From -- ./inp_files/568861.got.cif
#   From: 2010.06.25/outbox.cif.g09.slc.cpg/sg2_285_cif.got.tgz:568861.got - 2010.06.27 13:26:56.
