data_PCOD8005852
_publ_section_title
;
Structure prediction by ZEFSAII (Michael W. Deem and Ramdas Pophale) SiO2 
 PCOD8005852
Probable space group: P -1
;
_chemical_formula_sum "Si O2"
_cell_formula_units_Z 16
_cell_length_a 18.398651
_cell_length_b 19.802361
_cell_length_c 8.666547
_cell_angle_alpha 131.336193
_cell_angle_beta 116.101781
_cell_angle_gamma 24.535893
_cell_volume 843.364578
_symmetry_space_group_name_H-M "P -1"
_symmetry_group_IT_number 2
_symmetry_cell_setting 'triclinic'
loop_
_space_group_symop_operation_xyz
x,y,z
-x,-y,-z
loop_
_atom_site_type_symbol
_atom_site_label
_atom_site_fract_x
_atom_site_fract_y
_atom_site_fract_z
Si Si1 0.219299 0.012645 0.977866
Si Si2 0.812334 0.885657 0.219220
Si Si3 0.962655 0.201147 0.518034
Si Si4 0.550592 0.620775 0.924348
Si Si5 0.600126 0.691417 0.374180
Si Si6 0.018243 0.581520 0.698707
Si Si7 0.855203 0.297424 0.215198
Si Si8 0.322744 0.708767 0.034340
O O1 0.249842 0.978973 0.769907
O O2 0.435371 0.784551 0.920176
O O3 0.110733 0.219237 0.232105
O O4 0.065101 0.090249 0.000761
O O5 0.614666 0.052462 0.377433
O O6 0.965821 0.775894 0.315658
O O7 0.927206 0.683378 0.941801
O O8 0.771587 0.361146 0.682186
O O9 0.897170 0.286169 0.410436
O O10 0.148949 0.941017 0.314042
O O11 0.420033 0.668883 0.929682
O O12 0.572950 0.671177 0.154705
O O13 0.682082 0.535135 0.336257
O O14 0.745889 0.628647 0.397924
O O15 0.000000 0.500000 0.500000
O O16 0.782723 0.268741 0.108876
O O17 0.500000 0.500000 0.000000
#
# Coordination Sequence:
#
# PCOD8005852 Si02
#       8
#     2   2   2   2   2   2   2   2
#     4   9  21  39  64  84 124 155 202 237 314 351
#     4  10  20  39  63  90 115 165 194 241 306 365
#     4  12  23  38  64  85 122 165 205 245 303 351
#     4  12  22  40  60  89 117 167 200 248 298 358
#     4  11  20  40  64  85 127 160 196 245 307 357
#     4   9  21  40  65  94 121 150 199 250 298 366
#     4  11  21  41  58  88 121 163 201 256 293 347
#     4  12  25  40  58  87 126 157 214 253 291 345
#
# _framework density 18.971629
#
# number of rings (size 3 to 8) (size 9 to 14) (size 15 to 20)
#    0.750    0.500    5.000    1.125    0.000    1.500 
#    2.250    0.625    0.000    3.750    0.000    0.000 
#    0.000    0.000    0.000    0.000    0.000    0.000 
#
# Total GULP energy -198359.408832 kJ/mol
# GULP energy per Si atom -12397.463052 kJ/mol
# Density = 1.892845 g / cm^3
# Si number density = 18.971629 Si / 1000 Ang^3
#
#
#
# Elastic Constant Matrix: (Units=GPa)
#
#
# Indices 1 2 3 4 5 6 
#
# 1 57.1305 26.5451 27.5377 5.8376 -7.5897 -26.3592
# 2 26.5451 106.3921 42.9581 -1.6349 -4.6609 -10.5209
# 3 27.5377 42.9581 104.1982 4.8013 -14.2900 -22.6637
# 4 5.8376 -1.6349 4.8013 42.1674 -8.6148 -11.2091
# 5 -7.5897 -4.6609 -14.2900 -8.6148 35.4212 0.1385
# 6 -26.3592 -10.5209 -22.6637 -11.2091 0.1385 33.4954
#
#
#
# Elastic Compliance Matrix: (Units=1/GPa)
#
#
# Indices 1 2 3 4 5 6 
#
# 1 0.031748 -0.005076 -0.000240 0.003270 0.006738 0.024293
# 2 -0.005076 0.012149 -0.004506 0.000656 -0.001136 -0.003004
# 3 -0.000240 -0.004506 0.014002 0.001586 0.005358 0.008378
# 4 0.003270 0.000656 0.001586 0.028331 0.008265 0.013299
# 5 0.006738 -0.001136 0.005358 0.008265 0.033654 0.011197
# 6 0.024293 -0.003004 0.008378 0.013299 0.011197 0.058102
#
#
# Mechanical properties :
#
#
# Convention : Reuss Voigt Hill
#
# Bulk Modulus (GPa) = 26.14161 51.31139 38.72650
# Shear Modulus (GPa) = 23.76623 33.59548 28.68085
#
# Velocity S-wave (km/s) = 3.54323 4.21269 3.89237
# Velocity P-wave (km/s) = 5.52707 7.12512 6.37636
#
# Compressibility (1/GPa) = 0.03825319
#
# Stress axis : x y z
#
# Youngs Moduli (GPa) = 31.49811 82.31415 71.41631
#
# Poissons Ratio (x) = 0.41786 0.01715
# Poissons Ratio (y) = 0.15990 0.32182
# Poissons Ratio (z) = 0.00756 0.37093
#
# Static dielectric constant tensor:
#      x y z
#    x 3.297850 -0.126390 -0.251380 
#    y -0.126390 3.633770 0.064900 
#    z -0.251380 0.064900 3.400830 
# 
# 
# High freq. dielectric constant tensor:
#      x y z
#    x 1.713950 -0.015370 -0.022800 
#    y -0.015370 1.753230 0.000240 
#    z -0.022800 0.000240 1.730780 
# 
# From -- ./inp_files/210728.got.cif
#   From: 2010.06.25/outbox.cif.g09.slc.cpg/sg2_106_cif.got.tgz:210728.got - 2010.06.27 13:26:56.
