data_PCOD8005452
_publ_section_title
;
Structure prediction by ZEFSAII (Michael W. Deem and Ramdas Pophale) SiO2 
 PCOD8005452
Probable space group: P -1
;
_chemical_formula_sum "Si O2"
_cell_formula_units_Z 14
_cell_length_a 16.589931
_cell_length_b 9.469517
_cell_length_c 14.633713
_cell_angle_alpha 57.443440
_cell_angle_beta 27.379323
_cell_angle_gamma 40.408211
_cell_volume 607.454727
_symmetry_space_group_name_H-M "P -1"
_symmetry_group_IT_number 2
_symmetry_cell_setting 'triclinic'
loop_
_space_group_symop_operation_xyz
x,y,z
-x,-y,-z
loop_
_atom_site_type_symbol
_atom_site_label
_atom_site_fract_x
_atom_site_fract_y
_atom_site_fract_z
Si Si1 0.802580 0.292635 0.165219
Si Si2 0.773698 0.231959 0.019633
Si Si3 0.561444 0.946241 0.709230
Si Si4 0.375641 0.339788 0.635269
Si Si5 0.787485 0.460967 0.580005
Si Si6 0.974022 0.898862 0.373851
Si Si7 0.031883 0.240193 0.226951
O O1 0.616064 0.262611 0.374046
O O2 0.694663 0.528490 0.242482
O O3 0.824618 0.316543 0.026466
O O4 0.077364 0.048565 0.016607
O O5 0.874926 0.249403 0.820031
O O6 0.474388 0.404886 0.252916
O O7 0.456150 0.095346 0.667185
O O8 0.763063 0.658417 0.583559
O O9 0.706137 0.985765 0.610068
O O10 0.330347 0.032711 0.971948
O O11 0.130275 0.511393 0.755590
O O12 0.854442 0.276128 0.652576
O O13 0.008277 0.304838 0.334712
O O14 0.914658 0.138075 0.359257
#
# Coordination Sequence:
#
# PCOD8005452 Si02
#       7
#     2   2   2   2   2   2   2
#     4  10  20  38  71 106 132 181 233 283 349 417
#     4  11  21  40  73 102 134 181 234 282 347 405
#     4  12  27  45  70 105 141 184 230 289 350 407
#     4  11  20  43  66  99 148 170 229 295 343 413
#     4  12  27  47  69 103 144 184 235 285 340 416
#     4  12  25  50  72  97 144 188 231 288 341 410
#     4  12  26  48  72 105 138 185 235 285 348 411
#
# _framework density 23.046983999999998
#
# number of rings (size 3 to 8) (size 9 to 14) (size 15 to 20)
#    0.000    0.571    5.714    2.571    0.000    2.286 
#    0.000    0.000    0.000    0.000    0.000    0.000 
#    0.000    0.000    0.000    0.000    0.000    0.000 
#
# Total GULP energy -173674.854138 kJ/mol
# GULP energy per Si atom -12405.346724 kJ/mol
# Density = 2.299453 g / cm^3
# Si number density = 23.046984 Si / 1000 Ang^3
#
#
#
# Elastic Constant Matrix: (Units=GPa)
#
#
# Indices 1 2 3 4 5 6 
#
# 1 109.8712 28.5351 47.1851 1.0095 19.6194 -16.2181
# 2 28.5351 74.5170 23.2508 4.5770 1.2473 -12.5605
# 3 47.1851 23.2508 89.2783 -2.1205 11.2081 7.7342
# 4 1.0095 4.5770 -2.1205 24.0673 3.7078 -2.4283
# 5 19.6194 1.2473 11.2081 3.7078 47.2985 0.3843
# 6 -16.2181 -12.5605 7.7342 -2.4283 0.3843 31.6000
#
#
#
# Elastic Compliance Matrix: (Units=1/GPa)
#
#
# Indices 1 2 3 4 5 6 
#
# 1 0.014960 -0.001805 -0.007634 0.000633 -0.004471 0.008932
# 2 -0.001805 0.016679 -0.004211 -0.003043 0.001493 0.006482
# 3 -0.007634 -0.004211 0.017326 0.001808 -0.000891 -0.009682
# 4 0.000633 -0.003043 0.001808 0.043084 -0.004005 0.002032
# 5 -0.004471 0.001493 -0.000891 -0.004005 0.023500 -0.002077
# 6 0.008932 0.006482 -0.009682 0.002032 -0.002077 0.041357
#
#
# Mechanical properties :
#
#
# Convention : Reuss Voigt Hill
#
# Bulk Modulus (GPa) = 46.15726 52.40093 49.27909
# Shear Modulus (GPa) = 26.11960 32.23952 29.17956
#
# Velocity S-wave (km/s) = 3.37013 3.74419 3.56208
# Velocity P-wave (km/s) = 5.93420 6.44033 6.19244
#
# Compressibility (1/GPa) = 0.02166507
#
# Stress axis : x y z
#
# Youngs Moduli (GPa) = 66.84603 59.95393 57.71749
#
# Poissons Ratio (x) = 0.10823 0.44060
# Poissons Ratio (y) = 0.12067 0.24305
# Poissons Ratio (z) = 0.51029 0.25246
#
# Static dielectric constant tensor:
#      x y z
#    x 4.102110 -0.106200 0.149320 
#    y -0.106200 4.021860 0.161720 
#    z 0.149320 0.161720 4.153340 
# 
# 
# High freq. dielectric constant tensor:
#      x y z
#    x 1.910840 -0.010680 0.008090 
#    y -0.010680 1.897670 0.012690 
#    z 0.008090 0.012690 1.913200 
# 
# From -- ./inp_files/428400.got.cif
#   From: 2010.06.25/outbox.cif.g09.slc.cpg/sg2_215_cif.got.tgz:428400.got - 2010.06.27 13:26:56.
