data_PCOD8005438
_publ_section_title
;
Structure prediction by ZEFSAII (Michael W. Deem and Ramdas Pophale) SiO2 
 PCOD8005438
Probable space group: P -1
;
_chemical_formula_sum "Si O2"
_cell_formula_units_Z 16
_cell_length_a 10.639663
_cell_length_b 8.146777
_cell_length_c 14.179237
_cell_angle_alpha 53.196318
_cell_angle_beta 87.570298
_cell_angle_gamma 124.163212
_cell_volume 668.046602
_symmetry_space_group_name_H-M "P -1"
_symmetry_group_IT_number 2
_symmetry_cell_setting 'triclinic'
loop_
_space_group_symop_operation_xyz
x,y,z
-x,-y,-z
loop_
_atom_site_type_symbol
_atom_site_label
_atom_site_fract_x
_atom_site_fract_y
_atom_site_fract_z
Si Si1 0.368241 0.479256 0.710483
Si Si2 0.100562 0.268117 0.164877
Si Si3 0.745629 0.029788 0.238017
Si Si4 0.254053 0.854508 0.283764
Si Si5 0.880736 0.622563 0.392800
Si Si6 0.348557 0.604520 0.872574
Si Si7 0.828328 0.565692 0.695893
Si Si8 0.247888 0.113232 0.509882
O O1 0.264481 0.527620 0.635504
O O2 0.291893 0.434216 0.833789
O O3 0.589951 0.783817 0.598155
O O4 0.328094 0.198717 0.769442
O O5 0.230273 0.454451 0.187905
O O6 0.972075 0.312093 0.129082
O O7 0.221395 0.344628 0.045342
O O8 0.936954 0.916485 0.326940
O O9 0.669037 0.170176 0.191951
O O10 0.678480 0.844818 0.401579
O O11 0.206445 0.629261 0.441730
O O12 0.285812 0.771646 0.213400
O O13 0.083312 0.798168 0.291456
O O14 0.437585 0.199961 0.183841
O O15 0.772393 0.670822 0.586230
O O16 0.049149 0.773264 0.609410
#
# Coordination Sequence:
#
# PCOD8005438 Si02
#       8
#     2   2   2   2   2   2   2   2
#     4  11  24  41  69 101 136 179 217 284 342 389
#     4  10  24  46  66  95 138 184 220 271 337 408
#     4  10  22  43  67  98 135 175 225 281 332 400
#     4  11  24  41  65 103 132 172 224 285 330 395
#     4  10  24  43  65  98 140 169 222 280 338 398
#     4  12  27  43  68 105 136 177 232 272 329 412
#     4  10  21  39  68  93 135 179 217 276 344 391
#     4  10  20  38  70 102 129 174 226 278 339 397
#
# _framework density 23.950423000000001
#
# number of rings (size 3 to 8) (size 9 to 14) (size 15 to 20)
#    0.000    1.500    0.000    5.250    8.750    4.000 
#    2.250    0.000    0.000    0.000    0.000    0.000 
#    0.000    0.000    0.000    0.000    0.000    0.000 
#
# Total GULP energy -198237.006315 kJ/mol
# GULP energy per Si atom -12389.812895 kJ/mol
# Density = 2.389591 g / cm^3
# Si number density = 23.950423 Si / 1000 Ang^3
#
#
#
# Elastic Constant Matrix: (Units=GPa)
#
#
# Indices 1 2 3 4 5 6 
#
# 1 76.2369 10.7508 18.4991 -2.2967 -9.0476 14.5423
# 2 10.7508 91.3486 14.5977 15.3729 0.8607 -5.7891
# 3 18.4991 14.5977 80.9741 14.5956 -14.4418 -1.2788
# 4 -2.2967 15.3729 14.5956 29.0274 -4.0227 -8.3816
# 5 -9.0476 0.8607 -14.4418 -4.0227 29.2849 -1.4877
# 6 14.5423 -5.7891 -1.2788 -8.3816 -1.4877 33.9987
#
#
#
# Elastic Compliance Matrix: (Units=1/GPa)
#
#
# Indices 1 2 3 4 5 6 
#
# 1 0.015946 -0.002259 -0.003204 0.002665 0.003448 -0.006518
# 2 -0.002259 0.012535 -0.001020 -0.006218 -0.002351 0.001426
# 3 -0.003204 -0.001020 0.015492 -0.006581 0.005797 0.000411
# 4 0.002665 -0.006218 -0.006581 0.044365 0.004296 0.008679
# 5 0.003448 -0.002351 0.005797 0.004296 0.038786 0.001099
# 6 -0.006518 0.001426 0.000411 0.008679 0.001099 0.034647
#
#
# Mechanical properties :
#
#
# Convention : Reuss Voigt Hill
#
# Bulk Modulus (GPa) = 32.24969 37.36165 34.80567
# Shear Modulus (GPa) = 27.01667 32.10968 29.56317
#
# Velocity S-wave (km/s) = 3.36225 3.66549 3.51714
# Velocity P-wave (km/s) = 5.34485 5.79205 5.57294
#
# Compressibility (1/GPa) = 0.03100805
#
# Stress axis : x y z
#
# Youngs Moduli (GPa) = 62.71282 79.77763 64.54919
#
# Poissons Ratio (x) = 0.18019 0.20682
# Poissons Ratio (y) = 0.14164 0.06581
# Poissons Ratio (z) = 0.20094 0.08134
#
# Static dielectric constant tensor:
#      x y z
#    x 4.593460 0.096870 -0.088400 
#    y 0.096870 4.205360 0.073320 
#    z -0.088400 0.073320 3.994960 
# 
# 
# High freq. dielectric constant tensor:
#      x y z
#    x 1.966590 0.006600 -0.009380 
#    y 0.006600 1.944190 0.011340 
#    z -0.009380 0.011340 1.923740 
# 
# From -- ./inp_files/514108.got.cif
#   From: 2010.06.25/outbox.cif.g09.slc.cpg/sg2_258_cif.got.tgz:514108.got - 2010.06.27 13:26:56.
