data_PCOD8005739
_publ_section_title
;
Structure prediction by ZEFSAII (Michael W. Deem and Ramdas Pophale) SiO2 
 PCOD8005739
Probable space group: P -1
;
_chemical_formula_sum "Si O2"
_cell_formula_units_Z 16
_cell_length_a 15.388181
_cell_length_b 25.432134
_cell_length_c 9.212251
_cell_angle_alpha 47.349760
_cell_angle_beta 44.724861
_cell_angle_gamma 18.410734
_cell_volume 801.168139
_symmetry_space_group_name_H-M "P -1"
_symmetry_group_IT_number 2
_symmetry_cell_setting 'triclinic'
loop_
_space_group_symop_operation_xyz
x,y,z
-x,-y,-z
loop_
_atom_site_type_symbol
_atom_site_label
_atom_site_fract_x
_atom_site_fract_y
_atom_site_fract_z
Si Si1 0.128665 0.369531 0.390580
Si Si2 0.279793 0.391156 0.805098
Si Si3 0.118093 0.990849 0.262250
Si Si4 0.681883 0.974224 0.970724
Si Si5 0.162931 0.259124 0.842166
Si Si6 0.456556 0.940776 0.700270
Si Si7 0.327657 0.423184 0.985996
Si Si8 0.937148 0.106812 0.957161
O O1 0.134990 0.335783 0.610292
O O2 0.278971 0.238192 0.346862
O O3 0.280381 0.367645 0.209057
O O4 0.803352 0.541697 0.386947
O O5 0.555745 0.195691 0.829927
O O6 0.343818 0.418495 0.799137
O O7 0.000000 0.500000 0.000000
O O8 0.088072 0.082647 0.206503
O O9 0.000000 0.000000 0.500000
O O10 0.908608 0.098737 0.172629
O O11 0.474566 0.094188 0.855222
O O12 0.516925 0.074789 0.128965
O O13 0.861873 0.806447 0.076234
O O14 0.923214 0.394922 0.995684
O O15 0.500000 0.000000 0.500000
O O16 0.169507 0.050452 0.773047
O O17 0.629539 0.297607 0.916041
O O18 0.000000 0.000000 0.000000
#
# Coordination Sequence:
#
# PCOD8005739 Si02
#       8
#     2   2   2   2   2   2   2   2
#     4  11  21  35  65  92 117 162 220 258 304 373
#     4  10  20  39  62  88 125 159 209 265 312 367
#     4  11  24  39  64  92 124 163 208 260 324 371
#     4  10  22  42  58  90 126 168 201 259 313 376
#     4  11  23  37  62  91 126 162 211 255 309 375
#     4  11  21  41  64  90 123 167 209 252 315 382
#     4  11  21  38  61  92 127 161 205 268 309 363
#     4  11  21  40  63  93 124 161 205 258 315 369
#
# _framework density 19.970839999999999
#
# number of rings (size 3 to 8) (size 9 to 14) (size 15 to 20)
#    0.000    1.250    3.750    4.875    3.500    0.000 
#    0.000    3.750    0.000    2.250    0.000    0.000 
#    0.000    0.000    0.000    0.000    0.000    0.000 
#
# Total GULP energy -198209.392991 kJ/mol
# GULP energy per Si atom -12388.087062 kJ/mol
# Density = 1.992539 g / cm^3
# Si number density = 19.970840 Si / 1000 Ang^3
#
#
#
# Elastic Constant Matrix: (Units=GPa)
#
#
# Indices 1 2 3 4 5 6 
#
# 1 125.2346 29.5407 40.8033 -5.9580 -3.3509 -2.9366
# 2 29.5407 60.5834 -2.9423 -6.0179 0.9900 2.2045
# 3 40.8033 -2.9423 80.8346 -4.2487 -2.6070 -10.1018
# 4 -5.9580 -6.0179 -4.2487 21.3461 -5.5463 7.7670
# 5 -3.3509 0.9900 -2.6070 -5.5463 29.2870 -8.8745
# 6 -2.9366 2.2045 -10.1018 7.7670 -8.8745 41.6777
#
#
#
# Elastic Compliance Matrix: (Units=1/GPa)
#
#
# Indices 1 2 3 4 5 6 
#
# 1 0.011309 -0.005736 -0.005876 0.000725 0.001029 -0.000240
# 2 -0.005736 0.020073 0.003678 0.005262 -0.000515 -0.001665
# 3 -0.005876 0.003678 0.016055 0.001892 0.002008 0.003358
# 4 0.000725 0.005262 0.001892 0.053905 0.007812 -0.008151
# 5 0.001029 -0.000515 0.002008 0.007812 0.038135 0.007251
# 6 -0.000240 -0.001665 0.003358 -0.008151 0.007251 0.027942
#
#
# Mechanical properties :
#
#
# Convention : Reuss Voigt Hill
#
# Bulk Modulus (GPa) = 31.67653 44.60624 38.14139
# Shear Modulus (GPa) = 25.79860 31.74558 28.77209
#
# Velocity S-wave (km/s) = 3.59808 3.99130 3.79978
# Velocity P-wave (km/s) = 5.75825 6.60491 6.19606
#
# Compressibility (1/GPa) = 0.03156911
#
# Stress axis : x y z
#
# Youngs Moduli (GPa) = 88.42671 49.81759 62.28726
#
# Poissons Ratio (x) = 0.28574 0.36599
# Poissons Ratio (y) = 0.50719 -0.22908
# Poissons Ratio (z) = 0.51958 -0.18322
#
# Static dielectric constant tensor:
#      x y z
#    x 3.870580 -0.218020 0.276880 
#    y -0.218020 3.567150 -0.159660 
#    z 0.276880 -0.159660 4.031310 
# 
# 
# High freq. dielectric constant tensor:
#      x y z
#    x 1.797820 0.006660 0.017230 
#    y 0.006660 1.772650 -0.008430 
#    z 0.017230 -0.008430 1.761320 
# 
# From -- ./inp_files/320270.got.cif
#   From: 2010.06.25/outbox.cif.g09.slc.cpg/sg2_161_cif.got.tgz:320270.got - 2010.06.27 13:26:56.
