data_PCOD8005674
_publ_section_title
;
Structure prediction by ZEFSAII (Michael W. Deem and Ramdas Pophale) SiO2 
 PCOD8005674
Probable space group: P -1
;
_chemical_formula_sum "Si O2"
_cell_formula_units_Z 16
_cell_length_a 15.779719
_cell_length_b 9.265483
_cell_length_c 21.581563
_cell_angle_alpha 124.781395
_cell_angle_beta 17.059951
_cell_angle_gamma 125.978131
_cell_volume 748.595511
_symmetry_space_group_name_H-M "P -1"
_symmetry_group_IT_number 2
_symmetry_cell_setting 'triclinic'
loop_
_space_group_symop_operation_xyz
x,y,z
-x,-y,-z
loop_
_atom_site_type_symbol
_atom_site_label
_atom_site_fract_x
_atom_site_fract_y
_atom_site_fract_z
Si Si1 0.066620 0.852635 0.999661
Si Si2 0.659170 0.057115 0.042142
Si Si3 0.434498 0.558268 0.655996
Si Si4 0.537005 0.922298 0.320702
Si Si5 0.606567 0.337695 0.851550
Si Si6 0.300799 0.353764 0.378219
Si Si7 0.218937 0.234772 0.643751
Si Si8 0.685180 0.402558 0.676846
O O1 0.125140 0.921744 0.044896
O O2 0.160379 0.661270 0.876556
O O3 0.249579 0.999680 0.864226
O O4 0.722090 0.834373 0.220973
O O5 0.380290 0.155198 0.272004
O O6 0.548094 0.848629 0.055352
O O7 0.869941 0.154522 0.864049
O O8 0.577018 0.544347 0.619938
O O9 0.302153 0.361848 0.676126
O O10 0.689797 0.658470 0.457077
O O11 0.292696 0.771701 0.422737
O O12 0.387413 0.070001 0.494531
O O13 0.506621 0.348325 0.851905
O O14 0.953339 0.345708 0.617141
O O15 0.500000 0.500000 0.000000
O O16 0.453307 0.462365 0.238185
O O17 0.000000 0.500000 0.500000
#
# Coordination Sequence:
#
# PCOD8005674 Si02
#       8
#     2   2   2   2   2   2   2   2
#     4   9  20  37  65  87 123 171 206 253 317 383
#     4  11  23  41  64  98 126 167 213 264 317 381
#     4   9  21  44  60  94 133 167 209 260 320 371
#     4  10  20  39  61  90 125 170 207 254 317 371
#     4  11  25  46  66  94 127 164 216 272 314 374
#     4  10  24  43  69  89 127 177 208 257 323 383
#     4  10  23  37  64  95 134 162 209 267 308 374
#     4  10  23  42  66  90 125 169 212 259 319 381
#
# _framework density 21.373358
#
# number of rings (size 3 to 8) (size 9 to 14) (size 15 to 20)
#    0.000    2.000    1.250    0.375    7.000    3.500 
#    2.250    1.250    0.000    0.000    0.000    0.000 
#    0.000    0.000    0.000    0.000    0.000    0.000 
#
# Total GULP energy -198355.528377 kJ/mol
# GULP energy per Si atom -12397.220524 kJ/mol
# Density = 2.132471 g / cm^3
# Si number density = 21.373358 Si / 1000 Ang^3
#
#
#
# Elastic Constant Matrix: (Units=GPa)
#
#
# Indices 1 2 3 4 5 6 
#
# 1 108.6345 47.0113 28.6899 11.6676 -16.7316 -3.0235
# 2 47.0113 157.9496 49.8204 12.0731 -7.0439 13.2408
# 3 28.6899 49.8204 98.3529 6.6987 -11.0178 0.7575
# 4 11.6676 12.0731 6.6987 30.3684 1.0580 7.6017
# 5 -16.7316 -7.0439 -11.0178 1.0580 21.1466 -1.5175
# 6 -3.0235 13.2408 0.7575 7.6017 -1.5175 27.4406
#
#
#
# Elastic Compliance Matrix: (Units=1/GPa)
#
#
# Indices 1 2 3 4 5 6 
#
# 1 0.012922 -0.003204 -0.000791 -0.005072 0.009351 0.004914
# 2 -0.003204 0.008752 -0.003652 -0.000251 -0.001833 -0.004507
# 3 -0.000791 -0.003652 0.012930 -0.001801 0.005135 0.002101
# 4 -0.005072 -0.000251 -0.001801 0.038522 -0.007787 -0.011490
# 5 0.009351 -0.001833 0.005135 -0.007787 0.057653 0.007119
# 6 0.004914 -0.004507 0.002101 -0.011490 0.007119 0.042677
#
#
# Mechanical properties :
#
#
# Convention : Reuss Voigt Hill
#
# Bulk Modulus (GPa) = 51.78806 68.44224 60.11515
# Shear Modulus (GPa) = 25.61622 31.75215 28.68419
#
# Velocity S-wave (km/s) = 3.46571 3.85852 3.66738
# Velocity P-wave (km/s) = 6.34804 7.20713 6.79118
#
# Compressibility (1/GPa) = 0.01930947
#
# Stress axis : x y z
#
# Youngs Moduli (GPa) = 77.38482 114.26073 77.33881
#
# Poissons Ratio (x) = 0.36606 0.06121
# Poissons Ratio (y) = 0.24792 0.28247
# Poissons Ratio (z) = 0.06125 0.41732
#
# Static dielectric constant tensor:
#      x y z
#    x 4.211370 -0.244220 0.117020 
#    y -0.244220 3.996660 -0.093430 
#    z 0.117020 -0.093430 3.732630 
# 
# 
# High freq. dielectric constant tensor:
#      x y z
#    x 1.839710 -0.006800 0.005320 
#    y -0.006800 1.853190 -0.003920 
#    z 0.005320 -0.003920 1.822060 
# 
# From -- ./inp_files/245349.got.cif
#   From: 2010.06.25/outbox.cif.g09.slc.cpg/sg2_123_cif.got.tgz:245349.got - 2010.06.27 13:26:56.
