data_PCOD8005112
_publ_section_title
;
Structure prediction by ZEFSAII (Michael W. Deem and Ramdas Pophale) SiO2 
 PCOD8005112
Probable space group: P -1
;
_chemical_formula_sum "Si O2"
_cell_formula_units_Z 16
_cell_length_a 10.048932
_cell_length_b 11.038399
_cell_length_c 6.440760
_cell_angle_alpha 76.343397
_cell_angle_beta 106.247740
_cell_angle_gamma 98.419346
_cell_volume 664.032908
_symmetry_space_group_name_H-M "P -1"
_symmetry_group_IT_number 2
_symmetry_cell_setting 'triclinic'
loop_
_space_group_symop_operation_xyz
x,y,z
-x,-y,-z
loop_
_atom_site_type_symbol
_atom_site_label
_atom_site_fract_x
_atom_site_fract_y
_atom_site_fract_z
Si Si1 0.705594 0.775701 0.363251
Si Si2 0.224741 0.973359 0.891295
Si Si3 0.044743 0.784994 0.118795
Si Si4 0.230608 0.620345 0.001201
Si Si5 0.769786 0.675802 0.851626
Si Si6 0.794441 0.208646 0.425998
Si Si7 0.534275 0.638149 0.036763
Si Si8 0.561185 0.102300 0.645800
O O1 0.795964 0.733977 0.612116
O O2 0.652961 0.650218 0.262626
O O3 0.565826 0.835348 0.337526
O O4 0.793686 0.880528 0.220639
O O5 0.236362 0.904487 0.703509
O O6 0.083794 0.916438 0.965661
O O7 0.355714 0.959597 0.105648
O O8 0.068163 0.802666 0.368766
O O9 0.146369 0.682815 0.119270
O O10 0.885454 0.738471 0.030283
O O11 0.175681 0.658745 0.734736
O O12 0.218804 0.472772 0.088080
O O13 0.390855 0.686560 0.038428
O O14 0.615570 0.708907 0.848099
O O15 0.663151 0.205643 0.526392
O O16 0.500000 0.500000 0.000000
O O17 0.500000 0.000000 0.500000
#
# Coordination Sequence:
#
# PCOD8005112 Si02
#       8
#     2   2   2   2   2   2   2   2
#     4  12  24  39  66  96 139 171 213 276 329 392
#     4  10  23  39  64 100 125 168 221 270 324 390
#     4  10  23  43  67  93 131 175 231 267 320 391
#     4  10  22  42  67  94 129 169 233 272 321 388
#     4  11  26  42  63  97 134 181 217 264 336 394
#     4  10  20  38  64  95 129 166 219 284 315 371
#     4  10  24  42  63  95 133 168 214 268 331 389
#     4  11  22  37  69  98 130 168 223 268 332 388
#
# _framework density 24.095189000000001
#
# number of rings (size 3 to 8) (size 9 to 14) (size 15 to 20)
#    0.000    1.500    1.250    3.750    3.500    7.000 
#    0.000    1.250    0.000    0.000    0.000    0.000 
#    0.000    0.000    0.000    0.000    0.000    0.000 
#
# Total GULP energy -198265.731987 kJ/mol
# GULP energy per Si atom -12391.608249 kJ/mol
# Density = 2.404035 g / cm^3
# Si number density = 24.095189 Si / 1000 Ang^3
#
#
#
# Elastic Constant Matrix: (Units=GPa)
#
#
# Indices 1 2 3 4 5 6 
#
# 1 71.6486 32.4242 18.3855 1.9213 7.9376 13.9369
# 2 32.4242 124.9172 68.2977 -5.5435 15.6533 22.8158
# 3 18.3855 68.2977 162.7062 0.9337 16.1779 16.3241
# 4 1.9213 -5.5435 0.9337 44.8902 9.1166 1.6665
# 5 7.9376 15.6533 16.1779 9.1166 26.5135 6.7586
# 6 13.9369 22.8158 16.3241 1.6665 6.7586 27.6060
#
#
#
# Elastic Compliance Matrix: (Units=1/GPa)
#
#
# Indices 1 2 3 4 5 6 
#
# 1 0.016624 -0.003265 0.000194 -0.000596 -0.001590 -0.005384
# 2 -0.003265 0.012670 -0.004040 0.002714 -0.003508 -0.005739
# 3 0.000194 -0.004040 0.008154 -0.000165 -0.002336 -0.000998
# 4 -0.000596 0.002714 -0.000165 0.024614 -0.009532 -0.000996
# 5 -0.001590 -0.003508 -0.002336 -0.009532 0.046421 -0.005706
# 6 -0.005384 -0.005739 -0.000998 -0.000996 -0.005706 0.045732
#
#
# Mechanical properties :
#
#
# Convention : Reuss Voigt Hill
#
# Bulk Modulus (GPa) = 43.05806 66.38741 54.72274
# Shear Modulus (GPa) = 28.38009 35.81292 32.09650
#
# Velocity S-wave (km/s) = 3.43568 3.85945 3.65371
# Velocity P-wave (km/s) = 5.80063 6.89002 6.36866
#
# Compressibility (1/GPa) = 0.02322446
#
# Stress axis : x y z
#
# Youngs Moduli (GPa) = 60.15352 78.92630 122.64555
#
# Poissons Ratio (x) = 0.25768 -0.02374
# Poissons Ratio (y) = 0.19639 0.49555
# Poissons Ratio (z) = -0.01165 0.31890
#
# Static dielectric constant tensor:
#      x y z
#    x 4.650300 0.159850 -0.247040 
#    y 0.159850 4.473490 0.308450 
#    z -0.247040 0.308450 4.760340 
# 
# 
# High freq. dielectric constant tensor:
#      x y z
#    x 1.958540 0.014880 -0.012250 
#    y 0.014880 1.950030 0.014170 
#    z -0.012250 0.014170 1.964760 
# 
# From -- ./inp_files/70063.got.cif
#   From: 2010.06.25/outbox.cif.g09.slc.cpg/sg2_36_cif.got.tgz:70063.got - 2010.06.27 13:26:56.
