data_PCOD8005606
_publ_section_title
;
Structure prediction by ZEFSAII (Michael W. Deem and Ramdas Pophale) SiO2 
 PCOD8005606
Probable space group: P -1
;
_chemical_formula_sum "Si O2"
_cell_formula_units_Z 16
_cell_length_a 11.707132
_cell_length_b 9.117808
_cell_length_c 11.263133
_cell_angle_alpha 93.475488
_cell_angle_beta 141.458886
_cell_angle_gamma 92.097756
_cell_volume 740.869973
_symmetry_space_group_name_H-M "P -1"
_symmetry_group_IT_number 2
_symmetry_cell_setting 'triclinic'
loop_
_space_group_symop_operation_xyz
x,y,z
-x,-y,-z
loop_
_atom_site_type_symbol
_atom_site_label
_atom_site_fract_x
_atom_site_fract_y
_atom_site_fract_z
Si Si1 0.704692 0.891501 0.457825
Si Si2 0.326805 0.663913 0.374992
Si Si3 0.987858 0.606373 0.266415
Si Si4 0.105003 0.870228 0.532952
Si Si5 0.295203 0.140209 0.274652
Si Si6 0.949563 0.276407 0.288807
Si Si7 0.711309 0.156450 0.868019
Si Si8 0.167870 0.410818 0.102157
O O1 0.722912 0.934251 0.614345
O O2 0.495605 0.815323 0.259268
O O3 0.847289 0.776621 0.536055
O O4 0.735308 0.047519 0.418611
O O5 0.189728 0.629779 0.372233
O O6 0.514938 0.750058 0.581915
O O7 0.233851 0.761872 0.206918
O O8 0.348197 0.509236 0.313488
O O9 0.970811 0.744670 0.345818
O O10 0.967755 0.453756 0.316274
O O11 0.823164 0.600673 0.034356
O O12 0.175344 0.788999 0.702959
O O13 0.000000 0.000000 0.500000
O O14 0.137853 0.246166 0.127816
O O15 0.281550 0.017594 0.155347
O O16 0.855669 0.213812 0.088841
O O17 0.000000 0.500000 0.000000
#
# Coordination Sequence:
#
# PCOD8005606 Si02
#       8
#     2   2   2   2   2   2   2   2
#     4  10  22  42  61  90 129 158 203 264 296 364
#     4  10  20  39  60  91 129 158 198 247 314 376
#     4  11  21  40  63  90 125 159 206 254 305 368
#     4  10  23  41  65  88 117 166 213 260 303 351
#     4  11  22  36  62  92 128 164 192 251 317 369
#     4  11  24  41  65  86 123 169 208 253 307 355
#     4  11  23  39  61  98 124 161 206 248 312 375
#     4  10  21  34  57  92 123 158 197 239 301 379
#
# _framework density 21.596233999999999
#
# number of rings (size 3 to 8) (size 9 to 14) (size 15 to 20)
#    0.000    1.500    1.250    5.250    5.250    2.000 
#    0.000    0.000    0.000    3.750    0.000    0.000 
#    0.000    0.000    0.000    0.000    0.000    0.000 
#
# Total GULP energy -198293.904944 kJ/mol
# GULP energy per Si atom -12393.369059 kJ/mol
# Density = 2.154708 g / cm^3
# Si number density = 21.596234 Si / 1000 Ang^3
#
#
#
# Elastic Constant Matrix: (Units=GPa)
#
#
# Indices 1 2 3 4 5 6 
#
# 1 72.7789 51.4602 25.3947 -6.9746 -9.5988 16.3768
# 2 51.4602 154.4698 32.6160 3.5905 -18.1671 4.5908
# 3 25.3947 32.6160 47.0852 -3.8450 -10.3735 -3.1364
# 4 -6.9746 3.5905 -3.8450 34.9128 -2.1037 -15.3757
# 5 -9.5988 -18.1671 -10.3735 -2.1037 26.6425 -0.3028
# 6 16.3768 4.5908 -3.1364 -15.3757 -0.3028 44.2424
#
#
#
# Elastic Compliance Matrix: (Units=1/GPa)
#
#
# Indices 1 2 3 4 5 6 
#
# 1 0.022615 -0.005323 -0.008786 0.000527 0.001045 -0.008251
# 2 -0.005323 0.009303 -0.003070 -0.002146 0.003062 0.000062
# 3 -0.008786 -0.003070 0.030695 0.005821 0.007241 0.007819
# 4 0.000527 -0.002146 0.005821 0.035484 0.003940 0.012799
# 5 0.001045 0.003062 0.007241 0.003940 0.043146 0.001473
# 6 -0.008251 0.000062 0.007819 0.012799 0.001473 0.030663
#
#
# Mechanical properties :
#
#
# Convention : Reuss Voigt Hill
#
# Bulk Modulus (GPa) = 35.39245 54.80841 45.10043
# Shear Modulus (GPa) = 23.18221 32.15041 27.66631
#
# Velocity S-wave (km/s) = 3.27989 3.86256 3.58309
# Velocity P-wave (km/s) = 5.54684 6.73248 6.16821
#
# Compressibility (1/GPa) = 0.02825461
#
# Stress axis : x y z
#
# Youngs Moduli (GPa) = 44.21911 107.48724 32.57854
#
# Poissons Ratio (x) = 0.57213 0.28624
# Poissons Ratio (y) = 0.23537 0.10002
# Poissons Ratio (z) = 0.38852 0.33001
#
# Static dielectric constant tensor:
#      x y z
#    x 3.986660 0.257040 -0.248900 
#    y 0.257040 4.406820 0.141870 
#    z -0.248900 0.141870 4.131180 
# 
# 
# High freq. dielectric constant tensor:
#      x y z
#    x 1.825720 0.011990 -0.012920 
#    y 0.011990 1.872330 0.003190 
#    z -0.012920 0.003190 1.836370 
# 
# From -- ./inp_files/224224.got.cif
#   From: 2010.06.25/outbox.cif.g09.slc.cpg/sg2_113_cif.got.tgz:224224.got - 2010.06.27 13:26:56.
