data_PCOD8005169
_publ_section_title
;
Structure prediction by ZEFSAII (Michael W. Deem and Ramdas Pophale) SiO2 
 PCOD8005169
Probable space group: P -1
;
_chemical_formula_sum "Si O2"
_cell_formula_units_Z 16
_cell_length_a 9.357095
_cell_length_b 15.131412
_cell_length_c 9.113952
_cell_angle_alpha 87.892090
_cell_angle_beta 96.169936
_cell_angle_gamma 38.641692
_cell_volume 785.831966
_symmetry_space_group_name_H-M "P -1"
_symmetry_group_IT_number 2
_symmetry_cell_setting 'triclinic'
loop_
_space_group_symop_operation_xyz
x,y,z
-x,-y,-z
loop_
_atom_site_type_symbol
_atom_site_label
_atom_site_fract_x
_atom_site_fract_y
_atom_site_fract_z
Si Si1 0.229550 0.639657 0.088184
Si Si2 0.942551 0.632431 0.123713
Si Si3 0.827003 0.147083 0.053735
Si Si4 0.268971 0.574352 0.763141
Si Si5 0.223211 0.401539 0.633239
Si Si6 0.954484 0.146250 0.381250
Si Si7 0.368779 0.300362 0.134816
Si Si8 0.619868 0.166964 0.465784
O O1 0.013359 0.701045 0.152202
O O2 0.470249 0.509931 0.214246
O O3 0.196087 0.759582 0.062792
O O4 0.221675 0.594698 0.931195
O O5 0.197543 0.464723 0.139441
O O6 0.800362 0.660197 0.239746
O O7 0.781685 0.703984 0.956647
O O8 0.949157 0.111234 0.220104
O O9 0.570344 0.232035 0.048169
O O10 0.000000 0.000000 0.000000
O O11 0.238331 0.491920 0.698422
O O12 0.099926 0.722312 0.641750
O O13 0.458273 0.263794 0.581610
O O14 0.000000 0.500000 0.500000
O O15 0.765210 0.186798 0.457466
O O16 0.213637 0.999229 0.479914
O O17 0.469344 0.214690 0.303429
#
# Coordination Sequence:
#
# PCOD8005169 Si02
#       8
#     2   2   2   2   2   2   2   2
#     4  10  20  38  66  94 124 162 216 263 308 365
#     4  11  21  38  65  92 123 165 211 256 312 373
#     4  10  21  37  63  96 124 163 215 264 311 370
#     4  10  21  40  66  95 123 166 215 265 305 372
#     4  12  25  39  64  98 132 164 208 261 316 374
#     4   9  21  40  65  87 127 168 212 258 319 373
#     4  10  20  38  65  89 125 170 205 254 319 379
#     4  10  21  41  62  95 127 169 208 257 320 375
#
# _framework density 20.360589000000001
#
# number of rings (size 3 to 8) (size 9 to 14) (size 15 to 20)
#    0.000    1.750    1.250    5.250    3.500    0.500 
#    0.000    1.250    2.750    0.000    0.000    0.000 
#    0.000    0.000    0.000    0.000    0.000    0.000 
#
# Total GULP energy -198341.778864 kJ/mol
# GULP energy per Si atom -12396.361179 kJ/mol
# Density = 2.031425 g / cm^3
# Si number density = 20.360589 Si / 1000 Ang^3
#
#
#
# Elastic Constant Matrix: (Units=GPa)
#
#
# Indices 1 2 3 4 5 6 
#
# 1 126.7672 60.5281 50.1121 0.0538 -8.1983 1.5387
# 2 60.5281 123.7808 60.2201 -5.5783 -12.8534 -9.8941
# 3 50.1121 60.2201 77.3634 -17.6501 3.6908 -3.1018
# 4 0.0538 -5.5783 -17.6501 39.2618 -7.9753 -2.3759
# 5 -8.1983 -12.8534 3.6908 -7.9753 34.0347 -0.8283
# 6 1.5387 -9.8941 -3.1018 -2.3759 -0.8283 25.6554
#
#
#
# Elastic Compliance Matrix: (Units=1/GPa)
#
#
# Indices 1 2 3 4 5 6 
#
# 1 0.011951 -0.002953 -0.006350 -0.003129 0.001649 -0.002860
# 2 -0.002953 0.015706 -0.010629 -0.000962 0.006270 0.005063
# 3 -0.006350 -0.010629 0.027854 0.009769 -0.006266 0.000352
# 4 -0.003129 -0.000962 0.009769 0.031028 0.005193 0.004039
# 5 0.001649 0.006270 -0.006266 0.005193 0.034120 0.003144
# 6 -0.002860 0.005063 0.000352 0.004039 0.003144 0.041620
#
#
# Mechanical properties :
#
#
# Convention : Reuss Voigt Hill
#
# Bulk Modulus (GPa) = 63.90363 74.40355 69.15359
# Shear Modulus (GPa) = 24.11270 30.26047 27.18659
#
# Velocity S-wave (km/s) = 3.44507 3.85934 3.65808
# Velocity P-wave (km/s) = 6.87596 7.51543 7.20279
#
# Compressibility (1/GPa) = 0.01564856
#
# Stress axis : x y z
#
# Youngs Moduli (GPa) = 83.67191 63.66925 35.90126
#
# Poissons Ratio (x) = 0.18803 0.22797
# Poissons Ratio (y) = 0.24711 0.38158
# Poissons Ratio (z) = 0.53130 0.67671
#
# Static dielectric constant tensor:
#      x y z
#    x 3.733690 0.004110 -0.081930 
#    y 0.004110 3.260340 -0.032700 
#    z -0.081930 -0.032700 3.846440 
# 
# 
# High freq. dielectric constant tensor:
#      x y z
#    x 1.797520 -0.012580 -0.004000 
#    y -0.012580 1.779170 -0.015810 
#    z -0.004000 -0.015810 1.798850 
# 
# From -- ./inp_files/207385.got.cif
#   From: 2010.06.25/outbox.cif.g09.slc.cpg/sg2_104_cif.got.tgz:207385.got - 2010.06.27 13:26:56.
