data_PCOD8005968
_publ_section_title
;
Structure prediction by ZEFSAII (Michael W. Deem and Ramdas Pophale) SiO2 
 PCOD8005968
Probable space group: P -1
;
_chemical_formula_sum "Si O2"
_cell_formula_units_Z 16
_cell_length_a 11.895064
_cell_length_b 11.486259
_cell_length_c 18.031902
_cell_angle_alpha 125.935018
_cell_angle_beta 159.690446
_cell_angle_gamma 54.268278
_cell_volume 687.414614
_symmetry_space_group_name_H-M "P -1"
_symmetry_group_IT_number 2
_symmetry_cell_setting 'triclinic'
loop_
_space_group_symop_operation_xyz
x,y,z
-x,-y,-z
loop_
_atom_site_type_symbol
_atom_site_label
_atom_site_fract_x
_atom_site_fract_y
_atom_site_fract_z
Si Si1 0.164959 0.292644 0.302061
Si Si2 0.060737 0.847215 0.023937
Si Si3 0.824692 0.463031 0.493547
Si Si4 0.108173 0.821706 0.289072
Si Si5 0.240964 0.298002 0.573937
Si Si6 0.788639 0.967344 0.285849
Si Si7 0.895591 0.114074 0.187178
Si Si8 0.642182 0.758010 0.869128
O O1 0.040587 0.445619 0.321662
O O2 0.551913 0.274868 0.529945
O O3 0.086499 0.153697 0.247656
O O4 0.003010 0.285799 0.119073
O O5 0.441168 0.820525 0.271295
O O6 0.817915 0.834935 0.938666
O O7 0.000000 0.000000 0.000000
O O8 0.673161 0.568578 0.373673
O O9 0.537286 0.378323 0.317620
O O10 0.124870 0.353853 0.604929
O O11 0.028068 0.882287 0.343728
O O12 0.064140 0.955495 0.254385
O O13 0.880285 0.711595 0.068777
O O14 0.943864 0.226240 0.325335
O O15 0.632662 0.124131 0.219868
O O16 0.482914 0.873956 0.068723
O O17 0.000000 0.000000 0.500000
#
# Coordination Sequence:
#
# PCOD8005968 Si02
#       8
#     2   2   2   2   2   2   2   2
#     4  11  24  39  60  93 129 165 211 267 320 382
#     4  12  25  42  66  98 132 166 214 277 338 375
#     4  10  23  43  64  92 127 174 224 257 315 388
#     4  11  21  38  63  90 123 166 216 264 315 379
#     4  10  22  43  69  92 126 171 219 270 312 391
#     4  11  23  39  62  96 130 160 204 274 337 377
#     4  10  20  39  64  90 120 166 220 262 318 380
#     4  11  23  41  65  92 128 174 219 264 317 392
#
# _framework density 23.27562
#
# number of rings (size 3 to 8) (size 9 to 14) (size 15 to 20)
#    0.000    1.250    0.000    7.875    0.000    6.000 
#    0.000    3.750    0.000    0.000    0.000    0.000 
#    0.000    0.000    0.000    0.000    0.000    0.000 
#
# Total GULP energy -198276.075852 kJ/mol
# GULP energy per Si atom -12392.254741 kJ/mol
# Density = 2.322264 g / cm^3
# Si number density = 23.275620 Si / 1000 Ang^3
#
#
#
# Elastic Constant Matrix: (Units=GPa)
#
#
# Indices 1 2 3 4 5 6 
#
# 1 106.9551 21.6648 29.9770 11.1807 -5.0686 -12.4724
# 2 21.6648 65.7619 23.3415 10.2126 13.1267 -1.7253
# 3 29.9770 23.3415 121.7661 10.1752 0.4426 3.5259
# 4 11.1807 10.2126 10.1752 36.1784 -6.8715 2.9972
# 5 -5.0686 13.1267 0.4426 -6.8715 32.8463 3.3645
# 6 -12.4724 -1.7253 3.5259 2.9972 3.3645 27.3061
#
#
#
# Elastic Compliance Matrix: (Units=1/GPa)
#
#
# Indices 1 2 3 4 5 6 
#
# 1 0.011518 -0.002906 -0.002259 -0.002175 0.001965 0.005366
# 2 -0.002906 0.020094 -0.002654 -0.006096 -0.009942 0.002179
# 3 -0.002259 -0.002654 0.009418 -0.000880 0.000647 -0.002399
# 4 -0.002175 -0.006096 -0.000880 0.032593 0.009548 -0.006019
# 5 0.001965 -0.009942 0.000647 0.009548 0.037268 -0.005454
# 6 0.005366 0.002179 -0.002399 -0.006019 -0.005454 0.040853
#
#
# Mechanical properties :
#
#
# Convention : Reuss Voigt Hill
#
# Bulk Modulus (GPa) = 39.38339 49.38329 44.38334
# Shear Modulus (GPa) = 28.43379 33.89947 31.16663
#
# Velocity S-wave (km/s) = 3.49895 3.82047 3.66324
# Velocity P-wave (km/s) = 5.76894 6.38155 6.08296
#
# Compressibility (1/GPa) = 0.02539142
#
# Stress axis : x y z
#
# Youngs Moduli (GPa) = 86.82235 49.76568 106.17942
#
# Poissons Ratio (x) = 0.14463 0.23988
# Poissons Ratio (y) = 0.25232 0.28179
# Poissons Ratio (z) = 0.19615 0.13208
#
# Static dielectric constant tensor:
#      x y z
#    x 4.346280 -0.208250 -0.063410 
#    y -0.208250 4.049520 0.331250 
#    z -0.063410 0.331250 4.458530 
# 
# 
# High freq. dielectric constant tensor:
#      x y z
#    x 1.925820 -0.019120 -0.003580 
#    y -0.019120 1.902340 0.021090 
#    z -0.003580 0.021090 1.927150 
# 
# From -- ./inp_files/569200.got.cif
#   From: 2010.06.25/outbox.cif.g09.slc.cpg/sg2_285_cif.got.tgz:569200.got - 2010.06.27 13:26:56.
