data_PCOD8005851
_publ_section_title
;
Structure prediction by ZEFSAII (Michael W. Deem and Ramdas Pophale) SiO2 
 PCOD8005851
Probable space group: P -1
;
_chemical_formula_sum "Si O2"
_cell_formula_units_Z 16
_cell_length_a 10.636073
_cell_length_b 11.450173
_cell_length_c 9.352540
_cell_angle_alpha 41.457459
_cell_angle_beta 100.130980
_cell_angle_gamma 100.577200
_cell_volume 739.989383
_symmetry_space_group_name_H-M "P -1"
_symmetry_group_IT_number 2
_symmetry_cell_setting 'triclinic'
loop_
_space_group_symop_operation_xyz
x,y,z
-x,-y,-z
loop_
_atom_site_type_symbol
_atom_site_label
_atom_site_fract_x
_atom_site_fract_y
_atom_site_fract_z
Si Si1 0.722535 0.127231 0.941333
Si Si2 0.961179 0.183756 0.767736
Si Si3 0.610114 0.385054 0.485505
Si Si4 0.763352 0.729693 0.316990
Si Si5 0.417533 0.143254 0.283436
Si Si6 0.666292 0.636340 0.673376
Si Si7 0.676104 0.259964 0.109987
Si Si8 0.760355 0.165289 0.515466
O O1 0.853079 0.240573 0.805967
O O2 0.610963 0.229664 0.748780
O O3 0.705713 0.131607 0.103579
O O4 0.722795 0.922533 0.080867
O O5 0.901368 0.172259 0.605634
O O6 0.092893 0.308968 0.671175
O O7 0.000000 0.000000 0.000000
O O8 0.668663 0.576123 0.372781
O O9 0.465062 0.409295 0.395838
O O10 0.682652 0.324176 0.415195
O O11 0.762718 0.729207 0.490851
O O12 0.348579 0.248080 0.295299
O O13 0.521249 0.263251 0.101295
O O14 0.500000 0.000000 0.500000
O O15 0.307766 0.029431 0.275740
O O16 0.726544 0.458527 0.899273
O O17 0.759039 0.190821 0.321061
#
# Coordination Sequence:
#
# PCOD8005851 Si02
#       8
#     2   2   2   2   2   2   2   2
#     4  10  23  42  66  93 128 165 217 262 317 368
#     4   9  22  46  66  93 121 165 222 264 309 375
#     4  11  23  41  62 100 129 162 214 262 314 384
#     4  11  23  42  67  91 129 170 208 268 317 367
#     4  10  20  39  63  89 130 167 205 254 322 372
#     4  12  23  40  60 101 132 165 214 255 317 388
#     4  11  22  40  62  96 136 165 206 263 316 385
#     4  10  22  42  66  92 125 168 213 259 320 375
#
# _framework density 21.621932000000001
#
# number of rings (size 3 to 8) (size 9 to 14) (size 15 to 20)
#    0.000    1.500    3.750    2.250    0.000    5.500 
#    0.000    6.250    0.000    0.000    0.000    0.000 
#    0.000    0.000    0.000    0.000    0.000    0.000 
#
# Total GULP energy -198283.324182 kJ/mol
# GULP energy per Si atom -12392.707761 kJ/mol
# Density = 2.157272 g / cm^3
# Si number density = 21.621932 Si / 1000 Ang^3
#
#
#
# Elastic Constant Matrix: (Units=GPa)
#
#
# Indices 1 2 3 4 5 6 
#
# 1 61.5524 20.1136 19.0172 5.7830 -5.3239 -1.7892
# 2 20.1136 108.8724 26.1592 0.2003 -4.2232 -11.7350
# 3 19.0172 26.1592 101.0938 8.6246 0.0074 2.4293
# 4 5.7830 0.2003 8.6246 40.3046 2.1382 -4.4901
# 5 -5.3239 -4.2232 0.0074 2.1382 28.4250 9.3352
# 6 -1.7892 -11.7350 2.4293 -4.4901 9.3352 27.5917
#
#
#
# Elastic Compliance Matrix: (Units=1/GPa)
#
#
# Indices 1 2 3 4 5 6 
#
# 1 0.018446 -0.002814 -0.002499 -0.002453 0.003691 -0.001429
# 2 -0.002814 0.010835 -0.002526 0.001500 -0.000716 0.005134
# 3 -0.002499 -0.002526 0.011281 -0.002353 0.000212 -0.002684
# 4 -0.002453 0.001500 -0.002353 0.026615 -0.004371 0.006496
# 5 0.003691 -0.000716 0.000212 -0.004371 0.040900 -0.014633
# 6 -0.001429 0.005134 -0.002684 0.006496 -0.014633 0.044578
#
#
# Mechanical properties :
#
#
# Convention : Reuss Voigt Hill
#
# Bulk Modulus (GPa) = 40.18425 44.67764 42.43094
# Shear Modulus (GPa) = 28.30861 33.01282 30.66071
#
# Velocity S-wave (km/s) = 3.62229 3.91169 3.76977
# Velocity P-wave (km/s) = 6.00998 6.41169 6.21408
#
# Compressibility (1/GPa) = 0.02488537
#
# Stress axis : x y z
#
# Youngs Moduli (GPa) = 54.21251 92.29685 88.64795
#
# Poissons Ratio (x) = 0.25970 0.22149
# Poissons Ratio (y) = 0.15254 0.22389
# Poissons Ratio (z) = 0.13545 0.23310
#
# Static dielectric constant tensor:
#      x y z
#    x 4.633310 0.152430 -0.480980 
#    y 0.152430 3.896870 -0.059360 
#    z -0.480980 -0.059360 4.169680 
# 
# 
# High freq. dielectric constant tensor:
#      x y z
#    x 1.828710 -0.012280 -0.005700 
#    y -0.012280 1.845800 -0.000730 
#    z -0.005700 -0.000730 1.858700 
# 
# From -- ./inp_files/256034.got.cif
#   From: 2010.06.25/outbox.cif.g09.slc.cpg/sg2_129_cif.got.tgz:256034.got - 2010.06.27 13:26:56.
