data_PCOD8005344
_publ_section_title
;
Structure prediction by ZEFSAII (Michael W. Deem and Ramdas Pophale) SiO2 
 PCOD8005344
Probable space group: P -1
;
_chemical_formula_sum "Si O2"
_cell_formula_units_Z 14
_cell_length_a 26.077578
_cell_length_b 9.217206
_cell_length_c 23.987672
_cell_angle_alpha 142.032662
_cell_angle_beta 10.719284
_cell_angle_gamma 142.036800
_cell_volume 654.944139
_symmetry_space_group_name_H-M "P -1"
_symmetry_group_IT_number 2
_symmetry_cell_setting 'triclinic'
loop_
_space_group_symop_operation_xyz
x,y,z
-x,-y,-z
loop_
_atom_site_type_symbol
_atom_site_label
_atom_site_fract_x
_atom_site_fract_y
_atom_site_fract_z
Si Si1 0.630493 0.173741 0.865618
Si Si2 0.880829 0.477083 0.864212
Si Si3 0.217548 0.988893 0.543234
Si Si4 0.609458 0.773594 0.462234
Si Si5 0.170915 0.005546 0.946288
Si Si6 0.726657 0.784146 0.563966
Si Si7 0.144425 0.462014 0.459714
O O1 0.863362 0.375162 0.700725
O O2 0.779023 0.028764 0.616538
O O3 0.379570 0.295764 0.143727
O O4 0.500000 0.000000 0.000000
O O5 0.813763 0.746231 0.027924
O O6 0.050069 0.391160 0.709884
O O7 0.082280 0.456861 0.590482
O O8 0.589437 0.320560 0.118314
O O9 0.913401 0.956138 0.887193
O O10 0.272770 0.727364 0.384727
O O11 0.435991 0.100425 0.391150
O O12 0.226838 0.169203 0.536772
O O13 0.500000 0.500000 0.500000
O O14 0.938143 0.812559 0.107882
O O15 0.461638 0.898543 0.607124
#
# Coordination Sequence:
#
# PCOD8005344 Si02
#       7
#     2   2   2   2   2   2   2
#     4  12  22  35  57  84 112 154 205 241 276 325
#     4  11  21  37  61  83 113 160 194 234 282 343
#     4   9  26  37  61  87 119 149 190 236 301 335
#     4  10  20  38  67  92 111 144 193 237 279 349
#     4   9  21  38  62  89 112 151 194 228 281 352
#     4  12  24  36  58  86 120 152 195 244 287 329
#     4  11  22  39  57  80 113 157 202 237 276 343
#
# _framework density 21.375869999999999
#
# number of rings (size 3 to 8) (size 9 to 14) (size 15 to 20)
#    0.857    0.571    2.857    2.571    6.000    1.143 
#    0.000    0.000    0.000    5.143    0.000    0.000 
#    0.000    0.000    0.000    0.000    0.000    0.000 
#
# Total GULP energy -173540.239477 kJ/mol
# GULP energy per Si atom -12395.731391 kJ/mol
# Density = 2.132722 g / cm^3
# Si number density = 21.375870 Si / 1000 Ang^3
#
#
#
# Elastic Constant Matrix: (Units=GPa)
#
#
# Indices 1 2 3 4 5 6 
#
# 1 35.7105 32.9373 25.8529 -5.6896 -17.2140 -7.0992
# 2 32.9373 143.4027 45.5823 -1.6889 -23.1672 0.9997
# 3 25.8529 45.5823 114.3697 9.8425 -41.4124 -3.0641
# 4 -5.6896 -1.6889 9.8425 29.5092 -1.0630 -12.1517
# 5 -17.2140 -23.1672 -41.4124 -1.0630 27.5220 2.2791
# 6 -7.0992 0.9997 -3.0641 -12.1517 2.2791 24.8154
#
#
#
# Elastic Compliance Matrix: (Units=1/GPa)
#
#
# Indices 1 2 3 4 5 6 
#
# 1 0.058080 -0.008605 -0.001962 0.022798 0.024892 0.025598
# 2 -0.008605 0.009540 -0.001579 -0.002304 0.000533 -0.004218
# 3 -0.001962 -0.001579 0.020881 -0.008303 0.028926 -0.004642
# 4 0.022798 -0.002304 -0.008303 0.054141 -0.000747 0.032170
# 5 0.024892 0.000533 0.028926 -0.000747 0.095724 0.001514
# 6 0.025598 -0.004218 -0.004642 0.032170 0.001514 0.062832
#
#
# Mechanical properties :
#
#
# Convention : Reuss Voigt Hill
#
# Bulk Modulus (GPa) = 15.57420 55.80308 35.68864
# Shear Modulus (GPa) = 14.41367 28.97667 21.69517
#
# Velocity S-wave (km/s) = 2.59954 3.68581 3.18926
# Velocity P-wave (km/s) = 4.03879 6.65402 5.50399
#
# Compressibility (1/GPa) = 0.06420874
#
# Stress axis : x y z
#
# Youngs Moduli (GPa) = 17.21754 104.82173 47.89145
#
# Poissons Ratio (x) = 0.90198 0.09399
# Poissons Ratio (y) = 0.14816 0.07560
# Poissons Ratio (z) = 0.03379 0.16548
#
# Static dielectric constant tensor:
#      x y z
#    x 3.470130 -0.039500 -0.214160 
#    y -0.039500 3.961810 0.062230 
#    z -0.214160 0.062230 3.803630 
# 
# 
# High freq. dielectric constant tensor:
#      x y z
#    x 1.799980 -0.002860 -0.024100 
#    y -0.002860 1.849010 -0.001250 
#    z -0.024100 -0.001250 1.836550 
# 
# From -- ./inp_files/105790.got.cif
#   From: 2010.06.25/outbox.cif.g09.slc.cpg/sg2_53_cif.got.tgz:105790.got - 2010.06.27 13:26:56.
