data_PCOD8005935
_publ_section_title
;
Structure prediction by ZEFSAII (Michael W. Deem and Ramdas Pophale) SiO2 
 PCOD8005935
Probable space group: P -1
;
_chemical_formula_sum "Si O2"
_cell_formula_units_Z 16
_cell_length_a 11.460407
_cell_length_b 8.374057
_cell_length_c 19.594607
_cell_angle_alpha 122.426876
_cell_angle_beta 138.000174
_cell_angle_gamma 37.122282
_cell_volume 751.980063
_symmetry_space_group_name_H-M "P -1"
_symmetry_group_IT_number 2
_symmetry_cell_setting 'triclinic'
loop_
_space_group_symop_operation_xyz
x,y,z
-x,-y,-z
loop_
_atom_site_type_symbol
_atom_site_label
_atom_site_fract_x
_atom_site_fract_y
_atom_site_fract_z
Si Si1 0.198910 0.917183 0.759272
Si Si2 0.875667 0.840851 0.078309
Si Si3 0.705713 0.573427 0.334660
Si Si4 0.216783 0.754894 0.448152
Si Si5 0.745057 0.987096 0.839173
Si Si6 0.983803 0.305816 0.527484
Si Si7 0.761190 0.250334 0.023964
Si Si8 0.649740 0.749450 0.852648
O O1 0.241113 0.663754 0.735830
O O2 0.389542 0.844365 0.768011
O O3 0.244449 0.998888 0.866786
O O4 0.927702 0.160087 0.666439
O O5 0.149107 0.561585 0.148114
O O6 0.901708 0.990936 0.071394
O O7 0.708967 0.806402 0.963445
O O8 0.423810 0.858056 0.265902
O O9 0.757147 0.504444 0.421419
O O10 0.882184 0.596569 0.383956
O O11 0.500000 0.500000 0.500000
O O12 0.125819 0.666996 0.441512
O O13 0.173814 0.000030 0.513625
O O14 0.639603 0.898115 0.818405
O O15 0.717293 0.204209 0.918809
O O16 0.036874 0.732395 0.888843
O O17 0.500000 0.500000 0.000000
#
# Coordination Sequence:
#
# PCOD8005935 Si02
#       8
#     2   2   2   2   2   2   2   2
#     4  11  22  37  61  88 116 155 200 241 289 352
#     4  10  22  38  59  86 120 156 196 241 289 346
#     4  10  20  39  64  86 116 157 196 241 298 349
#     4  10  22  40  63  89 118 153 195 242 296 352
#     4  10  21  36  57  84 113 149 194 236 284 348
#     4   9  21  42  62  86 121 152 189 249 300 345
#     4  10  21  37  56  82 117 152 188 237 288 338
#     4  10  22  39  59  87 121 156 194 242 295 344
#
# _framework density 21.277159999999999
#
# number of rings (size 3 to 8) (size 9 to 14) (size 15 to 20)
#    0.000    2.000    0.000    2.625    0.000   11.000 
#    0.000   10.625    0.000    0.000    0.000    0.000 
#    0.000    0.000    0.000    0.000    0.000    0.000 
#
# Total GULP energy -198388.734523 kJ/mol
# GULP energy per Si atom -12399.295908 kJ/mol
# Density = 2.122873 g / cm^3
# Si number density = 21.277160 Si / 1000 Ang^3
#
#
#
# Elastic Constant Matrix: (Units=GPa)
#
#
# Indices 1 2 3 4 5 6 
#
# 1 102.6794 46.8451 40.6626 -0.7824 14.6925 3.6337
# 2 46.8451 96.2252 50.4499 -15.4566 10.2912 0.3221
# 3 40.6626 50.4499 80.3193 -17.3630 8.4437 1.1502
# 4 -0.7824 -15.4566 -17.3630 39.0658 2.8801 1.5795
# 5 14.6925 10.2912 8.4437 2.8801 34.9071 -3.5970
# 6 3.6337 0.3221 1.1502 1.5795 -3.5970 33.8005
#
#
#
# Elastic Compliance Matrix: (Units=1/GPa)
#
#
# Indices 1 2 3 4 5 6 
#
# 1 0.014199 -0.004668 -0.004591 -0.003292 -0.003376 -0.001531
# 2 -0.004668 0.017406 -0.007652 0.003498 -0.001577 0.000265
# 3 -0.004591 -0.007652 0.021135 0.006411 -0.001516 -0.000614
# 4 -0.003292 0.003498 0.006411 0.030119 -0.003858 -0.001716
# 5 -0.003376 -0.001577 -0.001516 -0.003858 0.031628 0.003976
# 6 -0.001531 0.000265 -0.000614 -0.001716 0.003976 0.030272
#
#
# Mechanical properties :
#
#
# Convention : Reuss Voigt Hill
#
# Bulk Modulus (GPa) = 52.85926 61.68210 57.27068
# Shear Modulus (GPa) = 27.04357 30.97244 29.00800
#
# Velocity S-wave (km/s) = 3.56900 3.81946 3.69635
# Velocity P-wave (km/s) = 6.47154 6.96446 6.72252
#
# Compressibility (1/GPa) = 0.01891816
#
# Stress axis : x y z
#
# Youngs Moduli (GPa) = 70.42693 57.45082 47.31524
#
# Poissons Ratio (x) = 0.26818 0.21724
# Poissons Ratio (y) = 0.32876 0.36204
# Poissons Ratio (z) = 0.32335 0.43959
#
# Static dielectric constant tensor:
#      x y z
#    x 3.817070 0.216220 0.055140 
#    y 0.216220 3.754700 -0.054190 
#    z 0.055140 -0.054190 3.916060 
# 
# 
# High freq. dielectric constant tensor:
#      x y z
#    x 1.836260 0.016540 0.002530 
#    y 0.016540 1.823220 -0.014600 
#    z 0.002530 -0.014600 1.837190 
# 
# From -- ./inp_files/135318.got.cif
#   From: 2010.06.25/outbox.cif.g09.slc.cpg/sg2_68_cif.got.tgz:135318.got - 2010.06.27 13:26:56.
