data_PCOD8005555
_publ_section_title
;
Structure prediction by ZEFSAII (Michael W. Deem and Ramdas Pophale) SiO2 
 PCOD8005555
Probable space group: P -1
;
_chemical_formula_sum "Si O2"
_cell_formula_units_Z 16
_cell_length_a 11.223943
_cell_length_b 11.807669
_cell_length_c 14.970570
_cell_angle_alpha 29.847783
_cell_angle_beta 61.504391
_cell_angle_gamma 78.467144
_cell_volume 757.001961
_symmetry_space_group_name_H-M "P -1"
_symmetry_group_IT_number 2
_symmetry_cell_setting 'triclinic'
loop_
_space_group_symop_operation_xyz
x,y,z
-x,-y,-z
loop_
_atom_site_type_symbol
_atom_site_label
_atom_site_fract_x
_atom_site_fract_y
_atom_site_fract_z
Si Si1 0.196529 0.600507 0.690953
Si Si2 0.148865 0.475257 0.442583
Si Si3 0.075582 0.058474 0.176594
Si Si4 0.401081 0.774297 0.009238
Si Si5 0.462389 0.999556 0.646435
Si Si6 0.606564 0.745201 0.656505
Si Si7 0.065910 0.907536 0.619300
Si Si8 0.720628 0.196279 0.671087
O O1 0.080270 0.658625 0.752270
O O2 0.190604 0.679537 0.537350
O O3 0.369085 0.757909 0.560433
O O4 0.140112 0.294510 0.922069
O O5 0.241891 0.658732 0.200319
O O6 0.256877 0.573213 0.425574
O O7 0.000000 0.500000 0.500000
O O8 0.089141 0.174952 0.642182
O O9 0.204262 0.968418 0.201480
O O10 0.050573 0.167741 0.204407
O O11 0.459001 0.561675 0.124058
O O12 0.370612 0.866876 0.860915
O O13 0.536954 0.018768 0.845008
O O14 0.478180 0.778745 0.735696
O O15 0.366850 0.106594 0.549881
O O16 0.766000 0.855909 0.577632
O O17 0.000000 0.000000 0.500000
#
# Coordination Sequence:
#
# PCOD8005555 Si02
#       8
#     2   2   2   2   2   2   2   2
#     4  10  21  38  63  90 123 166 208 254 311 371
#     4  10  23  42  62  90 125 165 214 262 309 363
#     4  11  21  41  60  90 127 165 205 256 314 372
#     4  11  20  40  66  90 119 167 208 257 313 362
#     4   9  21  38  60  93 127 160 205 251 310 375
#     4  10  20  39  59  95 128 160 203 253 309 376
#     4  11  21  39  60  92 130 164 203 251 312 382
#     4  10  22  40  65  88 122 162 213 262 306 365
#
# _framework density 21.136009999999999
#
# number of rings (size 3 to 8) (size 9 to 14) (size 15 to 20)
#    0.000    1.750    2.500    1.875    0.000    0.500 
#   13.500    2.500    0.000    9.000    0.000    0.000 
#    0.000    0.000    0.000    0.000    0.000    0.000 
#
# Total GULP energy -198419.791686 kJ/mol
# GULP energy per Si atom -12401.236980 kJ/mol
# Density = 2.108790 g / cm^3
# Si number density = 21.136010 Si / 1000 Ang^3
#
#
#
# Elastic Constant Matrix: (Units=GPa)
#
#
# Indices 1 2 3 4 5 6 
#
# 1 96.1653 33.3730 41.2652 -5.6597 11.8976 15.7545
# 2 33.3730 108.2122 59.9776 2.1115 3.1959 19.1818
# 3 41.2652 59.9776 129.0439 -1.4187 5.8601 7.1860
# 4 -5.6597 2.1115 -1.4187 22.0209 -8.1980 -5.1438
# 5 11.8976 3.1959 5.8601 -8.1980 22.7215 2.4570
# 6 15.7545 19.1818 7.1860 -5.1438 2.4570 28.2618
#
#
#
# Elastic Compliance Matrix: (Units=1/GPa)
#
#
# Indices 1 2 3 4 5 6 
#
# 1 0.013854 -0.001338 -0.003248 0.000117 -0.005593 -0.005481
# 2 -0.001338 0.014472 -0.005862 -0.004217 -0.000446 -0.008315
# 3 -0.003248 -0.005862 0.011366 0.001053 -0.000364 0.003122
# 4 0.000117 -0.004217 0.001053 0.055603 0.019134 0.010986
# 5 -0.005593 -0.000446 -0.000364 0.019134 0.053749 0.002323
# 6 -0.005481 -0.008315 0.003122 0.010986 0.002323 0.045086
#
#
# Mechanical properties :
#
#
# Convention : Reuss Voigt Hill
#
# Bulk Modulus (GPa) = 53.19834 66.96144 60.07989
# Shear Modulus (GPa) = 22.59473 27.85454 25.22464
#
# Velocity S-wave (km/s) = 3.27313 3.63419 3.45837
# Velocity P-wave (km/s) = 6.28559 7.02565 6.66590
#
# Compressibility (1/GPa) = 0.01879758
#
# Stress axis : x y z
#
# Youngs Moduli (GPa) = 72.18369 69.09930 87.97813
#
# Poissons Ratio (x) = 0.09245 0.28573
# Poissons Ratio (y) = 0.09657 0.51569
# Poissons Ratio (z) = 0.23443 0.40503
#
# Static dielectric constant tensor:
#      x y z
#    x 3.705490 0.290020 -0.011560 
#    y 0.290020 4.284450 -0.181150 
#    z -0.011560 -0.181150 3.761900 
# 
# 
# High freq. dielectric constant tensor:
#      x y z
#    x 1.817600 0.013140 -0.002130 
#    y 0.013140 1.836010 -0.000120 
#    z -0.002130 -0.000120 1.822070 
# 
# From -- ./inp_files/261098.got.cif
#   From: 2010.06.25/outbox.cif.g09.slc.cpg/sg2_131_cif.got.tgz:261098.got - 2010.06.27 13:26:56.
