data_PCOD8005408
_publ_section_title
;
Structure prediction by ZEFSAII (Michael W. Deem and Ramdas Pophale) SiO2 
 PCOD8005408
Probable space group: P -1
;
_chemical_formula_sum "Si O2"
_cell_formula_units_Z 12
_cell_length_a 13.707595
_cell_length_b 12.577211
_cell_length_c 8.870120
_cell_angle_alpha 44.438326
_cell_angle_beta 136.897108
_cell_angle_gamma 148.081859
_cell_volume 533.329867
_symmetry_space_group_name_H-M "P -1"
_symmetry_group_IT_number 2
_symmetry_cell_setting 'triclinic'
loop_
_space_group_symop_operation_xyz
x,y,z
-x,-y,-z
loop_
_atom_site_type_symbol
_atom_site_label
_atom_site_fract_x
_atom_site_fract_y
_atom_site_fract_z
Si Si1 0.934592 0.769303 0.844503
Si Si2 0.820563 0.202700 0.141884
Si Si3 0.887562 0.571980 0.301731
Si Si4 0.483239 0.643962 0.745817
Si Si5 0.256968 0.538977 0.302405
Si Si6 0.154411 0.976114 0.384478
O O1 0.753129 0.595611 0.704331
O O2 0.938910 0.949104 0.708465
O O3 0.139492 0.869067 0.892729
O O4 0.890465 0.639744 0.071447
O O5 0.681164 0.247055 0.906506
O O6 0.034405 0.408486 0.243576
O O7 0.729128 0.036655 0.343707
O O8 0.000000 0.500000 0.500000
O O9 0.667031 0.366735 0.313341
O O10 0.974063 0.757900 0.326830
O O11 0.400467 0.572808 0.554120
O O12 0.698266 0.873394 0.738219
O O13 0.500000 0.500000 0.000000
#
# Coordination Sequence:
#
# PCOD8005408 Si02
#       6
#     2   2   2   2   2   2
#     4  10  20  38  68  99 126 181 224 273 332 394
#     4   9  19  41  69  97 128 180 228 266 335 395
#     4  12  24  46  71  92 140 183 225 278 340 406
#     4  12  26  44  67 104 142 173 223 284 338 402
#     4   9  20  42  68  95 135 177 225 271 333 398
#     4  12  24  41  69 100 136 179 225 279 339 405
#
# _framework density 22.500146000000001
#
# number of rings (size 3 to 8) (size 9 to 14) (size 15 to 20)
#    1.000    0.333    3.333    3.000    0.000    2.000 
#    0.000    0.000    0.000    0.000    0.000    0.000 
#    0.000    0.000    0.000    0.000    0.000    0.000 
#
# Total GULP energy -148665.108180 kJ/mol
# GULP energy per Si atom -12388.759015 kJ/mol
# Density = 2.244893 g / cm^3
# Si number density = 22.500146 Si / 1000 Ang^3
#
#
#
# Elastic Constant Matrix: (Units=GPa)
#
#
# Indices 1 2 3 4 5 6 
#
# 1 81.4879 22.4240 20.7428 -13.8839 1.1049 -1.3801
# 2 22.4240 36.5002 20.3452 -14.3632 3.9047 0.1084
# 3 20.7428 20.3452 143.7278 -12.1974 -12.7967 -12.5202
# 4 -13.8839 -14.3632 -12.1974 36.0961 3.3689 -5.1680
# 5 1.1049 3.9047 -12.7967 3.3689 44.8268 -8.1147
# 6 -1.3801 0.1084 -12.5202 -5.1680 -8.1147 34.1039
#
#
#
# Elastic Compliance Matrix: (Units=1/GPa)
#
#
# Indices 1 2 3 4 5 6 
#
# 1 0.015068 -0.007835 -0.000785 0.002515 0.000031 0.000735
# 2 -0.007835 0.039721 -0.004130 0.011702 -0.005600 -0.001519
# 3 -0.000785 -0.004130 0.008413 0.001159 0.003429 0.004061
# 4 0.002515 0.011702 0.001159 0.034685 -0.002421 0.005170
# 5 0.000031 -0.005600 0.003429 -0.002421 0.025206 0.006909
# 6 0.000735 -0.001519 0.004061 0.005170 0.006909 0.033275
#
#
# Mechanical properties :
#
#
# Convention : Reuss Voigt Hill
#
# Bulk Modulus (GPa) = 26.52420 43.19333 34.85876
# Shear Modulus (GPa) = 25.71529 36.21896 30.96713
#
# Velocity S-wave (km/s) = 3.38434 4.01649 3.71389
# Velocity P-wave (km/s) = 5.20439 6.38343 5.82382
#
# Compressibility (1/GPa) = 0.03770142
#
# Stress axis : x y z
#
# Youngs Moduli (GPa) = 66.36427 25.17568 118.86463
#
# Poissons Ratio (x) = 0.19726 0.09335
# Poissons Ratio (y) = 0.51999 0.49087
# Poissons Ratio (z) = 0.05212 0.10397
#
# Static dielectric constant tensor:
#      x y z
#    x 4.168450 0.254470 -0.174680 
#    y 0.254470 3.942630 -0.153690 
#    z -0.174680 -0.153690 4.196840 
# 
# 
# High freq. dielectric constant tensor:
#      x y z
#    x 1.876700 0.004200 -0.012330 
#    y 0.004200 1.853850 -0.015630 
#    z -0.012330 -0.015630 1.911490 
# 
# From -- ./inp_files/314516.got.cif
#   From: 2010.06.25/outbox.cif.g09.slc.cpg/sg2_158_cif.got.tgz:314516.got - 2010.06.27 13:26:56.
