data_PCOD8005063
_publ_section_title
;
Structure prediction by ZEFSAII (Michael W. Deem and Ramdas Pophale) SiO2 
 PCOD8005063
Probable space group: P -1
;
_chemical_formula_sum "Si O2"
_cell_formula_units_Z 16
_cell_length_a 6.824346
_cell_length_b 11.155146
_cell_length_c 12.574535
_cell_angle_alpha 94.766566
_cell_angle_beta 121.449246
_cell_angle_gamma 66.872573
_cell_volume 741.896957
_symmetry_space_group_name_H-M "P -1"
_symmetry_group_IT_number 2
_symmetry_cell_setting 'triclinic'
loop_
_space_group_symop_operation_xyz
x,y,z
-x,-y,-z
loop_
_atom_site_type_symbol
_atom_site_label
_atom_site_fract_x
_atom_site_fract_y
_atom_site_fract_z
Si Si1 0.218780 0.181504 0.633221
Si Si2 0.675319 0.281004 0.527772
Si Si3 0.514069 0.491530 0.667196
Si Si4 0.320685 0.144456 0.426479
Si Si5 0.605829 0.627995 0.184118
Si Si6 0.947932 0.182850 0.931585
Si Si7 0.770990 0.973437 0.801389
Si Si8 0.976698 0.574034 0.108444
O O1 0.173476 0.214998 0.496479
O O2 0.235511 0.303852 0.707214
O O3 0.964657 0.172011 0.604830
O O4 0.466019 0.048886 0.718815
O O5 0.584601 0.347918 0.622285
O O6 0.669443 0.391863 0.449746
O O7 0.490371 0.215758 0.433724
O O8 0.388607 0.489926 0.745951
O O9 0.773067 0.508746 0.759295
O O10 0.143057 0.131110 0.280232
O O11 0.500000 0.000000 0.500000
O O12 0.739440 0.571599 0.105481
O O13 0.319726 0.727181 0.084145
O O14 0.053749 0.274698 0.904121
O O15 0.150259 0.105702 0.072579
O O16 0.902245 0.076672 0.834124
O O17 0.000000 0.500000 0.000000
#
# Coordination Sequence:
#
# PCOD8005063 Si02
#       8
#     2   2   2   2   2   2   2   2
#     4  10  20  38  64  91 120 166 200 249 317 363
#     4  11  22  39  62  96 122 162 207 244 312 372
#     4  10  23  39  63  90 128 158 203 259 300 376
#     4  10  22  37  61  91 127 157 202 260 298 361
#     4  10  20  41  65  88 123 165 202 246 318 365
#     4   9  21  42  64  90 123 164 207 253 307 361
#     4   9  20  41  64  89 128 159 206 263 299 356
#     4  11  24  41  65  91 124 162 207 258 305 364
#
# _framework density 21.566337000000001
#
# number of rings (size 3 to 8) (size 9 to 14) (size 15 to 20)
#    0.000    2.000    2.500    0.000    3.500    5.500 
#    2.250    9.375    0.000    0.000    0.000    0.000 
#    0.000    0.000    0.000    0.000    0.000    0.000 
#
# Total GULP energy -198347.152436 kJ/mol
# GULP energy per Si atom -12396.697027 kJ/mol
# Density = 2.151725 g / cm^3
# Si number density = 21.566337 Si / 1000 Ang^3
#
#
#
# Elastic Constant Matrix: (Units=GPa)
#
#
# Indices 1 2 3 4 5 6 
#
# 1 129.5214 33.3994 39.8171 0.6445 -16.3355 1.7402
# 2 33.3994 59.1476 31.3378 8.1653 -6.5589 7.6725
# 3 39.8171 31.3378 109.5645 11.2210 -1.6156 -6.6562
# 4 0.6445 8.1653 11.2210 29.5262 0.8597 -3.1436
# 5 -16.3355 -6.5589 -1.6156 0.8597 26.4457 3.0274
# 6 1.7402 7.6725 -6.6562 -3.1436 3.0274 25.0026
#
#
#
# Elastic Compliance Matrix: (Units=1/GPa)
#
#
# Indices 1 2 3 4 5 6 
#
# 1 0.010222 -0.003889 -0.002737 0.001670 0.005205 -0.000667
# 2 -0.003889 0.024713 -0.005602 -0.005835 0.004732 -0.010111
# 3 -0.002737 -0.005602 0.012245 -0.002407 -0.002851 0.005212
# 4 0.001670 -0.005835 -0.002407 0.037069 -0.002453 0.005991
# 5 0.005205 0.004732 -0.002851 -0.002453 0.043034 -0.008092
# 6 -0.000667 -0.010111 0.005212 0.005991 -0.008092 0.046266
#
#
# Mechanical properties :
#
#
# Convention : Reuss Voigt Hill
#
# Bulk Modulus (GPa) = 44.00717 56.37132 50.18924
# Shear Modulus (GPa) = 24.32148 29.10684 26.71416
#
# Velocity S-wave (km/s) = 3.36184 3.67773 3.52333
# Velocity P-wave (km/s) = 5.95979 6.65053 6.31462
#
# Compressibility (1/GPa) = 0.02272357
#
# Stress axis : x y z
#
# Youngs Moduli (GPa) = 97.82725 40.46524 81.66441
#
# Poissons Ratio (x) = 0.15736 0.22355
# Poissons Ratio (y) = 0.38042 0.45749
# Poissons Ratio (z) = 0.26779 0.22669
#
# Static dielectric constant tensor:
#      x y z
#    x 3.807100 -0.100010 -0.199620 
#    y -0.100010 3.389920 -0.063850 
#    z -0.199620 -0.063850 3.990330 
# 
# 
# High freq. dielectric constant tensor:
#      x y z
#    x 1.831230 0.005960 -0.001010 
#    y 0.005960 1.830670 0.007600 
#    z -0.001010 0.007600 1.855880 
# 
# From -- ./inp_files/364362.got.cif
#   From: 2010.06.25/outbox.cif.g09.slc.cpg/sg2_183_cif.got.tgz:364362.got - 2010.06.27 13:26:56.
