data_PCOD8005902
_publ_section_title
;
Structure prediction by ZEFSAII (Michael W. Deem and Ramdas Pophale) SiO2 
 PCOD8005902
Probable space group: P -1
;
_chemical_formula_sum "Si O2"
_cell_formula_units_Z 16
_cell_length_a 15.329294
_cell_length_b 12.357751
_cell_length_c 11.318193
_cell_angle_alpha 125.724096
_cell_angle_beta 61.124796
_cell_angle_gamma 154.378720
_cell_volume 746.868388
_symmetry_space_group_name_H-M "P -1"
_symmetry_group_IT_number 2
_symmetry_cell_setting 'triclinic'
loop_
_space_group_symop_operation_xyz
x,y,z
-x,-y,-z
loop_
_atom_site_type_symbol
_atom_site_label
_atom_site_fract_x
_atom_site_fract_y
_atom_site_fract_z
Si Si1 0.045942 0.594111 0.396505
Si Si2 0.866375 0.658979 0.182889
Si Si3 0.236617 0.286914 0.295276
Si Si4 0.782489 0.605693 0.872524
Si Si5 0.482624 0.610904 0.896580
Si Si6 0.207504 0.498823 0.604187
Si Si7 0.915867 0.209830 0.075362
Si Si8 0.446751 0.934706 0.356478
O O1 0.924709 0.355333 0.235163
O O2 0.000000 0.500000 0.500000
O O3 0.986545 0.677038 0.457943
O O4 0.283634 0.859053 0.388360
O O5 0.645343 0.458870 0.163771
O O6 0.851832 0.584537 0.275203
O O7 0.933489 0.614937 0.025680
O O8 0.043823 0.976472 0.264449
O O9 0.177187 0.291352 0.216755
O O10 0.443913 0.444495 0.240578
O O11 0.286582 0.452228 0.469422
O O12 0.003372 0.822497 0.919299
O O13 0.637394 0.307241 0.777521
O O14 0.667975 0.581207 0.014364
O O15 0.684594 0.924021 0.004118
O O16 0.366301 0.805102 0.681418
O O17 0.500000 0.000000 0.500000
#
# Coordination Sequence:
#
# PCOD8005902 Si02
#       8
#     2   2   2   2   2   2   2   2
#     4  11  22  39  67  96 124 158 194 257 323 359
#     4  10  25  43  59  88 124 170 212 244 299 364
#     4  11  23  40  62  90 126 158 213 254 302 365
#     4  10  20  39  63  94 122 153 199 265 309 359
#     4  10  22  39  64  88 121 169 209 252 304 355
#     4  12  24  41  64  90 128 163 200 257 305 370
#     4   9  21  41  63  90 128 157 207 252 305 376
#     4  11  21  39  63  97 123 147 201 251 311 369
#
# _framework density 21.422785000000001
#
# number of rings (size 3 to 8) (size 9 to 14) (size 15 to 20)
#    0.000    1.500    2.500    2.250    0.000    9.500 
#    0.000    8.750    0.000    0.000    0.000    0.000 
#    0.000    0.000    0.000    0.000    0.000    0.000 
#
# Total GULP energy -198336.720799 kJ/mol
# GULP energy per Si atom -12396.045050 kJ/mol
# Density = 2.137403 g / cm^3
# Si number density = 21.422785 Si / 1000 Ang^3
#
#
#
# Elastic Constant Matrix: (Units=GPa)
#
#
# Indices 1 2 3 4 5 6 
#
# 1 107.8309 59.8474 34.4662 -13.2453 11.5343 7.0481
# 2 59.8474 106.7398 26.7773 -9.4211 7.2382 -12.2280
# 3 34.4662 26.7773 107.8396 -17.9815 -3.8800 -11.0180
# 4 -13.2453 -9.4211 -17.9815 37.2024 -3.4538 8.7585
# 5 11.5343 7.2382 -3.8800 -3.4538 36.9311 -12.5449
# 6 7.0481 -12.2280 -11.0180 8.7585 -12.5449 46.2644
#
#
#
# Elastic Compliance Matrix: (Units=1/GPa)
#
#
# Indices 1 2 3 4 5 6 
#
# 1 0.016986 -0.008787 -0.003759 0.003334 -0.006446 -0.008185
# 2 -0.008787 0.014867 -0.000355 -0.000740 0.001688 0.005781
# 3 -0.003759 -0.000355 0.011708 0.003746 0.004068 0.003661
# 4 0.003334 -0.000740 0.003746 0.031045 0.000516 -0.005548
# 5 -0.006446 0.001688 0.004068 0.000516 0.033062 0.011264
# 6 -0.008185 0.005781 0.003661 -0.005548 0.011264 0.029366
#
#
# Mechanical properties :
#
#
# Convention : Reuss Voigt Hill
#
# Bulk Modulus (GPa) = 56.31246 62.73246 59.52246
# Shear Modulus (GPa) = 29.62851 37.50086 33.56469
#
# Velocity S-wave (km/s) = 3.72296 4.18845 3.96255
# Velocity P-wave (km/s) = 6.69506 7.26206 6.98431
#
# Compressibility (1/GPa) = 0.01775806
#
# Stress axis : x y z
#
# Youngs Moduli (GPa) = 58.87063 67.26280 85.41364
#
# Poissons Ratio (x) = 0.59105 0.32110
# Poissons Ratio (y) = 0.51731 0.03033
# Poissons Ratio (z) = 0.22131 0.02388
#
# Static dielectric constant tensor:
#      x y z
#    x 3.793080 0.458590 0.102840 
#    y 0.458590 4.002980 -0.059240 
#    z 0.102840 -0.059240 3.976760 
# 
# 
# High freq. dielectric constant tensor:
#      x y z
#    x 1.841110 0.022990 -0.001900 
#    y 0.022990 1.833730 -0.010980 
#    z -0.001900 -0.010980 1.848970 
# 
# From -- ./inp_files/451799.got.cif
#   From: 2010.06.25/outbox.cif.g09.slc.cpg/sg2_226_cif.got.tgz:451799.got - 2010.06.27 13:26:56.
