data_PCOD8005382
_publ_section_title
;
Structure prediction by ZEFSAII (Michael W. Deem and Ramdas Pophale) SiO2 
 PCOD8005382
Probable space group: P -1
;
_chemical_formula_sum "Si O2"
_cell_formula_units_Z 14
_cell_length_a 9.235634
_cell_length_b 17.075451
_cell_length_c 11.136900
_cell_angle_alpha 133.229615
_cell_angle_beta 43.765666
_cell_angle_gamma 100.719776
_cell_volume 699.787680
_symmetry_space_group_name_H-M "P -1"
_symmetry_group_IT_number 2
_symmetry_cell_setting 'triclinic'
loop_
_space_group_symop_operation_xyz
x,y,z
-x,-y,-z
loop_
_atom_site_type_symbol
_atom_site_label
_atom_site_fract_x
_atom_site_fract_y
_atom_site_fract_z
Si Si1 0.395465 0.840094 0.812077
Si Si2 0.597655 0.013058 0.258941
Si Si3 0.557864 0.557772 0.136867
Si Si4 0.198126 0.022515 0.351962
Si Si5 0.191010 0.295649 0.895546
Si Si6 0.901899 0.254892 0.207542
Si Si7 0.971943 0.686725 0.250760
O O1 0.243197 0.774670 0.835317
O O2 0.709540 0.717140 0.499214
O O3 0.319159 0.924823 0.824160
O O4 0.320131 0.939779 0.070473
O O5 0.435633 0.967470 0.245424
O O6 0.410633 0.131851 0.592208
O O7 0.851654 0.887241 0.037988
O O8 0.664849 0.635988 0.102082
O O9 0.288167 0.656257 0.475556
O O10 0.500000 0.500000 0.000000
O O11 0.770097 0.438822 0.972921
O O12 0.038696 0.181698 0.588003
O O13 0.000000 0.000000 0.500000
O O14 0.020411 0.347960 0.930262
O O15 0.997137 0.332673 0.163117
#
# Coordination Sequence:
#
# PCOD8005382 Si02
#       7
#     2   2   2   2   2   2   2
#     4  10  20  38  68  90 122 172 205 257 324 362
#     4  10  21  39  65  97 129 157 209 266 313 374
#     4  12  28  43  63  90 130 173 209 259 316 373
#     4  10  21  38  64 100 124 164 211 260 312 369
#     4  10  23  45  65  94 124 164 218 257 308 380
#     4  12  24  41  67  96 126 168 208 260 324 362
#     4  10  22  44  63  90 130 165 213 254 305 388
#
# _framework density 20.006067999999999
#
# number of rings (size 3 to 8) (size 9 to 14) (size 15 to 20)
#    0.000    1.714    2.857    4.714    4.000    2.286 
#    2.571    0.000    0.000    0.000    0.000    0.000 
#    0.000    0.000    0.000    0.000    0.000    0.000 
#
# Total GULP energy -173621.052537 kJ/mol
# GULP energy per Si atom -12401.503753 kJ/mol
# Density = 1.996053 g / cm^3
# Si number density = 20.006068 Si / 1000 Ang^3
#
#
#
# Elastic Constant Matrix: (Units=GPa)
#
#
# Indices 1 2 3 4 5 6 
#
# 1 99.5321 47.4735 55.5360 5.6004 4.8228 19.5798
# 2 47.4735 104.6758 58.9586 -23.9304 -5.0165 23.5806
# 3 55.5360 58.9586 74.4702 -1.0576 -7.8258 8.1300
# 4 5.6004 -23.9304 -1.0576 31.1645 -0.9137 -4.6873
# 5 4.8228 -5.0165 -7.8258 -0.9137 34.5860 12.2734
# 6 19.5798 23.5806 8.1300 -4.6873 12.2734 28.0133
#
#
#
# Elastic Compliance Matrix: (Units=1/GPa)
#
#
# Indices 1 2 3 4 5 6 
#
# 1 0.020701 -0.001027 -0.014031 -0.006468 -0.003096 -0.009258
# 2 -0.001027 0.031046 -0.020658 0.020654 0.007321 -0.019172
# 3 -0.014031 -0.020658 0.039004 -0.009989 0.002937 0.012919
# 4 -0.006468 0.020654 -0.009989 0.048333 0.004241 -0.003737
# 5 -0.003096 0.007321 0.002937 0.004241 0.038665 -0.021082
# 6 -0.009258 -0.019172 0.012919 -0.003737 -0.021082 0.063169
#
#
# Mechanical properties :
#
#
# Convention : Reuss Voigt Hill
#
# Bulk Modulus (GPa) = 51.76340 66.95712 59.36026
# Shear Modulus (GPa) = 15.68425 26.53342 21.10884
#
# Velocity S-wave (km/s) = 2.80299 3.64575 3.25179
# Velocity P-wave (km/s) = 6.03371 7.15982 6.62075
#
# Compressibility (1/GPa) = 0.01931867
#
# Stress axis : x y z
#
# Youngs Moduli (GPa) = 48.30678 32.20976 25.63850
#
# Poissons Ratio (x) = 0.03307 0.35974
# Poissons Ratio (y) = 0.04960 0.52965
# Poissons Ratio (z) = 0.67781 0.66540
#
# Static dielectric constant tensor:
#      x y z
#    x 3.488830 0.272730 -0.122460 
#    y 0.272730 3.610670 -0.014030 
#    z -0.122460 -0.014030 3.535040 
# 
# 
# High freq. dielectric constant tensor:
#      x y z
#    x 1.781770 0.011170 0.001340 
#    y 0.011170 1.782000 -0.008270 
#    z 0.001340 -0.008270 1.783310 
# 
# From -- ./inp_files/255735.got.cif
#   From: 2010.06.25/outbox.cif.g09.slc.cpg/sg2_128_cif.got.tgz:255735.got - 2010.06.27 13:26:56.
