data_PCOD8005575
_publ_section_title
;
Structure prediction by ZEFSAII (Michael W. Deem and Ramdas Pophale) SiO2 
 PCOD8005575
Probable space group: P -1
;
_chemical_formula_sum "Si O2"
_cell_formula_units_Z 12
_cell_length_a 5.475576
_cell_length_b 4.757767
_cell_length_c 24.414916
_cell_angle_alpha 103.474476
_cell_angle_beta 50.010944
_cell_angle_gamma 86.904285
_cell_volume 455.839941
_symmetry_space_group_name_H-M "P -1"
_symmetry_group_IT_number 2
_symmetry_cell_setting 'triclinic'
loop_
_space_group_symop_operation_xyz
x,y,z
-x,-y,-z
loop_
_atom_site_type_symbol
_atom_site_label
_atom_site_fract_x
_atom_site_fract_y
_atom_site_fract_z
Si Si1 0.734924 0.735890 0.489059
Si Si2 0.354610 0.116499 0.772524
Si Si3 0.802661 0.798629 0.990009
Si Si4 0.896715 0.740851 0.851407
Si Si5 0.144716 0.108056 0.405921
Si Si6 0.455244 0.337485 0.874606
O O1 0.678808 0.762734 0.563937
O O2 0.799287 0.374625 0.449410
O O3 0.500000 0.000000 0.500000
O O4 0.084072 0.802254 0.424339
O O5 0.535828 0.076514 0.804401
O O6 0.235917 0.476552 0.798539
O O7 0.618183 0.957119 0.682714
O O8 0.029068 0.989296 0.809649
O O9 0.710304 0.872290 0.942167
O O10 0.054645 0.466262 0.935427
O O11 0.487427 0.804353 0.077482
O O12 0.000000 0.000000 0.000000
O O13 0.641385 0.595586 0.849015
#
# Coordination Sequence:
#
# PCOD8005575 Si02
#       6
#     2   2   2   2   2   2
#     4  10  21  41  69  99 125 172 222 261 326 398
#     4  11  24  42  60  93 131 167 211 268 332 389
#     4  10  20  39  60  86 122 164 217 275 322 382
#     4  11  24  39  63  89 124 171 219 263 327 397
#     4  10  22  41  65  95 138 168 212 280 322 387
#     4  10  23  39  59  89 123 166 216 270 326 386
#
# _framework density 26.325032
#
# number of rings (size 3 to 8) (size 9 to 14) (size 15 to 20)
#    0.000    1.667    1.667    2.000    2.333    2.000 
#    0.000    3.333    0.000    0.000    0.000    0.000 
#    0.000    0.000    0.000    0.000    0.000    0.000 
#
# Total GULP energy -148695.170795 kJ/mol
# GULP energy per Si atom -12391.264233 kJ/mol
# Density = 2.626512 g / cm^3
# Si number density = 26.325032 Si / 1000 Ang^3
#
#
#
# Elastic Constant Matrix: (Units=GPa)
#
#
# Indices 1 2 3 4 5 6 
#
# 1 77.5444 26.1857 43.9236 -1.5353 23.7996 -5.0040
# 2 26.1857 143.6849 53.7029 -3.8513 15.3403 1.7010
# 3 43.9236 53.7029 224.2310 3.8503 24.7386 -12.1521
# 4 -1.5353 -3.8513 3.8503 34.5812 -3.3968 -3.9550
# 5 23.7996 15.3403 24.7386 -3.3968 32.4860 3.9375
# 6 -5.0040 1.7010 -12.1521 -3.9550 3.9375 55.1320
#
#
#
# Elastic Compliance Matrix: (Units=1/GPa)
#
#
# Indices 1 2 3 4 5 6 
#
# 1 0.018045 -0.001414 -0.001822 -0.000036 -0.011423 0.002093
# 2 -0.001414 0.007964 -0.001517 0.000791 -0.001420 -0.000550
# 3 -0.001822 -0.001517 0.005527 -0.000964 -0.002404 0.001202
# 4 -0.000036 0.000791 -0.000964 0.029623 0.003284 0.001650
# 5 -0.011423 -0.001420 -0.002404 0.003284 0.042520 -0.004324
# 6 0.002093 -0.000550 0.001202 0.001650 -0.004324 0.019037
#
#
# Mechanical properties :
#
#
# Convention : Reuss Voigt Hill
#
# Bulk Modulus (GPa) = 45.39234 77.00940 61.20087
# Shear Modulus (GPa) = 35.82562 45.88304 40.85433
#
# Velocity S-wave (km/s) = 3.69303 4.17939 3.94371
# Velocity P-wave (km/s) = 5.95526 7.25303 6.63595
#
# Compressibility (1/GPa) = 0.02203015
#
# Stress axis : x y z
#
# Youngs Moduli (GPa) = 55.41563 125.57017 180.93480
#
# Poissons Ratio (x) = 0.17755 0.32965
# Poissons Ratio (y) = 0.07835 0.27449
# Poissons Ratio (z) = 0.10096 0.19050
#
# Static dielectric constant tensor:
#      x y z
#    x 5.103260 -0.036740 -0.083360 
#    y -0.036740 5.780970 -0.040980 
#    z -0.083360 -0.040980 4.716790 
# 
# 
# High freq. dielectric constant tensor:
#      x y z
#    x 2.070350 -0.018430 -0.008760 
#    y -0.018430 2.087470 0.005180 
#    z -0.008760 0.005180 2.043060 
# 
# From -- ./inp_files/11861.got.cif
#   From: 2010.06.25/outbox.cif.g09.slc.cpg/sg2_6_cif.got.tgz:11861.got - 2010.06.27 13:26:56.
