data_PCOD8005627
_publ_section_title
;
Structure prediction by ZEFSAII (Michael W. Deem and Ramdas Pophale) SiO2 
 PCOD8005627
Probable space group: P -1
;
_chemical_formula_sum "Si O2"
_cell_formula_units_Z 16
_cell_length_a 18.818032
_cell_length_b 9.101566
_cell_length_c 11.666523
_cell_angle_alpha 74.493910
_cell_angle_beta 50.843641
_cell_angle_gamma 36.684747
_cell_volume 792.904176
_symmetry_space_group_name_H-M "P -1"
_symmetry_group_IT_number 2
_symmetry_cell_setting 'triclinic'
loop_
_space_group_symop_operation_xyz
x,y,z
-x,-y,-z
loop_
_atom_site_type_symbol
_atom_site_label
_atom_site_fract_x
_atom_site_fract_y
_atom_site_fract_z
Si Si1 0.435292 0.749279 0.061600
Si Si2 0.841430 0.611194 0.158493
Si Si3 0.814624 0.506587 0.443266
Si Si4 0.825321 0.284380 0.174679
Si Si5 0.938245 0.743151 0.564959
Si Si6 0.557133 0.021404 0.184802
Si Si7 0.947193 0.002409 0.327841
Si Si8 0.672725 0.551474 0.052228
O O1 0.530429 0.666243 0.098462
O O2 0.231551 0.037126 0.231309
O O3 0.500000 0.500000 0.000000
O O4 0.484516 0.786683 0.899435
O O5 0.820040 0.629022 0.313653
O O6 0.853909 0.420174 0.146131
O O7 0.686472 0.896237 0.179499
O O8 0.000000 0.500000 0.000000
O O9 0.918320 0.203819 0.377847
O O10 0.899763 0.445319 0.483962
O O11 0.613694 0.773291 0.614304
O O12 0.807716 0.203075 0.322472
O O13 0.677658 0.463385 0.192102
O O14 0.000000 0.000000 0.000000
O O15 0.000000 0.500000 0.500000
O O16 0.901418 0.924215 0.469816
O O17 0.623530 0.794340 0.080125
O O18 0.144247 0.711878 0.144682
#
# Coordination Sequence:
#
# PCOD8005627 Si02
#       8
#     2   2   2   2   2   2   2   2
#     4  12  24  38  57  87 118 150 193 246 291 332
#     4  10  21  37  60  89 117 146 189 244 290 333
#     4  11  22  39  60  85 116 155 193 233 286 352
#     4   8  18  35  59  83 109 150 192 224 278 351
#     4  12  24  38  57  87 118 150 193 246 291 332
#     4  11  22  39  60  85 116 155 193 233 286 352
#     4  10  20  39  61  82 112 155 196 233 283 352
#     4  10  20  39  61  82 112 155 196 233 283 352
#
# _framework density 20.178982000000001
#
# number of rings (size 3 to 8) (size 9 to 14) (size 15 to 20)
#    0.000    1.500    0.000    5.625    0.000    4.000 
#    0.000    0.625    0.000    0.000    0.000    0.000 
#    0.000    0.000    0.000    0.000    0.000    0.000 
#
# Total GULP energy -198218.492420 kJ/mol
# GULP energy per Si atom -12388.655776 kJ/mol
# Density = 2.013305 g / cm^3
# Si number density = 20.178982 Si / 1000 Ang^3
#
#
#
# Elastic Constant Matrix: (Units=GPa)
#
#
# Indices 1 2 3 4 5 6 
#
# 1 88.9863 84.4831 35.6148 -19.2046 0.0782 -16.0350
# 2 84.4831 104.1807 33.1416 -11.4977 8.4922 -23.8272
# 3 35.6148 33.1416 113.7206 0.9517 -4.7532 -2.3533
# 4 -19.2046 -11.4977 0.9517 45.4156 -1.9377 16.0766
# 5 0.0782 8.4922 -4.7532 -1.9377 32.3243 9.2708
# 6 -16.0350 -23.8272 -2.3533 16.0766 9.2708 35.0487
#
#
#
# Elastic Compliance Matrix: (Units=1/GPa)
#
#
# Indices 1 2 3 4 5 6 
#
# 1 0.078624 -0.068722 -0.004314 0.028238 0.027922 -0.031376
# 2 -0.068722 0.074242 -0.000434 -0.025510 -0.032179 0.039215
# 3 -0.004314 -0.000434 0.010337 -0.001587 0.001940 -0.001360
# 4 0.028238 -0.025510 -0.001587 0.037403 0.016083 -0.025941
# 5 0.027922 -0.032179 0.001940 0.016083 0.048977 -0.029304
# 6 -0.031376 0.039215 -0.001360 -0.025941 -0.029304 0.060396
#
#
# Mechanical properties :
#
#
# Convention : Reuss Voigt Hill
#
# Bulk Modulus (GPa) = 61.48961 68.15184 64.82073
# Shear Modulus (GPa) = 10.81453 32.80092 21.80772
#
# Velocity S-wave (km/s) = 2.31753 4.03612 3.29099
# Velocity P-wave (km/s) = 6.13999 7.45435 6.82887
#
# Compressibility (1/GPa) = 0.01626291
#
# Stress axis : x y z
#
# Youngs Moduli (GPa) = 12.71871 13.46948 96.73635
#
# Poissons Ratio (x) = 0.92565 0.41736
# Poissons Ratio (y) = 0.87405 0.04199
# Poissons Ratio (z) = 0.05487 0.00585
#
# Static dielectric constant tensor:
#      x y z
#    x 3.886490 -0.116090 0.257120 
#    y -0.116090 4.063830 -0.034560 
#    z 0.257120 -0.034560 3.591320 
# 
# 
# High freq. dielectric constant tensor:
#      x y z
#    x 1.792580 -0.013150 0.020440 
#    y -0.013150 1.811080 0.001050 
#    z 0.020440 0.001050 1.784140 
# 
# From -- ./inp_files/331806.got.cif
#   From: 2010.06.25/outbox.cif.g09.slc.cpg/sg2_166_cif.got.tgz:331806.got - 2010.06.27 13:26:56.
