data_PCOD8005051
_publ_section_title
;
Structure prediction by ZEFSAII (Michael W. Deem and Ramdas Pophale) SiO2 
 PCOD8005051
Probable space group: P -1
;
_chemical_formula_sum "Si O2"
_cell_formula_units_Z 14
_cell_length_a 26.371953
_cell_length_b 12.573043
_cell_length_c 9.362639
_cell_angle_alpha 37.814300
_cell_angle_beta 28.575519
_cell_angle_gamma 25.829747
_cell_volume 646.966101
_symmetry_space_group_name_H-M "P -1"
_symmetry_group_IT_number 2
_symmetry_cell_setting 'triclinic'
loop_
_space_group_symop_operation_xyz
x,y,z
-x,-y,-z
loop_
_atom_site_type_symbol
_atom_site_label
_atom_site_fract_x
_atom_site_fract_y
_atom_site_fract_z
Si Si1 0.713781 0.628104 0.579577
Si Si2 0.166875 0.443859 0.928535
Si Si3 0.718333 0.707031 0.889825
Si Si4 0.650832 0.361054 0.186818
Si Si5 0.587129 0.079487 0.583230
Si Si6 0.021583 0.663520 0.566804
Si Si7 0.028190 0.007658 0.085829
O O1 0.719723 0.607820 0.414737
O O2 0.882774 0.464438 0.389875
O O3 0.614959 0.905825 0.576026
O O4 0.641243 0.539720 0.920103
O O5 0.259227 0.279694 0.012971
O O6 0.040969 0.729251 0.975804
O O7 0.099097 0.348363 0.128258
O O8 0.872593 0.466034 0.697295
O O9 0.660961 0.943134 0.697835
O O10 0.593116 0.700647 0.183163
O O11 0.500000 0.500000 0.500000
O O12 0.658059 0.182431 0.254842
O O13 0.795084 0.197017 0.104993
O O14 0.951357 0.938727 0.440681
O O15 0.000000 0.000000 0.000000
#
# Coordination Sequence:
#
# PCOD8005051 Si02
#       7
#     2   2   2   2   2   2   2
#     4  10  24  41  59  94 124 163 206 256 307 380
#     4  12  24  38  62  92 132 157 204 264 314 360
#     4  10  20  38  64  90 118 160 213 256 295 374
#     4  11  23  41  70  90 120 171 212 249 308 375
#     4  10  21  41  64  85 123 164 209 253 308 367
#     4  10  21  39  61  88 123 161 204 249 315 367
#     4  11  23  37  63  97 124 156 212 261 302 361
#
# _framework density 21.639464
#
# number of rings (size 3 to 8) (size 9 to 14) (size 15 to 20)
#    0.000    1.429    1.429    6.000    2.000    4.000 
#    0.000    0.714    0.000    0.000    0.000    0.000 
#    0.000    0.000    0.000    0.000    0.000    0.000 
#
# Total GULP energy -173545.730657 kJ/mol
# GULP energy per Si atom -12396.123618 kJ/mol
# Density = 2.159021 g / cm^3
# Si number density = 21.639464 Si / 1000 Ang^3
#
#
#
# Elastic Constant Matrix: (Units=GPa)
#
#
# Indices 1 2 3 4 5 6 
#
# 1 78.9286 18.8169 42.9241 -3.6972 15.7530 4.5857
# 2 18.8169 77.4971 34.9098 -7.9010 -3.5651 6.5037
# 3 42.9241 34.9098 107.2140 -5.8553 -12.3022 9.0799
# 4 -3.6972 -7.9010 -5.8553 24.9436 15.6044 -9.3837
# 5 15.7530 -3.5651 -12.3022 15.6044 42.4235 -4.1361
# 6 4.5857 6.5037 9.0799 -9.3837 -4.1361 21.1453
#
#
#
# Elastic Compliance Matrix: (Units=1/GPa)
#
#
# Indices 1 2 3 4 5 6 
#
# 1 0.021239 -0.000609 -0.009507 0.010199 -0.014311 0.001391
# 2 -0.000609 0.015623 -0.004693 0.004308 -0.001508 -0.001041
# 3 -0.009507 -0.004693 0.015788 -0.007046 0.009870 -0.004470
# 4 0.010199 0.004308 -0.007046 0.067996 -0.028123 0.024163
# 5 -0.014311 -0.001508 0.009870 -0.028123 0.041474 -0.005039
# 6 0.001391 -0.001041 -0.004470 0.024163 -0.005039 0.058967
#
#
# Mechanical properties :
#
#
# Convention : Reuss Voigt Hill
#
# Bulk Modulus (GPa) = 43.42083 50.77126 47.09605
# Shear Modulus (GPa) = 19.35114 28.83505 24.09309
#
# Velocity S-wave (km/s) = 2.99365 3.65433 3.34037
# Velocity P-wave (km/s) = 5.66201 6.42797 6.05711
#
# Compressibility (1/GPa) = 0.02303042
#
# Stress axis : x y z
#
# Youngs Moduli (GPa) = 47.08416 64.00931 63.34000
#
# Poissons Ratio (x) = 0.03900 0.60220
# Poissons Ratio (y) = 0.02869 0.29722
# Poissons Ratio (z) = 0.44765 0.30036
#
# Static dielectric constant tensor:
#      x y z
#    x 3.877510 0.082160 -0.211570 
#    y 0.082160 4.088130 -0.299760 
#    z -0.211570 -0.299760 4.025910 
# 
# 
# High freq. dielectric constant tensor:
#      x y z
#    x 1.839800 0.003690 -0.011820 
#    y 0.003690 1.848990 -0.016430 
#    z -0.011820 -0.016430 1.847410 
# 
# From -- ./inp_files/353771.got.cif
#   From: 2010.06.25/outbox.cif.g09.slc.cpg/sg2_177_cif.got.tgz:353771.got - 2010.06.27 13:26:56.
