data_PCOD8005879
_publ_section_title
;
Structure prediction by ZEFSAII (Michael W. Deem and Ramdas Pophale) SiO2 
 PCOD8005879
Probable space group: P -1
;
_chemical_formula_sum "Si O2"
_cell_formula_units_Z 14
_cell_length_a 12.992002
_cell_length_b 9.349232
_cell_length_c 7.306879
_cell_angle_alpha 48.137269
_cell_angle_beta 63.729415
_cell_angle_gamma 65.968877
_cell_volume 584.341546
_symmetry_space_group_name_H-M "P -1"
_symmetry_group_IT_number 2
_symmetry_cell_setting 'triclinic'
loop_
_space_group_symop_operation_xyz
x,y,z
-x,-y,-z
loop_
_atom_site_type_symbol
_atom_site_label
_atom_site_fract_x
_atom_site_fract_y
_atom_site_fract_z
Si Si1 0.144532 0.423442 0.769771
Si Si2 0.348254 0.537906 0.300905
Si Si3 0.700881 0.196525 0.206015
Si Si4 0.658282 0.879527 0.997628
Si Si5 0.697317 0.763214 0.667581
Si Si6 0.440594 0.721458 0.396277
Si Si7 0.111039 0.564063 0.077363
O O1 0.218326 0.540474 0.478670
O O2 0.216178 0.208071 0.943430
O O3 0.024064 0.398137 0.788013
O O4 0.118679 0.548453 0.866007
O O5 0.382606 0.346137 0.309180
O O6 0.438576 0.535964 0.407996
O O7 0.354320 0.725982 0.010531
O O8 0.620448 0.305409 0.339337
O O9 0.712658 0.965310 0.390223
O O10 0.829318 0.251747 0.073152
O O11 0.561086 0.802697 0.264404
O O12 0.636703 0.797113 0.882584
O O13 0.645476 0.112467 0.794055
O O14 0.823771 0.629586 0.706700
#
# Coordination Sequence:
#
# PCOD8005879 Si02
#       7
#     2   2   2   2   2   2   2
#     4  10  20  39  63  92 122 159 209 248 306 362
#     4  11  23  38  63  95 122 161 205 250 305 371
#     4  10  21  42  62  93 125 162 199 255 302 365
#     4   9  21  42  65  88 124 167 201 257 303 361
#     4   9  21  40  60  93 128 155 206 251 305 360
#     4  10  21  43  64  89 126 161 209 250 305 363
#     4   9  19  41  63  89 124 161 201 256 297 365
#
# _framework density 23.958590000000001
#
# number of rings (size 3 to 8) (size 9 to 14) (size 15 to 20)
#    0.000    2.286    1.429    0.000    2.000    3.429 
#    5.143    6.429    0.000    0.000    0.000    0.000 
#    0.000    0.000    0.000    0.000    0.000    0.000 
#
# Total GULP energy -173603.695573 kJ/mol
# GULP energy per Si atom -12400.263969 kJ/mol
# Density = 2.390406 g / cm^3
# Si number density = 23.958590 Si / 1000 Ang^3
#
#
#
# Elastic Constant Matrix: (Units=GPa)
#
#
# Indices 1 2 3 4 5 6 
#
# 1 132.8667 30.1868 42.7532 5.2422 4.7294 4.1958
# 2 30.1868 64.3452 25.7448 -4.4938 14.2382 -0.3452
# 3 42.7532 25.7448 135.1845 -6.9258 16.1395 -2.4340
# 4 5.2422 -4.4938 -6.9258 42.8083 -7.2368 6.5488
# 5 4.7294 14.2382 16.1395 -7.2368 34.4804 4.2836
# 6 4.1958 -0.3452 -2.4340 6.5488 4.2836 34.6900
#
#
#
# Elastic Compliance Matrix: (Units=1/GPa)
#
#
# Indices 1 2 3 4 5 6 
#
# 1 0.009217 -0.003733 -0.002453 -0.001523 0.001254 -0.001191
# 2 -0.003733 0.019517 -0.001665 0.000919 -0.006722 0.001185
# 3 -0.002453 -0.001665 0.008927 0.000872 -0.003111 0.001126
# 4 -0.001523 0.000919 0.000872 0.025501 0.005423 -0.005229
# 5 0.001254 -0.006722 -0.003111 0.005423 0.034917 -0.005772
# 6 -0.001191 0.001185 0.001126 -0.005229 -0.005772 0.030762
#
#
# Mechanical properties :
#
#
# Convention : Reuss Voigt Hill
#
# Bulk Modulus (GPa) = 45.54209 58.86288 52.20248
# Shear Modulus (GPa) = 32.92476 37.97654 35.45065
#
# Velocity S-wave (km/s) = 3.71109 3.98564 3.85081
# Velocity P-wave (km/s) = 6.11661 6.76774 6.45040
#
# Compressibility (1/GPa) = 0.02195771
#
# Stress axis : x y z
#
# Youngs Moduli (GPa) = 108.49690 51.23844 112.02391
#
# Poissons Ratio (x) = 0.19125 0.27482
# Poissons Ratio (y) = 0.40498 0.18656
# Poissons Ratio (z) = 0.26617 0.08533
#
# Static dielectric constant tensor:
#      x y z
#    x 4.406160 -0.053870 0.256450 
#    y -0.053870 4.583360 -0.020200 
#    z 0.256450 -0.020200 4.405340 
# 
# 
# High freq. dielectric constant tensor:
#      x y z
#    x 1.954090 0.004860 0.023460 
#    y 0.004860 1.947400 -0.000270 
#    z 0.023460 -0.000270 1.962100 
# 
# From -- ./inp_files/293864.got.cif
#   From: 2010.06.25/outbox.cif.g09.slc.cpg/sg2_147_cif.got.tgz:293864.got - 2010.06.27 13:26:56.
