data_PCOD8005808
_publ_section_title
;
Structure prediction by ZEFSAII (Michael W. Deem and Ramdas Pophale) SiO2 
 PCOD8005808
Probable space group: P -1
;
_chemical_formula_sum "Si O2"
_cell_formula_units_Z 14
_cell_length_a 6.894398
_cell_length_b 13.615225
_cell_length_c 15.344216
_cell_angle_alpha 34.770089
_cell_angle_beta 59.138237
_cell_angle_gamma 62.390853
_cell_volume 702.493268
_symmetry_space_group_name_H-M "P -1"
_symmetry_group_IT_number 2
_symmetry_cell_setting 'triclinic'
loop_
_space_group_symop_operation_xyz
x,y,z
-x,-y,-z
loop_
_atom_site_type_symbol
_atom_site_label
_atom_site_fract_x
_atom_site_fract_y
_atom_site_fract_z
Si Si1 0.241104 0.715405 0.703038
Si Si2 0.296147 0.437882 0.332975
Si Si3 0.358644 0.964987 0.187454
Si Si4 0.520908 0.273866 0.819966
Si Si5 0.121400 0.841561 0.826925
Si Si6 0.039506 0.465499 0.808107
Si Si7 0.537492 0.902436 0.383414
O O1 0.467239 0.583215 0.761808
O O2 0.127893 0.775240 0.775352
O O3 0.056015 0.616738 0.764806
O O4 0.313790 0.881212 0.510056
O O5 0.292406 0.608984 0.268725
O O6 0.285879 0.267955 0.520209
O O7 0.083541 0.450767 0.308858
O O8 0.389101 0.797066 0.241750
O O9 0.467053 0.914614 0.291217
O O10 0.093036 0.020296 0.214955
O O11 0.494144 0.118027 0.006334
O O12 0.286159 0.389411 0.775466
O O13 0.350209 0.927018 0.736130
O O14 0.104532 0.681778 0.012124
#
# Coordination Sequence:
#
# PCOD8005808 Si02
#       7
#     2   2   2   2   2   2   2
#     4   9  22  38  57  87 117 149 187 234 286 334
#     4   9  21  37  58  82 119 147 184 232 287 333
#     4  10  22  38  61  83 117 148 194 234 283 333
#     4   9  20  41  59  85 112 151 190 241 277 334
#     4  11  22  37  61  87 111 153 196 228 280 339
#     4  10  20  39  63  82 112 154 193 231 279 338
#     4  10  23  37  56  89 119 147 185 234 291 336
#
# _framework density 19.929017000000002
#
# number of rings (size 3 to 8) (size 9 to 14) (size 15 to 20)
#    0.857    1.429    0.000    1.714    2.000    4.000 
#    0.000    5.714    0.000    0.000    0.000    0.000 
#    0.000    0.000    0.000    0.000    0.000    0.000 
#
# Total GULP energy -173594.334437 kJ/mol
# GULP energy per Si atom -12399.595317 kJ/mol
# Density = 1.988366 g / cm^3
# Si number density = 19.929017 Si / 1000 Ang^3
#
#
#
# Elastic Constant Matrix: (Units=GPa)
#
#
# Indices 1 2 3 4 5 6 
#
# 1 59.8283 3.4101 37.9528 7.7196 2.4725 15.6030
# 2 3.4101 57.8804 11.8003 7.9225 -16.3176 16.9047
# 3 37.9528 11.8003 59.4047 -9.6296 14.8900 2.8607
# 4 7.7196 7.9225 -9.6296 23.5433 17.7128 -5.2157
# 5 2.4725 -16.3176 14.8900 17.7128 28.0283 -2.0491
# 6 15.6030 16.9047 2.8607 -5.2157 -2.0491 22.3552
#
#
#
# Elastic Compliance Matrix: (Units=1/GPa)
#
#
# Indices 1 2 3 4 5 6 
#
# 1 0.011438 -0.012922 0.004906 0.022233 -0.024891 0.004066
# 2 -0.012922 0.006120 0.014069 0.021021 -0.015612 0.006064
# 3 0.004906 0.014069 0.002336 -0.025444 0.021255 -0.018350
# 4 0.022233 0.021021 -0.025444 -0.009193 0.027573 -0.027775
# 5 -0.024891 -0.015612 0.021255 0.027573 0.002490 0.033120
# 6 0.004066 0.006064 -0.018350 -0.027775 0.033120 0.036213
#
#
# Mechanical properties :
#
#
# Convention : Reuss Voigt Hill
#
# Bulk Modulus (GPa) = 31.24924 31.49330 31.37127
# Shear Modulus (GPa) = 104.24247 23.04872 63.64559
#
# Velocity S-wave (km/s) = 7.24020 3.40448 5.65734
# Velocity P-wave (km/s) = 9.25247 5.59384 7.64524
#
# Compressibility (1/GPa) = 0.03200078
#
# Stress axis : x y z
#
# Youngs Moduli (GPa) = 87.42571 163.38983 428.07328
#
# Poissons Ratio (x) = 2.11135 -2.10031
# Poissons Ratio (y) = 1.12973 -6.02247
# Poissons Ratio (z) = -0.42895 -2.29869
#
# Static dielectric constant tensor:
#      x y z
#    x 3.449410 0.117050 -0.085820 
#    y 0.117050 3.630550 -0.155910 
#    z -0.085820 -0.155910 3.573010 
# 
# 
# High freq. dielectric constant tensor:
#      x y z
#    x 1.769870 0.013530 0.000150 
#    y 0.013530 1.779300 -0.008950 
#    z 0.000150 -0.008950 1.774490 
# 
# From -- ./inp_files/66110.got.cif
#   From: 2010.06.25/outbox.cif.g09.slc.cpg/sg2_34_cif.got.tgz:66110.got - 2010.06.27 13:26:56.
