data_PCOD8005279
_publ_section_title
;
Structure prediction by ZEFSAII (Michael W. Deem and Ramdas Pophale) SiO2 
 PCOD8005279
Probable space group: P -1
;
_chemical_formula_sum "Si O2"
_cell_formula_units_Z 16
_cell_length_a 8.144234
_cell_length_b 8.355591
_cell_length_c 16.238904
_cell_angle_alpha 64.501354
_cell_angle_beta 73.031709
_cell_angle_gamma 120.408201
_cell_volume 650.134500
_symmetry_space_group_name_H-M "P -1"
_symmetry_group_IT_number 2
_symmetry_cell_setting 'triclinic'
loop_
_space_group_symop_operation_xyz
x,y,z
-x,-y,-z
loop_
_atom_site_type_symbol
_atom_site_label
_atom_site_fract_x
_atom_site_fract_y
_atom_site_fract_z
Si Si1 0.910069 0.750480 0.889969
Si Si2 0.098737 0.603564 0.783889
Si Si3 0.232680 0.173537 0.491354
Si Si4 0.110904 0.983294 0.290618
Si Si5 0.789962 0.692570 0.097523
Si Si6 0.644179 0.018847 0.595985
Si Si7 0.534173 0.705220 0.262395
Si Si8 0.941464 0.439113 0.661995
O O1 0.920475 0.568035 0.883507
O O2 0.191862 0.027433 0.808909
O O3 0.774323 0.794357 0.842206
O O4 0.739357 0.601103 0.029916
O O5 0.113855 0.407128 0.845511
O O6 0.989302 0.548184 0.721584
O O7 0.375646 0.905802 0.677887
O O8 0.405259 0.478003 0.397313
O O9 0.123126 0.085427 0.619235
O O10 0.391693 0.120067 0.453587
O O11 0.000000 0.000000 0.500000
O O12 0.308233 0.076397 0.311925
O O13 0.014834 0.737040 0.311027
O O14 0.549122 0.600216 0.198210
O O15 0.000000 0.000000 0.000000
O O16 0.872593 0.329197 0.483858
O O17 0.350440 0.736068 0.275244
#
# Coordination Sequence:
#
# PCOD8005279 Si02
#       8
#     2   2   2   2   2   2   2   2
#     4  11  26  44  66  98 129 175 224 268 322 385
#     4  12  25  43  70  95 132 171 223 267 328 386
#     4  10  20  38  66  91 133 168 211 261 328 380
#     4  11  24  41  65  96 142 169 216 260 327 389
#     4  10  23  47  69  92 128 171 222 277 322 378
#     4  11  23  42  64  97 138 174 209 269 324 393
#     4  11  22  43  68  93 133 173 213 271 328 379
#     4  12  24  41  64 103 135 173 215 264 326 399
#
# _framework density 24.610294
#
# number of rings (size 3 to 8) (size 9 to 14) (size 15 to 20)
#    0.000    1.000    3.750    4.125    3.500    0.500 
#    0.000    9.375    0.000    0.000    0.000    0.000 
#    0.000    0.000    0.000    0.000    0.000    0.000 
#
# Total GULP energy -198363.141892 kJ/mol
# GULP energy per Si atom -12397.696368 kJ/mol
# Density = 2.455428 g / cm^3
# Si number density = 24.610294 Si / 1000 Ang^3
#
#
#
# Elastic Constant Matrix: (Units=GPa)
#
#
# Indices 1 2 3 4 5 6 
#
# 1 66.7312 11.7025 8.2747 1.6223 4.9975 -15.6498
# 2 11.7025 69.7271 -11.1871 10.9707 -4.5659 -10.5267
# 3 8.2747 -11.1871 40.2210 11.7500 13.2659 0.1170
# 4 1.6223 10.9707 11.7500 42.2098 -5.4686 -2.7976
# 5 4.9975 -4.5659 13.2659 -5.4686 29.4619 2.2999
# 6 -15.6498 -10.5267 0.1170 -2.7976 2.2999 41.6614
#
#
#
# Elastic Compliance Matrix: (Units=1/GPa)
#
#
# Indices 1 2 3 4 5 6 
#
# 1 0.017574 -0.003095 -0.004392 0.001535 -0.001669 0.006027
# 2 -0.003095 0.017535 0.008096 -0.006744 -0.001881 0.002896
# 3 -0.004392 0.008096 0.038332 -0.014926 -0.018053 0.000283
# 4 0.001535 -0.006744 -0.014926 0.031009 0.011141 0.000382
# 5 -0.001669 -0.001881 -0.018053 0.011141 0.044345 -0.002751
# 6 0.006027 0.002896 0.000283 0.000382 -0.002751 0.027176
#
#
# Mechanical properties :
#
#
# Convention : Reuss Voigt Hill
#
# Bulk Modulus (GPa) = 13.39414 21.58437 17.48925
# Shear Modulus (GPa) = 25.04527 33.85924 29.45225
#
# Velocity S-wave (km/s) = 3.19356 3.71322 3.46315
# Velocity P-wave (km/s) = 4.36495 5.21282 4.80761
#
# Compressibility (1/GPa) = 0.07465952
#
# Stress axis : x y z
#
# Youngs Moduli (GPa) = 56.90236 57.02817 26.08795
#
# Poissons Ratio (x) = 0.17650 0.11457
# Poissons Ratio (y) = 0.17611 -0.21121
# Poissons Ratio (z) = 0.24991 -0.46170
#
# Static dielectric constant tensor:
#      x y z
#    x 4.352710 -0.439090 -0.314160 
#    y -0.439090 4.580510 0.486940 
#    z -0.314160 0.486940 4.823780 
# 
# 
# High freq. dielectric constant tensor:
#      x y z
#    x 1.967900 -0.018310 -0.004820 
#    y -0.018310 1.982080 0.014180 
#    z -0.004820 0.014180 1.980320 
# 
# From -- ./inp_files/217835.got.cif
#   From: 2010.06.25/outbox.cif.g09.slc.cpg/sg2_109_cif.got.tgz:217835.got - 2010.06.27 13:26:56.
