data_PCOD8005662
_publ_section_title
;
Structure prediction by ZEFSAII (Michael W. Deem and Ramdas Pophale) SiO2 
 PCOD8005662
Probable space group: P -1
;
_chemical_formula_sum "Si O2"
_cell_formula_units_Z 16
_cell_length_a 8.816295
_cell_length_b 8.732967
_cell_length_c 12.842018
_cell_angle_alpha 129.504557
_cell_angle_beta 81.469933
_cell_angle_gamma 101.644107
_cell_volume 746.924430
_symmetry_space_group_name_H-M "P -1"
_symmetry_group_IT_number 2
_symmetry_cell_setting 'triclinic'
loop_
_space_group_symop_operation_xyz
x,y,z
-x,-y,-z
loop_
_atom_site_type_symbol
_atom_site_label
_atom_site_fract_x
_atom_site_fract_y
_atom_site_fract_z
Si Si1 0.255578 0.077205 0.461659
Si Si2 0.884836 0.844921 0.007783
Si Si3 0.635023 0.610334 0.259589
Si Si4 0.072827 0.546316 0.782058
Si Si5 0.503729 0.891343 0.232000
Si Si6 0.949285 0.216894 0.500885
Si Si7 0.460620 0.201085 0.039551
Si Si8 0.798073 0.163044 0.284419
O O1 0.374748 0.263172 0.577242
O O2 0.120118 0.153569 0.440351
O O3 0.345638 0.935599 0.320735
O O4 0.175746 0.961137 0.519700
O O5 0.722866 0.799750 0.944173
O O6 0.966109 0.644454 0.918389
O O7 0.859545 0.946773 0.165937
O O8 0.000000 0.000000 0.000000
O O9 0.814690 0.574446 0.214763
O O10 0.584935 0.734265 0.221816
O O11 0.529296 0.395001 0.183428
O O12 0.178363 0.704326 0.764738
O O13 0.955992 0.401830 0.658848
O O14 0.615118 0.104647 0.300605
O O15 0.465433 0.787973 0.079231
O O16 0.888936 0.278141 0.421001
O O17 0.500000 0.000000 0.000000
#
# Coordination Sequence:
#
# PCOD8005662 Si02
#       8
#     2   2   2   2   2   2   2   2
#     4  10  23  40  62  91 126 163 203 254 303 368
#     4   9  20  38  60  87 118 159 196 246 308 356
#     4  11  22  41  61  91 123 164 202 250 303 367
#     4  10  22  39  62  88 125 160 206 255 303 356
#     4  11  23  40  64  90 125 163 203 250 309 364
#     4  10  21  39  61  90 123 158 209 251 303 360
#     4  11  24  42  64  92 126 158 206 259 302 366
#     4  10  20  39  61  89 121 159 204 255 304 358
#
# _framework density 21.421178000000001
#
# number of rings (size 3 to 8) (size 9 to 14) (size 15 to 20)
#    0.000    1.750    1.250    3.375    1.750    3.000 
#    0.000    8.125    0.000    0.000    0.000    0.000 
#    0.000    0.000    0.000    0.000    0.000    0.000 
#
# Total GULP energy -198340.826539 kJ/mol
# GULP energy per Si atom -12396.301659 kJ/mol
# Density = 2.137242 g / cm^3
# Si number density = 21.421178 Si / 1000 Ang^3
#
#
#
# Elastic Constant Matrix: (Units=GPa)
#
#
# Indices 1 2 3 4 5 6 
#
# 1 81.8358 19.6077 48.9074 3.2391 -8.1090 4.0333
# 2 19.6077 61.0074 17.3803 9.0277 -3.5195 0.2592
# 3 48.9074 17.3803 99.5281 15.4729 -3.2810 4.2620
# 4 3.2391 9.0277 15.4729 33.6443 3.0421 5.3883
# 5 -8.1090 -3.5195 -3.2810 3.0421 42.2339 12.8339
# 6 4.0333 0.2592 4.2620 5.3883 12.8339 31.5517
#
#
#
# Elastic Compliance Matrix: (Units=1/GPa)
#
#
# Indices 1 2 3 4 5 6 
#
# 1 0.018770 -0.003823 -0.008857 0.003492 0.003289 -0.003106
# 2 -0.003823 0.018520 -0.000665 -0.004508 0.000820 0.000863
# 3 -0.008857 -0.000665 0.015449 -0.006084 -0.000165 0.000157
# 4 0.003492 -0.004508 -0.006084 0.034295 -0.001134 -0.004983
# 5 0.003289 0.000820 -0.000165 -0.001134 0.027968 -0.011587
# 6 -0.003106 0.000863 0.000157 -0.004983 -0.011587 0.037627
#
#
# Mechanical properties :
#
#
# Convention : Reuss Voigt Hill
#
# Bulk Modulus (GPa) = 38.38777 46.01799 42.20288
# Shear Modulus (GPa) = 26.59550 31.91770 29.25660
#
# Velocity S-wave (km/s) = 3.52739 3.86425 3.69965
# Velocity P-wave (km/s) = 5.87787 6.43731 6.16394
#
# Compressibility (1/GPa) = 0.02604996
#
# Stress axis : x y z
#
# Youngs Moduli (GPa) = 53.27749 53.99490 64.72705
#
# Poissons Ratio (x) = 0.20643 0.57329
# Poissons Ratio (y) = 0.20368 0.04301
# Poissons Ratio (z) = 0.47188 0.03588
#
# Static dielectric constant tensor:
#      x y z
#    x 3.732230 -0.462370 0.226420 
#    y -0.462370 2.926140 0.845440 
#    z 0.226420 0.845440 3.765150 
# 
# 
# High freq. dielectric constant tensor:
#      x y z
#    x 1.843330 0.000500 0.007870 
#    y 0.000500 1.825530 0.017650 
#    z 0.007870 0.017650 1.842450 
# 
# From -- ./inp_files/383508.got.cif
#   From: 2010.06.25/outbox.cif.g09.slc.cpg/sg2_192_cif.got.tgz:383508.got - 2010.06.27 13:26:56.
