data_PCOD8005298
_publ_section_title
;
Structure prediction by ZEFSAII (Michael W. Deem and Ramdas Pophale) SiO2 
 PCOD8005298
Probable space group: P -1
;
_chemical_formula_sum "Si O2"
_cell_formula_units_Z 16
_cell_length_a 12.267840
_cell_length_b 8.473596
_cell_length_c 20.164864
_cell_angle_alpha 48.221206
_cell_angle_beta 29.489327
_cell_angle_gamma 45.206985
_cell_volume 723.804848
_symmetry_space_group_name_H-M "P -1"
_symmetry_group_IT_number 2
_symmetry_cell_setting 'triclinic'
loop_
_space_group_symop_operation_xyz
x,y,z
-x,-y,-z
loop_
_atom_site_type_symbol
_atom_site_label
_atom_site_fract_x
_atom_site_fract_y
_atom_site_fract_z
Si Si1 0.381739 0.172714 0.612072
Si Si2 0.361934 0.843267 0.139546
Si Si3 0.373094 0.543200 0.985467
Si Si4 0.746667 0.096684 0.677073
Si Si5 0.149066 0.093753 0.624882
Si Si6 0.482833 0.917498 0.757513
Si Si7 0.006743 0.401795 0.289335
Si Si8 0.047370 0.407787 0.411085
O O1 0.245789 0.091594 0.648487
O O2 0.271638 0.444523 0.603845
O O3 0.658104 0.091738 0.469937
O O4 0.329907 0.072887 0.737113
O O5 0.459289 0.607518 0.117220
O O6 0.406670 0.794678 0.207781
O O7 0.086341 0.969386 0.232381
O O8 0.500000 0.000000 0.000000
O O9 0.323399 0.799229 0.915237
O O10 0.500000 0.500000 0.000000
O O11 0.134263 0.483451 0.137980
O O12 0.871301 0.267007 0.537542
O O13 0.580698 0.059934 0.717768
O O14 0.945863 0.865277 0.662645
O O15 0.073630 0.346578 0.559224
O O16 0.701987 0.740968 0.649978
O O17 0.115888 0.452540 0.286669
#
# Coordination Sequence:
#
# PCOD8005298 Si02
#       8
#     2   2   2   2   2   2   2   2
#     4  10  23  40  65  97 140 179 212 265 334 413
#     4  12  23  41  70 100 126 168 226 285 326 375
#     4  12  20  39  68  93 126 173 222 272 322 386
#     4  11  23  38  65 100 130 164 230 283 325 371
#     4  10  22  43  65 100 132 180 219 268 338 393
#     4  11  21  38  64 100 124 175 222 275 326 390
#     4  10  20  40  59  91 130 173 213 258 330 393
#     4  10  20  38  66  94 128 166 227 284 314 375
#
# _framework density 22.105407
#
# number of rings (size 3 to 8) (size 9 to 14) (size 15 to 20)
#    0.000    1.250    5.000    3.000    1.750    1.500 
#    0.000   11.250    0.000    1.500    0.000    0.000 
#    0.000    0.000    0.000    0.000    0.000    0.000 
#
# Total GULP energy -198282.956925 kJ/mol
# GULP energy per Si atom -12392.684808 kJ/mol
# Density = 2.205509 g / cm^3
# Si number density = 22.105407 Si / 1000 Ang^3
#
#
#
# Elastic Constant Matrix: (Units=GPa)
#
#
# Indices 1 2 3 4 5 6 
#
# 1 68.1909 28.5331 23.6485 0.2616 9.5570 -0.0177
# 2 28.5331 105.9750 28.5667 8.0524 3.0126 3.1615
# 3 23.6485 28.5667 109.3206 -6.2148 -2.1161 5.3385
# 4 0.2616 8.0524 -6.2148 42.9326 3.2197 6.8778
# 5 9.5570 3.0126 -2.1161 3.2197 35.0277 1.5747
# 6 -0.0177 3.1615 5.3385 6.8778 1.5747 31.4803
#
#
#
# Elastic Compliance Matrix: (Units=1/GPa)
#
#
# Indices 1 2 3 4 5 6 
#
# 1 0.018043 -0.003977 -0.002988 0.000395 -0.004846 0.001072
# 2 -0.003977 0.011285 -0.002208 -0.002388 0.000212 -0.000250
# 3 -0.002988 -0.002208 0.010630 0.002198 0.001541 -0.002140
# 4 0.000395 -0.002388 0.002198 0.025077 -0.001826 -0.005520
# 5 -0.004846 0.000212 0.001541 -0.001826 0.030176 -0.001396
# 6 0.001072 -0.000250 -0.002140 -0.005520 -0.001396 0.033430
#
#
# Mechanical properties :
#
#
# Convention : Reuss Voigt Hill
#
# Bulk Modulus (GPa) = 46.26882 49.44258 47.85570
# Shear Modulus (GPa) = 32.42731 35.40401 33.91566
#
# Velocity S-wave (km/s) = 3.83422 4.00634 3.92122
# Velocity P-wave (km/s) = 6.37009 6.61939 6.49594
#
# Compressibility (1/GPa) = 0.02161283
#
# Stress axis : x y z
#
# Youngs Moduli (GPa) = 55.42409 88.61323 94.07352
#
# Poissons Ratio (x) = 0.35240 0.28105
# Poissons Ratio (y) = 0.22041 0.20772
# Poissons Ratio (z) = 0.16558 0.19566
#
# Static dielectric constant tensor:
#      x y z
#    x 4.929000 0.787500 0.926180 
#    y 0.787500 4.720140 0.601780 
#    z 0.926180 0.601780 4.518120 
# 
# 
# High freq. dielectric constant tensor:
#      x y z
#    x 1.862720 0.014150 0.019870 
#    y 0.014150 1.862430 -0.000540 
#    z 0.019870 -0.000540 1.869240 
# 
# From -- ./inp_files/594025.got.cif
#   From: 2010.06.25/outbox.cif.g09.slc.cpg/sg2_298_cif.got.tgz:594025.got - 2010.06.27 13:26:56.
