data_PCOD8005864
_publ_section_title
;
Structure prediction by ZEFSAII (Michael W. Deem and Ramdas Pophale) SiO2 
 PCOD8005864
Probable space group: P -1
;
_chemical_formula_sum "Si O2"
_cell_formula_units_Z 16
_cell_length_a 11.581973
_cell_length_b 9.091201
_cell_length_c 14.920354
_cell_angle_alpha 123.712317
_cell_angle_beta 75.823569
_cell_angle_gamma 142.882664
_cell_volume 724.890277
_symmetry_space_group_name_H-M "P -1"
_symmetry_group_IT_number 2
_symmetry_cell_setting 'triclinic'
loop_
_space_group_symop_operation_xyz
x,y,z
-x,-y,-z
loop_
_atom_site_type_symbol
_atom_site_label
_atom_site_fract_x
_atom_site_fract_y
_atom_site_fract_z
Si Si1 0.314467 0.746889 0.813175
Si Si2 0.290361 0.646177 0.162893
Si Si3 0.987815 0.192022 0.552478
Si Si4 0.730994 0.381738 0.501573
Si Si5 0.535166 0.283203 0.676529
Si Si6 0.632088 0.898095 0.627345
Si Si7 0.103090 0.750708 0.993665
Si Si8 0.545085 0.678407 0.764300
O O1 0.140881 0.493796 0.687282
O O2 0.226867 0.773051 0.911468
O O3 0.386585 0.644967 0.805956
O O4 0.516584 0.090014 0.851107
O O5 0.351897 0.572775 0.199186
O O6 0.074035 0.340882 0.049770
O O7 0.241983 0.769801 0.265145
O O8 0.036686 0.311388 0.480303
O O9 0.000000 0.000000 0.500000
O O10 0.750152 0.945318 0.539951
O O11 0.711693 0.436992 0.623425
O O12 0.597803 0.337225 0.442054
O O13 0.656793 0.087745 0.414666
O O14 0.442380 0.363252 0.698549
O O15 0.616382 0.764222 0.675625
O O16 0.000000 0.500000 0.000000
O O17 0.255983 0.069043 0.123325
#
# Coordination Sequence:
#
# PCOD8005864 Si02
#       8
#     2   2   2   2   2   2   2   2
#     4  11  22  41  64  93 125 159 208 261 309 366
#     4  10  21  42  65  83 127 170 198 252 311 376
#     4  12  22  34  65  97 119 158 217 260 303 360
#     4  10  22  43  64  84 130 176 201 249 317 372
#     4  10  22  41  64  89 131 172 201 246 324 378
#     4  10  20  39  63  91 120 159 212 260 301 359
#     4  12  22  40  71  93 116 162 213 263 312 358
#     4  11  22  38  67  98 123 161 210 267 308 364
#
# _framework density 22.072306000000001
#
# number of rings (size 3 to 8) (size 9 to 14) (size 15 to 20)
#    0.000    1.250    7.500    1.125    1.750    1.500 
#    0.000    7.500   16.500    0.000    0.000    0.000 
#    0.000    0.000    0.000    0.000    0.000    0.000 
#
# Total GULP energy -198329.587259 kJ/mol
# GULP energy per Si atom -12395.599204 kJ/mol
# Density = 2.202207 g / cm^3
# Si number density = 22.072306 Si / 1000 Ang^3
#
#
#
# Elastic Constant Matrix: (Units=GPa)
#
#
# Indices 1 2 3 4 5 6 
#
# 1 83.1018 55.2535 21.9400 -11.3890 -1.5524 -11.9180
# 2 55.2535 114.5984 39.9527 -22.3549 -24.9176 -4.2634
# 3 21.9400 39.9527 61.8506 -10.0784 3.1031 0.8193
# 4 -11.3890 -22.3549 -10.0784 31.6917 3.6627 -2.4217
# 5 -1.5524 -24.9176 3.1031 3.6627 30.5488 -4.1911
# 6 -11.9180 -4.2634 0.8193 -2.4217 -4.1911 37.9904
#
#
#
# Elastic Compliance Matrix: (Units=1/GPa)
#
#
# Indices 1 2 3 4 5 6 
#
# 1 0.019835 -0.011161 0.000609 0.000652 -0.007666 0.004153
# 2 -0.011161 0.023629 -0.011150 0.007034 0.019265 0.001965
# 3 0.000609 -0.011150 0.023984 0.001154 -0.012027 -0.002831
# 4 0.000652 0.007034 0.001154 0.037193 0.001678 0.003525
# 5 -0.007666 0.019265 -0.012027 0.001678 0.049851 0.005623
# 6 0.004153 0.001965 -0.002831 0.003525 0.005623 0.028752
#
#
# Mechanical properties :
#
#
# Convention : Reuss Voigt Hill
#
# Bulk Modulus (GPa) = 41.59147 54.87146 48.23146
# Shear Modulus (GPa) = 21.30725 29.53984 25.42355
#
# Velocity S-wave (km/s) = 3.11036 3.66228 3.39754
# Velocity P-wave (km/s) = 5.63767 6.54193 6.10656
#
# Compressibility (1/GPa) = 0.02404339
#
# Stress axis : x y z
#
# Youngs Moduli (GPa) = 50.41540 42.32080 41.69532
#
# Poissons Ratio (x) = 0.47235 -0.02541
# Poissons Ratio (y) = 0.56269 0.46492
# Poissons Ratio (z) = -0.03073 0.47190
#
# Static dielectric constant tensor:
#      x y z
#    x 3.981650 0.121860 0.226500 
#    y 0.121860 4.090050 -0.145530 
#    z 0.226500 -0.145530 4.023510 
# 
# 
# High freq. dielectric constant tensor:
#      x y z
#    x 1.858190 0.001360 0.006210 
#    y 0.001360 1.866230 -0.009760 
#    z 0.006210 -0.009760 1.863350 
# 
# From -- ./inp_files/514605.got.cif
#   From: 2010.06.25/outbox.cif.g09.slc.cpg/sg2_258_cif.got.tgz:514605.got - 2010.06.27 13:26:56.
