data_PCOD8005251
_publ_section_title
;
Structure prediction by ZEFSAII (Michael W. Deem and Ramdas Pophale) SiO2 
 PCOD8005251
Probable space group: P -1
;
_chemical_formula_sum "Si O2"
_cell_formula_units_Z 16
_cell_length_a 11.528436
_cell_length_b 14.109462
_cell_length_c 8.346249
_cell_angle_alpha 83.837376
_cell_angle_beta 130.108985
_cell_angle_gamma 128.673205
_cell_volume 704.629178
_symmetry_space_group_name_H-M "P -1"
_symmetry_group_IT_number 2
_symmetry_cell_setting 'triclinic'
loop_
_space_group_symop_operation_xyz
x,y,z
-x,-y,-z
loop_
_atom_site_type_symbol
_atom_site_label
_atom_site_fract_x
_atom_site_fract_y
_atom_site_fract_z
Si Si1 0.671781 0.172799 0.286312
Si Si2 0.096616 0.687646 0.865465
Si Si3 0.998950 0.548742 0.319029
Si Si4 0.300719 0.354306 0.434125
Si Si5 0.468707 0.580631 0.049898
Si Si6 0.475906 0.062667 0.611997
Si Si7 0.701363 0.864036 0.128532
Si Si8 0.186550 0.096707 0.405981
O O1 0.826027 0.246770 0.254295
O O2 0.786717 0.282677 0.519207
O O3 0.635935 0.046360 0.321069
O O4 0.428274 0.101725 0.047118
O O5 0.000840 0.534675 0.800676
O O6 0.908016 0.672366 0.758066
O O7 0.292071 0.783670 0.152926
O O8 0.000000 0.500000 0.500000
O O9 0.783287 0.515607 0.102682
O O10 0.500000 0.500000 0.500000
O O11 0.363762 0.356151 0.668152
O O12 0.237381 0.219852 0.335703
O O13 0.548103 0.702344 0.981723
O O14 0.500000 0.500000 0.000000
O O15 0.306711 0.069911 0.412842
O O16 0.500000 0.000000 0.500000
O O17 0.725143 0.873656 0.339624
O O18 0.923124 0.960209 0.204122
#
# Coordination Sequence:
#
# PCOD8005251 Si02
#       8
#     2   2   2   2   2   2   2   2
#     4  11  22  40  71 103 132 179 228 282 339 408
#     4  11  22  45  70  94 132 181 235 278 336 412
#     4  10  20  38  66 103 134 167 227 283 335 393
#     4  11  26  44  67  95 133 182 225 277 348 407
#     4  11  21  38  65 101 136 169 224 277 335 402
#     4  12  27  44  66 102 140 180 227 282 350 414
#     4  10  20  39  71 100 131 172 225 289 332 394
#     4  10  23  43  66 100 133 174 229 281 342 404
#
# _framework density 22.706979
#
# number of rings (size 3 to 8) (size 9 to 14) (size 15 to 20)
#    0.000    1.250    3.750    3.375    7.000    2.000 
#    0.000    3.125    0.000    0.000    0.000    0.000 
#    0.000    0.000    0.000    0.000    0.000    0.000 
#
# Total GULP energy -198334.372228 kJ/mol
# GULP energy per Si atom -12395.898264 kJ/mol
# Density = 2.265530 g / cm^3
# Si number density = 22.706979 Si / 1000 Ang^3
#
#
#
# Elastic Constant Matrix: (Units=GPa)
#
#
# Indices 1 2 3 4 5 6 
#
# 1 143.1899 53.3350 30.9909 6.6825 31.6631 -25.5775
# 2 53.3350 90.7485 31.3678 9.5387 19.3126 -15.5696
# 3 30.9909 31.3678 69.7613 24.4112 20.1417 -5.5820
# 4 6.6825 9.5387 24.4112 29.4023 -2.3184 3.3101
# 5 31.6631 19.3126 20.1417 -2.3184 48.1187 0.0964
# 6 -25.5775 -15.5696 -5.5820 3.3101 0.0964 37.5528
#
#
#
# Elastic Compliance Matrix: (Units=1/GPa)
#
#
# Indices 1 2 3 4 5 6 
#
# 1 0.010889 -0.003867 -0.000253 -0.002126 -0.005622 0.005978
# 2 -0.003867 0.015910 -0.003943 -0.001585 -0.002274 0.003522
# 3 -0.000253 -0.003943 0.027866 -0.023166 -0.011040 0.004405
# 4 -0.002126 -0.001585 -0.023166 0.056573 0.014479 -0.010573
# 5 -0.005622 -0.002274 -0.011040 0.014479 0.030728 -0.007768
# 6 0.005978 0.003522 0.004405 -0.010573 -0.007768 0.033767
#
#
# Mechanical properties :
#
#
# Convention : Reuss Voigt Hill
#
# Bulk Modulus (GPa) = 25.94779 59.45413 42.70096
# Shear Modulus (GPa) = 24.42526 35.54850 29.98688
#
# Velocity S-wave (km/s) = 3.28330 3.96097 3.63795
# Velocity P-wave (km/s) = 5.08188 6.86725 6.04088
#
# Compressibility (1/GPa) = 0.03853893
#
# Stress axis : x y z
#
# Youngs Moduli (GPa) = 91.83700 62.85461 35.88563
#
# Poissons Ratio (x) = 0.24304 0.00909
# Poissons Ratio (y) = 0.35511 0.14150
# Poissons Ratio (z) = 0.02325 0.24784
#
# Static dielectric constant tensor:
#      x y z
#    x 3.961330 -0.311380 0.381540 
#    y -0.311380 4.355580 -0.178890 
#    z 0.381540 -0.178890 3.439240 
# 
# 
# High freq. dielectric constant tensor:
#      x y z
#    x 1.883100 -0.023810 0.017350 
#    y -0.023810 1.903680 0.012740 
#    z 0.017350 0.012740 1.895790 
# 
# From -- ./inp_files/273005.got.cif
#   From: 2010.06.25/outbox.cif.g09.slc.cpg/sg2_137_cif.got.tgz:273005.got - 2010.06.27 13:26:56.
