data_PCOD8005492
_publ_section_title
;
Structure prediction by ZEFSAII (Michael W. Deem and Ramdas Pophale) SiO2 
 PCOD8005492
Probable space group: P -1
;
_chemical_formula_sum "Si O2"
_cell_formula_units_Z 16
_cell_length_a 15.667002
_cell_length_b 23.655079
_cell_length_c 23.570934
_cell_angle_alpha 12.314755
_cell_angle_beta 26.805752
_cell_angle_gamma 27.458984
_cell_volume 829.455846
_symmetry_space_group_name_H-M "P -1"
_symmetry_group_IT_number 2
_symmetry_cell_setting 'triclinic'
loop_
_space_group_symop_operation_xyz
x,y,z
-x,-y,-z
loop_
_atom_site_type_symbol
_atom_site_label
_atom_site_fract_x
_atom_site_fract_y
_atom_site_fract_z
Si Si1 0.724915 0.755190 0.218715
Si Si2 0.304480 0.404722 0.094978
Si Si3 0.209260 0.739307 0.251199
Si Si4 0.361092 0.933088 0.197227
Si Si5 0.531023 0.116312 0.428241
Si Si6 0.360947 0.695204 0.089668
Si Si7 0.193525 0.221963 0.606076
Si Si8 0.137488 0.442728 0.790939
O O1 0.756521 0.519343 0.476309
O O2 0.495530 0.846985 0.256174
O O3 0.838313 0.669715 0.177187
O O4 0.812803 0.003509 0.947688
O O5 0.081892 0.465132 0.152731
O O6 0.341515 0.110636 0.387921
O O7 0.360124 0.624923 0.890657
O O8 0.428587 0.407085 0.961319
O O9 0.380968 0.728983 0.112950
O O10 0.022165 0.756909 0.306562
O O11 0.252900 0.689543 0.484075
O O12 0.500000 0.000000 0.000000
O O13 0.212881 0.210231 0.020520
O O14 0.320545 0.204843 0.490984
O O15 0.500000 0.000000 0.500000
O O16 0.219913 0.481487 0.371823
O O17 0.257675 0.968621 0.855882
#
# Coordination Sequence:
#
# PCOD8005492 Si02
#       8
#     2   2   2   2   2   2   2   2
#     4  11  23  34  56  88 109 136 177 232 293 317
#     4  10  22  36  57  81 105 151 190 217 265 336
#     4  12  22  35  58  81 112 143 188 239 261 325
#     4  10  20  39  58  82 116 145 171 224 288 342
#     4  10  21  34  52  78 120 145 175 233 276 313
#     4  10  21  40  54  77 111 152 192 222 267 314
#     4  10  21  35  55  78 108 154 191 220 270 320
#     4  11  21  37  62  82 114 143 183 221 273 361
#
# _framework density 19.289756000000001
#
# number of rings (size 3 to 8) (size 9 to 14) (size 15 to 20)
#    0.000    1.500    0.000    7.125    3.500    0.000 
#    0.000    0.000    0.000    4.500    0.000    0.000 
#    0.000    0.000    0.000    0.000    0.000    0.000 
#
# Total GULP energy -198394.499289 kJ/mol
# GULP energy per Si atom -12399.656206 kJ/mol
# Density = 1.924585 g / cm^3
# Si number density = 19.289756 Si / 1000 Ang^3
#
#
#
# Elastic Constant Matrix: (Units=GPa)
#
#
# Indices 1 2 3 4 5 6 
#
# 1 64.0533 43.8111 42.6153 1.4518 5.4494 -6.1032
# 2 43.8111 103.9337 32.8744 -4.2783 -2.0958 -19.2916
# 3 42.6153 32.8744 142.1828 -8.9970 -5.8308 -2.6638
# 4 1.4518 -4.2783 -8.9970 25.5755 -2.5467 3.9745
# 5 5.4494 -2.0958 -5.8308 -2.5467 33.2052 0.1561
# 6 -6.1032 -19.2916 -2.6638 3.9745 0.1561 23.8156
#
#
#
# Elastic Compliance Matrix: (Units=1/GPa)
#
#
# Indices 1 2 3 4 5 6 
#
# 1 0.027516 -0.010038 -0.006606 -0.006123 -0.006775 -0.000752
# 2 -0.010038 0.015914 -0.000256 0.001863 0.002703 0.009961
# 3 -0.006606 -0.000256 0.009434 0.004198 0.003054 -0.001565
# 4 -0.006123 0.001863 0.004198 0.042803 0.005174 -0.006767
# 5 -0.006775 0.002703 0.003054 0.005174 0.032333 -0.000281
# 6 -0.000752 0.009961 -0.001565 -0.006767 -0.000281 0.050822
#
#
# Mechanical properties :
#
#
# Convention : Reuss Voigt Hill
#
# Bulk Modulus (GPa) = 52.45068 60.97460 56.71264
# Shear Modulus (GPa) = 22.83383 29.24385 26.03884
#
# Velocity S-wave (km/s) = 3.44427 3.89785 3.67806
# Velocity P-wave (km/s) = 6.56257 7.20667 6.89215
#
# Compressibility (1/GPa) = 0.01906553
#
# Stress axis : x y z
#
# Youngs Moduli (GPa) = 36.34270 62.83917 106.00287
#
# Poissons Ratio (x) = 0.63076 0.70022
# Poissons Ratio (y) = 0.36479 0.02709
# Poissons Ratio (z) = 0.24007 0.01606
#
# Static dielectric constant tensor:
#      x y z
#    x 3.518490 -0.091060 0.119000 
#    y -0.091060 3.755470 -0.213980 
#    z 0.119000 -0.213980 3.873220 
# 
# 
# High freq. dielectric constant tensor:
#      x y z
#    x 1.732850 -0.004700 0.000630 
#    y -0.004700 1.748500 -0.011820 
#    z 0.000630 -0.011820 1.775350 
# 
# From -- ./inp_files/80128.got.cif
#   From: 2010.06.25/outbox.cif.g09.slc.cpg/sg2_41_cif.got.tgz:80128.got - 2010.06.27 13:26:56.
