data_PCOD8005871
_publ_section_title
;
Structure prediction by ZEFSAII (Michael W. Deem and Ramdas Pophale) SiO2 
 PCOD8005871
Probable space group: P -1
;
_chemical_formula_sum "Si O2"
_cell_formula_units_Z 16
_cell_length_a 12.219166
_cell_length_b 8.859725
_cell_length_c 19.076039
_cell_angle_alpha 49.729257
_cell_angle_beta 31.199581
_cell_angle_gamma 46.553415
_cell_volume 767.331531
_symmetry_space_group_name_H-M "P -1"
_symmetry_group_IT_number 2
_symmetry_cell_setting 'triclinic'
loop_
_space_group_symop_operation_xyz
x,y,z
-x,-y,-z
loop_
_atom_site_type_symbol
_atom_site_label
_atom_site_fract_x
_atom_site_fract_y
_atom_site_fract_z
Si Si1 0.883234 0.587699 0.759047
Si Si2 0.516530 0.024709 0.807535
Si Si3 0.278521 0.618651 0.625934
Si Si4 0.687325 0.985819 0.575027
Si Si5 0.428869 0.481694 0.736730
Si Si6 0.940302 0.415718 0.485065
Si Si7 0.167053 0.809755 0.042910
Si Si8 0.283604 0.843214 0.812240
O O1 0.729609 0.832323 0.775290
O O2 0.755961 0.426596 0.898166
O O3 0.081987 0.561607 0.712633
O O4 0.958745 0.513122 0.660718
O O5 0.559267 0.092487 0.684449
O O6 0.456106 0.243409 0.817849
O O7 0.306491 0.947633 0.955704
O O8 0.500000 0.500000 0.500000
O O9 0.290993 0.547789 0.720502
O O10 0.261683 0.861076 0.555362
O O11 0.529956 0.864716 0.664516
O O12 0.937921 0.835028 0.502709
O O13 0.677675 0.489243 0.592901
O O14 0.282487 0.651132 0.821416
O O15 0.000000 0.500000 0.500000
O O16 0.219639 0.778037 0.941915
O O17 0.906749 0.933371 0.169199
#
# Coordination Sequence:
#
# PCOD8005871 Si02
#       8
#     2   2   2   2   2   2   2   2
#     4  11  23  42  68  93 127 171 215 255 318 384
#     4  10  22  41  65  91 124 169 213 262 309 378
#     4  12  22  36  63  98 132 163 205 262 313 387
#     4  10  20  39  63  91 127 168 207 247 325 379
#     4  12  24  40  65 100 131 163 211 264 327 368
#     4  11  22  39  65  96 130 163 200 262 320 385
#     4  10  23  44  67  89 121 174 226 256 315 369
#     4  10  23  40  66  91 127 168 211 271 310 377
#
# _framework density 20.851483000000002
#
# number of rings (size 3 to 8) (size 9 to 14) (size 15 to 20)
#    0.000    1.250    3.750    1.875    3.500    4.000 
#    0.000    0.625    0.000    0.000    0.000    0.000 
#    0.000    0.000    0.000    0.000    0.000    0.000 
#
# Total GULP energy -198302.104714 kJ/mol
# GULP energy per Si atom -12393.881545 kJ/mol
# Density = 2.080402 g / cm^3
# Si number density = 20.851483 Si / 1000 Ang^3
#
#
#
# Elastic Constant Matrix: (Units=GPa)
#
#
# Indices 1 2 3 4 5 6 
#
# 1 100.6739 33.7458 22.8426 3.2821 0.8027 4.5103
# 2 33.7458 112.6393 43.3126 -16.3746 14.0274 10.6127
# 3 22.8426 43.3126 64.1263 -8.7578 3.0615 -1.2372
# 4 3.2821 -16.3746 -8.7578 33.9545 -3.6234 -0.2482
# 5 0.8027 14.0274 3.0615 -3.6234 13.8691 4.5977
# 6 4.5103 10.6127 -1.2372 -0.2482 4.5977 35.3572
#
#
#
# Elastic Compliance Matrix: (Units=1/GPa)
#
#
# Indices 1 2 3 4 5 6 
#
# 1 0.011714 -0.003203 -0.002574 -0.003064 0.002657 -0.000990
# 2 -0.003203 0.015277 -0.008098 0.004354 -0.011363 -0.002952
# 3 -0.002574 -0.008098 0.022228 0.002422 0.003017 0.003161
# 4 -0.003064 0.004354 0.002422 0.032914 0.004218 -0.001149
# 5 0.002657 -0.011363 0.003017 0.004218 0.086545 -0.008047
# 6 -0.000990 -0.002952 0.003161 -0.001149 -0.008047 0.030444
#
#
# Mechanical properties :
#
#
# Convention : Reuss Voigt Hill
#
# Bulk Modulus (GPa) = 46.57495 53.02680 49.80088
# Shear Modulus (GPa) = 21.36499 28.47206 24.91853
#
# Velocity S-wave (km/s) = 3.20445 3.69923 3.46070
# Velocity P-wave (km/s) = 6.00636 6.61299 6.31696
#
# Compressibility (1/GPa) = 0.02147077
#
# Stress axis : x y z
#
# Youngs Moduli (GPa) = 85.37040 65.45635 44.98796
#
# Poissons Ratio (x) = 0.20964 0.11579
# Poissons Ratio (y) = 0.27342 0.36430
# Poissons Ratio (z) = 0.21973 0.53005
#
# Static dielectric constant tensor:
#      x y z
#    x 2.419600 0.775080 -0.850810 
#    y 0.775080 3.236540 0.657150 
#    z -0.850810 0.657150 3.105620 
# 
# 
# High freq. dielectric constant tensor:
#      x y z
#    x 1.811660 -0.009850 -0.012230 
#    y -0.009850 1.829610 -0.001900 
#    z -0.012230 -0.001900 1.803170 
# 
# From -- ./inp_files/204269.got.cif
#   From: 2010.06.25/outbox.cif.g09.slc.cpg/sg2_103_cif.got.tgz:204269.got - 2010.06.27 13:26:56.
