data_PCOD8005661
_publ_section_title
;
Structure prediction by ZEFSAII (Michael W. Deem and Ramdas Pophale) SiO2 
 PCOD8005661
Probable space group: P -1
;
_chemical_formula_sum "Si O2"
_cell_formula_units_Z 14
_cell_length_a 28.278382
_cell_length_b 8.591740
_cell_length_c 22.312335
_cell_angle_alpha 138.217112
_cell_angle_beta 169.877946
_cell_angle_gamma 41.521501
_cell_volume 629.827551
_symmetry_space_group_name_H-M "P -1"
_symmetry_group_IT_number 2
_symmetry_cell_setting 'triclinic'
loop_
_space_group_symop_operation_xyz
x,y,z
-x,-y,-z
loop_
_atom_site_type_symbol
_atom_site_label
_atom_site_fract_x
_atom_site_fract_y
_atom_site_fract_z
Si Si1 0.319342 0.925453 0.699857
Si Si2 0.343801 0.607805 0.200336
Si Si3 0.394969 0.766203 0.930838
Si Si4 0.132191 0.070437 0.245718
Si Si5 0.905312 0.864527 0.256176
Si Si6 0.826572 0.440379 0.822294
Si Si7 0.668548 0.568264 0.475818
O O1 0.438105 0.667377 0.749052
O O2 0.013540 0.922834 0.341624
O O3 0.500000 0.000000 0.000000
O O4 0.343983 0.112444 0.731138
O O5 0.539522 0.607348 0.503728
O O6 0.498288 0.673449 0.351216
O O7 0.271276 0.346789 0.026834
O O8 0.084896 0.797432 0.941024
O O9 0.161404 0.784541 0.595138
O O10 0.276671 0.899836 0.881124
O O11 0.500000 0.500000 0.000000
O O12 0.356061 0.241140 0.554827
O O13 0.251113 0.827683 0.356221
O O14 0.000000 0.000000 0.000000
O O15 0.000000 0.500000 0.000000
O O16 0.005531 0.485180 0.117038
#
# Coordination Sequence:
#
# PCOD8005661 Si02
#       7
#     2   2   2   2   2   2   2
#     4  10  20  39  62  87 123 157 198 252 300 356
#     4  11  21  40  64  86 126 160 197 251 303 354
#     4  10  22  40  64  88 120 158 205 251 301 360
#     4  10  22  39  61  88 120 157 208 244 299 358
#     4  10  21  39  63  87 120 162 198 248 310 350
#     4   9  22  39  61  88 123 156 202 245 301 356
#     4  10  20  39  61  89 120 162 201 247 301 356
#
# _framework density 22.228307999999998
#
# number of rings (size 3 to 8) (size 9 to 14) (size 15 to 20)
#    0.000    2.000    2.857    0.000    0.000    9.143 
#    0.000    2.857    0.000    0.000    0.000    0.000 
#    0.000    0.000    0.000    0.000    0.000    0.000 
#
# Total GULP energy -173483.845176 kJ/mol
# GULP energy per Si atom -12391.703227 kJ/mol
# Density = 2.217772 g / cm^3
# Si number density = 22.228308 Si / 1000 Ang^3
#
#
#
# Elastic Constant Matrix: (Units=GPa)
#
#
# Indices 1 2 3 4 5 6 
#
# 1 90.0000 45.1961 21.6279 -0.6872 32.4993 1.8877
# 2 45.1961 130.2488 14.2553 10.2946 16.8680 13.1466
# 3 21.6279 14.2553 46.3584 6.4892 17.1335 6.7004
# 4 -0.6872 10.2946 6.4892 36.1052 -3.2594 9.4330
# 5 32.4993 16.8680 17.1335 -3.2594 38.4493 12.1745
# 6 1.8877 13.1466 6.7004 9.4330 12.1745 42.2001
#
#
#
# Elastic Compliance Matrix: (Units=1/GPa)
#
#
# Indices 1 2 3 4 5 6 
#
# 1 0.019593 -0.005088 -0.002818 -0.000462 -0.014869 0.005549
# 2 -0.005088 0.009798 -0.000248 -0.002121 0.000732 -0.002522
# 3 -0.002818 -0.000248 0.027595 -0.005910 -0.010348 0.000128
# 4 -0.000462 -0.002121 -0.005910 0.032367 0.009328 -0.008307
# 5 -0.014869 0.000732 -0.010348 0.009328 0.048048 -0.013867
# 6 0.005549 -0.002522 0.000128 -0.008307 -0.013867 0.030071
#
#
# Mechanical properties :
#
#
# Convention : Reuss Voigt Hill
#
# Bulk Modulus (GPa) = 24.58388 47.64065 36.11226
# Shear Modulus (GPa) = 25.33702 35.71945 30.52824
#
# Velocity S-wave (km/s) = 3.37983 4.01301 3.70995
# Velocity P-wave (km/s) = 5.12979 6.55372 5.88498
#
# Compressibility (1/GPa) = 0.04067706
#
# Stress axis : x y z
#
# Youngs Moduli (GPa) = 51.03900 102.06373 36.23821
#
# Poissons Ratio (x) = 0.51932 0.10212
# Poissons Ratio (y) = 0.25970 0.00899
# Poissons Ratio (z) = 0.14383 0.02532
#
# Static dielectric constant tensor:
#      x y z
#    x 4.564220 0.395810 0.353810 
#    y 0.395810 4.363790 0.284150 
#    z 0.353810 0.284150 4.317590 
# 
# 
# High freq. dielectric constant tensor:
#      x y z
#    x 1.880470 0.001860 0.021940 
#    y 0.001860 1.870470 0.026490 
#    z 0.021940 0.026490 1.861300 
# 
# From -- ./inp_files/49219.got.cif
#   From: 2010.06.25/outbox.cif.g09.slc.cpg/sg2_25_cif.got.tgz:49219.got - 2010.06.27 13:26:56.
