data_PCOD8005212
_publ_section_title
;
Structure prediction by ZEFSAII (Michael W. Deem and Ramdas Pophale) SiO2 
 PCOD8005212
Probable space group: P -1
;
_chemical_formula_sum "Si O2"
_cell_formula_units_Z 16
_cell_length_a 28.228083
_cell_length_b 12.514965
_cell_length_c 9.951809
_cell_angle_alpha 38.516012
_cell_angle_beta 150.918654
_cell_angle_gamma 153.617538
_cell_volume 759.328430
_symmetry_space_group_name_H-M "P -1"
_symmetry_group_IT_number 2
_symmetry_cell_setting 'triclinic'
loop_
_space_group_symop_operation_xyz
x,y,z
-x,-y,-z
loop_
_atom_site_type_symbol
_atom_site_label
_atom_site_fract_x
_atom_site_fract_y
_atom_site_fract_z
Si Si1 0.464674 0.194462 0.786712
Si Si2 0.159862 0.885221 0.294249
Si Si3 0.398832 0.459861 0.973244
Si Si4 0.379984 0.519971 0.579764
Si Si5 0.870332 0.848382 0.236573
Si Si6 0.630476 0.273975 0.894080
Si Si7 0.900216 0.565607 0.416794
Si Si8 0.106344 0.991199 0.327422
O O1 0.577002 0.354591 0.787677
O O2 0.321791 0.073109 0.486589
O O3 0.499944 0.350770 0.847980
O O4 0.464600 0.003860 0.035139
O O5 0.087951 0.619382 0.325371
O O6 0.131284 0.878184 0.387537
O O7 0.100539 0.976663 0.979635
O O8 0.370446 0.551288 0.684650
O O9 0.254480 0.237951 0.899354
O O10 0.472097 0.383360 0.171072
O O11 0.384415 0.696964 0.327489
O O12 0.250290 0.248273 0.476531
O O13 0.844265 0.623367 0.337688
O O14 0.000000 0.000000 0.500000
O O15 0.789713 0.431274 0.155215
O O16 0.044077 0.815065 0.474721
O O17 0.000000 0.000000 0.000000
#
# Coordination Sequence:
#
# PCOD8005212 Si02
#       8
#     2   2   2   2   2   2   2   2
#     4  10  21  39  66  95 123 159 214 266 314 380
#     4  11  24  41  67  96 125 167 216 272 317 376
#     4  11  24  40  61  94 128 167 214 262 321 384
#     4  11  23  40  63  90 131 172 210 261 323 381
#     4  12  25  43  67  92 130 173 212 263 327 387
#     4  10  20  38  65  94 123 163 210 263 318 378
#     4  11  23  40  65  98 128 162 221 266 316 382
#     4  12  21  39  66  94 126 171 214 262 320 381
#
# _framework density 21.071252000000001
#
# number of rings (size 3 to 8) (size 9 to 14) (size 15 to 20)
#    0.000    1.000    5.000    1.875    0.000    2.000 
#    0.000    0.000    2.750    0.000    0.000    0.000 
#    0.000    0.000    0.000    0.000    0.000    0.000 
#
# Total GULP energy -198359.654731 kJ/mol
# GULP energy per Si atom -12397.478421 kJ/mol
# Density = 2.102329 g / cm^3
# Si number density = 21.071252 Si / 1000 Ang^3
#
#
#
# Elastic Constant Matrix: (Units=GPa)
#
#
# Indices 1 2 3 4 5 6 
#
# 1 61.6803 11.1494 10.6730 -2.3950 4.4954 11.3421
# 2 11.1494 78.6545 28.6282 -1.8198 4.5927 8.4717
# 3 10.6730 28.6282 79.2989 -1.0713 -8.7485 -2.3315
# 4 -2.3950 -1.8198 -1.0713 29.8264 4.8452 7.4014
# 5 4.4954 4.5927 -8.7485 4.8452 36.9258 -0.3023
# 6 11.3421 8.4717 -2.3315 7.4014 -0.3023 33.3682
#
#
#
# Elastic Compliance Matrix: (Units=1/GPa)
#
#
# Indices 1 2 3 4 5 6 
#
# 1 0.018517 -0.000531 -0.002838 0.003694 -0.003404 -0.007208
# 2 -0.000531 0.015833 -0.006166 0.002515 -0.003735 -0.004862
# 3 -0.002838 -0.006166 0.015882 -0.001890 0.005157 0.004106
# 4 0.003694 0.002515 -0.001890 0.037500 -0.006216 -0.010401
# 5 -0.003404 -0.003735 0.005157 -0.006216 0.030031 0.004117
# 6 -0.007208 -0.004862 0.004106 -0.010401 0.004117 0.036284
#
#
# Mechanical properties :
#
#
# Convention : Reuss Voigt Hill
#
# Bulk Modulus (GPa) = 32.08964 35.61497 33.85231
# Shear Modulus (GPa) = 27.24720 31.30297 29.27508
#
# Velocity S-wave (km/s) = 3.59987 3.85850 3.73143
# Velocity P-wave (km/s) = 5.70446 6.06544 5.88772
#
# Compressibility (1/GPa) = 0.03116270
#
# Stress axis : x y z
#
# Youngs Moduli (GPa) = 54.00544 63.15843 62.96248
#
# Poissons Ratio (x) = 0.03355 0.17869
# Poissons Ratio (y) = 0.02869 0.38820
# Poissons Ratio (z) = 0.15327 0.38941
#
# Static dielectric constant tensor:
#      x y z
#    x 4.028340 0.053090 0.015050 
#    y 0.053090 3.856740 -0.052360 
#    z 0.015050 -0.052360 3.845300 
# 
# 
# High freq. dielectric constant tensor:
#      x y z
#    x 1.833040 0.014040 0.004260 
#    y 0.014040 1.813210 0.004600 
#    z 0.004260 0.004600 1.820900 
# 
# From -- ./inp_files/203098.got.cif
#   From: 2010.06.25/outbox.cif.g09.slc.cpg/sg2_102_cif.got.tgz:203098.got - 2010.06.27 13:26:56.
