data_PCOD8005635
_publ_section_title
;
Structure prediction by ZEFSAII (Michael W. Deem and Ramdas Pophale) SiO2 
 PCOD8005635
Probable space group: P -1
;
_chemical_formula_sum "Si O2"
_cell_formula_units_Z 16
_cell_length_a 14.284536
_cell_length_b 10.592971
_cell_length_c 20.257628
_cell_angle_alpha 30.019894
_cell_angle_beta 22.070841
_cell_angle_gamma 39.422760
_cell_volume 568.897373
_symmetry_space_group_name_H-M "P -1"
_symmetry_group_IT_number 2
_symmetry_cell_setting 'triclinic'
loop_
_space_group_symop_operation_xyz
x,y,z
-x,-y,-z
loop_
_atom_site_type_symbol
_atom_site_label
_atom_site_fract_x
_atom_site_fract_y
_atom_site_fract_z
Si Si1 0.212344 0.377622 0.681537
Si Si2 0.974412 0.454737 0.148398
Si Si3 0.856985 0.967268 0.677456
Si Si4 0.167349 0.722902 0.328698
Si Si5 0.952302 0.088355 0.216940
Si Si6 0.561469 0.874076 0.190267
Si Si7 0.338366 0.860168 0.861267
Si Si8 0.508786 0.666282 0.712000
O O1 0.372005 0.605748 0.433803
O O2 0.238910 0.429560 0.721522
O O3 0.300852 0.109372 0.730079
O O4 0.917524 0.340575 0.869976
O O5 0.862206 0.309766 0.221230
O O6 0.085770 0.283132 0.208940
O O7 0.223163 0.668976 0.868481
O O8 0.940193 0.216488 0.556683
O O9 0.554746 0.954255 0.866900
O O10 0.000000 0.000000 0.500000
O O11 0.435809 0.621908 0.206965
O O12 0.000000 0.500000 0.500000
O O13 0.163193 0.973910 0.173989
O O14 0.146930 0.186205 0.984593
O O15 0.714399 0.878878 0.444863
O O16 0.537083 0.042048 0.195627
O O17 0.525573 0.728252 0.751873
#
# Coordination Sequence:
#
# PCOD8005635 Si02
#       8
#     2   2   2   2   2   2   2   2
#     4  10  22  44  64  89 123 166 216 267 316 372
#     4  10  20  41  64  86 125 174 197 252 325 374
#     4  11  22  37  63 101 132 160 210 265 314 385
#     4   9  20  37  60  86 132 175 199 246 316 384
#     4  10  22  37  60  91 128 161 206 254 310 388
#     4  12  23  38  64  97 128 161 207 273 318 368
#     4  10  24  42  66  89 122 168 221 263 311 377
#     4  10  20  39  61  85 118 171 208 243 308 377
#
# _framework density 28.124580999999999
#
# number of rings (size 3 to 8) (size 9 to 14) (size 15 to 20)
#    0.000    1.750    1.250    2.625    3.500    5.000 
#    0.000    6.875    0.000    6.750    0.000    0.000 
#    0.000    0.000    0.000    0.000    0.000    0.000 
#
# Total GULP energy -198293.176046 kJ/mol
# GULP energy per Si atom -12393.323503 kJ/mol
# Density = 2.806057 g / cm^3
# Si number density = 28.124581 Si / 1000 Ang^3
#
#
#
# Elastic Constant Matrix: (Units=GPa)
#
#
# Indices 1 2 3 4 5 6 
#
# 1 51.2002 6.6866 11.5001 -7.6277 -7.3112 14.3256
# 2 6.6866 129.8415 21.5845 8.6122 -1.5902 27.9521
# 3 11.5001 21.5845 137.2974 0.4631 -0.8243 -6.6833
# 4 -7.6277 8.6122 0.4631 40.7263 1.8631 -4.4647
# 5 -7.3112 -1.5902 -0.8243 1.8631 35.8580 -4.9211
# 6 14.3256 27.9521 -6.6833 -4.4647 -4.9211 41.8950
#
#
#
# Elastic Compliance Matrix: (Units=1/GPa)
#
#
# Indices 1 2 3 4 5 6 
#
# 1 0.023211 0.000792 -0.002454 0.003161 0.003433 -0.008117
# 2 0.000792 0.009757 -0.001954 -0.002691 -0.000329 -0.007418
# 3 -0.002454 -0.001954 0.007963 0.000238 0.000057 0.003445
# 4 0.003161 -0.002691 0.000238 0.026111 -0.000346 0.003495
# 5 0.003433 -0.000329 0.000057 -0.000346 0.028924 0.002415
# 6 -0.008117 -0.007418 0.003445 0.003495 0.002415 0.032800
#
#
# Mechanical properties :
#
#
# Convention : Reuss Voigt Hill
#
# Bulk Modulus (GPa) = 29.67350 44.20907 36.94129
# Shear Modulus (GPa) = 33.96011 42.26706 38.11358
#
# Velocity S-wave (km/s) = 3.47866 3.88087 3.68526
# Velocity P-wave (km/s) = 5.16802 5.98621 5.59210
#
# Compressibility (1/GPa) = 0.03370010
#
# Stress axis : x y z
#
# Youngs Moduli (GPa) = 43.08295 102.48883 125.57322
#
# Poissons Ratio (x) = -0.08121 0.30814
# Poissons Ratio (y) = -0.03414 0.24541
# Poissons Ratio (z) = 0.10572 0.20029
#
# Static dielectric constant tensor:
#      x y z
#    x 5.257260 -0.438750 -0.022510 
#    y -0.438750 6.752490 0.234220 
#    z -0.022510 0.234220 4.932030 
# 
# 
# High freq. dielectric constant tensor:
#      x y z
#    x 2.141410 -0.005960 -0.002350 
#    y -0.005960 2.165660 0.004750 
#    z -0.002350 0.004750 2.130830 
# 
# From -- ./inp_files/579172.got.cif
#   From: 2010.06.25/outbox.cif.g09.slc.cpg/sg2_290_cif.got.tgz:579172.got - 2010.06.27 13:26:56.
