data_PCOD8005276
_publ_section_title
;
Structure prediction by ZEFSAII (Michael W. Deem and Ramdas Pophale) SiO2 
 PCOD8005276
Probable space group: P -1
;
_chemical_formula_sum "Si O2"
_cell_formula_units_Z 14
_cell_length_a 9.445252
_cell_length_b 21.088718
_cell_length_c 12.337607
_cell_angle_alpha 27.586708
_cell_angle_beta 36.620712
_cell_angle_gamma 37.237009
_cell_volume 646.097021
_symmetry_space_group_name_H-M "P -1"
_symmetry_group_IT_number 2
_symmetry_cell_setting 'triclinic'
loop_
_space_group_symop_operation_xyz
x,y,z
-x,-y,-z
loop_
_atom_site_type_symbol
_atom_site_label
_atom_site_fract_x
_atom_site_fract_y
_atom_site_fract_z
Si Si1 0.221632 0.042111 0.151682
Si Si2 0.494546 0.105906 0.439776
Si Si3 0.833132 0.272366 0.911805
Si Si4 0.925119 0.437673 0.030613
Si Si5 0.590607 0.544927 0.765066
Si Si6 0.885497 0.871033 0.682232
Si Si7 0.887722 0.679807 0.517225
O O1 0.161683 0.146755 0.134553
O O2 0.147585 0.899561 0.447649
O O3 0.052420 0.130761 0.025388
O O4 0.500000 0.000000 0.000000
O O5 0.228231 0.181662 0.544427
O O6 0.500000 0.000000 0.500000
O O7 0.670931 0.013224 0.563083
O O8 0.573480 0.240040 0.141532
O O9 0.817914 0.416140 0.770920
O O10 0.867805 0.299362 0.721666
O O11 0.963998 0.533939 0.760670
O O12 0.645692 0.419191 0.227352
O O13 0.000000 0.500000 0.000000
O O14 0.118898 0.277102 0.145613
O O15 0.702983 0.673025 0.538251
O O16 0.500000 0.500000 0.000000
#
# Coordination Sequence:
#
# PCOD8005276 Si02
#       7
#     2   2   2   2   2   2   2
#     4  10  21  38  62  94 125 154 203 264 315 361
#     4  11  23  42  65  89 127 170 207 255 314 381
#     4  11  22  39  67  95 122 164 215 260 311 373
#     4  11  23  42  65  92 129 170 207 259 323 372
#     4  10  20  38  66  91 123 163 210 259 309 369
#     4  10  23  37  62  90 125 160 203 253 317 370
#     4  11  23  41  69  94 123 165 218 260 310 379
#
# _framework density 21.668572999999999
#
# number of rings (size 3 to 8) (size 9 to 14) (size 15 to 20)
#    0.000    1.429    2.857    3.857    6.000    0.571 
#    0.000    2.143    0.000    0.000    0.000    0.000 
#    0.000    0.000    0.000    0.000    0.000    0.000 
#
# Total GULP energy -173491.320356 kJ/mol
# GULP energy per Si atom -12392.237168 kJ/mol
# Density = 2.161925 g / cm^3
# Si number density = 21.668573 Si / 1000 Ang^3
#
#
#
# Elastic Constant Matrix: (Units=GPa)
#
#
# Indices 1 2 3 4 5 6 
#
# 1 79.5185 14.0647 17.5350 -1.7839 0.5070 22.4562
# 2 14.0647 133.7752 51.8164 4.9275 4.8557 32.5609
# 3 17.5350 51.8164 85.8626 7.8692 20.8135 15.9916
# 4 -1.7839 4.9275 7.8692 38.9415 10.3448 -4.2415
# 5 0.5070 4.8557 20.8135 10.3448 18.9124 -4.6815
# 6 22.4562 32.5609 15.9916 -4.2415 -4.6815 40.8779
#
#
#
# Elastic Compliance Matrix: (Units=1/GPa)
#
#
# Indices 1 2 3 4 5 6 
#
# 1 0.015276 0.001375 -0.002213 0.000181 -0.000571 -0.008668
# 2 0.001375 0.011576 -0.006602 -0.001765 0.003445 -0.007182
# 3 -0.002213 -0.006602 0.023320 0.002502 -0.026625 -0.005438
# 4 0.000181 -0.001765 0.002502 0.030510 -0.018658 0.001357
# 5 -0.000571 0.003445 -0.026625 -0.018658 0.095724 0.017012
# 6 -0.008668 -0.007182 -0.005438 0.001357 0.017012 0.039162
#
#
# Mechanical properties :
#
#
# Convention : Reuss Voigt Hill
#
# Bulk Modulus (GPa) = 28.33552 51.77650 40.05601
# Shear Modulus (GPa) = 20.64301 34.12907 27.38604
#
# Velocity S-wave (km/s) = 3.08988 3.97299 3.55894
# Velocity P-wave (km/s) = 5.08282 6.70767 5.95096
#
# Compressibility (1/GPa) = 0.03529139
#
# Stress axis : x y z
#
# Youngs Moduli (GPa) = 65.46176 86.38487 42.88115
#
# Poissons Ratio (x) = -0.11879 0.09490
# Poissons Ratio (y) = -0.09001 0.28312
# Poissons Ratio (z) = 0.14488 0.57035
#
# Static dielectric constant tensor:
#      x y z
#    x 4.055000 -0.116150 -0.010080 
#    y -0.116150 4.010620 -0.057870 
#    z -0.010080 -0.057870 3.937780 
# 
# 
# High freq. dielectric constant tensor:
#      x y z
#    x 1.827980 0.012180 0.008670 
#    y 0.012180 1.859730 -0.005170 
#    z 0.008670 -0.005170 1.847750 
# 
# From -- ./inp_files/257265.got.cif
#   From: 2010.06.25/outbox.cif.g09.slc.cpg/sg2_129_cif.got.tgz:257265.got - 2010.06.27 13:26:56.
