data_PCOD8005043
_publ_section_title
;
Structure prediction by ZEFSAII (Michael W. Deem and Ramdas Pophale) SiO2 
 PCOD8005043
Probable space group: P -1
;
_chemical_formula_sum "Si O2"
_cell_formula_units_Z 16
_cell_length_a 13.799403
_cell_length_b 14.178632
_cell_length_c 11.894105
_cell_angle_alpha 138.420547
_cell_angle_beta 129.457446
_cell_angle_gamma 29.546079
_cell_volume 760.770929
_symmetry_space_group_name_H-M "P -1"
_symmetry_group_IT_number 2
_symmetry_cell_setting 'triclinic'
loop_
_space_group_symop_operation_xyz
x,y,z
-x,-y,-z
loop_
_atom_site_type_symbol
_atom_site_label
_atom_site_fract_x
_atom_site_fract_y
_atom_site_fract_z
Si Si1 0.318841 0.468584 0.304204
Si Si2 0.161655 0.673377 0.904928
Si Si3 0.731636 0.173805 0.029060
Si Si4 0.395561 0.005909 0.269515
Si Si5 0.208081 0.307974 0.605639
Si Si6 0.737231 0.200583 0.316974
Si Si7 0.916247 0.305932 0.890554
Si Si8 0.849672 0.643673 0.786159
O O1 0.553820 0.278454 0.306546
O O2 0.227672 0.676897 0.493240
O O3 0.243162 0.530254 0.176294
O O4 0.258190 0.375994 0.234889
O O5 0.297898 0.665013 0.930159
O O6 0.198875 0.481534 0.717424
O O7 0.201048 0.648215 0.045401
O O8 0.936557 0.912521 0.929729
O O9 0.704411 0.249501 0.203592
O O10 0.574485 0.191166 0.891113
O O11 0.234829 0.191127 0.409719
O O12 0.322218 0.125102 0.201259
O O13 0.608929 0.883581 0.346766
O O14 0.007453 0.433588 0.630711
O O15 0.929765 0.944613 0.261438
O O16 0.032002 0.349447 0.042984
#
# Coordination Sequence:
#
# PCOD8005043 Si02
#       8
#     2   2   2   2   2   2   2   2
#     4  11  25  40  64  87 121 167 209 248 304 355
#     4   9  20  37  64  92 117 158 197 246 313 363
#     4  10  20  38  64  89 121 158 201 248 311 363
#     4  11  22  40  59  94 128 156 203 249 308 371
#     4  10  23  38  61  92 129 156 199 254 304 373
#     4  10  23  43  59  89 122 160 205 260 297 359
#     4  10  21  42  61  93 122 157 207 254 299 364
#     4  11  23  40  64  89 121 169 199 253 308 355
#
# _framework density 21.031298
#
# number of rings (size 3 to 8) (size 9 to 14) (size 15 to 20)
#    0.000    1.750    3.750    1.125    5.250    4.000 
#    0.000    1.250    0.000    0.000    0.000    0.000 
#    0.000    0.000    0.000    0.000    0.000    0.000 
#
# Total GULP energy -198430.930880 kJ/mol
# GULP energy per Si atom -12401.933180 kJ/mol
# Density = 2.098343 g / cm^3
# Si number density = 21.031298 Si / 1000 Ang^3
#
#
#
# Elastic Constant Matrix: (Units=GPa)
#
#
# Indices 1 2 3 4 5 6 
#
# 1 118.3873 24.1133 19.7995 -1.8972 1.3898 25.7624
# 2 24.1133 46.3870 16.3519 -5.9229 -1.0807 8.5030
# 3 19.7995 16.3519 83.2354 -9.0489 -0.3237 14.4434
# 4 -1.8972 -5.9229 -9.0489 34.3034 -3.4461 -4.9660
# 5 1.3898 -1.0807 -0.3237 -3.4461 16.5313 3.9982
# 6 25.7624 8.5030 14.4434 -4.9660 3.9982 21.4033
#
#
#
# Elastic Compliance Matrix: (Units=1/GPa)
#
#
# Indices 1 2 3 4 5 6 
#
# 1 0.012235 -0.004039 0.000108 -0.001840 0.001697 -0.013940
# 2 -0.004039 0.025859 -0.003207 0.003286 0.003407 -0.003122
# 3 0.000108 -0.003207 0.014349 0.002268 0.002590 -0.008497
# 4 -0.001840 0.003286 0.002268 0.031600 0.005633 0.005658
# 5 0.001697 0.003407 0.002590 0.005633 0.065693 -0.016109
# 6 -0.013940 -0.003122 -0.008497 0.005658 -0.016109 0.074797
#
#
# Mechanical properties :
#
#
# Convention : Reuss Voigt Hill
#
# Bulk Modulus (GPa) = 26.19922 40.94878 33.57400
# Shear Modulus (GPa) = 19.87822 26.96394 23.42108
#
# Velocity S-wave (km/s) = 3.07770 3.58451 3.34073
# Velocity P-wave (km/s) = 5.01138 6.05345 5.55690
#
# Compressibility (1/GPa) = 0.03816908
#
# Stress axis : x y z
#
# Youngs Moduli (GPa) = 81.73032 38.67142 69.68891
#
# Poissons Ratio (x) = 0.15618 -0.00756
# Poissons Ratio (y) = 0.33007 0.22351
# Poissons Ratio (z) = -0.00886 0.12403
#
# Static dielectric constant tensor:
#      x y z
#    x 3.757350 -0.021020 -0.029110 
#    y -0.021020 3.744980 0.071070 
#    z -0.029110 0.071070 3.859710 
# 
# 
# High freq. dielectric constant tensor:
#      x y z
#    x 1.808680 -0.003590 -0.004330 
#    y -0.003590 1.829280 0.001190 
#    z -0.004330 0.001190 1.832340 
# 
# From -- ./inp_files/455090.got.cif
#   From: 2010.06.25/outbox.cif.g09.slc.cpg/sg2_228_cif.got.tgz:455090.got - 2010.06.27 13:26:56.
