data_PCOD8005509
_publ_section_title
;
Structure prediction by ZEFSAII (Michael W. Deem and Ramdas Pophale) SiO2 
 PCOD8005509
Probable space group: P -1
;
_chemical_formula_sum "Si O2"
_cell_formula_units_Z 16
_cell_length_a 15.301757
_cell_length_b 15.645329
_cell_length_c 16.625689
_cell_angle_alpha 29.662799
_cell_angle_beta 25.601316
_cell_angle_gamma 28.082177
_cell_volume 755.215892
_symmetry_space_group_name_H-M "P -1"
_symmetry_group_IT_number 2
_symmetry_cell_setting 'triclinic'
loop_
_space_group_symop_operation_xyz
x,y,z
-x,-y,-z
loop_
_atom_site_type_symbol
_atom_site_label
_atom_site_fract_x
_atom_site_fract_y
_atom_site_fract_z
Si Si1 0.103827 0.355957 0.221967
Si Si2 0.797021 0.712900 0.497627
Si Si3 0.502334 0.918708 0.977346
Si Si4 0.909307 0.119177 0.821988
Si Si5 0.115919 0.222676 0.938082
Si Si6 0.570314 0.809810 0.770986
Si Si7 0.703174 0.368519 0.639723
Si Si8 0.406923 0.232375 0.550227
O O1 0.263850 0.337552 0.180407
O O2 0.040572 0.568666 0.061083
O O3 0.875702 0.343211 0.444820
O O4 0.240018 0.182055 0.188085
O O5 0.638879 0.724568 0.694795
O O6 0.642550 0.762801 0.506926
O O7 0.000000 0.500000 0.500000
O O8 0.900050 0.866907 0.292151
O O9 0.434220 0.745131 0.179282
O O10 0.500000 0.000000 0.000000
O O11 0.338671 0.093368 0.912578
O O12 0.846598 0.283803 0.671422
O O13 0.687249 0.151204 0.030986
O O14 0.015520 0.906043 0.865065
O O15 0.181600 0.278752 0.751449
O O16 0.593724 0.010843 0.595602
O O17 0.527865 0.597200 0.616759
#
# Coordination Sequence:
#
# PCOD8005509 Si02
#       8
#     2   2   2   2   2   2   2   2
#     4  11  20  41  68  87 127 168 195 253 313 359
#     4  12  22  36  57  88 126 163 213 256 288 348
#     4  11  24  44  67  95 124 151 203 260 304 382
#     4  10  20  39  58  88 123 161 210 252 296 353
#     4   9  21  40  64  90 123 162 204 247 308 369
#     4  11  22  38  60  88 122 171 206 248 304 350
#     4  10  20  41  64  91 121 162 204 246 313 369
#     4  10  20  39  59  88 126 162 208 255 292 363
#
# _framework density 21.185994000000001
#
# number of rings (size 3 to 8) (size 9 to 14) (size 15 to 20)
#    0.000    1.500    6.250    1.125    0.000    4.500 
#    0.000    2.500    0.000    0.000    0.000    0.000 
#    0.000    0.000    0.000    0.000    0.000    0.000 
#
# Total GULP energy -198329.058538 kJ/mol
# GULP energy per Si atom -12395.566159 kJ/mol
# Density = 2.113777 g / cm^3
# Si number density = 21.185994 Si / 1000 Ang^3
#
#
#
# Elastic Constant Matrix: (Units=GPa)
#
#
# Indices 1 2 3 4 5 6 
#
# 1 77.3885 38.9751 27.3500 -1.4436 5.9939 28.5047
# 2 38.9751 141.2846 40.4220 -17.6144 13.5200 10.5701
# 3 27.3500 40.4220 83.8251 -6.7917 5.0849 12.6475
# 4 -1.4436 -17.6144 -6.7917 36.7274 4.4447 6.0362
# 5 5.9939 13.5200 5.0849 4.4447 23.2358 3.7104
# 6 28.5047 10.5701 12.6475 6.0362 3.7104 28.0153
#
#
#
# Elastic Compliance Matrix: (Units=1/GPa)
#
#
# Indices 1 2 3 4 5 6 
#
# 1 0.024066 -0.003979 -0.002353 0.002312 -0.000245 -0.022388
# 2 -0.003979 0.010003 -0.003055 0.004479 -0.005202 0.001377
# 3 -0.002353 -0.003055 0.014886 0.001849 -0.000671 -0.003483
# 4 0.002312 0.004479 0.001849 0.032568 -0.008109 -0.010820
# 5 -0.000245 -0.005202 -0.000671 -0.008109 0.048163 -0.002117
# 6 -0.022388 0.001377 -0.003483 -0.010820 -0.002117 0.062138
#
#
# Mechanical properties :
#
#
# Convention : Reuss Voigt Hill
#
# Bulk Modulus (GPa) = 33.13305 57.33249 45.23277
# Shear Modulus (GPa) = 22.65941 30.64577 26.65259
#
# Velocity S-wave (km/s) = 3.27394 3.80743 3.55072
# Velocity P-wave (km/s) = 5.47400 6.81535 6.18116
#
# Compressibility (1/GPa) = 0.03018134
#
# Stress axis : x y z
#
# Youngs Moduli (GPa) = 41.55263 99.97323 67.17532
#
# Poissons Ratio (x) = 0.39779 0.15808
# Poissons Ratio (y) = 0.16534 0.20519
# Poissons Ratio (z) = 0.09778 0.30538
#
# Static dielectric constant tensor:
#      x y z
#    x 3.483510 0.123630 0.180040 
#    y 0.123630 4.203420 -0.201350 
#    z 0.180040 -0.201350 3.975970 
# 
# 
# High freq. dielectric constant tensor:
#      x y z
#    x 1.787780 0.007880 0.009710 
#    y 0.007880 1.848590 -0.009620 
#    z 0.009710 -0.009620 1.834130 
# 
# From -- ./inp_files/212380.got.cif
#   From: 2010.06.25/outbox.cif.g09.slc.cpg/sg2_107_cif.got.tgz:212380.got - 2010.06.27 13:26:56.
