data_PCOD8005306
_publ_section_title
;
Structure prediction by ZEFSAII (Michael W. Deem and Ramdas Pophale) SiO2 
 PCOD8005306
Probable space group: P -1
;
_chemical_formula_sum "Si O2"
_cell_formula_units_Z 16
_cell_length_a 10.167822
_cell_length_b 14.875465
_cell_length_c 5.474376
_cell_angle_alpha 64.664514
_cell_angle_beta 99.592098
_cell_angle_gamma 96.141938
_cell_volume 737.311076
_symmetry_space_group_name_H-M "P -1"
_symmetry_group_IT_number 2
_symmetry_cell_setting 'triclinic'
loop_
_space_group_symop_operation_xyz
x,y,z
-x,-y,-z
loop_
_atom_site_type_symbol
_atom_site_label
_atom_site_fract_x
_atom_site_fract_y
_atom_site_fract_z
Si Si1 0.147713 0.529558 0.256440
Si Si2 0.593458 0.426333 0.982349
Si Si3 0.406748 0.285229 0.853667
Si Si4 0.733656 0.759873 0.652656
Si Si5 0.242343 0.684646 0.479316
Si Si6 0.590533 0.949025 0.392717
Si Si7 0.011124 0.338474 0.290249
Si Si8 0.396839 0.855130 0.072570
O O1 0.201999 0.578929 0.464293
O O2 0.084014 0.418403 0.407255
O O3 0.271608 0.515790 0.127659
O O4 0.038327 0.600598 0.028453
O O5 0.633383 0.335760 0.280512
O O6 0.500000 0.500000 0.000000
O O7 0.512564 0.379746 0.778120
O O8 0.335405 0.280633 0.573378
O O9 0.496458 0.188304 0.036287
O O10 0.313037 0.298614 0.047120
O O11 0.711045 0.876470 0.575144
O O12 0.890435 0.744527 0.680077
O O13 0.113277 0.719113 0.549668
O O14 0.280311 0.772555 0.196696
O O15 0.483079 0.877509 0.310950
O O16 0.500000 0.000000 0.500000
O O17 0.661404 0.041205 0.157286
#
# Coordination Sequence:
#
# PCOD8005306 Si02
#       8
#     2   2   2   2   2   2   2   2
#     4  10  22  41  62  86 125 177 227 262 314 384
#     4  11  23  36  59  95 130 167 215 274 332 383
#     4  11  22  39  62  98 131 168 209 275 336 388
#     4  11  24  40  67  94 135 170 218 275 326 394
#     4  11  23  40  64  88 130 176 217 266 318 391
#     4  10  20  38  66  95 127 161 207 273 341 400
#     4  10  24  41  61  90 124 181 227 259 314 383
#     4  10  21  38  63  95 125 163 211 265 338 395
#
# _framework density 21.700475000000001
#
# number of rings (size 3 to 8) (size 9 to 14) (size 15 to 20)
#    0.000    1.500    2.500    2.625    3.500    0.500 
#    0.000    0.625    0.000    1.500    0.000    0.000 
#    0.000    0.000    0.000    0.000    0.000    0.000 
#
# Total GULP energy -198252.822841 kJ/mol
# GULP energy per Si atom -12390.801428 kJ/mol
# Density = 2.165108 g / cm^3
# Si number density = 21.700475 Si / 1000 Ang^3
#
#
#
# Elastic Constant Matrix: (Units=GPa)
#
#
# Indices 1 2 3 4 5 6 
#
# 1 137.3101 56.9926 40.9493 -8.5959 -7.9951 -34.5255
# 2 56.9926 92.5404 17.5743 7.4286 -1.2461 -22.4035
# 3 40.9493 17.5743 67.1589 8.7689 -13.0460 -8.2511
# 4 -8.5959 7.4286 8.7689 36.9225 1.6958 0.3416
# 5 -7.9951 -1.2461 -13.0460 1.6958 20.2694 -3.6472
# 6 -34.5255 -22.4035 -8.2511 0.3416 -3.6472 36.4818
#
#
#
# Elastic Compliance Matrix: (Units=1/GPa)
#
#
# Indices 1 2 3 4 5 6 
#
# 1 0.014356 -0.005969 -0.006479 0.005902 0.002182 0.008618
# 2 -0.005969 0.015766 0.000707 -0.004780 0.000237 0.004262
# 3 -0.006479 0.000707 0.022133 -0.007486 0.012472 0.000625
# 4 0.005902 -0.004780 -0.007486 0.031444 -0.005392 0.000123
# 5 0.002182 0.000237 0.012472 -0.005392 0.060696 0.011150
# 6 0.008618 0.004262 0.000625 0.000123 0.011150 0.039439
#
#
# Mechanical properties :
#
#
# Convention : Reuss Voigt Hill
#
# Bulk Modulus (GPa) = 34.75428 58.67132 46.71280
# Shear Modulus (GPa) = 23.05141 30.83429 26.94285
#
# Velocity S-wave (km/s) = 3.26276 3.77358 3.52743
# Velocity P-wave (km/s) = 5.49949 6.78838 6.17764
#
# Compressibility (1/GPa) = 0.02877344
#
# Stress axis : x y z
#
# Youngs Moduli (GPa) = 69.65673 63.42569 45.18235
#
# Poissons Ratio (x) = 0.37858 0.29275
# Poissons Ratio (y) = 0.41578 -0.03196
# Poissons Ratio (z) = 0.45133 -0.04487
#
# Static dielectric constant tensor:
#      x y z
#    x 3.905750 0.165340 -0.032940 
#    y 0.165340 2.530000 0.278680 
#    z -0.032940 0.278680 3.806910 
# 
# 
# High freq. dielectric constant tensor:
#      x y z
#    x 1.842560 -0.013620 -0.007780 
#    y -0.013620 1.850470 0.010800 
#    z -0.007780 0.010800 1.843790 
# 
# From -- ./inp_files/37449.got.cif
#   From: 2010.06.25/outbox.cif.g09.slc.cpg/sg2_19_cif.got.tgz:37449.got - 2010.06.27 13:26:56.
