data_PCOD8005485
_publ_section_title
;
Structure prediction by ZEFSAII (Michael W. Deem and Ramdas Pophale) SiO2 
 PCOD8005485
Probable space group: P -1
;
_chemical_formula_sum "Si O2"
_cell_formula_units_Z 16
_cell_length_a 20.178244
_cell_length_b 8.425008
_cell_length_c 20.578655
_cell_angle_alpha 128.308622
_cell_angle_beta 20.168236
_cell_angle_gamma 138.398854
_cell_volume 747.635412
_symmetry_space_group_name_H-M "P -1"
_symmetry_group_IT_number 2
_symmetry_cell_setting 'triclinic'
loop_
_space_group_symop_operation_xyz
x,y,z
-x,-y,-z
loop_
_atom_site_type_symbol
_atom_site_label
_atom_site_fract_x
_atom_site_fract_y
_atom_site_fract_z
Si Si1 0.815061 0.841572 0.550678
Si Si2 0.312447 0.571690 0.733593
Si Si3 0.862258 0.177564 0.975579
Si Si4 0.778668 0.145262 0.762798
Si Si5 0.632415 0.704934 0.143464
Si Si6 0.025832 0.702207 0.716210
Si Si7 0.794222 0.822100 0.415870
Si Si8 0.516876 0.973104 0.401828
O O1 0.623040 0.575706 0.697740
O O2 0.733779 0.813143 0.543988
O O3 0.083723 0.916395 0.328678
O O4 0.806031 0.059944 0.645155
O O5 0.549176 0.595074 0.543472
O O6 0.083155 0.284350 0.852869
O O7 0.357334 0.754070 0.678645
O O8 0.240725 0.662015 0.886033
O O9 0.993928 0.212304 0.794695
O O10 0.648937 0.880503 0.113798
O O11 0.901016 0.442929 0.725213
O O12 0.500000 0.000000 0.000000
O O13 0.657338 0.852235 0.225039
O O14 0.848376 0.684023 0.929365
O O15 0.250113 0.760723 0.564865
O O16 0.109910 0.911165 0.636523
O O17 0.500000 0.000000 0.500000
#
# Coordination Sequence:
#
# PCOD8005485 Si02
#       8
#     2   2   2   2   2   2   2   2
#     4  11  24  40  64  93 116 151 203 256 298 362
#     4   9  19  37  56  82 122 167 200 239 295 352
#     4   9  19  36  58  82 121 164 198 238 293 351
#     4  11  23  43  67  87 119 157 199 248 312 360
#     4  10  20  39  57  88 119 157 199 242 296 352
#     4  10  21  42  64  85 123 164 196 245 306 357
#     4  10  22  38  60  88 120 155 198 252 297 349
#     4  10  21  36  60  91 124 162 203 247 289 351
#
# _framework density 21.400805999999999
#
# number of rings (size 3 to 8) (size 9 to 14) (size 15 to 20)
#    0.000    2.000    2.500    0.375    1.750    2.000 
#    6.750    0.625    0.000    0.000    0.000    0.000 
#    0.000    0.000    0.000    0.000    0.000    0.000 
#
# Total GULP energy -198295.003595 kJ/mol
# GULP energy per Si atom -12393.437725 kJ/mol
# Density = 2.135210 g / cm^3
# Si number density = 21.400806 Si / 1000 Ang^3
#
#
#
# Elastic Constant Matrix: (Units=GPa)
#
#
# Indices 1 2 3 4 5 6 
#
# 1 71.1037 14.6477 24.8119 -8.7596 11.3427 9.2908
# 2 14.6477 96.7599 31.2892 -2.5376 8.5699 10.5017
# 3 24.8119 31.2892 114.4708 -0.9134 4.7046 -5.4162
# 4 -8.7596 -2.5376 -0.9134 38.1497 11.2960 -4.7500
# 5 11.3427 8.5699 4.7046 11.2960 21.4813 7.7632
# 6 9.2908 10.5017 -5.4162 -4.7500 7.7632 16.1904
#
#
#
# Elastic Compliance Matrix: (Units=1/GPa)
#
#
# Indices 1 2 3 4 5 6 
#
# 1 0.018554 0.000063 -0.003763 0.006798 -0.010858 -0.004746
# 2 0.000063 0.012643 -0.003869 -0.000124 -0.000855 -0.009157
# 3 -0.003763 -0.003869 0.011269 0.001525 -0.003569 0.010597
# 4 0.006798 -0.000124 0.001525 0.041274 -0.034786 0.025478
# 5 -0.010858 -0.000855 -0.003569 -0.034786 0.088746 -0.047168
# 6 -0.004746 -0.009157 0.010597 0.025478 -0.047168 0.104065
#
#
# Mechanical properties :
#
#
# Convention : Reuss Voigt Hill
#
# Bulk Modulus (GPa) = 36.59120 47.09246 41.84183
# Shear Modulus (GPa) = 16.62251 29.26998 22.94625
#
# Velocity S-wave (km/s) = 2.79000 3.70226 3.27802
# Velocity P-wave (km/s) = 5.24538 6.35047 5.82419
#
# Compressibility (1/GPa) = 0.02732897
#
# Stress axis : x y z
#
# Youngs Moduli (GPa) = 53.89745 79.09756 88.73759
#
# Poissons Ratio (x) = -0.00500 0.33392
# Poissons Ratio (y) = -0.00341 0.34328
# Poissons Ratio (z) = 0.20281 0.30599
#
# Static dielectric constant tensor:
#      x y z
#    x 3.261110 0.182380 0.047680 
#    y 0.182380 4.029660 0.119730 
#    z 0.047680 0.119730 4.394180 
# 
# 
# High freq. dielectric constant tensor:
#      x y z
#    x 1.778690 0.013130 0.007080 
#    y 0.013130 1.852670 0.011100 
#    z 0.007080 0.011100 1.869080 
# 
# From -- ./inp_files/217417.got.cif
#   From: 2010.06.25/outbox.cif.g09.slc.cpg/sg2_109_cif.got.tgz:217417.got - 2010.06.27 13:26:56.
