data_PCOD8005088
_publ_section_title
;
Structure prediction by ZEFSAII (Michael W. Deem and Ramdas Pophale) SiO2 
 PCOD8005088
Probable space group: P -1
;
_chemical_formula_sum "Si O2"
_cell_formula_units_Z 14
_cell_length_a 9.271160
_cell_length_b 17.708890
_cell_length_c 6.794406
_cell_angle_alpha 79.227110
_cell_angle_beta 83.965098
_cell_angle_gamma 37.152425
_cell_volume 660.020544
_symmetry_space_group_name_H-M "P -1"
_symmetry_group_IT_number 2
_symmetry_cell_setting 'triclinic'
loop_
_space_group_symop_operation_xyz
x,y,z
-x,-y,-z
loop_
_atom_site_type_symbol
_atom_site_label
_atom_site_fract_x
_atom_site_fract_y
_atom_site_fract_z
Si Si1 0.966126 0.900449 0.386061
Si Si2 0.777695 0.362852 0.520268
Si Si3 0.934373 0.672067 0.818254
Si Si4 0.918670 0.432185 0.740918
Si Si5 0.241399 0.932832 0.309831
Si Si6 0.699338 0.668716 0.532781
Si Si7 0.452655 0.941062 0.928281
O O1 0.172900 0.748919 0.412242
O O2 0.062624 0.940293 0.264465
O O3 0.892949 0.944682 0.604022
O O4 0.737975 0.967929 0.262821
O O5 0.500000 0.500000 0.500000
O O6 0.904447 0.353282 0.688117
O O7 0.893183 0.340709 0.309230
O O8 0.853484 0.639215 0.701436
O O9 0.703383 0.812105 0.864206
O O10 0.088741 0.570452 0.021902
O O11 0.697473 0.577791 0.621002
O O12 0.167285 0.368407 0.673024
O O13 0.432589 0.813673 0.490265
O O14 0.361277 0.916651 0.107841
O O15 0.500000 0.000000 0.000000
#
# Coordination Sequence:
#
# PCOD8005088 Si02
#       7
#     2   2   2   2   2   2   2
#     4  11  25  43  65  94 135 175 212 266 328 387
#     4  11  25  44  63  92 130 173 218 266 325 386
#     4  11  22  39  65  97 126 166 223 265 322 382
#     4  10  21  39  63  94 127 170 213 264 320 378
#     4  11  23  43  66  97 131 172 216 266 327 386
#     4  10  20  38  64  93 131 165 212 265 318 384
#     4  12  24  40  69 100 131 167 217 272 324 390
#
# _framework density 21.211459000000001
#
# number of rings (size 3 to 8) (size 9 to 14) (size 15 to 20)
#    0.000    1.143    2.857    3.429    2.000    1.714 
#    2.571    0.000    0.000    0.000    0.000    0.000 
#    0.000    0.000    0.000    0.000    0.000    0.000 
#
# Total GULP energy -173637.068497 kJ/mol
# GULP energy per Si atom -12402.647750 kJ/mol
# Density = 2.116318 g / cm^3
# Si number density = 21.211459 Si / 1000 Ang^3
#
#
#
# Elastic Constant Matrix: (Units=GPa)
#
#
# Indices 1 2 3 4 5 6 
#
# 1 91.1570 30.1972 32.6829 9.1631 -0.7634 6.2337
# 2 30.1972 125.0770 16.9151 10.9330 -7.3566 4.3656
# 3 32.6829 16.9151 101.0245 11.6432 -9.4073 -1.6959
# 4 9.1631 10.9330 11.6432 30.7380 -7.2607 0.0864
# 5 -0.7634 -7.3566 -9.4073 -7.2607 26.7781 6.7205
# 6 6.2337 4.3656 -1.6959 0.0864 6.7205 38.3808
#
#
#
# Elastic Compliance Matrix: (Units=1/GPa)
#
#
# Indices 1 2 3 4 5 6 
#
# 1 0.013546 -0.002608 -0.003908 -0.002055 -0.001821 -0.001753
# 2 -0.002608 0.008975 -0.000275 -0.001826 0.002041 -0.000963
# 3 -0.003908 -0.000275 0.011795 -0.002469 0.003125 0.000645
# 4 -0.002055 -0.001826 -0.002469 0.036826 0.008859 -0.001202
# 5 -0.001821 0.002041 0.003125 0.008859 0.043206 -0.007384
# 6 -0.001753 -0.000963 0.000645 -0.001202 -0.007384 0.027773
#
#
# Mechanical properties :
#
#
# Convention : Reuss Voigt Hill
#
# Bulk Modulus (GPa) = 48.22650 52.98323 50.60486
# Shear Modulus (GPa) = 30.74737 35.01027 32.87882
#
# Velocity S-wave (km/s) = 3.81144 4.06709 3.94134
# Velocity P-wave (km/s) = 6.49268 6.86205 6.67992
#
# Compressibility (1/GPa) = 0.02073549
#
# Stress axis : x y z
#
# Youngs Moduli (GPa) = 73.82024 111.41830 84.78022
#
# Poissons Ratio (x) = 0.29061 0.33130
# Poissons Ratio (y) = 0.19254 0.02328
# Poissons Ratio (z) = 0.28848 0.03059
#
# Static dielectric constant tensor:
#      x y z
#    x 3.838380 0.076440 0.017760 
#    y 0.076440 3.739650 -0.105670 
#    z 0.017760 -0.105670 3.534790 
# 
# 
# High freq. dielectric constant tensor:
#      x y z
#    x 1.832860 0.007690 0.003430 
#    y 0.007690 1.840550 0.006310 
#    z 0.003430 0.006310 1.827980 
# 
# From -- ./inp_files/47387.got.cif
#   From: 2010.06.25/outbox.cif.g09.slc.cpg/sg2_24_cif.got.tgz:47387.got - 2010.06.27 13:26:56.
