data_PCOD8005487
_publ_section_title
;
Structure prediction by ZEFSAII (Michael W. Deem and Ramdas Pophale) SiO2 
 PCOD8005487
Probable space group: P -1
;
_chemical_formula_sum "Si O2"
_cell_formula_units_Z 14
_cell_length_a 13.347859
_cell_length_b 12.128727
_cell_length_c 6.461476
_cell_angle_alpha 113.079153
_cell_angle_beta 105.191425
_cell_angle_gamma 120.333936
_cell_volume 676.994609
_symmetry_space_group_name_H-M "P -1"
_symmetry_group_IT_number 2
_symmetry_cell_setting 'triclinic'
loop_
_space_group_symop_operation_xyz
x,y,z
-x,-y,-z
loop_
_atom_site_type_symbol
_atom_site_label
_atom_site_fract_x
_atom_site_fract_y
_atom_site_fract_z
Si Si1 0.791937 0.108535 0.654608
Si Si2 0.535994 0.444520 0.790270
Si Si3 0.644239 0.729999 0.824296
Si Si4 0.973877 0.312829 0.517722
Si Si5 0.909599 0.045352 0.027818
Si Si6 0.214429 0.685764 0.878796
Si Si7 0.504179 0.220515 0.906600
O O1 0.917658 0.224380 0.642702
O O2 0.641080 0.962638 0.359925
O O3 0.836588 0.033078 0.768675
O O4 0.775241 0.217025 0.852256
O O5 0.662501 0.612432 0.855567
O O6 0.401727 0.325972 0.477941
O O7 0.568841 0.340150 0.826780
O O8 0.500000 0.500000 0.000000
O O9 0.525408 0.712850 0.870158
O O10 0.791967 0.917400 0.042155
O O11 0.003243 0.223925 0.314556
O O12 0.855958 0.307685 0.352959
O O13 0.123512 0.498439 0.762332
O O14 0.000000 0.000000 0.000000
O O15 0.373231 0.775126 0.958097
#
# Coordination Sequence:
#
# PCOD8005487 Si02
#       7
#     2   2   2   2   2   2   2
#     4  11  22  42  65  92 127 160 211 262 305 374
#     4   9  20  35  59  85 126 159 198 256 304 363
#     4  10  20  39  57  90 128 162 202 259 304 367
#     4  10  23  45  61  90 129 161 212 257 306 376
#     4  11  24  40  64  90 125 168 208 254 315 371
#     4  10  24  41  65  92 124 167 208 258 310 371
#     4  11  21  38  65  95 123 161 208 257 316 364
#
# _framework density 20.679632000000002
#
# number of rings (size 3 to 8) (size 9 to 14) (size 15 to 20)
#    0.000    1.714    2.857    0.857    0.000    6.857 
#    0.000    0.000    0.000    0.000    0.000    0.000 
#    0.000    0.000    0.000    0.000    0.000    0.000 
#
# Total GULP energy -173570.572909 kJ/mol
# GULP energy per Si atom -12397.898065 kJ/mol
# Density = 2.063256 g / cm^3
# Si number density = 20.679632 Si / 1000 Ang^3
#
#
#
# Elastic Constant Matrix: (Units=GPa)
#
#
# Indices 1 2 3 4 5 6 
#
# 1 119.6446 38.8440 34.3576 6.9011 -1.2391 0.3200
# 2 38.8440 120.2174 30.2091 5.9748 -1.8151 -0.2806
# 3 34.3576 30.2091 93.7017 13.6733 -10.7487 2.7994
# 4 6.9011 5.9748 13.6733 33.9669 1.1492 -7.4404
# 5 -1.2391 -1.8151 -10.7487 1.1492 23.4767 3.0718
# 6 0.3200 -0.2806 2.7994 -7.4404 3.0718 22.7082
#
#
#
# Elastic Compliance Matrix: (Units=1/GPa)
#
#
# Indices 1 2 3 4 5 6 
#
# 1 0.010022 -0.002497 -0.002947 -0.000327 -0.001026 0.000223
# 2 -0.002497 0.009693 -0.002249 -0.000182 -0.000460 0.000435
# 3 -0.002947 -0.002249 0.014318 -0.006039 0.007136 -0.004695
# 4 -0.000327 -0.000182 -0.006039 0.035044 -0.006222 0.013071
# 5 -0.001026 -0.000460 0.007136 -0.006222 0.047295 -0.009307
# 6 0.000223 0.000435 -0.004695 0.013071 -0.009307 0.050160
#
#
# Mechanical properties :
#
#
# Convention : Reuss Voigt Hill
#
# Bulk Modulus (GPa) = 53.62167 60.04278 56.83222
# Shear Modulus (GPa) = 26.57701 31.37390 28.97545
#
# Velocity S-wave (km/s) = 3.58883 3.89927 3.74727
# Velocity P-wave (km/s) = 6.56954 7.02639 6.80181
#
# Compressibility (1/GPa) = 0.01864918
#
# Stress axis : x y z
#
# Youngs Moduli (GPa) = 99.77571 103.16534 69.84335
#
# Poissons Ratio (x) = 0.25757 0.20580
# Poissons Ratio (y) = 0.24911 0.15707
# Poissons Ratio (z) = 0.29400 0.23200
#
# Static dielectric constant tensor:
#      x y z
#    x 3.395630 -0.185810 -0.105650 
#    y -0.185810 4.307380 -0.006640 
#    z -0.105650 -0.006640 3.806400 
# 
# 
# High freq. dielectric constant tensor:
#      x y z
#    x 1.780670 -0.009190 -0.015420 
#    y -0.009190 1.830890 0.005380 
#    z -0.015420 0.005380 1.816370 
# 
# From -- ./inp_files/39795.got.cif
#   From: 2010.06.25/outbox.cif.g09.slc.cpg/sg2_20_cif.got.tgz:39795.got - 2010.06.27 13:26:56.
