data_PCOD8005469
_publ_section_title
;
Structure prediction by ZEFSAII (Michael W. Deem and Ramdas Pophale) SiO2 
 PCOD8005469
Probable space group: P -1
;
_chemical_formula_sum "Si O2"
_cell_formula_units_Z 16
_cell_length_a 16.441421
_cell_length_b 28.650129
_cell_length_c 14.308402
_cell_angle_alpha 157.096993
_cell_angle_beta 148.067072
_cell_angle_gamma 19.796661
_cell_volume 879.991420
_symmetry_space_group_name_H-M "P -1"
_symmetry_group_IT_number 2
_symmetry_cell_setting 'triclinic'
loop_
_space_group_symop_operation_xyz
x,y,z
-x,-y,-z
loop_
_atom_site_type_symbol
_atom_site_label
_atom_site_fract_x
_atom_site_fract_y
_atom_site_fract_z
Si Si1 0.235023 0.430042 0.627395
Si Si2 0.522356 0.312315 0.522361
Si Si3 0.623829 0.577278 0.623828
Si Si4 0.901479 0.778659 0.473915
Si Si5 0.627392 0.037674 0.235028
Si Si6 0.473917 0.206219 0.901476
Si Si7 0.724127 0.438470 0.724128
Si Si8 0.134717 0.671859 0.134722
O O1 0.311145 0.463939 0.673170
O O2 0.000000 0.500000 0.500000
O O3 0.445691 0.207676 0.445696
O O4 0.210362 0.519163 0.860667
O O5 0.402485 0.365357 0.402491
O O6 0.701639 0.314153 0.701648
O O7 0.673167 0.101918 0.311149
O O8 0.459729 0.561606 0.459721
O O9 0.905843 0.373274 0.538170
O O10 0.538156 0.740953 0.905839
O O11 0.734820 0.765182 0.265180
O O12 0.055273 0.720153 0.424125
O O13 0.737561 0.990513 0.737558
O O14 0.860664 0.868869 0.210380
O O15 0.500000 0.000000 0.000000
O O16 0.424121 0.351299 0.055263
O O17 0.841160 0.385153 0.841153
#
# Coordination Sequence:
#
# PCOD8005469 Si02
#       8
#     2   2   2   2   2   2   2   2
#     4  10  21  36  57  81 110 148 186 232 275 330
#     4   9  22  38  57  82 114 149 187 234 281 330
#     4  10  20  39  56  84 112 148 183 229 283 324
#     4  10  21  37  58  84 112 147 185 228 278 333
#     4  10  21  36  57  81 110 148 186 232 275 330
#     4  10  21  37  58  84 112 147 185 228 278 333
#     4  10  22  35  60  82 114 146 183 233 277 328
#     4  11  20  40  57  82 114 149 189 232 281 332
#
# _framework density 18.181995000000001
#
# number of rings (size 3 to 8) (size 9 to 14) (size 15 to 20)
#    0.750    1.250    1.250    3.750    0.000    7.000 
#    2.250    5.000    0.000    0.000    0.000    0.000 
#    0.000    0.000    0.000    0.000    0.000    0.000 
#
# Total GULP energy -198303.247985 kJ/mol
# GULP energy per Si atom -12393.952999 kJ/mol
# Density = 1.814061 g / cm^3
# Si number density = 18.181995 Si / 1000 Ang^3
#
#
#
# Elastic Constant Matrix: (Units=GPa)
#
#
# Indices 1 2 3 4 5 6 
#
# 1 35.9005 32.9559 23.0224 2.0365 -16.3510 -0.1462
# 2 32.9559 123.0974 73.0114 1.5730 -25.1290 1.4846
# 3 23.0224 73.0114 116.0835 11.2276 -18.8870 -0.8314
# 4 2.0365 1.5730 11.2276 37.2359 -5.5460 -4.8973
# 5 -16.3510 -25.1290 -18.8870 -5.5460 27.5694 -1.6522
# 6 -0.1462 1.4846 -0.8314 -4.8973 -1.6522 29.0640
#
#
#
# Elastic Compliance Matrix: (Units=1/GPa)
#
#
# Indices 1 2 3 4 5 6 
#
# 1 0.043792 -0.007176 -0.001198 0.001343 0.018992 0.001858
# 2 -0.007176 0.015790 -0.007931 0.002863 0.005262 -0.000288
# 3 -0.001198 -0.007931 0.014396 -0.003730 0.001187 0.000250
# 4 0.001343 0.002863 -0.003730 0.029518 0.007095 0.005131
# 5 0.018992 0.005262 0.001187 0.007095 0.054823 0.004173
# 6 0.001858 -0.000288 0.000250 0.005131 0.004173 0.035540
#
#
# Mechanical properties :
#
#
# Convention : Reuss Voigt Hill
#
# Bulk Modulus (GPa) = 24.17326 59.22899 41.70112
# Shear Modulus (GPa) = 20.81103 28.51330 24.66216
#
# Velocity S-wave (km/s) = 3.38686 3.96437 3.68694
# Velocity P-wave (km/s) = 5.34962 7.32129 6.41170
#
# Compressibility (1/GPa) = 0.04136802
#
# Stress axis : x y z
#
# Youngs Moduli (GPa) = 22.83517 63.33274 69.46381
#
# Poissons Ratio (x) = 0.45447 0.08323
# Poissons Ratio (y) = 0.16386 0.55090
# Poissons Ratio (z) = 0.02736 0.50227
#
# Static dielectric constant tensor:
#      x y z
#    x 3.371620 -0.018080 -0.005250 
#    y -0.018080 3.547680 -0.107030 
#    z -0.005250 -0.107030 3.506740 
# 
# 
# High freq. dielectric constant tensor:
#      x y z
#    x 1.701960 -0.005280 0.003300 
#    y -0.005280 1.714200 -0.009920 
#    z 0.003300 -0.009920 1.713600 
# 
# From -- ./inp_files/539472.got.cif
#   From: 2010.06.25/outbox.cif.g09.slc.cpg/sg2_270_cif.got.tgz:539472.got - 2010.06.27 13:26:56.
