data_PCOD8005785
_publ_section_title
;
Structure prediction by ZEFSAII (Michael W. Deem and Ramdas Pophale) SiO2 
 PCOD8005785
Probable space group: P -1
;
_chemical_formula_sum "Si O2"
_cell_formula_units_Z 16
_cell_length_a 7.944040
_cell_length_b 9.923085
_cell_length_c 16.489113
_cell_angle_alpha 143.297762
_cell_angle_beta 69.697511
_cell_angle_gamma 105.712205
_cell_volume 728.523893
_symmetry_space_group_name_H-M "P -1"
_symmetry_group_IT_number 2
_symmetry_cell_setting 'triclinic'
loop_
_space_group_symop_operation_xyz
x,y,z
-x,-y,-z
loop_
_atom_site_type_symbol
_atom_site_label
_atom_site_fract_x
_atom_site_fract_y
_atom_site_fract_z
Si Si1 0.825620 0.528282 0.650473
Si Si2 0.547808 0.622165 0.468053
Si Si3 0.973776 0.836564 0.216259
Si Si4 0.331117 0.208262 0.059281
Si Si5 0.834087 0.701690 0.568784
Si Si6 0.330507 0.700907 0.852966
Si Si7 0.932939 0.620937 0.949121
Si Si8 0.338171 0.919888 0.541780
O O1 0.803089 0.728965 0.814410
O O2 0.722088 0.602252 0.618393
O O3 0.759974 0.292573 0.586968
O O4 0.031092 0.501997 0.577306
O O5 0.500000 0.500000 0.500000
O O6 0.725158 0.754622 0.531025
O O7 0.592263 0.480903 0.311047
O O8 0.406586 0.820916 0.568171
O O9 0.088655 0.638678 0.144604
O O10 0.794808 0.871680 0.317581
O O11 0.921339 0.777754 0.105267
O O12 0.078192 0.068863 0.305863
O O13 0.532541 0.297875 0.091067
O O14 0.240745 0.317884 0.047320
O O15 0.335814 0.939656 0.920956
O O16 0.126788 0.650342 0.888299
O O17 0.500000 0.000000 0.500000
#
# Coordination Sequence:
#
# PCOD8005785 Si02
#       8
#     2   2   2   2   2   2   2   2
#     4  10  20  39  62  94 131 168 219 277 322 397
#     4  12  23  40  67 101 134 172 223 281 337 401
#     4  10  25  45  65  97 130 182 224 275 331 408
#     4  11  23  40  67  97 134 175 218 278 337 392
#     4  10  21  39  66  94 131 172 223 274 335 394
#     4  11  24  41  67 103 132 174 227 280 329 409
#     4  11  24  46  67  92 139 178 227 273 341 403
#     4  11  23  41  67  93 137 170 214 276 334 390
#
# _framework density 21.962218
#
# number of rings (size 3 to 8) (size 9 to 14) (size 15 to 20)
#    0.000    1.250    2.500    2.625    1.750    2.000 
#    0.000    4.375    0.000    0.000    0.000    0.000 
#    0.000    0.000    0.000    0.000    0.000    0.000 
#
# Total GULP energy -198273.519181 kJ/mol
# GULP energy per Si atom -12392.094949 kJ/mol
# Density = 2.191223 g / cm^3
# Si number density = 21.962218 Si / 1000 Ang^3
#
#
#
# Elastic Constant Matrix: (Units=GPa)
#
#
# Indices 1 2 3 4 5 6 
#
# 1 95.9955 29.9951 27.4158 -0.1732 6.8284 -27.3181
# 2 29.9951 86.8147 20.4391 -2.0264 1.7290 -6.7244
# 3 27.4158 20.4391 103.8536 3.7598 -2.9625 -7.9596
# 4 -0.1732 -2.0264 3.7598 25.8731 -3.8968 -5.2088
# 5 6.8284 1.7290 -2.9625 -3.8968 30.2307 -7.5989
# 6 -27.3181 -6.7244 -7.9596 -5.2088 -7.5989 48.8744
#
#
#
# Elastic Compliance Matrix: (Units=1/GPa)
#
#
# Indices 1 2 3 4 5 6 
#
# 1 0.014455 -0.003770 -0.002621 0.001404 -0.001347 0.007074
# 2 -0.003770 0.013210 -0.001682 0.001160 -0.000031 -0.000445
# 3 -0.002621 -0.001682 0.010761 -0.001443 0.001595 0.000150
# 4 0.001404 0.001160 -0.001443 0.041132 0.006304 0.006073
# 5 -0.001347 -0.000031 0.001595 0.006304 0.035797 0.005740
# 6 0.007074 -0.000445 0.000150 0.006073 0.005740 0.025918
#
#
# Mechanical properties :
#
#
# Convention : Reuss Voigt Hill
#
# Bulk Modulus (GPa) = 44.88003 49.15152 47.01577
# Shear Modulus (GPa) = 30.33146 34.91655 32.62400
#
# Velocity S-wave (km/s) = 3.72031 3.99161 3.85835
# Velocity P-wave (km/s) = 6.23969 6.60852 6.42675
#
# Compressibility (1/GPa) = 0.02228163
#
# Stress axis : x y z
#
# Youngs Moduli (GPa) = 69.17950 75.69775 92.92758
#
# Poissons Ratio (x) = 0.28536 0.24357
# Poissons Ratio (y) = 0.26079 0.15628
# Poissons Ratio (z) = 0.18133 0.12730
#
# Static dielectric constant tensor:
#      x y z
#    x 4.705500 -0.181120 0.036070 
#    y -0.181120 3.857860 0.054840 
#    z 0.036070 0.054840 4.125690 
# 
# 
# High freq. dielectric constant tensor:
#      x y z
#    x 1.876670 -0.002480 -0.004410 
#    y -0.002480 1.854520 0.003980 
#    z -0.004410 0.003980 1.870080 
# 
# From -- ./inp_files/495806.got.cif
#   From: 2010.06.25/outbox.cif.g09.slc.cpg/sg2_248_cif.got.tgz:495806.got - 2010.06.27 13:26:56.
