data_PCOD8005542
_publ_section_title
;
Structure prediction by ZEFSAII (Michael W. Deem and Ramdas Pophale) SiO2 
 PCOD8005542
Probable space group: P -1
;
_chemical_formula_sum "Si O2"
_cell_formula_units_Z 14
_cell_length_a 5.324986
_cell_length_b 4.972514
_cell_length_c 23.685079
_cell_angle_alpha 100.538805
_cell_angle_beta 114.747099
_cell_angle_gamma 91.109447
_cell_volume 556.703683
_symmetry_space_group_name_H-M "P -1"
_symmetry_group_IT_number 2
_symmetry_cell_setting 'triclinic'
loop_
_space_group_symop_operation_xyz
x,y,z
-x,-y,-z
loop_
_atom_site_type_symbol
_atom_site_label
_atom_site_fract_x
_atom_site_fract_y
_atom_site_fract_z
Si Si1 0.777011 0.537761 0.125992
Si Si2 0.140464 0.729324 0.665809
Si Si3 0.777542 0.804701 0.394667
Si Si4 0.327035 0.916116 0.810852
Si Si5 0.890678 0.905975 0.898496
Si Si6 0.654537 0.385983 0.562413
Si Si7 0.752266 0.682452 0.991490
O O1 0.834992 0.859632 0.161899
O O2 0.556762 0.489534 0.049791
O O3 0.048038 0.400960 0.125505
O O4 0.678997 0.371849 0.167160
O O5 0.257168 0.925171 0.633585
O O6 0.185516 0.874529 0.735516
O O7 0.304221 0.458891 0.664379
O O8 0.808641 0.640483 0.623178
O O9 0.570773 0.798733 0.428130
O O10 0.102524 0.796387 0.444148
O O11 0.657584 0.018278 0.839913
O O12 0.755599 0.896000 0.947886
O O13 0.169130 0.132054 0.936614
O O14 0.500000 0.500000 0.500000
O O15 0.000000 0.500000 0.000000
#
# Coordination Sequence:
#
# PCOD8005542 Si02
#       7
#     2   2   2   2   2   2   2
#     4  11  24  39  68  90 126 172 226 274 357 408
#     4  10  25  44  68  99 144 184 239 290 355 417
#     4  10  24  43  73 103 144 189 235 294 356 417
#     4  11  24  45  60  95 130 173 229 285 337 427
#     4  10  23  39  60  92 123 172 213 285 343 418
#     4  10  24  45  72 110 145 188 238 293 355 421
#     4  10  20  39  59  89 130 158 221 278 343 416
#
# _framework density 25.148026000000002
#
# number of rings (size 3 to 8) (size 9 to 14) (size 15 to 20)
#    0.857    0.857    1.429    1.714    4.000    2.857 
#    0.000    0.000    0.000    0.000    0.000    0.000 
#    0.000    0.000    0.000    0.000    0.000    0.000 
#
# Total GULP energy -173498.137597 kJ/mol
# GULP energy per Si atom -12392.724114 kJ/mol
# Density = 2.509079 g / cm^3
# Si number density = 25.148026 Si / 1000 Ang^3
#
#
#
# Elastic Constant Matrix: (Units=GPa)
#
#
# Indices 1 2 3 4 5 6 
#
# 1 115.8673 13.0640 31.0671 -1.4104 8.6935 1.5295
# 2 13.0640 91.3338 11.6092 2.9217 15.9451 -0.1147
# 3 31.0671 11.6092 140.8918 -9.5342 26.4403 18.0130
# 4 -1.4104 2.9217 -9.5342 30.7576 6.0765 -5.1251
# 5 8.6935 15.9451 26.4403 6.0765 21.8107 -8.9116
# 6 1.5295 -0.1147 18.0130 -5.1251 -8.9116 38.5706
#
#
#
# Elastic Compliance Matrix: (Units=1/GPa)
#
#
# Indices 1 2 3 4 5 6 
#
# 1 0.009291 -0.001001 -0.001921 0.000094 -0.000496 0.000423
# 2 -0.001001 0.013247 0.002499 0.001631 -0.014493 -0.004220
# 3 -0.001921 0.002499 0.013690 0.006842 -0.024040 -0.010955
# 4 0.000094 0.001631 0.006842 0.038204 -0.021421 -0.003067
# 5 -0.000496 -0.014493 -0.024040 -0.021421 0.105088 0.032637
# 6 0.000423 -0.004220 -0.010955 -0.003067 0.032637 0.038147
#
#
# Mechanical properties :
#
#
# Convention : Reuss Voigt Hill
#
# Bulk Modulus (GPa) = 28.26182 51.06372 39.66277
# Shear Modulus (GPa) = 21.71016 37.71795 29.71405
#
# Velocity S-wave (km/s) = 2.94138 3.87697 3.44112
# Velocity P-wave (km/s) = 4.77474 6.35536 5.62089
#
# Compressibility (1/GPa) = 0.03538343
#
# Stress axis : x y z
#
# Youngs Moduli (GPa) = 107.62834 75.48780 73.04425
#
# Poissons Ratio (x) = 0.07554 0.14031
# Poissons Ratio (y) = 0.10770 -0.18253
# Poissons Ratio (z) = 0.20674 -0.18863
#
# Static dielectric constant tensor:
#      x y z
#    x 4.523580 0.316830 0.078750 
#    y 0.316830 4.663520 -0.026000 
#    z 0.078750 -0.026000 4.406720 
# 
# 
# High freq. dielectric constant tensor:
#      x y z
#    x 2.004410 0.016350 -0.004710 
#    y 0.016350 2.016450 -0.008110 
#    z -0.004710 -0.008110 1.988630 
# 
# From -- ./inp_files/603347.got.cif
#   From: 2010.06.25/outbox.cif.g09.slc.cpg/sg2_302_cif.got.tgz:603347.got - 2010.06.27 13:26:56.
