data_PCOD8005952
_publ_section_title
;
Structure prediction by ZEFSAII (Michael W. Deem and Ramdas Pophale) SiO2 
 PCOD8005952
Probable space group: P -1
;
_chemical_formula_sum "Si O2"
_cell_formula_units_Z 16
_cell_length_a 8.917131
_cell_length_b 20.814972
_cell_length_c 16.918697
_cell_angle_alpha 30.231477
_cell_angle_beta 32.284391
_cell_angle_gamma 37.738307
_cell_volume 822.943247
_symmetry_space_group_name_H-M "P -1"
_symmetry_group_IT_number 2
_symmetry_cell_setting 'triclinic'
loop_
_space_group_symop_operation_xyz
x,y,z
-x,-y,-z
loop_
_atom_site_type_symbol
_atom_site_label
_atom_site_fract_x
_atom_site_fract_y
_atom_site_fract_z
Si Si1 0.973262 0.010619 0.242407
Si Si2 0.867678 0.096237 0.884573
Si Si3 0.783923 0.791192 0.972649
Si Si4 0.929861 0.599902 0.828215
Si Si5 0.773671 0.705037 0.538148
Si Si6 0.196580 0.484509 0.679712
Si Si7 0.199554 0.662866 0.787150
Si Si8 0.363953 0.173119 0.371795
O O1 0.636855 0.079828 0.309396
O O2 0.938578 0.877719 0.444406
O O3 0.106790 0.983548 0.124437
O O4 0.156103 0.089807 0.128299
O O5 0.529397 0.161380 0.978511
O O6 0.025863 0.217150 0.681941
O O7 0.000000 0.000000 0.000000
O O8 0.811832 0.668969 0.150646
O O9 0.017598 0.754096 0.838393
O O10 0.173640 0.536174 0.724653
O O11 0.051799 0.693530 0.735186
O O12 0.665050 0.691813 0.804250
O O13 0.789702 0.490374 0.045333
O O14 0.528776 0.675751 0.620515
O O15 0.591526 0.799839 0.584515
O O16 0.953325 0.569279 0.640684
O O17 0.500000 0.500000 0.500000
#
# Coordination Sequence:
#
# PCOD8005952 Si02
#       8
#     2   2   2   2   2   2   2   2
#     4  10  21  38  59  85 115 154 203 234 283 343
#     4  11  25  41  56  85 126 156 191 242 294 347
#     4  11  22  39  63  87 116 157 199 237 291 348
#     4   9  21  36  60  86 122 150 187 244 294 340
#     4  10  20  40  63  87 114 150 198 242 289 348
#     4  10  20  39  64  88 119 152 192 242 294 347
#     4  10  21  38  61  91 117 147 195 244 296 342
#     4   9  19  36  60  86 112 152 197 241 278 341
#
# _framework density 19.442409999999999
#
# number of rings (size 3 to 8) (size 9 to 14) (size 15 to 20)
#    0.000    2.000    2.500    0.375    3.500    2.500 
#    2.250    1.875    0.000    0.000    0.000    0.000 
#    0.000    0.000    0.000    0.000    0.000    0.000 
#
# Total GULP energy -198272.943430 kJ/mol
# GULP energy per Si atom -12392.058964 kJ/mol
# Density = 1.939816 g / cm^3
# Si number density = 19.442410 Si / 1000 Ang^3
#
#
#
# Elastic Constant Matrix: (Units=GPa)
#
#
# Indices 1 2 3 4 5 6 
#
# 1 74.5745 16.4698 50.4363 -5.1711 -15.1124 -3.0349
# 2 16.4698 58.4987 24.1580 -1.1985 -6.7242 -10.0670
# 3 50.4363 24.1580 88.5381 2.1947 -16.9377 -7.9120
# 4 -5.1711 -1.1985 2.1947 29.1656 -4.1776 -1.2725
# 5 -15.1124 -6.7242 -16.9377 -4.1776 34.7634 -5.9478
# 6 -3.0349 -10.0670 -7.9120 -1.2725 -5.9478 28.6509
#
#
#
# Elastic Compliance Matrix: (Units=1/GPa)
#
#
# Indices 1 2 3 4 5 6 
#
# 1 0.023210 -0.000826 -0.012248 0.005668 0.004644 0.000002
# 2 -0.000826 0.020515 -0.003991 0.001723 0.003022 0.006722
# 3 -0.012248 -0.003991 0.020570 -0.003122 0.004186 0.003711
# 4 0.005668 0.001723 -0.003122 0.036634 0.006237 0.003266
# 5 0.004644 0.003022 0.004186 0.006237 0.035946 0.010449
# 6 0.000002 0.006722 0.003711 0.003266 0.010449 0.040604
#
#
# Mechanical properties :
#
#
# Convention : Reuss Voigt Hill
#
# Bulk Modulus (GPa) = 33.15142 44.85992 39.00567
# Shear Modulus (GPa) = 22.55674 27.21912 24.88793
#
# Velocity S-wave (km/s) = 3.40984 3.74570 3.58171
# Velocity P-wave (km/s) = 5.70883 6.46764 6.10005
#
# Compressibility (1/GPa) = 0.03016462
#
# Stress axis : x y z
#
# Youngs Moduli (GPa) = 43.08554 48.74590 48.61342
#
# Poissons Ratio (x) = 0.04028 0.59542
# Poissons Ratio (y) = 0.03560 0.19400
# Poissons Ratio (z) = 0.52771 0.19453
#
# Static dielectric constant tensor:
#      x y z
#    x 3.488910 0.020020 0.050270 
#    y 0.020020 3.677370 -0.209560 
#    z 0.050270 -0.209560 3.753440 
# 
# 
# High freq. dielectric constant tensor:
#      x y z
#    x 1.739960 -0.001030 -0.002460 
#    y -0.001030 1.761590 -0.005750 
#    z -0.002460 -0.005750 1.763200 
# 
# From -- ./inp_files/222845.got.cif
#   From: 2010.06.25/outbox.cif.g09.slc.cpg/sg2_112_cif.got.tgz:222845.got - 2010.06.27 13:26:56.
