data_PCOD8005247
_publ_section_title
;
Structure prediction by ZEFSAII (Michael W. Deem and Ramdas Pophale) SiO2 
 PCOD8005247
Probable space group: P -1
;
_chemical_formula_sum "Si O2"
_cell_formula_units_Z 16
_cell_length_a 11.698725
_cell_length_b 18.273202
_cell_length_c 5.087870
_cell_angle_alpha 60.764725
_cell_angle_beta 81.981753
_cell_angle_gamma 44.216167
_cell_volume 620.995730
_symmetry_space_group_name_H-M "P -1"
_symmetry_group_IT_number 2
_symmetry_cell_setting 'triclinic'
loop_
_space_group_symop_operation_xyz
x,y,z
-x,-y,-z
loop_
_atom_site_type_symbol
_atom_site_label
_atom_site_fract_x
_atom_site_fract_y
_atom_site_fract_z
Si Si1 0.458384 0.199941 0.505112
Si Si2 0.276744 0.823254 0.669150
Si Si3 0.751103 0.908967 0.835158
Si Si4 0.023967 0.074175 0.095908
Si Si5 0.279377 0.696444 0.493825
Si Si6 0.175865 0.234599 0.429906
Si Si7 0.592200 0.632159 0.377362
Si Si8 0.232784 0.533298 0.871746
O O1 0.548029 0.219421 0.236353
O O2 0.269621 0.275016 0.324524
O O3 0.441464 0.254885 0.699819
O O4 0.576008 0.051913 0.737349
O O5 0.127795 0.904618 0.788095
O O6 0.326092 0.703596 0.760273
O O7 0.192468 0.921727 0.266947
O O8 0.729582 0.877493 0.614882
O O9 0.912074 0.886846 0.797837
O O10 0.797851 0.814171 0.201002
O O11 0.929324 0.171064 0.711626
O O12 0.408901 0.680489 0.285033
O O13 0.307191 0.582609 0.664067
O O14 0.974168 0.355741 0.214157
O O15 0.714576 0.562564 0.202179
O O16 0.686077 0.531198 0.760382
#
# Coordination Sequence:
#
# PCOD8005247 Si02
#       8
#     2   2   2   2   2   2   2   2
#     4  10  25  47  70 102 142 183 224 287 338 415
#     4   9  21  39  62 103 139 174 221 268 358 411
#     4  11  24  45  73 109 136 174 228 284 353 408
#     4  10  20  38  66 100 138 178 213 283 344 422
#     4  11  22  39  67  94 135 173 226 284 340 399
#     4  12  25  46  74 102 137 182 230 284 343 406
#     4  11  28  45  67 100 136 186 231 281 337 401
#     4  12  26  45  69  98 138 183 237 278 333 401
#
# _framework density 25.765072
#
# number of rings (size 3 to 8) (size 9 to 14) (size 15 to 20)
#    0.000    1.250    1.250    3.375    5.250    3.000 
#   11.250    0.000    0.000    0.000    0.000    0.000 
#    0.000    0.000    0.000    0.000    0.000    0.000 
#
# Total GULP energy -198236.927512 kJ/mol
# GULP energy per Si atom -12389.807969 kJ/mol
# Density = 2.570643 g / cm^3
# Si number density = 25.765072 Si / 1000 Ang^3
#
#
#
# Elastic Constant Matrix: (Units=GPa)
#
#
# Indices 1 2 3 4 5 6 
#
# 1 170.2534 56.6303 25.1286 -5.2707 9.3298 8.1526
# 2 56.6303 126.3073 8.6760 -8.5334 7.8531 19.0388
# 3 25.1286 8.6760 36.8531 -6.7581 10.0703 5.4060
# 4 -5.2707 -8.5334 -6.7581 36.5192 -3.0073 4.9574
# 5 9.3298 7.8531 10.0703 -3.0073 31.1913 2.5860
# 6 8.1526 19.0388 5.4060 4.9574 2.5860 34.0001
#
#
#
# Elastic Compliance Matrix: (Units=1/GPa)
#
#
# Indices 1 2 3 4 5 6 
#
# 1 0.007580 -0.003244 -0.004620 -0.000640 -0.000090 0.000834
# 2 -0.003244 0.010393 0.001493 0.002882 -0.001387 -0.005594
# 3 -0.004620 0.001493 0.034294 0.006013 -0.009041 -0.005370
# 4 -0.000640 0.002882 0.006013 0.030093 0.000996 -0.006880
# 5 -0.000090 -0.001387 -0.009041 0.000996 0.035502 -0.000610
# 6 0.000834 -0.005594 -0.005370 -0.006880 -0.000610 0.034248
#
#
# Mechanical properties :
#
#
# Convention : Reuss Voigt Hill
#
# Bulk Modulus (GPa) = 25.29969 57.14263 41.22116
# Shear Modulus (GPa) = 28.08577 36.54072 32.31324
#
# Velocity S-wave (km/s) = 3.30520 3.77002 3.54524
# Velocity P-wave (km/s) = 4.94030 6.41695 5.72642
#
# Compressibility (1/GPa) = 0.03952618
#
# Stress axis : x y z
#
# Youngs Moduli (GPa) = 131.92981 96.21475 29.15946
#
# Poissons Ratio (x) = 0.31216 0.13471
# Poissons Ratio (y) = 0.42804 -0.04355
# Poissons Ratio (z) = 0.60947 -0.14369
#
# Static dielectric constant tensor:
#      x y z
#    x 5.031730 -0.054080 0.224840 
#    y -0.054080 4.483150 -0.381290 
#    z 0.224840 -0.381290 4.864580 
# 
# 
# High freq. dielectric constant tensor:
#      x y z
#    x 2.039010 0.002490 0.013740 
#    y 0.002490 2.022180 -0.016350 
#    z 0.013740 -0.016350 2.035320 
# 
# From -- ./inp_files/81221.got.cif
#   From: 2010.06.25/outbox.cif.g09.slc.cpg/sg2_41_cif.got.tgz:81221.got - 2010.06.27 13:26:56.
