data_PCOD8005200
_publ_section_title
;
Structure prediction by ZEFSAII (Michael W. Deem and Ramdas Pophale) SiO2 
 PCOD8005200
Probable space group: P -1
;
_chemical_formula_sum "Si O2"
_cell_formula_units_Z 16
_cell_length_a 9.727677
_cell_length_b 20.090624
_cell_length_c 6.870477
_cell_angle_alpha 117.080793
_cell_angle_beta 47.859310
_cell_angle_gamma 133.334907
_cell_volume 724.146498
_symmetry_space_group_name_H-M "P -1"
_symmetry_group_IT_number 2
_symmetry_cell_setting 'triclinic'
loop_
_space_group_symop_operation_xyz
x,y,z
-x,-y,-z
loop_
_atom_site_type_symbol
_atom_site_label
_atom_site_fract_x
_atom_site_fract_y
_atom_site_fract_z
Si Si1 0.849638 0.950928 0.765993
Si Si2 0.642158 0.554611 0.140658
Si Si3 0.152988 0.697657 0.784987
Si Si4 0.235284 0.557545 0.463853
Si Si5 0.629931 0.148955 0.506660
Si Si6 0.574216 0.408879 0.284034
Si Si7 0.804897 0.036040 0.271556
Si Si8 0.427383 0.761424 0.967431
O O1 0.622575 0.854139 0.792921
O O2 0.961082 0.924814 0.791215
O O3 0.000000 0.000000 0.500000
O O4 0.801924 0.017231 0.016064
O O5 0.427458 0.538956 0.185723
O O6 0.633596 0.602042 0.410955
O O7 0.377544 0.536314 0.889896
O O8 0.884696 0.623599 0.899372
O O9 0.303595 0.661265 0.515340
O O10 0.235987 0.792877 0.732644
O O11 0.199615 0.716382 0.995502
O O12 0.210260 0.538512 0.697307
O O13 0.000000 0.500000 0.500000
O O14 0.763173 0.113776 0.441588
O O15 0.382857 0.058885 0.566382
O O16 0.617922 0.216860 0.748972
O O17 0.503688 0.308768 0.161490
#
# Coordination Sequence:
#
# PCOD8005200 Si02
#       8
#     2   2   2   2   2   2   2   2
#     4  10  20  38  65  93 121 165 205 259 315 370
#     4   9  20  41  62  87 123 171 209 256 320 373
#     4  11  23  39  64  93 126 161 212 266 305 378
#     4   9  20  39  60  89 124 163 211 256 318 375
#     4  10  22  41  59  90 125 164 206 260 314 374
#     4   8  19  41  60  87 125 163 212 263 303 384
#     4   9  21  41  60  87 128 161 207 252 315 385
#     4  10  22  39  62  91 126 166 209 262 319 368
#
# _framework density 22.094978000000001
#
# number of rings (size 3 to 8) (size 9 to 14) (size 15 to 20)
#    0.750    1.750    0.000    0.750    0.000    7.500 
#    9.000    3.750    0.000    0.000    0.000    0.000 
#    0.000    0.000    0.000    0.000    0.000    0.000 
#
# Total GULP energy -198228.608839 kJ/mol
# GULP energy per Si atom -12389.288052 kJ/mol
# Density = 2.204469 g / cm^3
# Si number density = 22.094978 Si / 1000 Ang^3
#
#
#
# Elastic Constant Matrix: (Units=GPa)
#
#
# Indices 1 2 3 4 5 6 
#
# 1 107.6816 56.1249 33.8418 3.4336 -6.9588 2.4915
# 2 56.1249 97.4745 43.4447 -1.4676 -1.2992 -14.4115
# 3 33.8418 43.4447 68.2082 -12.5812 -6.3364 -15.5090
# 4 3.4336 -1.4676 -12.5812 36.7947 -5.2500 -2.6817
# 5 -6.9588 -1.2992 -6.3364 -5.2500 32.4931 -1.0282
# 6 2.4915 -14.4115 -15.5090 -2.6817 -1.0282 31.1667
#
#
#
# Elastic Compliance Matrix: (Units=1/GPa)
#
#
# Indices 1 2 3 4 5 6 
#
# 1 0.015239 -0.007724 -0.004955 -0.003813 0.001134 -0.007546
# 2 -0.007724 0.018686 -0.007195 -0.000917 -0.002284 0.005523
# 3 -0.004955 -0.007195 0.026963 0.011110 0.006073 0.011643
# 4 -0.003813 -0.000917 0.011110 0.032897 0.006896 0.008467
# 5 0.001134 -0.002284 0.006073 0.006896 0.033339 0.003568
# 6 -0.007546 0.005523 0.011643 0.008467 0.003568 0.041883
#
#
# Mechanical properties :
#
#
# Convention : Reuss Voigt Hill
#
# Bulk Modulus (GPa) = 47.30413 60.02077 53.66245
# Shear Modulus (GPa) = 23.16959 29.42109 26.29534
#
# Velocity S-wave (km/s) = 3.24178 3.65303 3.45353
# Velocity P-wave (km/s) = 5.95551 6.70945 6.34369
#
# Compressibility (1/GPa) = 0.02113980
#
# Stress axis : x y z
#
# Youngs Moduli (GPa) = 65.62006 53.51685 37.08831
#
# Poissons Ratio (x) = 0.41337 0.18377
# Poissons Ratio (y) = 0.50686 0.26684
# Poissons Ratio (z) = 0.32514 0.38504
#
# Static dielectric constant tensor:
#      x y z
#    x 3.993600 -0.054910 -0.170710 
#    y -0.054910 3.970790 0.328300 
#    z -0.170710 0.328300 4.001850 
# 
# 
# High freq. dielectric constant tensor:
#      x y z
#    x 1.872470 -0.007250 -0.001080 
#    y -0.007250 1.859380 0.022550 
#    z -0.001080 0.022550 1.868760 
# 
# From -- ./inp_files/53400.got.cif
#   From: 2010.06.25/outbox.cif.g09.slc.cpg/sg2_27_cif.got.tgz:53400.got - 2010.06.27 13:26:56.
