data_PCOD8005277
_publ_section_title
;
Structure prediction by ZEFSAII (Michael W. Deem and Ramdas Pophale) SiO2 
 PCOD8005277
Probable space group: P -1
;
_chemical_formula_sum "Si O2"
_cell_formula_units_Z 16
_cell_length_a 14.084790
_cell_length_b 8.934082
_cell_length_c 9.414783
_cell_angle_alpha 117.107061
_cell_angle_beta 104.257144
_cell_angle_gamma 45.232027
_cell_volume 743.473509
_symmetry_space_group_name_H-M "P -1"
_symmetry_group_IT_number 2
_symmetry_cell_setting 'triclinic'
loop_
_space_group_symop_operation_xyz
x,y,z
-x,-y,-z
loop_
_atom_site_type_symbol
_atom_site_label
_atom_site_fract_x
_atom_site_fract_y
_atom_site_fract_z
Si Si1 0.686440 0.640587 0.003211
Si Si2 0.907839 0.107851 0.377368
Si Si3 0.404134 0.104340 0.376222
Si Si4 0.456152 0.385199 0.852710
Si Si5 0.611516 0.398589 0.378722
Si Si6 0.908234 0.476085 0.537533
Si Si7 0.960891 0.377231 0.846273
Si Si8 0.456483 0.873775 0.795911
O O1 0.819867 0.468430 0.887009
O O2 0.551343 0.767314 0.920157
O O3 0.683115 0.512626 0.078535
O O4 0.666504 0.851028 0.145655
O O5 0.752109 0.295841 0.450191
O O6 0.933993 0.261039 0.382306
O O7 0.000000 0.000000 0.500000
O O8 0.939364 0.901036 0.208650
O O9 0.247762 0.290963 0.439654
O O10 0.444153 0.221660 0.346341
O O11 0.500000 0.000000 0.500000
O O12 0.433666 0.895324 0.211241
O O13 0.433505 0.433803 0.697497
O O14 0.500000 0.500000 0.000000
O O15 0.500000 0.500000 0.500000
O O16 0.632257 0.186211 0.240293
O O17 0.949710 0.433174 0.700191
O O18 0.000000 0.500000 0.500000
O O19 0.000000 0.500000 0.000000
#
# Coordination Sequence:
#
# PCOD8005277 Si02
#       8
#     2   2   2   2   2   2   2   2
#     4  10  21  40  64  91 128 168 212 267 326 387
#     4  10  25  44  65  95 136 177 220 272 327 401
#     4  11  23  41  65  96 131 171 217 270 328 391
#     4  11  24  38  64 101 132 161 215 280 331 382
#     4  12  24  40  68  98 131 170 222 268 332 390
#     4  11  25  45  66  93 135 178 221 270 332 393
#     4  11  24  43  70  95 130 177 225 267 335 399
#     4  10  20  38  66  91 127 169 211 266 327 387
#
# _framework density 21.520606000000001
#
# number of rings (size 3 to 8) (size 9 to 14) (size 15 to 20)
#    0.000    1.250    2.500    3.000    1.750    9.000 
#    0.000    1.250    0.000    0.000    0.000    0.000 
#    0.000    0.000    0.000    0.000    0.000    0.000 
#
# Total GULP energy -198217.607222 kJ/mol
# GULP energy per Si atom -12388.600451 kJ/mol
# Density = 2.147162 g / cm^3
# Si number density = 21.520606 Si / 1000 Ang^3
#
#
#
# Elastic Constant Matrix: (Units=GPa)
#
#
# Indices 1 2 3 4 5 6 
#
# 1 148.5172 66.6512 39.2293 9.2727 -15.8153 17.1058
# 2 66.6512 102.5730 40.8511 6.5788 -4.2258 2.7760
# 3 39.2293 40.8511 86.3659 0.0803 -12.0168 5.7456
# 4 9.2727 6.5788 0.0803 35.9977 7.8510 0.3814
# 5 -15.8153 -4.2258 -12.0168 7.8510 48.1183 -0.3273
# 6 17.1058 2.7760 5.7456 0.3814 -0.3273 40.2096
#
#
#
# Elastic Compliance Matrix: (Units=1/GPa)
#
#
# Indices 1 2 3 4 5 6 
#
# 1 0.010712 -0.006061 -0.001319 -0.002262 0.003002 -0.003904
# 2 -0.006061 0.015615 -0.005017 -0.000933 -0.001706 0.002212
# 3 -0.001319 -0.005017 0.015016 0.000633 0.002764 -0.001222
# 4 -0.002262 -0.000933 0.000633 0.029727 -0.005513 0.000609
# 5 0.003002 -0.001706 0.002764 -0.005513 0.023200 -0.001313
# 6 -0.003904 0.002212 -0.001222 0.000609 -0.001313 0.026536
#
#
# Mechanical properties :
#
#
# Convention : Reuss Voigt Hill
#
# Bulk Modulus (GPa) = 60.42496 70.10216 65.26356
# Shear Modulus (GPa) = 33.08694 37.58008 35.33351
#
# Velocity S-wave (km/s) = 3.92529 4.18333 4.05637
# Velocity P-wave (km/s) = 6.97729 7.48190 7.23400
#
# Compressibility (1/GPa) = 0.01654945
#
# Stress axis : x y z
#
# Youngs Moduli (GPa) = 93.35068 64.04072 66.59497
#
# Poissons Ratio (x) = 0.38814 0.08787
# Poissons Ratio (y) = 0.56579 0.33409
# Poissons Ratio (z) = 0.12318 0.32127
#
# Static dielectric constant tensor:
#      x y z
#    x 4.528300 0.520100 0.288700 
#    y 0.520100 4.271910 0.405390 
#    z 0.288700 0.405390 4.163210 
# 
# 
# High freq. dielectric constant tensor:
#      x y z
#    x 1.858180 0.018790 0.009350 
#    y 0.018790 1.844770 0.012890 
#    z 0.009350 0.012890 1.844100 
# 
# From -- ./inp_files/299223.got.cif
#   From: 2010.06.25/outbox.cif.g09.slc.cpg/sg2_150_cif.got.tgz:299223.got - 2010.06.27 13:26:56.
