data_PCOD8005331
_publ_section_title
;
Structure prediction by ZEFSAII (Michael W. Deem and Ramdas Pophale) SiO2 
 PCOD8005331
Probable space group: P -1
;
_chemical_formula_sum "Si O2"
_cell_formula_units_Z 16
_cell_length_a 11.653826
_cell_length_b 12.159310
_cell_length_c 18.444804
_cell_angle_alpha 153.048215
_cell_angle_beta 143.283119
_cell_angle_gamma 48.877116
_cell_volume 692.472667
_symmetry_space_group_name_H-M "P -1"
_symmetry_group_IT_number 2
_symmetry_cell_setting 'triclinic'
loop_
_space_group_symop_operation_xyz
x,y,z
-x,-y,-z
loop_
_atom_site_type_symbol
_atom_site_label
_atom_site_fract_x
_atom_site_fract_y
_atom_site_fract_z
Si Si1 0.586904 0.185649 0.359710
Si Si2 0.061397 0.789757 0.211180
Si Si3 0.449801 0.827919 0.509001
Si Si4 0.148131 0.169557 0.728130
Si Si5 0.331761 0.635759 0.018314
Si Si6 0.834636 0.086443 0.012915
Si Si7 0.188865 0.954238 0.859718
Si Si8 0.405468 0.645733 0.690354
O O1 0.663073 0.275041 0.532258
O O2 0.660420 0.371317 0.438815
O O3 0.646743 0.922208 0.220430
O O4 0.352656 0.140393 0.218617
O O5 0.293707 0.857500 0.385305
O O6 0.938897 0.874580 0.263172
O O7 0.998855 0.939890 0.200160
O O8 0.000000 0.500000 0.000000
O O9 0.576911 0.626324 0.431884
O O10 0.588695 0.097908 0.747762
O O11 0.187685 0.459466 0.897316
O O12 0.000000 0.000000 0.500000
O O13 0.500000 0.500000 0.000000
O O14 0.208024 0.667807 0.902830
O O15 0.882957 0.152499 0.160141
O O16 0.000000 0.000000 0.000000
O O17 0.238887 0.733478 0.705629
O O18 0.383456 0.170688 0.087493
#
# Coordination Sequence:
#
# PCOD8005331 Si02
#       8
#     2   2   2   2   2   2   2   2
#     4  10  20  40  69 105 135 178 238 289 346 412
#     4  12  24  40  69 108 141 180 240 290 347 418
#     4  11  22  41  66 106 142 187 229 288 350 421
#     4  12  23  44  77 105 133 185 240 291 354 426
#     4  11  23  46  71  99 142 177 233 291 353 416
#     4  10  23  42  68 100 136 186 233 286 351 416
#     4  10  22  40  67  99 142 189 229 289 352 417
#     4  10  20  38  67 102 143 180 233 289 355 415
#
# _framework density 23.105605000000001
#
# number of rings (size 3 to 8) (size 9 to 14) (size 15 to 20)
#    0.000    1.250    6.250    0.375    1.750    0.000 
#    4.500    0.625    2.750    6.000    0.000    0.000 
#    0.000    0.000    0.000    0.000    0.000    0.000 
#
# Total GULP energy -198330.048234 kJ/mol
# GULP energy per Si atom -12395.628015 kJ/mol
# Density = 2.305302 g / cm^3
# Si number density = 23.105605 Si / 1000 Ang^3
#
#
#
# Elastic Constant Matrix: (Units=GPa)
#
#
# Indices 1 2 3 4 5 6 
#
# 1 81.7365 44.6292 14.3856 0.3282 -2.1231 -10.9064
# 2 44.6292 192.8591 43.6024 -0.5470 -1.7193 -6.5007
# 3 14.3856 43.6024 90.6631 8.5554 -2.5089 -4.8185
# 4 0.3282 -0.5470 8.5554 42.2487 0.9498 -10.9333
# 5 -2.1231 -1.7193 -2.5089 0.9498 21.2952 6.5344
# 6 -10.9064 -6.5007 -4.8185 -10.9333 6.5344 37.1393
#
#
#
# Elastic Compliance Matrix: (Units=1/GPa)
#
#
# Indices 1 2 3 4 5 6 
#
# 1 0.014560 -0.003070 -0.000723 0.001025 -0.000146 0.003972
# 2 -0.003070 0.006512 -0.002708 0.000691 -0.000167 0.000120
# 3 -0.000723 -0.002708 0.012732 -0.002651 0.001343 -0.000051
# 4 0.001025 0.000691 -0.002651 0.026518 -0.003971 0.008583
# 5 -0.000146 -0.000167 0.001343 -0.003971 0.050310 -0.009918
# 6 0.003972 0.000120 -0.000051 0.008583 -0.009918 0.032378
#
#
# Mechanical properties :
#
#
# Convention : Reuss Voigt Hill
#
# Bulk Modulus (GPa) = 48.07588 63.38812 55.73200
# Shear Modulus (GPa) = 30.68475 37.64607 34.16541
#
# Velocity S-wave (km/s) = 3.64816 4.04084 3.84951
# Velocity P-wave (km/s) = 6.21270 7.01889 6.62806
#
# Compressibility (1/GPa) = 0.02080045
#
# Stress axis : x y z
#
# Youngs Moduli (GPa) = 68.68008 153.55172 78.54381
#
# Poissons Ratio (x) = 0.47146 0.05681
# Poissons Ratio (y) = 0.21087 0.21272
# Poissons Ratio (z) = 0.04968 0.41587
#
# Static dielectric constant tensor:
#      x y z
#    x 4.112530 0.166160 -0.170470 
#    y 0.166160 4.689250 -0.116440 
#    z -0.170470 -0.116440 3.944790 
# 
# 
# High freq. dielectric constant tensor:
#      x y z
#    x 1.905890 -0.006420 -0.017740 
#    y -0.006420 1.935710 -0.003070 
#    z -0.017740 -0.003070 1.886420 
# 
# From -- ./inp_files/569037.got.cif
#   From: 2010.06.25/outbox.cif.g09.slc.cpg/sg2_285_cif.got.tgz:569037.got - 2010.06.27 13:26:56.
