data_PCOD8005016
_publ_section_title
;
Structure prediction by ZEFSAII (Michael W. Deem and Ramdas Pophale) SiO2 
 PCOD8005016
Probable space group: P -1
;
_chemical_formula_sum "Si O2"
_cell_formula_units_Z 12
_cell_length_a 14.397076
_cell_length_b 14.206916
_cell_length_c 8.664582
_cell_angle_alpha 65.155675
_cell_angle_beta 104.410950
_cell_angle_gamma 159.926770
_cell_volume 487.800654
_symmetry_space_group_name_H-M "P -1"
_symmetry_group_IT_number 2
_symmetry_cell_setting 'triclinic'
loop_
_space_group_symop_operation_xyz
x,y,z
-x,-y,-z
loop_
_atom_site_type_symbol
_atom_site_label
_atom_site_fract_x
_atom_site_fract_y
_atom_site_fract_z
Si Si1 0.766262 0.891071 0.351700
Si Si2 0.541872 0.154827 0.981572
Si Si3 0.167179 0.375131 0.438218
Si Si4 0.318824 0.291423 0.866016
Si Si5 0.934165 0.633948 0.068391
Si Si6 0.588390 0.760628 0.798406
O O1 0.448558 0.610652 0.483432
O O2 0.688519 0.717345 0.319092
O O3 0.019245 0.136695 0.421625
O O4 0.907363 0.119981 0.140841
O O5 0.710080 0.397976 0.755596
O O6 0.750696 0.361700 0.077168
O O7 0.500000 0.000000 0.000000
O O8 0.212060 0.859157 0.111733
O O9 0.907902 0.141832 0.615803
O O10 0.568813 0.633740 0.779505
O O11 0.402300 0.264879 0.997729
O O12 0.000000 0.000000 0.000000
O O13 0.691775 0.447352 0.205272
#
# Coordination Sequence:
#
# PCOD8005016 Si02
#       6
#     2   2   2   2   2   2
#     4  10  21  40  58  87 121 168 204 245 301 355
#     4  10  21  41  66  91 117 158 201 247 310 384
#     4  10  24  39  62  90 127 156 204 261 306 348
#     4  11  23  38  62  84 126 171 218 239 294 371
#     4  10  20  38  64  85 121 162 198 243 311 372
#     4  11  24  39  59  93 123 167 208 256 299 353
#
# _framework density 24.600214999999999
#
# number of rings (size 3 to 8) (size 9 to 14) (size 15 to 20)
#    0.000    1.667    1.667    3.500    4.667    1.333 
#    0.000    1.667    0.000    0.000    0.000    3.500 
#    0.000    0.000    0.000    0.000    0.000    0.000 
#
# Total GULP energy -148694.411656 kJ/mol
# GULP energy per Si atom -12391.200971 kJ/mol
# Density = 2.454422 g / cm^3
# Si number density = 24.600215 Si / 1000 Ang^3
#
#
#
# Elastic Constant Matrix: (Units=GPa)
#
#
# Indices 1 2 3 4 5 6 
#
# 1 73.8914 -9.7363 34.3471 -23.8002 -12.3679 -2.0964
# 2 -9.7363 65.3179 23.3161 -18.0051 3.8712 12.5002
# 3 34.3471 23.3161 92.7725 -30.5747 -14.6555 0.7567
# 4 -23.8002 -18.0051 -30.5747 40.8446 12.6317 -15.8175
# 5 -12.3679 3.8712 -14.6555 12.6317 27.1778 -8.9271
# 6 -2.0964 12.5002 0.7567 -15.8175 -8.9271 38.4324
#
#
#
# Elastic Compliance Matrix: (Units=1/GPa)
#
#
# Indices 1 2 3 4 5 6 
#
# 1 0.021816 0.008039 -0.005506 0.013573 0.000983 0.004498
# 2 0.008039 0.023548 -0.006733 0.011311 -0.010157 -0.004792
# 3 -0.005506 -0.006733 0.018046 0.007691 0.006662 0.006247
# 4 0.013573 0.011311 0.007691 0.052614 -0.010440 0.016139
# 5 0.000983 -0.010157 0.006662 -0.010440 0.050646 0.010694
# 6 0.004498 -0.004792 0.006247 0.016139 0.010694 0.036827
#
#
# Mechanical properties :
#
#
# Convention : Reuss Voigt Hill
#
# Bulk Modulus (GPa) = 18.17780 36.42620 27.30200
# Shear Modulus (GPa) = 21.71724 33.56127 27.63926
#
# Velocity S-wave (km/s) = 2.97443 3.69761 3.35556
# Velocity P-wave (km/s) = 4.38197 5.75058 5.11228
#
# Compressibility (1/GPa) = 0.05501216
#
# Stress axis : x y z
#
# Youngs Moduli (GPa) = 45.83856 42.46578 55.41483
#
# Poissons Ratio (x) = -0.34140 0.30510
# Poissons Ratio (y) = -0.36852 0.37308
# Poissons Ratio (z) = 0.25237 0.28590
#
# Static dielectric constant tensor:
#      x y z
#    x 4.504890 -0.037740 -0.419710 
#    y -0.037740 5.645890 0.233800 
#    z -0.419710 0.233800 4.956570 
# 
# 
# High freq. dielectric constant tensor:
#      x y z
#    x 1.940890 0.000260 -0.019660 
#    y 0.000260 2.007650 -0.016970 
#    z -0.019660 -0.016970 1.970570 
# 
# From -- ./inp_files/55695.got.cif
#   From: 2010.06.25/outbox.cif.g09.slc.cpg/sg2_28_cif.got.tgz:55695.got - 2010.06.27 13:26:56.
