data_PCOD8005586
_publ_section_title
;
Structure prediction by ZEFSAII (Michael W. Deem and Ramdas Pophale) SiO2 
 PCOD8005586
Probable space group: P -1
;
_chemical_formula_sum "Si O2"
_cell_formula_units_Z 12
_cell_length_a 4.754323
_cell_length_b 18.538825
_cell_length_c 5.464488
_cell_angle_alpha 94.432692
_cell_angle_beta 93.059536
_cell_angle_gamma 108.314392
_cell_volume 454.336229
_symmetry_space_group_name_H-M "P -1"
_symmetry_group_IT_number 2
_symmetry_cell_setting 'triclinic'
loop_
_space_group_symop_operation_xyz
x,y,z
-x,-y,-z
loop_
_atom_site_type_symbol
_atom_site_label
_atom_site_fract_x
_atom_site_fract_y
_atom_site_fract_z
Si Si1 0.146150 0.625632 0.627132
Si Si2 0.299978 0.490077 0.723931
Si Si3 0.648021 0.906180 0.337717
Si Si4 0.737902 0.648546 0.007950
Si Si5 0.648479 0.272278 0.740677
Si Si6 0.761967 0.010272 0.801180
O O1 0.294260 0.577722 0.810176
O O2 0.398167 0.695951 0.524072
O O3 0.025586 0.564572 0.385147
O O4 0.884086 0.651152 0.746296
O O5 0.500000 0.500000 0.500000
O O6 0.381053 0.442296 0.941564
O O7 0.486674 0.817627 0.279438
O O8 0.495845 0.950103 0.133583
O O9 0.002872 0.925045 0.339510
O O10 0.593191 0.935398 0.612619
O O11 0.484241 0.690614 0.030198
O O12 0.994353 0.701138 0.210704
O O13 0.000000 0.000000 0.000000
#
# Coordination Sequence:
#
# PCOD8005586 Si02
#       6
#     2   2   2   2   2   2
#     4  10  23  39  60  89 123 170 217 273 331 389
#     4  10  20  39  60  87 123 165 222 278 324 386
#     4  10  22  41  65  97 137 170 215 281 326 392
#     4  11  24  39  63  90 126 172 222 268 331 399
#     4  11  24  42  60  93 133 167 214 271 334 397
#     4  10  21  41  70  99 127 173 223 265 329 401
#
# _framework density 26.412157000000001
#
# number of rings (size 3 to 8) (size 9 to 14) (size 15 to 20)
#    0.000    1.667    1.667    2.000    2.333    2.000 
#    0.000    8.333    0.000    0.000    0.000    0.000 
#    0.000    0.000    0.000    0.000    0.000    0.000 
#
# Total GULP energy -148697.111818 kJ/mol
# GULP energy per Si atom -12391.425985 kJ/mol
# Density = 2.635204 g / cm^3
# Si number density = 26.412157 Si / 1000 Ang^3
#
#
#
# Elastic Constant Matrix: (Units=GPa)
#
#
# Indices 1 2 3 4 5 6 
#
# 1 142.0869 39.5801 25.6557 5.8105 -3.4507 -15.4348
# 2 39.5801 180.5755 34.8679 35.2041 11.5251 -6.9328
# 3 25.6557 34.8679 79.3189 7.5770 1.7212 -16.7054
# 4 5.8105 35.2041 7.5770 38.3471 -2.8270 6.2753
# 5 -3.4507 11.5251 1.7212 -2.8270 54.6512 -0.6011
# 6 -15.4348 -6.9328 -16.7054 6.2753 -0.6011 35.5109
#
#
#
# Elastic Compliance Matrix: (Units=1/GPa)
#
#
# Indices 1 2 3 4 5 6 
#
# 1 0.007994 -0.001443 -0.001445 0.000052 0.000885 0.002519
# 2 -0.001443 0.007742 -0.002007 -0.006822 -0.002001 0.001112
# 3 -0.001445 -0.002007 0.015570 -0.002122 -0.000195 0.006676
# 4 0.000052 -0.006822 -0.002122 0.034349 0.003194 -0.008323
# 5 0.000885 -0.002001 -0.000195 0.003194 0.018943 -0.000341
# 6 0.002519 0.001112 0.006676 -0.008323 -0.000341 0.034078
#
#
# Mechanical properties :
#
#
# Convention : Reuss Voigt Hill
#
# Bulk Modulus (GPa) = 46.47884 66.90987 56.69436
# Shear Modulus (GPa) = 36.86258 45.82702 41.34480
#
# Velocity S-wave (km/s) = 3.73992 4.16994 3.96077
# Velocity P-wave (km/s) = 6.02370 6.96940 6.51374
#
# Compressibility (1/GPa) = 0.02151516
#
# Stress axis : x y z
#
# Youngs Moduli (GPa) = 125.09672 129.16400 64.22556
#
# Poissons Ratio (x) = 0.18639 0.09280
# Poissons Ratio (y) = 0.18053 0.12893
# Poissons Ratio (z) = 0.18076 0.25929
#
# Static dielectric constant tensor:
#      x y z
#    x 5.881800 0.227140 0.037260 
#    y 0.227140 4.790650 -0.220500 
#    z 0.037260 -0.220500 5.133700 
# 
# 
# High freq. dielectric constant tensor:
#      x y z
#    x 2.093770 0.013730 0.021070 
#    y 0.013730 2.045960 0.002180 
#    z 0.021070 0.002180 2.076210 
# 
# From -- ./inp_files/6873.got.cif
#   From: 2010.06.25/outbox.cif.g09.slc.cpg/sg2_4_cif.got.tgz:6873.got - 2010.06.27 13:26:56.
