data_PCOD8005283
_publ_section_title
;
Structure prediction by ZEFSAII (Michael W. Deem and Ramdas Pophale) SiO2 
 PCOD8005283
Probable space group: P -1
;
_chemical_formula_sum "Si O2"
_cell_formula_units_Z 12
_cell_length_a 7.902829
_cell_length_b 10.444663
_cell_length_c 7.542492
_cell_angle_alpha 85.829016
_cell_angle_beta 74.399350
_cell_angle_gamma 130.965619
_cell_volume 425.415004
_symmetry_space_group_name_H-M "P -1"
_symmetry_group_IT_number 2
_symmetry_cell_setting 'triclinic'
loop_
_space_group_symop_operation_xyz
x,y,z
-x,-y,-z
loop_
_atom_site_type_symbol
_atom_site_label
_atom_site_fract_x
_atom_site_fract_y
_atom_site_fract_z
Si Si1 0.344841 0.265640 0.439156
Si Si2 0.629441 0.925157 0.192947
Si Si3 0.832117 0.381777 0.848075
Si Si4 0.302301 0.754215 0.736589
Si Si5 0.885108 0.908809 0.842934
Si Si6 0.192387 0.330971 0.801138
O O1 0.506944 0.218607 0.455133
O O2 0.176928 0.140378 0.335709
O O3 0.159113 0.229014 0.642042
O O4 0.533556 0.471935 0.304790
O O5 0.353088 0.725995 0.256333
O O6 0.612394 0.058710 0.262722
O O7 0.777298 0.987485 0.952162
O O8 0.809020 0.929909 0.263794
O O9 0.024485 0.599244 0.745720
O O10 0.979642 0.328098 0.858672
O O11 0.678231 0.323502 0.080231
O O12 0.810760 0.750922 0.005435
#
# Coordination Sequence:
#
# PCOD8005283 Si02
#       6
#     2   2   2   2   2   2
#     4  10  22  41  66  96 130 168 213 265 318 378
#     4  11  23  38  64  96 130 170 212 265 315 381
#     4  10  20  38  66  92 124 174 214 256 321 378
#     4  10  20  38  66  92 124 174 214 256 321 378
#     4  11  23  38  63  96 128 170 210 262 326 374
#     4  10  22  41  66  96 130 168 213 265 318 378
#
# _framework density 28.207747999999999
#
# number of rings (size 3 to 8) (size 9 to 14) (size 15 to 20)
#    0.000    1.667    3.333    1.000    0.000    1.333 
#    0.000   13.333    0.000    6.000    0.000    0.000 
#    0.000    0.000    0.000    0.000    0.000    0.000 
#
# Total GULP energy -148667.957778 kJ/mol
# GULP energy per Si atom -12388.996481 kJ/mol
# Density = 2.814355 g / cm^3
# Si number density = 28.207748 Si / 1000 Ang^3
#
#
#
# Elastic Constant Matrix: (Units=GPa)
#
#
# Indices 1 2 3 4 5 6 
#
# 1 69.7774 43.0963 11.9399 11.8864 4.7752 15.7635
# 2 43.0963 163.2307 35.6850 40.2177 9.4006 25.1258
# 3 11.9399 35.6850 90.6477 13.5267 -36.2533 1.5035
# 4 11.8864 40.2177 13.5267 52.2885 5.6866 5.1274
# 5 4.7752 9.4006 -36.2533 5.6866 35.9636 8.0606
# 6 15.7635 25.1258 1.5035 5.1274 8.0606 56.5067
#
#
#
# Elastic Compliance Matrix: (Units=1/GPa)
#
#
# Indices 1 2 3 4 5 6 
#
# 1 0.017765 -0.003635 -0.001885 -0.000184 -0.002631 -0.002897
# 2 -0.003635 0.010052 -0.005245 -0.004673 -0.006245 -0.002001
# 3 -0.001885 -0.005245 0.025511 -0.005093 0.028461 -0.001418
# 4 -0.000184 -0.004673 -0.005093 0.024842 -0.008076 0.001163
# 5 -0.002631 -0.006245 0.028461 -0.008076 0.060922 -0.005204
# 6 -0.002897 -0.002001 -0.001418 0.001163 -0.005204 0.020070
#
#
# Mechanical properties :
#
#
# Convention : Reuss Voigt Hill
#
# Bulk Modulus (GPa) = 31.45071 56.12202 43.78636
# Shear Modulus (GPa) = 26.13802 44.48073 35.30937
#
# Velocity S-wave (km/s) = 3.04735 3.97533 3.54186
# Velocity P-wave (km/s) = 4.85342 6.40391 5.68180
#
# Compressibility (1/GPa) = 0.03179579
#
# Stress axis : x y z
#
# Youngs Moduli (GPa) = 56.29004 99.48530 39.19858
#
# Poissons Ratio (x) = 0.36165 0.07391
# Poissons Ratio (y) = 0.20463 0.20561
# Poissons Ratio (z) = 0.10613 0.52184
#
# Static dielectric constant tensor:
#      x y z
#    x 4.913210 0.166200 -0.439440 
#    y 0.166200 5.793070 -0.012720 
#    z -0.439440 -0.012720 5.502820 
# 
# 
# High freq. dielectric constant tensor:
#      x y z
#    x 2.121490 0.000870 -0.024090 
#    y 0.000870 2.179390 -0.007840 
#    z -0.024090 -0.007840 2.176810 
# 
# From -- ./inp_files/189071.got.cif
#   From: 2010.06.25/outbox.cif.g09.slc.cpg/sg2_95_cif.got.tgz:189071.got - 2010.06.27 13:26:56.
