data_PCOD8005835
_publ_section_title
;
Structure prediction by ZEFSAII (Michael W. Deem and Ramdas Pophale) SiO2 
 PCOD8005835
Probable space group: P -1
;
_chemical_formula_sum "Si O2"
_cell_formula_units_Z 16
_cell_length_a 15.414460
_cell_length_b 11.320216
_cell_length_c 16.356435
_cell_angle_alpha 60.628797
_cell_angle_beta 35.338009
_cell_angle_gamma 34.499565
_cell_volume 777.797189
_symmetry_space_group_name_H-M "P -1"
_symmetry_group_IT_number 2
_symmetry_cell_setting 'triclinic'
loop_
_space_group_symop_operation_xyz
x,y,z
-x,-y,-z
loop_
_atom_site_type_symbol
_atom_site_label
_atom_site_fract_x
_atom_site_fract_y
_atom_site_fract_z
Si Si1 0.071644 0.329330 0.872032
Si Si2 0.925988 0.881104 0.744331
Si Si3 0.860040 0.997566 0.476912
Si Si4 0.768077 0.884761 0.344661
Si Si5 0.437010 0.313602 0.557858
Si Si6 0.354420 0.981563 0.925400
Si Si7 0.897029 0.446582 0.644749
Si Si8 0.454045 0.901620 0.176900
O O1 0.073137 0.228841 0.825747
O O2 0.275930 0.300212 0.712661
O O3 0.165403 0.176312 0.930931
O O4 0.765277 0.615028 0.024958
O O5 0.226403 0.587413 0.595917
O O6 0.693705 0.975813 0.839435
O O7 0.852788 0.924546 0.881192
O O8 0.932550 0.033391 0.662228
O O9 0.034627 0.738545 0.396710
O O10 0.610160 0.232755 0.529778
O O11 0.730246 0.063015 0.642003
O O12 0.962565 0.665878 0.336290
O O13 0.500000 0.000000 0.500000
O O14 0.658780 0.114233 0.382224
O O15 0.543016 0.957031 0.827487
O O16 0.565435 0.706940 0.823412
O O17 0.000000 0.500000 0.500000
#
# Coordination Sequence:
#
# PCOD8005835 Si02
#       8
#     2   2   2   2   2   2   2   2
#     4  11  21  39  63  93 121 158 210 264 295 358
#     4  12  26  38  62  94 125 166 200 254 310 368
#     4  11  24  43  61  90 129 162 201 247 317 368
#     4   9  20  33  58  93 124 152 199 256 306 347
#     4  10  20  39  63  88 125 162 202 249 305 366
#     4  12  23  39  65  91 120 163 212 252 306 358
#     4  11  21  39  66  90 122 161 206 256 299 369
#     4  12  23  40  63  89 127 158 209 257 300 363
#
# _framework density 20.570916
#
# number of rings (size 3 to 8) (size 9 to 14) (size 15 to 20)
#    0.000    1.000    3.750    4.500    3.500    1.500 
#    0.000    0.000    0.000    4.500    0.000    0.000 
#    0.000    0.000    0.000    0.000    0.000    0.000 
#
# Total GULP energy -198442.041258 kJ/mol
# GULP energy per Si atom -12402.627579 kJ/mol
# Density = 2.052410 g / cm^3
# Si number density = 20.570916 Si / 1000 Ang^3
#
#
#
# Elastic Constant Matrix: (Units=GPa)
#
#
# Indices 1 2 3 4 5 6 
#
# 1 65.3677 21.1991 18.9607 4.1551 12.5897 -11.4321
# 2 21.1991 70.7610 9.4499 21.9953 -2.2557 -3.6700
# 3 18.9607 9.4499 64.9531 3.7171 12.9435 4.5727
# 4 4.1551 21.9953 3.7171 45.4960 -0.6460 -3.0699
# 5 12.5897 -2.2557 12.9435 -0.6460 28.1544 -3.1868
# 6 -11.4321 -3.6700 4.5727 -3.0699 -3.1868 28.4137
#
#
#
# Elastic Compliance Matrix: (Units=1/GPa)
#
#
# Indices 1 2 3 4 5 6 
#
# 1 0.021214 -0.006125 -0.004581 0.001832 -0.006934 0.007902
# 2 -0.006125 0.018910 -0.001403 -0.008414 0.004685 -0.000180
# 3 -0.004581 -0.001403 0.018900 -0.000959 -0.007455 -0.006006
# 4 0.001832 -0.008414 -0.000959 0.026132 -0.000158 0.002611
# 5 -0.006934 0.004685 -0.007455 -0.000158 0.042849 0.003804
# 6 0.007902 -0.000180 -0.006006 0.002611 0.003804 0.040025
#
#
# Mechanical properties :
#
#
# Convention : Reuss Voigt Hill
#
# Bulk Modulus (GPa) = 28.72955 33.36680 31.04817
# Shear Modulus (GPa) = 24.52787 30.51094 27.51941
#
# Velocity S-wave (km/s) = 3.45680 3.85542 3.66154
# Velocity P-wave (km/s) = 5.47074 6.00622 5.74472
#
# Compressibility (1/GPa) = 0.03480737
#
# Stress axis : x y z
#
# Youngs Moduli (GPa) = 47.13852 52.88330 52.90927
#
# Poissons Ratio (x) = 0.32389 0.24237
# Poissons Ratio (y) = 0.28870 0.07422
# Poissons Ratio (z) = 0.21594 0.07418
#
# Static dielectric constant tensor:
#      x y z
#    x 4.096210 0.005280 0.456430 
#    y 0.005280 3.725890 0.221890 
#    z 0.456430 0.221890 3.868270 
# 
# 
# High freq. dielectric constant tensor:
#      x y z
#    x 1.803870 -0.010910 0.021720 
#    y -0.010910 1.804620 0.017210 
#    z 0.021720 0.017210 1.801360 
# 
# From -- ./inp_files/190005.got.cif
#   From: 2010.06.25/outbox.cif.g09.slc.cpg/sg2_96_cif.got.tgz:190005.got - 2010.06.27 13:26:56.
