data_PCOD8005349
_publ_section_title
;
Structure prediction by ZEFSAII (Michael W. Deem and Ramdas Pophale) SiO2 
 PCOD8005349
Probable space group: P -1
;
_chemical_formula_sum "Si O2"
_cell_formula_units_Z 16
_cell_length_a 12.720696
_cell_length_b 9.259977
_cell_length_c 16.113310
_cell_angle_alpha 142.183965
_cell_angle_beta 45.492095
_cell_angle_gamma 135.867478
_cell_volume 769.381316
_symmetry_space_group_name_H-M "P -1"
_symmetry_group_IT_number 2
_symmetry_cell_setting 'triclinic'
loop_
_space_group_symop_operation_xyz
x,y,z
-x,-y,-z
loop_
_atom_site_type_symbol
_atom_site_label
_atom_site_fract_x
_atom_site_fract_y
_atom_site_fract_z
Si Si1 0.506684 0.262760 0.648438
Si Si2 0.929029 0.139706 0.538655
Si Si3 0.790836 0.241989 0.152091
Si Si4 0.621806 0.725199 0.089978
Si Si5 0.750272 0.712839 0.312390
Si Si6 0.079444 0.377372 0.174541
Si Si7 0.029253 0.973605 0.159915
Si Si8 0.134484 0.402790 0.412366
O O1 0.433365 0.271004 0.783365
O O2 0.423205 0.358282 0.664287
O O3 0.692174 0.411605 0.619588
O O4 0.500000 0.000000 0.500000
O O5 0.842300 0.324115 0.705769
O O6 0.095294 0.341842 0.502419
O O7 0.809371 0.953188 0.452345
O O8 0.000000 0.000000 0.500000
O O9 0.730628 0.463084 0.261814
O O10 0.931865 0.353988 0.189427
O O11 0.647081 0.996801 0.156831
O O12 0.862364 0.172325 0.997902
O O13 0.500000 0.500000 0.000000
O O14 0.790765 0.690372 0.980741
O O15 0.863461 0.773525 0.196046
O O16 0.010222 0.172113 0.193122
O O17 0.122936 0.137725 0.259259
O O18 0.000000 0.500000 0.500000
#
# Coordination Sequence:
#
# PCOD8005349 Si02
#       8
#     2   2   2   2   2   2   2   2
#     4  12  26  43  68  98 135 178 223 278 335 397
#     4  11  23  42  67  99 133 176 225 275 334 394
#     4  11  22  41  66  98 133 171 222 275 328 402
#     4  11  26  45  69 100 135 179 222 276 340 397
#     4  11  24  40  64 102 137 169 220 284 339 386
#     4  11  21  40  71  95 131 177 229 268 323 404
#     4  10  20  38  67  93 129 175 222 269 328 399
#     4  11  23  42  68  91 125 172 229 274 326 408
#
# _framework density 20.795929000000001
#
# number of rings (size 3 to 8) (size 9 to 14) (size 15 to 20)
#    0.000    1.000    2.500    6.375    3.500    0.000 
#    2.250    2.500    0.000    0.000    0.000    0.000 
#    0.000    0.000    0.000    0.000    0.000    0.000 
#
# Total GULP energy -198246.292853 kJ/mol
# GULP energy per Si atom -12390.393303 kJ/mol
# Density = 2.074860 g / cm^3
# Si number density = 20.795929 Si / 1000 Ang^3
#
#
#
# Elastic Constant Matrix: (Units=GPa)
#
#
# Indices 1 2 3 4 5 6 
#
# 1 107.4481 62.8345 29.5583 -3.2317 -7.6259 -3.6097
# 2 62.8345 133.9181 50.1794 3.6990 -12.6013 -8.1383
# 3 29.5583 50.1794 112.9349 7.8474 5.3073 -6.8019
# 4 -3.2317 3.6990 7.8474 36.7343 -3.3424 -1.1656
# 5 -7.6259 -12.6013 5.3073 -3.3424 27.3101 4.3376
# 6 -3.6097 -8.1383 -6.8019 -1.1656 4.3376 33.6038
#
#
#
# Elastic Compliance Matrix: (Units=1/GPa)
#
#
# Indices 1 2 3 4 5 6 
#
# 1 0.013085 -0.005632 -0.001163 0.002101 0.001590 -0.000326
# 2 -0.005632 0.012128 -0.004049 -0.000403 0.004617 0.000903
# 3 -0.001163 -0.004049 0.011478 -0.002547 -0.005017 0.001777
# 4 0.002101 -0.000403 -0.002547 0.028390 0.004365 0.000034
# 5 0.001590 0.004617 -0.005017 0.004365 0.041483 -0.004930
# 6 -0.000326 0.000903 0.001777 0.000034 -0.004930 0.030939
#
#
# Mechanical properties :
#
#
# Convention : Reuss Voigt Hill
#
# Bulk Modulus (GPa) = 66.65390 71.04949 68.85169
# Shear Modulus (GPa) = 30.45206 33.64489 32.04847
#
# Velocity S-wave (km/s) = 3.83081 4.02663 3.92994
# Velocity P-wave (km/s) = 7.18942 7.47379 7.33298
#
# Compressibility (1/GPa) = 0.01500287
#
# Stress axis : x y z
#
# Youngs Moduli (GPa) = 76.42082 82.45675 87.12468
#
# Poissons Ratio (x) = 0.46442 0.10129
# Poissons Ratio (y) = 0.43043 0.35277
# Poissons Ratio (z) = 0.08885 0.33387
#
# Static dielectric constant tensor:
#      x y z
#    x 4.762080 -1.479950 1.215730 
#    y -1.479950 6.045940 -1.827110 
#    z 1.215730 -1.827110 5.554120 
# 
# 
# High freq. dielectric constant tensor:
#      x y z
#    x 1.805610 -0.005930 0.014480 
#    y -0.005930 1.814850 0.006250 
#    z 0.014480 0.006250 1.833600 
# 
# From -- ./inp_files/263331.got.cif
#   From: 2010.06.25/outbox.cif.g09.slc.cpg/sg2_132_cif.got.tgz:263331.got - 2010.06.27 13:26:56.
