data_PCOD8005911
_publ_section_title
;
Structure prediction by ZEFSAII (Michael W. Deem and Ramdas Pophale) SiO2 
 PCOD8005911
Probable space group: P -1
;
_chemical_formula_sum "Si O2"
_cell_formula_units_Z 16
_cell_length_a 11.634933
_cell_length_b 21.915053
_cell_length_c 9.051064
_cell_angle_alpha 35.807366
_cell_angle_beta 140.305865
_cell_angle_gamma 145.008126
_cell_volume 735.350420
_symmetry_space_group_name_H-M "P -1"
_symmetry_group_IT_number 2
_symmetry_cell_setting 'triclinic'
loop_
_space_group_symop_operation_xyz
x,y,z
-x,-y,-z
loop_
_atom_site_type_symbol
_atom_site_label
_atom_site_fract_x
_atom_site_fract_y
_atom_site_fract_z
Si Si1 0.822941 0.980113 0.081314
Si Si2 0.109922 0.892827 0.409143
Si Si3 0.552691 0.630894 0.741626
Si Si4 0.215052 0.340093 0.608407
Si Si5 0.402380 0.603581 0.312176
Si Si6 0.830946 0.355224 0.612602
Si Si7 0.349585 0.796965 0.984504
Si Si8 0.952220 0.771731 0.038563
O O1 0.796423 0.025858 0.804591
O O2 0.902858 0.081950 0.089334
O O3 0.597384 0.870861 0.130110
O O4 0.988147 0.936050 0.310193
O O5 0.299176 0.897485 0.678929
O O6 0.962028 0.750101 0.503365
O O7 0.515356 0.626692 0.538166
O O8 0.396921 0.663254 0.611639
O O9 0.500000 0.500000 0.000000
O O10 0.796930 0.732215 0.821042
O O11 0.209062 0.463443 0.382554
O O12 0.441445 0.371920 0.714333
O O13 0.193480 0.275123 0.869479
O O14 0.319219 0.696606 0.028405
O O15 0.000000 0.500000 0.500000
O O16 0.904140 0.289717 0.697107
O O17 0.808430 0.282761 0.884035
#
# Coordination Sequence:
#
# PCOD8005911 Si02
#       8
#     2   2   2   2   2   2   2   2
#     4  10  23  44  63  95 136 165 227 268 313 394
#     4  10  22  41  69  91 131 177 210 269 337 374
#     4  11  21  41  68  89 130 176 206 258 339 384
#     4  10  20  39  63  95 128 162 215 274 321 384
#     4  10  21  38  63  97 130 159 217 271 320 395
#     4  11  24  41  64  96 131 167 219 268 320 397
#     4  11  23  41  67  94 133 175 214 269 329 384
#     4  11  23  42  65  95 128 173 214 271 323 387
#
# _framework density 21.758333
#
# number of rings (size 3 to 8) (size 9 to 14) (size 15 to 20)
#    0.000    1.500    3.750    1.125    1.750    2.000 
#    4.500    4.375    0.000    0.000    0.000    0.000 
#    0.000    0.000    0.000    0.000    0.000    0.000 
#
# Total GULP energy -198333.195028 kJ/mol
# GULP energy per Si atom -12395.824689 kJ/mol
# Density = 2.170881 g / cm^3
# Si number density = 21.758333 Si / 1000 Ang^3
#
#
#
# Elastic Constant Matrix: (Units=GPa)
#
#
# Indices 1 2 3 4 5 6 
#
# 1 87.6887 36.0351 33.1382 -8.6892 9.6697 -5.0748
# 2 36.0351 118.3482 15.6542 -27.5128 12.3367 -12.7925
# 3 33.1382 15.6542 100.5967 -13.5651 27.5793 -9.6551
# 4 -8.6892 -27.5128 -13.5651 26.3015 -0.2885 1.6409
# 5 9.6697 12.3367 27.5793 -0.2885 33.2132 -9.7968
# 6 -5.0748 -12.7925 -9.6551 1.6409 -9.7968 34.8844
#
#
#
# Elastic Compliance Matrix: (Units=1/GPa)
#
#
# Indices 1 2 3 4 5 6 
#
# 1 0.014713 -0.004572 -0.004854 -0.002386 0.001306 -0.000401
# 2 -0.004572 0.013560 0.002989 0.013970 -0.005174 0.003025
# 3 -0.004854 0.002989 0.015881 0.009525 -0.012562 0.000809
# 4 -0.002386 0.013970 0.009525 0.056537 -0.011460 0.001534
# 5 0.001306 -0.005174 -0.012562 -0.011460 0.044280 0.007790
# 6 -0.000401 0.003025 0.000809 0.001534 0.007790 0.032057
#
#
# Mechanical properties :
#
#
# Convention : Reuss Voigt Hill
#
# Bulk Modulus (GPa) = 31.96893 52.92097 42.44495
# Shear Modulus (GPa) = 24.95891 33.66689 29.31290
#
# Velocity S-wave (km/s) = 3.39056 3.93785 3.67441
# Velocity P-wave (km/s) = 5.48201 6.71197 6.12793
#
# Compressibility (1/GPa) = 0.03128037
#
# Stress axis : x y z
#
# Youngs Moduli (GPa) = 67.96503 73.74373 62.96984
#
# Poissons Ratio (x) = 0.33716 0.30563
# Poissons Ratio (y) = 0.31074 -0.18819
# Poissons Ratio (z) = 0.32987 -0.22039
#
# Static dielectric constant tensor:
#      x y z
#    x 4.007030 -0.057610 0.199280 
#    y -0.057610 4.130250 -0.281610 
#    z 0.199280 -0.281610 3.839760 
# 
# 
# High freq. dielectric constant tensor:
#      x y z
#    x 1.861860 0.004330 0.008840 
#    y 0.004330 1.852400 -0.027250 
#    z 0.008840 -0.027250 1.841120 
# 
# From -- ./inp_files/282814.got.cif
#   From: 2010.06.25/outbox.cif.g09.slc.cpg/sg2_142_cif.got.tgz:282814.got - 2010.06.27 13:26:56.
