data_PCOD8005726
_publ_section_title
;
Structure prediction by ZEFSAII (Michael W. Deem and Ramdas Pophale) SiO2 
 PCOD8005726
Probable space group: P -1
;
_chemical_formula_sum "Si O2"
_cell_formula_units_Z 14
_cell_length_a 8.954925
_cell_length_b 14.533364
_cell_length_c 13.907680
_cell_angle_alpha 138.843055
_cell_angle_beta 37.986186
_cell_angle_gamma 144.669242
_cell_volume 612.745045
_symmetry_space_group_name_H-M "P -1"
_symmetry_group_IT_number 2
_symmetry_cell_setting 'triclinic'
loop_
_space_group_symop_operation_xyz
x,y,z
-x,-y,-z
loop_
_atom_site_type_symbol
_atom_site_label
_atom_site_fract_x
_atom_site_fract_y
_atom_site_fract_z
Si Si1 0.594311 0.486249 0.704632
Si Si2 0.796407 0.400052 0.717544
Si Si3 0.011054 0.849949 0.769234
Si Si4 0.624599 0.020441 0.680164
Si Si5 0.545217 0.292479 0.960367
Si Si6 0.959534 0.825910 0.569286
Si Si7 0.436770 0.689629 0.607553
O O1 0.612859 0.389553 0.710143
O O2 0.916790 0.654065 0.653039
O O3 0.484285 0.368133 0.575260
O O4 0.377023 0.550945 0.885783
O O5 0.594730 0.364204 0.883983
O O6 0.863059 0.258344 0.566869
O O7 0.097485 0.581555 0.719072
O O8 0.959603 0.907472 0.735444
O O9 0.799443 0.850327 0.958298
O O10 0.345603 0.968726 0.716653
O O11 0.719191 0.201717 0.821118
O O12 0.877022 0.042150 0.497722
O O13 0.544472 0.883880 0.694517
O O14 0.627278 0.687715 0.597286
#
# Coordination Sequence:
#
# PCOD8005726 Si02
#       7
#     2   2   2   2   2   2   2
#     4  10  21  37  64  90 119 148 200 245 298 341
#     4  11  19  37  62  90 115 156 196 243 293 350
#     4  10  20  39  62  87 122 147 199 246 295 342
#     4  11  22  40  62  86 119 160 197 245 294 351
#     4   9  22  38  62  91 121 148 200 243 304 346
#     4  11  24  38  59  91 121 160 198 240 298 348
#     4  12  22  40  62  88 123 155 200 248 285 352
#
# _framework density 22.848002999999999
#
# number of rings (size 3 to 8) (size 9 to 14) (size 15 to 20)
#    0.857    0.571    2.857    3.429    0.000    1.143 
#    0.000    8.571    0.000    1.714    0.000    0.000 
#    0.000    0.000    0.000    0.000    0.000    0.000 
#
# Total GULP energy -173456.281622 kJ/mol
# GULP energy per Si atom -12389.734402 kJ/mol
# Density = 2.279600 g / cm^3
# Si number density = 22.848003 Si / 1000 Ang^3
#
#
#
# Elastic Constant Matrix: (Units=GPa)
#
#
# Indices 1 2 3 4 5 6 
#
# 1 47.5966 0.7854 39.4503 -8.6288 14.7563 10.4000
# 2 0.7854 68.1161 27.0851 -16.9640 6.0860 -14.3946
# 3 39.4503 27.0851 93.7667 -11.5087 12.3303 -5.2930
# 4 -8.6288 -16.9640 -11.5087 45.3913 -11.7338 -1.7050
# 5 14.7563 6.0860 12.3303 -11.7338 16.8069 -2.6980
# 6 10.4000 -14.3946 -5.2930 -1.7050 -2.6980 27.5597
#
#
#
# Elastic Compliance Matrix: (Units=1/GPa)
#
#
# Indices 1 2 3 4 5 6 
#
# 1 0.059096 0.004891 -0.022592 -0.005535 -0.045585 -0.028890
# 2 0.004891 0.020831 -0.006651 0.007167 -0.000649 0.008137
# 3 -0.022592 -0.006651 0.021659 0.001413 0.008975 0.010177
# 4 -0.005535 0.007167 0.001413 0.030693 0.024323 0.010383
# 5 -0.045585 -0.000649 0.008975 0.024323 0.115190 0.031368
# 6 -0.028890 0.008137 0.010177 0.010383 0.031368 0.057105
#
#
# Mechanical properties :
#
#
# Convention : Reuss Voigt Hill
#
# Bulk Modulus (GPa) = 18.90966 38.23566 28.57266
# Shear Modulus (GPa) = 13.48051 27.42882 20.45467
#
# Velocity S-wave (km/s) = 2.43164 3.46857 2.99532
# Velocity P-wave (km/s) = 4.02220 5.72821 4.94927
#
# Compressibility (1/GPa) = 0.05288303
#
# Stress axis : x y z
#
# Youngs Moduli (GPa) = 16.92150 48.00452 46.17048
#
# Poissons Ratio (x) = -0.23480 1.04309
# Poissons Ratio (y) = -0.08277 0.30707
# Poissons Ratio (z) = 0.38229 0.31927
#
# Static dielectric constant tensor:
#      x y z
#    x 3.813800 -0.324190 0.096570 
#    y -0.324190 4.189190 -0.171640 
#    z 0.096570 -0.171640 4.328740 
# 
# 
# High freq. dielectric constant tensor:
#      x y z
#    x 1.872740 -0.020640 0.006030 
#    y -0.020640 1.904330 -0.009310 
#    z 0.006030 -0.009310 1.893890 
# 
# From -- ./inp_files/443527.got.cif
#   From: 2010.06.25/outbox.cif.g09.slc.cpg/sg2_222_cif.got.tgz:443527.got - 2010.06.27 13:26:56.
