data_PCOD8005578
_publ_section_title
;
Structure prediction by ZEFSAII (Michael W. Deem and Ramdas Pophale) SiO2 
 PCOD8005578
Probable space group: P -1
;
_chemical_formula_sum "Si O2"
_cell_formula_units_Z 16
_cell_length_a 15.038664
_cell_length_b 11.693885
_cell_length_c 10.917115
_cell_angle_alpha 25.419260
_cell_angle_beta 74.495343
_cell_angle_gamma 72.486516
_cell_volume 785.843634
_symmetry_space_group_name_H-M "P -1"
_symmetry_group_IT_number 2
_symmetry_cell_setting 'triclinic'
loop_
_space_group_symop_operation_xyz
x,y,z
-x,-y,-z
loop_
_atom_site_type_symbol
_atom_site_label
_atom_site_fract_x
_atom_site_fract_y
_atom_site_fract_z
Si Si1 0.201079 0.863780 0.921428
Si Si2 0.241740 0.464409 0.740107
Si Si3 0.612917 0.637873 0.001746
Si Si4 0.999204 0.946786 0.828806
Si Si5 0.501304 0.850397 0.515353
Si Si6 0.203789 0.942219 0.121318
Si Si7 0.299128 0.301464 0.348091
Si Si8 0.037756 0.568567 0.789815
O O1 0.235773 0.914260 0.996303
O O2 0.227187 0.554194 0.174209
O O3 0.089960 0.950657 0.874257
O O4 0.250859 0.036479 0.639463
O O5 0.258559 0.700709 0.413379
O O6 0.149569 0.543171 0.780090
O O7 0.328697 0.418393 0.842669
O O8 0.233418 0.210404 0.905036
O O9 0.678911 0.681639 0.820340
O O10 0.540717 0.911142 0.792602
O O11 0.560080 0.388835 0.229482
O O12 0.907293 0.068401 0.820582
O O13 0.005191 0.130531 0.527405
O O14 0.993567 0.640029 0.093709
O O15 0.608490 0.723526 0.575313
O O16 0.500000 0.000000 0.500000
O O17 0.000000 0.500000 0.000000
#
# Coordination Sequence:
#
# PCOD8005578 Si02
#       8
#     2   2   2   2   2   2   2   2
#     4  12  23  37  62  85 119 152 200 251 272 345
#     4  10  22  37  62  83 113 158 201 232 279 355
#     4  11  21  38  64  89 117 151 191 232 290 378
#     4  10  22  37  57  82 112 162 201 228 284 335
#     4  10  20  39  60  86 124 150 180 236 301 359
#     4  10  22  42  56  82 118 161 203 234 283 324
#     4  11  23  37  59  95 116 145 186 246 312 329
#     4  10  21  37  53  83 124 152 180 244 291 336
#
# _framework density 20.360284
#
# number of rings (size 3 to 8) (size 9 to 14) (size 15 to 20)
#    0.000    1.500    0.000    6.750    3.500    0.000 
#    0.000    5.000    0.000   15.000    0.000    0.000 
#    0.000    0.000    0.000    0.000    0.000    0.000 
#
# Total GULP energy -198425.500372 kJ/mol
# GULP energy per Si atom -12401.593773 kJ/mol
# Density = 2.031394 g / cm^3
# Si number density = 20.360284 Si / 1000 Ang^3
#
#
#
# Elastic Constant Matrix: (Units=GPa)
#
#
# Indices 1 2 3 4 5 6 
#
# 1 135.7051 25.9807 90.4100 15.9421 2.6424 34.5020
# 2 25.9807 49.9114 32.9436 6.7444 4.8844 14.0844
# 3 90.4100 32.9436 204.4786 9.8274 -12.1426 31.2582
# 4 15.9421 6.7444 9.8274 16.8746 -3.7286 8.5406
# 5 2.6424 4.8844 -12.1426 -3.7286 43.1497 -7.0331
# 6 34.5020 14.0844 31.2582 8.5406 -7.0331 29.8434
#
#
#
# Elastic Compliance Matrix: (Units=1/GPa)
#
#
# Indices 1 2 3 4 5 6 
#
# 1 0.013839 -0.000021 -0.004461 -0.006061 -0.004353 -0.010608
# 2 -0.000021 0.025716 -0.002847 -0.005322 -0.005627 -0.008934
# 3 -0.004461 -0.002847 0.007597 0.002267 0.002689 -0.001471
# 4 -0.006061 -0.005322 0.002267 0.073413 0.005923 -0.012469
# 5 -0.004353 -0.005627 0.002689 0.005923 0.026898 0.009515
# 6 -0.010608 -0.008934 -0.001471 -0.012469 0.009515 0.057341
#
#
# Mechanical properties :
#
#
# Convention : Reuss Voigt Hill
#
# Bulk Modulus (GPa) = 30.77349 76.52930 53.65140
# Shear Modulus (GPa) = 21.71150 34.02426 27.86788
#
# Velocity S-wave (km/s) = 3.26907 4.09236 3.70366
# Velocity P-wave (km/s) = 5.42184 7.74590 6.68563
#
# Compressibility (1/GPa) = 0.03249550
#
# Stress axis : x y z
#
# Youngs Moduli (GPa) = 72.26111 38.88615 131.62651
#
# Poissons Ratio (x) = 0.00080 0.58719
# Poissons Ratio (y) = 0.00149 0.37469
# Poissons Ratio (z) = 0.32236 0.11069
#
# Static dielectric constant tensor:
#      x y z
#    x 3.928700 -0.089260 0.239470 
#    y -0.089260 3.342160 -0.102940 
#    z 0.239470 -0.102940 4.050100 
# 
# 
# High freq. dielectric constant tensor:
#      x y z
#    x 1.797190 0.003840 0.005930 
#    y 0.003840 1.766930 -0.006410 
#    z 0.005930 -0.006410 1.820140 
# 
# From -- ./inp_files/113272.got.cif
#   From: 2010.06.25/outbox.cif.g09.slc.cpg/sg2_57_cif.got.tgz:113272.got - 2010.06.27 13:26:56.
