data_PCOD8005903
_publ_section_title
;
Structure prediction by ZEFSAII (Michael W. Deem and Ramdas Pophale) SiO2 
 PCOD8005903
Probable space group: P -1
;
_chemical_formula_sum "Si O2"
_cell_formula_units_Z 16
_cell_length_a 19.046902
_cell_length_b 11.176822
_cell_length_c 6.651422
_cell_angle_alpha 111.960248
_cell_angle_beta 139.209885
_cell_angle_gamma 50.427599
_cell_volume 696.341562
_symmetry_space_group_name_H-M "P -1"
_symmetry_group_IT_number 2
_symmetry_cell_setting 'triclinic'
loop_
_space_group_symop_operation_xyz
x,y,z
-x,-y,-z
loop_
_atom_site_type_symbol
_atom_site_label
_atom_site_fract_x
_atom_site_fract_y
_atom_site_fract_z
Si Si1 0.953031 0.723087 0.265190
Si Si2 0.398056 0.171288 0.479822
Si Si3 0.166411 0.391343 0.814833
Si Si4 0.870759 0.942170 0.576899
Si Si5 0.830001 0.253066 0.779587
Si Si6 0.607235 0.537467 0.225878
Si Si7 0.776819 0.805873 0.561947
Si Si8 0.225805 0.600183 0.871987
O O1 0.965949 0.582425 0.348782
O O2 0.865280 0.886695 0.305737
O O3 0.096062 0.685814 0.503428
O O4 0.895056 0.732651 0.931151
O O5 0.447614 0.284384 0.704624
O O6 0.359249 0.133601 0.584400
O O7 0.500000 0.000000 0.500000
O O8 0.274924 0.256295 0.116554
O O9 0.188408 0.334800 0.597662
O O10 0.190983 0.526432 0.938767
O O11 0.764989 0.944832 0.493957
O O12 0.823955 0.120922 0.570420
O O13 0.015595 0.816653 0.909245
O O14 0.742791 0.410756 0.555031
O O15 0.767258 0.279807 0.889701
O O16 0.643530 0.515569 0.050462
O O17 0.500000 0.500000 0.000000
#
# Coordination Sequence:
#
# PCOD8005903 Si02
#       8
#     2   2   2   2   2   2   2   2
#     4   9  20  34  64 100 130 156 198 257 319 392
#     4  11  25  45  64  90 129 167 220 277 317 377
#     4  10  20  39  63  94 124 157 205 254 327 381
#     4   9  20  39  65  98 129 171 201 257 325 392
#     4  10  22  42  64  92 135 165 214 260 315 390
#     4  12  27  44  63  93 127 175 226 270 313 375
#     4  10  20  39  64  96 125 160 209 257 326 378
#     4  11  21  40  63  91 128 169 203 256 320 376
#
# _framework density 22.977229999999999
#
# number of rings (size 3 to 8) (size 9 to 14) (size 15 to 20)
#    0.000    1.750    2.500    1.125    0.000    6.500 
#    2.250    3.750    0.000    0.000    0.000    0.000 
#    0.000    0.000    0.000    0.000    0.000    0.000 
#
# Total GULP energy -198215.242690 kJ/mol
# GULP energy per Si atom -12388.452668 kJ/mol
# Density = 2.292493 g / cm^3
# Si number density = 22.977230 Si / 1000 Ang^3
#
#
#
# Elastic Constant Matrix: (Units=GPa)
#
#
# Indices 1 2 3 4 5 6 
#
# 1 128.0547 45.2092 20.0247 18.4532 5.2552 -17.0517
# 2 45.2092 117.3211 14.3175 22.3980 3.9885 -11.0251
# 3 20.0247 14.3175 58.3775 23.0633 -6.7066 -6.8998
# 4 18.4532 22.3980 23.0633 32.4264 -0.3660 -3.0673
# 5 5.2552 3.9885 -6.7066 -0.3660 28.5119 7.6593
# 6 -17.0517 -11.0251 -6.8998 -3.0673 7.6593 30.7468
#
#
#
# Elastic Compliance Matrix: (Units=1/GPa)
#
#
# Indices 1 2 3 4 5 6 
#
# 1 0.010134 -0.002699 -0.001720 -0.002257 -0.003225 0.004844
# 2 -0.002699 0.010965 0.000895 -0.006467 -0.001547 0.002376
# 3 -0.001720 0.000895 0.025186 -0.017307 0.005369 0.001955
# 4 -0.002257 -0.006467 -0.017307 0.048673 -0.001530 -0.002218
# 5 -0.003225 -0.001547 0.005369 -0.001530 0.040162 -0.011296
# 6 0.004844 0.002376 0.001955 -0.002218 -0.011296 0.039093
#
#
# Mechanical properties :
#
#
# Convention : Reuss Voigt Hill
#
# Bulk Modulus (GPa) = 25.48772 51.42847 38.45809
# Shear Modulus (GPa) = 25.72794 33.28381 29.50588
#
# Velocity S-wave (km/s) = 3.34984 3.81012 3.58737
# Velocity P-wave (km/s) = 5.10672 6.46428 5.82519
#
# Compressibility (1/GPa) = 0.03923458
#
# Stress axis : x y z
#
# Youngs Moduli (GPa) = 98.67925 91.19871 39.70479
#
# Poissons Ratio (x) = 0.24617 0.06831
# Poissons Ratio (y) = 0.26637 -0.03552
# Poissons Ratio (z) = 0.16976 -0.08158
#
# Static dielectric constant tensor:
#      x y z
#    x 4.163840 0.032480 -0.036200 
#    y 0.032480 4.086360 0.322340 
#    z -0.036200 0.322340 4.181500 
# 
# 
# High freq. dielectric constant tensor:
#      x y z
#    x 1.905000 -0.001120 -0.011730 
#    y -0.001120 1.900560 0.026610 
#    z -0.011730 0.026610 1.910810 
# 
# From -- ./inp_files/109827.got.cif
#   From: 2010.06.25/outbox.cif.g09.slc.cpg/sg2_55_cif.got.tgz:109827.got - 2010.06.27 13:26:56.
