data_PCOD8005172
_publ_section_title
;
Structure prediction by ZEFSAII (Michael W. Deem and Ramdas Pophale) SiO2 
 PCOD8005172
Probable space group: P -1
;
_chemical_formula_sum "Si O2"
_cell_formula_units_Z 12
_cell_length_a 9.377220
_cell_length_b 10.359611
_cell_length_c 5.164482
_cell_angle_alpha 101.513230
_cell_angle_beta 83.526876
_cell_angle_gamma 100.006448
_cell_volume 482.540729
_symmetry_space_group_name_H-M "P -1"
_symmetry_group_IT_number 2
_symmetry_cell_setting 'triclinic'
loop_
_space_group_symop_operation_xyz
x,y,z
-x,-y,-z
loop_
_atom_site_type_symbol
_atom_site_label
_atom_site_fract_x
_atom_site_fract_y
_atom_site_fract_z
Si Si1 0.781284 0.940021 0.374132
Si Si2 0.417760 0.436341 0.241647
Si Si3 0.038634 0.807490 0.357943
Si Si4 0.226838 0.629031 0.431358
Si Si5 0.708628 0.217648 0.006821
Si Si6 0.399195 0.120476 0.116469
O O1 0.663474 0.940062 0.624188
O O2 0.870410 0.814564 0.338793
O O3 0.895199 0.077021 0.407024
O O4 0.705025 0.938723 0.115878
O O5 0.500000 0.500000 0.500000
O O6 0.253708 0.477608 0.313104
O O7 0.405073 0.278969 0.179326
O O8 0.500000 0.500000 0.000000
O O9 0.062508 0.662344 0.418575
O O10 0.135458 0.833353 0.083136
O O11 0.330027 0.717584 0.233319
O O12 0.280662 0.673694 0.724648
O O13 0.571164 0.098687 0.040939
#
# Coordination Sequence:
#
# PCOD8005172 Si02
#       6
#     2   2   2   2   2   2
#     4  11  26  41  64  89 132 161 213 253 311 367
#     4  12  20  39  65  90 130 161 200 250 321 373
#     4   9  25  44  65  84 126 181 200 245 319 380
#     4  10  20  38  65  90 112 171 206 242 296 389
#     4  10  21  38  64  90 124 152 215 243 318 354
#     4  12  24  39  62 103 120 158 207 274 297 357
#
# _framework density 24.868369999999999
#
# number of rings (size 3 to 8) (size 9 to 14) (size 15 to 20)
#    1.000    0.333    3.333    2.000    4.667    2.667 
#    0.000    1.667    0.000    0.000    0.000    0.000 
#    0.000    0.000    0.000    0.000    0.000    0.000 
#
# Total GULP energy -148664.637596 kJ/mol
# GULP energy per Si atom -12388.719800 kJ/mol
# Density = 2.481177 g / cm^3
# Si number density = 24.868370 Si / 1000 Ang^3
#
#
#
# Elastic Constant Matrix: (Units=GPa)
#
#
# Indices 1 2 3 4 5 6 
#
# 1 134.7385 0.6047 34.0919 11.5546 -23.0890 -24.5080
# 2 0.6047 38.1512 16.0631 -1.9125 6.3912 -14.7984
# 3 34.0919 16.0631 150.9444 -12.0247 2.0064 -3.5874
# 4 11.5546 -1.9125 -12.0247 24.5114 -4.6958 -7.7025
# 5 -23.0890 6.3912 2.0064 -4.6958 34.1033 0.9012
# 6 -24.5080 -14.7984 -3.5874 -7.7025 0.9012 35.6091
#
#
#
# Elastic Compliance Matrix: (Units=1/GPa)
#
#
# Indices 1 2 3 4 5 6 
#
# 1 0.010843 0.002762 -0.002862 -0.002688 0.006421 0.007578
# 2 0.002762 0.035318 -0.003573 0.004279 -0.004405 0.017256
# 3 -0.002862 -0.003573 0.007962 0.004227 -0.001110 -0.001710
# 4 -0.002688 0.004279 0.004227 0.048530 0.003527 0.010762
# 5 0.006421 -0.004405 -0.001110 0.003527 0.034984 0.002354
# 6 0.007578 0.017256 -0.001710 0.010762 0.002354 0.042566
#
#
# Mechanical properties :
#
#
# Convention : Reuss Voigt Hill
#
# Bulk Modulus (GPa) = 21.37770 47.26150 34.31960
# Shear Modulus (GPa) = 24.61345 37.04972 30.83158
#
# Velocity S-wave (km/s) = 3.14944 3.86402 3.52489
# Velocity P-wave (km/s) = 4.67336 6.24127 5.51334
#
# Compressibility (1/GPa) = 0.04677772
#
# Stress axis : x y z
#
# Youngs Moduli (GPa) = 92.22570 28.31432 125.58936
#
# Poissons Ratio (x) = -0.07821 0.35948
# Poissons Ratio (y) = -0.25476 0.44870
# Poissons Ratio (z) = 0.26398 0.10116
#
# Static dielectric constant tensor:
#      x y z
#    x 4.973760 -0.544290 -0.494830 
#    y -0.544290 4.408930 0.192780 
#    z -0.494830 0.192780 4.603400 
# 
# 
# High freq. dielectric constant tensor:
#      x y z
#    x 1.992100 -0.040800 -0.023640 
#    y -0.040800 1.974550 0.000790 
#    z -0.023640 0.000790 2.006370 
# 
# From -- ./inp_files/28897.got.cif
#   From: 2010.06.25/outbox.cif.g09.slc.cpg/sg2_15_cif.got.tgz:28897.got - 2010.06.27 13:26:56.
