data_PCOD8005483
_publ_section_title
;
Structure prediction by ZEFSAII (Michael W. Deem and Ramdas Pophale) SiO2 
 PCOD8005483
Probable space group: P -1
;
_chemical_formula_sum "Si O2"
_cell_formula_units_Z 16
_cell_length_a 8.020745
_cell_length_b 11.129731
_cell_length_c 15.551839
_cell_angle_alpha 107.883630
_cell_angle_beta 138.986378
_cell_angle_gamma 70.449345
_cell_volume 855.174997
_symmetry_space_group_name_H-M "P -1"
_symmetry_group_IT_number 2
_symmetry_cell_setting 'triclinic'
loop_
_space_group_symop_operation_xyz
x,y,z
-x,-y,-z
loop_
_atom_site_type_symbol
_atom_site_label
_atom_site_fract_x
_atom_site_fract_y
_atom_site_fract_z
Si Si1 0.788678 0.544206 0.042908
Si Si2 0.572477 0.666363 0.148008
Si Si3 0.296906 0.953185 0.126576
Si Si4 0.509477 0.938733 0.617743
Si Si5 0.816913 0.843364 0.562179
Si Si6 0.328948 0.422193 0.185145
Si Si7 0.757586 0.594274 0.386617
Si Si8 0.622955 0.155162 0.284834
O O1 0.734881 0.651674 0.119747
O O2 0.080526 0.478281 0.155415
O O3 0.617788 0.434266 0.956101
O O4 0.743983 0.611730 0.947896
O O5 0.399752 0.806096 0.112866
O O6 0.769185 0.633080 0.298326
O O7 0.327862 0.971430 0.245131
O O8 0.472581 0.044013 0.164803
O O9 0.000000 0.000000 0.000000
O O10 0.720357 0.842200 0.623244
O O11 0.337765 0.867887 0.601597
O O12 0.305051 0.021290 0.494993
O O13 0.719801 0.725406 0.452934
O O14 0.123258 0.836406 0.670076
O O15 0.510792 0.527929 0.286606
O O16 0.446911 0.291229 0.245286
O O17 0.000000 0.500000 0.500000
#
# Coordination Sequence:
#
# PCOD8005483 Si02
#       8
#     2   2   2   2   2   2   2   2
#     4   9  21  38  61  83 118 154 191 242 300 356
#     4  10  20  40  61  85 117 155 196 244 301 344
#     4  10  21  39  60  88 118 153 199 248 292 354
#     4   9  23  38  63  86 116 164 192 249 299 343
#     4  11  20  43  60  86 121 157 205 241 295 354
#     4  10  20  39  57  87 116 154 193 243 296 351
#     4  11  21  37  60  85 120 153 199 245 286 354
#     4  10  21  38  63  84 121 155 192 249 296 349
#
# _framework density 18.709622
#
# number of rings (size 3 to 8) (size 9 to 14) (size 15 to 20)
#    0.750    1.250    2.500    1.125    0.000    2.000 
#    6.750    2.500    0.000    0.000    0.000    0.000 
#    0.000    0.000    0.000    0.000    0.000    0.000 
#
# Total GULP energy -198245.740056 kJ/mol
# GULP energy per Si atom -12390.358753 kJ/mol
# Density = 1.866704 g / cm^3
# Si number density = 18.709622 Si / 1000 Ang^3
#
#
#
# Elastic Constant Matrix: (Units=GPa)
#
#
# Indices 1 2 3 4 5 6 
#
# 1 62.1893 33.0617 13.2191 -4.4473 -12.8764 -30.5457
# 2 33.0617 113.3299 33.6378 -3.9572 -14.6431 -18.1484
# 3 13.2191 33.6378 71.3483 -7.3974 1.4436 -23.0768
# 4 -4.4473 -3.9572 -7.3974 32.9636 -9.0220 -2.5091
# 5 -12.8764 -14.6431 1.4436 -9.0220 16.8601 0.9170
# 6 -30.5457 -18.1484 -23.0768 -2.5091 0.9170 33.3550
#
#
#
# Elastic Compliance Matrix: (Units=1/GPa)
#
#
# Indices 1 2 3 4 5 6 
#
# 1 0.057903 -0.002939 0.012241 0.029334 0.053019 0.060646
# 2 -0.002939 0.012849 -0.005224 0.003015 0.010942 0.000611
# 3 0.012241 -0.005224 0.023187 0.009994 0.006816 0.024974
# 4 0.029334 0.003015 0.009994 0.053709 0.050835 0.038061
# 5 0.053019 0.010942 0.006816 0.050835 0.132695 0.059399
# 6 0.060646 0.000611 0.024974 0.038061 0.059399 0.104360
#
#
# Mechanical properties :
#
#
# Convention : Reuss Voigt Hill
#
# Bulk Modulus (GPa) = 9.79482 45.18943 27.49212
# Shear Modulus (GPa) = 12.17795 27.76566 19.97181
#
# Velocity S-wave (km/s) = 2.55403 3.85649 3.27075
# Velocity P-wave (km/s) = 3.73416 6.63593 5.38421
#
# Compressibility (1/GPa) = 0.10209474
#
# Stress axis : x y z
#
# Youngs Moduli (GPa) = 17.27013 77.82854 43.12824
#
# Poissons Ratio (x) = 0.22874 -0.52795
# Poissons Ratio (y) = 0.05076 0.22532
# Poissons Ratio (z) = -0.21141 0.40660
#
# Static dielectric constant tensor:
#      x y z
#    x 3.527880 -0.054910 -0.104190 
#    y -0.054910 3.434850 -0.007260 
#    z -0.104190 -0.007260 3.456110 
# 
# 
# High freq. dielectric constant tensor:
#      x y z
#    x 1.721110 -0.002290 0.000200 
#    y -0.002290 1.732920 -0.005390 
#    z 0.000200 -0.005390 1.723000 
# 
# From -- ./inp_files/559201.got.cif
#   From: 2010.06.25/outbox.cif.g09.slc.cpg/sg2_280_cif.got.tgz:559201.got - 2010.06.27 13:26:56.
