data_PCOD8005374
_publ_section_title
;
Structure prediction by ZEFSAII (Michael W. Deem and Ramdas Pophale) SiO2 
 PCOD8005374
Probable space group: P -1
;
_chemical_formula_sum "Si O2"
_cell_formula_units_Z 14
_cell_length_a 16.161970
_cell_length_b 8.417827
_cell_length_c 9.344510
_cell_angle_alpha 32.711531
_cell_angle_beta 123.613437
_cell_angle_gamma 122.964613
_cell_volume 563.417339
_symmetry_space_group_name_H-M "P -1"
_symmetry_group_IT_number 2
_symmetry_cell_setting 'triclinic'
loop_
_space_group_symop_operation_xyz
x,y,z
-x,-y,-z
loop_
_atom_site_type_symbol
_atom_site_label
_atom_site_fract_x
_atom_site_fract_y
_atom_site_fract_z
Si Si1 0.446341 0.784043 0.893825
Si Si2 0.996863 0.349465 0.957414
Si Si3 0.123627 0.860609 0.516560
Si Si4 0.725781 0.382676 0.360843
Si Si5 0.229965 0.920705 0.093052
Si Si6 0.448436 0.590063 0.522928
Si Si7 0.294381 0.048372 0.752282
O O1 0.381947 0.666526 0.782899
O O2 0.539018 0.049299 0.738202
O O3 0.375819 0.895022 0.862998
O O4 0.494086 0.510807 0.207103
O O5 0.053948 0.071900 0.223433
O O6 0.051388 0.571401 0.723214
O O7 0.883727 0.249570 0.872000
O O8 0.000000 0.500000 0.000000
O O9 0.195673 0.781936 0.521268
O O10 0.190252 0.028641 0.581943
O O11 0.769433 0.730742 0.146032
O O12 0.704861 0.222798 0.616849
O O13 0.273784 0.868003 0.018021
O O14 0.500000 0.500000 0.500000
O O15 0.334386 0.399980 0.556524
#
# Coordination Sequence:
#
# PCOD8005374 Si02
#       7
#     2   2   2   2   2   2   2
#     4  10  22  43  66  92 132 168 215 263 315 385
#     4  12  25  43  68  99 129 161 220 274 322 366
#     4  11  25  44  69  91 131 175 213 263 321 387
#     4  11  26  45  64  96 132 177 212 257 326 386
#     4  12  26  42  65  95 134 165 218 271 316 385
#     4  10  20  38  67  99 125 163 219 269 308 377
#     4  10  23  40  67  97 124 169 217 266 322 370
#
# _framework density 24.848365999999999
#
# number of rings (size 3 to 8) (size 9 to 14) (size 15 to 20)
#    0.000    1.143    1.429    4.714    2.000   13.714 
#    0.000    4.286    0.000    0.000    0.000    0.000 
#    0.000    0.000    0.000    0.000    0.000    0.000 
#
# Total GULP energy -173672.615055 kJ/mol
# GULP energy per Si atom -12405.186790 kJ/mol
# Density = 2.479181 g / cm^3
# Si number density = 24.848366 Si / 1000 Ang^3
#
#
#
# Elastic Constant Matrix: (Units=GPa)
#
#
# Indices 1 2 3 4 5 6 
#
# 1 64.0018 36.8426 22.5468 -0.2132 -23.1414 13.6774
# 2 36.8426 114.0777 40.9236 10.7014 -9.8356 22.9282
# 3 22.5468 40.9236 164.8864 4.7202 -16.6169 7.1419
# 4 -0.2132 10.7014 4.7202 45.0687 -0.0514 -3.6139
# 5 -23.1414 -9.8356 -16.6169 -0.0514 44.4306 -4.7046
# 6 13.6774 22.9282 7.1419 -3.6139 -4.7046 47.5235
#
#
#
# Elastic Compliance Matrix: (Units=1/GPa)
#
#
# Indices 1 2 3 4 5 6 
#
# 1 0.023741 -0.006159 -0.000587 0.001438 0.010506 -0.002624
# 2 -0.006159 0.012557 -0.002167 -0.003136 -0.001704 -0.004368
# 3 -0.000587 -0.002167 0.006856 -0.000176 0.001816 0.000351
# 4 0.001438 -0.003136 -0.000176 0.023193 0.000325 0.002922
# 5 0.010506 -0.001704 0.001816 0.000325 0.028319 0.000354
# 6 -0.002624 -0.004368 0.000351 0.002922 0.000354 0.024109
#
#
# Mechanical properties :
#
#
# Convention : Reuss Voigt Hill
#
# Bulk Modulus (GPa) = 39.48047 60.39910 49.93979
# Shear Modulus (GPa) = 34.47265 43.58143 39.02704
#
# Velocity S-wave (km/s) = 3.72872 4.19250 3.96739
# Velocity P-wave (km/s) = 5.87033 6.91346 6.41314
#
# Compressibility (1/GPa) = 0.02532898
#
# Stress axis : x y z
#
# Youngs Moduli (GPa) = 42.12175 79.63372 145.86313
#
# Poissons Ratio (x) = 0.49043 0.08555
# Poissons Ratio (y) = 0.25941 0.31614
# Poissons Ratio (z) = 0.02471 0.17260
#
# Static dielectric constant tensor:
#      x y z
#    x 4.681920 0.221950 -0.294750 
#    y 0.221950 4.851730 -0.040630 
#    z -0.294750 -0.040630 4.640860 
# 
# 
# High freq. dielectric constant tensor:
#      x y z
#    x 2.005810 0.003570 -0.007590 
#    y 0.003570 1.999780 0.001130 
#    z -0.007590 0.001130 2.002810 
# 
# From -- ./inp_files/216916.got.cif
#   From: 2010.06.25/outbox.cif.g09.slc.cpg/sg2_109_cif.got.tgz:216916.got - 2010.06.27 13:26:56.
