data_PCOD8005090
_publ_section_title
;
Structure prediction by ZEFSAII (Michael W. Deem and Ramdas Pophale) SiO2 
 PCOD8005090
Probable space group: P -1
;
_chemical_formula_sum "Si O2"
_cell_formula_units_Z 14
_cell_length_a 8.517838
_cell_length_b 8.051465
_cell_length_c 20.777120
_cell_angle_alpha 61.503760
_cell_angle_beta 132.851714
_cell_angle_gamma 144.656789
_cell_volume 594.071724
_symmetry_space_group_name_H-M "P -1"
_symmetry_group_IT_number 2
_symmetry_cell_setting 'triclinic'
loop_
_space_group_symop_operation_xyz
x,y,z
-x,-y,-z
loop_
_atom_site_type_symbol
_atom_site_label
_atom_site_fract_x
_atom_site_fract_y
_atom_site_fract_z
Si Si1 0.878223 0.303490 0.714226
Si Si2 0.357259 0.521778 0.263092
Si Si3 0.443144 0.284867 0.235224
Si Si4 0.589736 0.954243 0.146350
Si Si5 0.369423 0.501954 0.066922
Si Si6 0.387287 0.276679 0.561994
Si Si7 0.784240 0.485502 0.107543
O O1 0.578983 0.209757 0.613152
O O2 0.225358 0.587247 0.724896
O O3 0.916460 0.394652 0.784303
O O4 0.799620 0.029598 0.742213
O O5 0.568828 0.515376 0.280826
O O6 0.409591 0.757721 0.197031
O O7 0.513770 0.600025 0.361865
O O8 0.983569 0.195400 0.216643
O O9 0.238484 0.260807 0.126709
O O10 0.476478 0.765523 0.085154
O O11 0.519883 0.135421 0.089438
O O12 0.659949 0.588262 0.091979
O O13 0.103851 0.381625 0.959186
O O14 0.500000 0.500000 0.500000
O O15 0.000000 0.000000 0.500000
#
# Coordination Sequence:
#
# PCOD8005090 Si02
#       7
#     2   2   2   2   2   2   2
#     4  11  23  42  67  94 127 174 217 262 331 387
#     4  11  23  43  67  94 128 171 212 268 331 381
#     4  10  22  42  66  93 133 172 215 261 318 388
#     4  11  22  40  64  93 134 178 222 259 322 386
#     4   9  21  37  61  99 134 176 220 271 300 378
#     4  12  26  44  68  98 126 160 216 273 328 401
#     4  10  20  38  64  93 136 176 223 261 322 374
#
# _framework density 23.566179999999999
#
# number of rings (size 3 to 8) (size 9 to 14) (size 15 to 20)
#    0.000    1.429    1.429    4.714    4.000    0.571 
#    0.000   17.857    0.000    0.000    0.000    0.000 
#    0.000    0.000    0.000    0.000    0.000    0.000 
#
# Total GULP energy -173452.099752 kJ/mol
# GULP energy per Si atom -12389.435697 kJ/mol
# Density = 2.351254 g / cm^3
# Si number density = 23.566180 Si / 1000 Ang^3
#
#
#
# Elastic Constant Matrix: (Units=GPa)
#
#
# Indices 1 2 3 4 5 6 
#
# 1 85.5151 12.5402 29.4609 -9.7575 -18.7970 -12.4614
# 2 12.5402 84.5586 31.2869 -15.9049 -1.6055 -1.6254
# 3 29.4609 31.2869 160.1917 -15.7593 -7.6334 4.3049
# 4 -9.7575 -15.9049 -15.7593 38.0357 4.6101 6.9855
# 5 -18.7970 -1.6055 -7.6334 4.6101 36.9716 -7.3217
# 6 -12.4614 -1.6254 4.3049 6.9855 -7.3217 35.3195
#
#
#
# Elastic Compliance Matrix: (Units=1/GPa)
#
#
# Indices 1 2 3 4 5 6 
#
# 1 0.015807 -0.001101 -0.002463 0.000075 0.008991 0.007676
# 2 -0.001101 0.013610 -0.002014 0.004841 -0.001128 -0.000708
# 3 -0.002463 -0.002014 0.007330 0.002067 -0.000555 -0.002379
# 4 0.000075 0.004841 0.002067 0.031053 -0.004603 -0.007098
# 5 0.008991 -0.001128 -0.000555 -0.004603 0.034247 0.011198
# 6 0.007676 -0.000708 -0.002379 -0.007098 0.011198 0.035004
#
#
# Mechanical properties :
#
#
# Convention : Reuss Voigt Hill
#
# Bulk Modulus (GPa) = 39.07500 52.98241 46.02870
# Shear Modulus (GPa) = 31.90087 39.19716 35.54901
#
# Velocity S-wave (km/s) = 3.68322 4.08276 3.88812
# Velocity P-wave (km/s) = 5.89110 6.69002 6.30323
#
# Compressibility (1/GPa) = 0.02559181
#
# Stress axis : x y z
#
# Youngs Moduli (GPa) = 63.26316 73.47447 136.43230
#
# Poissons Ratio (x) = 0.08087 0.33597
# Poissons Ratio (y) = 0.06963 0.27481
# Poissons Ratio (z) = 0.15579 0.14800
#
# Static dielectric constant tensor:
#      x y z
#    x 4.624150 -0.100120 0.060670 
#    y -0.100120 3.544740 -0.943000 
#    z 0.060670 -0.943000 3.095830 
# 
# 
# High freq. dielectric constant tensor:
#      x y z
#    x 1.960630 -0.004160 -0.002340 
#    y -0.004160 1.929610 -0.013990 
#    z -0.002340 -0.013990 1.918460 
# 
# From -- ./inp_files/311405.got.cif
#   From: 2010.06.25/outbox.cif.g09.slc.cpg/sg2_156_cif.got.tgz:311405.got - 2010.06.27 13:26:56.
