data_PCOD8005524
_publ_section_title
;
Structure prediction by ZEFSAII (Michael W. Deem and Ramdas Pophale) SiO2 
 PCOD8005524
Probable space group: P -1
;
_chemical_formula_sum "Si O2"
_cell_formula_units_Z 14
_cell_length_a 15.190992
_cell_length_b 6.564946
_cell_length_c 16.649365
_cell_angle_alpha 50.666943
_cell_angle_beta 25.018986
_cell_angle_gamma 50.212478
_cell_volume 532.117627
_symmetry_space_group_name_H-M "P -1"
_symmetry_group_IT_number 2
_symmetry_cell_setting 'triclinic'
loop_
_space_group_symop_operation_xyz
x,y,z
-x,-y,-z
loop_
_atom_site_type_symbol
_atom_site_label
_atom_site_fract_x
_atom_site_fract_y
_atom_site_fract_z
Si Si1 0.695086 0.467462 0.125814
Si Si2 0.646343 0.704319 0.454820
Si Si3 0.741052 0.028212 0.999383
Si Si4 0.964846 0.591192 0.367315
Si Si5 0.605581 0.388683 0.787170
Si Si6 0.098732 0.270413 0.912663
Si Si7 0.625619 0.841629 0.831208
O O1 0.511477 0.488124 0.340128
O O2 0.610127 0.418413 0.118136
O O3 0.892214 0.219225 0.045133
O O4 0.773722 0.748474 0.993569
O O5 0.736039 0.633570 0.308977
O O6 0.843583 0.650089 0.367913
O O7 0.500000 0.000000 0.500000
O O8 0.918789 0.162614 0.775451
O O9 0.490480 0.191653 0.151926
O O10 0.783475 0.986454 0.070093
O O11 0.150256 0.328134 0.285775
O O12 0.801978 0.545734 0.584505
O O13 0.648873 0.148923 0.744123
O O14 0.565741 0.245857 0.937679
O O15 0.000000 0.500000 0.000000
#
# Coordination Sequence:
#
# PCOD8005524 Si02
#       7
#     2   2   2   2   2   2   2
#     4   9  20  41  62  90 126 165 209 262 319 376
#     4  11  24  41  67  97 125 163 217 267 313 373
#     4  10  22  37  58  89 128 165 204 257 317 378
#     4  11  22  38  60  90 122 163 210 260 315 374
#     4   9  20  37  62  87 116 160 212 263 312 370
#     4  10  22  42  66  93 128 169 208 257 319 379
#     4  10  20  39  59  85 122 162 208 259 313 374
#
# _framework density 26.309971999999998
#
# number of rings (size 3 to 8) (size 9 to 14) (size 15 to 20)
#    0.000    2.000    0.000    2.571    0.000    8.571 
#    0.000    5.714    0.000    0.000    0.000    0.000 
#    0.000    0.000    0.000    0.000    0.000    0.000 
#
# Total GULP energy -173433.245697 kJ/mol
# GULP energy per Si atom -12388.088978 kJ/mol
# Density = 2.625009 g / cm^3
# Si number density = 26.309972 Si / 1000 Ang^3
#
#
#
# Elastic Constant Matrix: (Units=GPa)
#
#
# Indices 1 2 3 4 5 6 
#
# 1 96.0505 36.6469 39.4341 17.0780 -18.6714 -39.6997
# 2 36.6469 124.3047 51.9550 13.5849 -23.1132 -43.1136
# 3 39.4341 51.9550 150.2953 -11.0248 -7.5764 -18.7251
# 4 17.0780 13.5849 -11.0248 38.6136 -6.8914 -12.5987
# 5 -18.6714 -23.1132 -7.5764 -6.8914 48.6079 11.0892
# 6 -39.6997 -43.1136 -18.7251 -12.5987 11.0892 38.8184
#
#
#
# Elastic Compliance Matrix: (Units=1/GPa)
#
#
# Indices 1 2 3 4 5 6 
#
# 1 0.021108 0.004409 -0.004468 -0.004351 0.003918 0.021797
# 2 0.004409 0.015845 -0.004317 -0.002094 0.004113 0.018170
# 3 -0.004468 -0.004317 0.009262 0.004991 -0.000931 -0.003010
# 4 -0.004351 -0.002094 0.004991 0.032071 0.001369 0.005649
# 5 0.003918 0.004113 -0.000931 0.001369 0.023670 0.001809
# 6 0.021797 0.018170 -0.003010 0.005649 0.001809 0.068098
#
#
# Mechanical properties :
#
#
# Convention : Reuss Voigt Hill
#
# Bulk Modulus (GPa) = 26.69323 69.63584 48.16453
# Shear Modulus (GPa) = 26.13773 41.38229 33.76001
#
# Velocity S-wave (km/s) = 3.15533 3.97025 3.58601
# Velocity P-wave (km/s) = 4.84174 6.89508 5.95754
#
# Compressibility (1/GPa) = 0.03746269
#
# Stress axis : x y z
#
# Youngs Moduli (GPa) = 47.37535 63.11198 107.96460
#
# Poissons Ratio (x) = -0.27824 0.48242
# Poissons Ratio (y) = -0.20886 0.46604
# Poissons Ratio (z) = 0.21169 0.27243
#
# Static dielectric constant tensor:
#      x y z
#    x 5.173410 -0.816240 -0.320710 
#    y -0.816240 5.234710 0.052010 
#    z -0.320710 0.052010 4.957970 
# 
# 
# High freq. dielectric constant tensor:
#      x y z
#    x 2.067740 -0.030870 -0.016270 
#    y -0.030870 2.080040 0.000010 
#    z -0.016270 0.000010 2.050370 
# 
# From -- ./inp_files/599679.got.cif
#   From: 2010.06.25/outbox.cif.g09.slc.cpg/sg2_300_cif.got.tgz:599679.got - 2010.06.27 13:26:56.
