data_PCOD8005376
_publ_section_title
;
Structure prediction by ZEFSAII (Michael W. Deem and Ramdas Pophale) SiO2 
 PCOD8005376
Probable space group: P -1
;
_chemical_formula_sum "Si O2"
_cell_formula_units_Z 16
_cell_length_a 21.186905
_cell_length_b 9.018609
_cell_length_c 12.393272
_cell_angle_alpha 133.936205
_cell_angle_beta 38.799490
_cell_angle_gamma 150.744433
_cell_volume 724.402274
_symmetry_space_group_name_H-M "P -1"
_symmetry_group_IT_number 2
_symmetry_cell_setting 'triclinic'
loop_
_space_group_symop_operation_xyz
x,y,z
-x,-y,-z
loop_
_atom_site_type_symbol
_atom_site_label
_atom_site_fract_x
_atom_site_fract_y
_atom_site_fract_z
Si Si1 0.826094 0.275576 0.714200
Si Si2 0.737955 0.540381 0.222373
Si Si3 0.828970 0.350930 0.320917
Si Si4 0.362980 0.218509 0.863778
Si Si5 0.620746 0.355091 0.519861
Si Si6 0.632636 0.344272 0.033281
Si Si7 0.824982 0.208393 0.915717
Si Si8 0.160225 0.867664 0.594232
O O1 0.769739 0.087809 0.805729
O O2 0.756619 0.045494 0.588283
O O3 0.001655 0.531861 0.614451
O O4 0.782960 0.450126 0.857226
O O5 0.651785 0.455803 0.404954
O O6 0.624301 0.375403 0.189006
O O7 0.846495 0.902053 0.247188
O O8 0.825665 0.455573 0.067604
O O9 0.767390 0.493462 0.458887
O O10 0.772578 0.171012 0.418916
O O11 0.006983 0.619687 0.203303
O O12 0.754093 0.099920 0.203200
O O13 0.536792 0.415148 0.722998
O O14 0.358605 0.441642 0.941190
O O15 0.299367 0.106853 0.013360
O O16 0.500000 0.000000 0.500000
O O17 0.500000 0.000000 0.000000
#
# Coordination Sequence:
#
# PCOD8005376 Si02
#       8
#     2   2   2   2   2   2   2   2
#     4   9  23  43  61  98 134 164 211 271 325 370
#     4  11  22  39  68  97 125 168 220 268 319 381
#     4  10  20  38  68 100 123 165 218 265 317 382
#     4  11  22  41  63  95 129 170 210 266 325 383
#     4  10  22  38  58  97 130 161 213 264 315 378
#     4  11  26  42  62  94 131 171 217 261 321 386
#     4  10  21  39  69  97 130 163 214 271 321 385
#     4  10  21  41  70  94 129 167 215 274 316 381
#
# _framework density 22.087174999999998
#
# number of rings (size 3 to 8) (size 9 to 14) (size 15 to 20)
#    0.000    1.750    3.750    0.375    3.500    4.000 
#    0.000    5.000    0.000    4.500    0.000    0.000 
#    0.000    0.000    0.000    0.000    0.000    0.000 
#
# Total GULP energy -198245.345563 kJ/mol
# GULP energy per Si atom -12390.334098 kJ/mol
# Density = 2.203690 g / cm^3
# Si number density = 22.087175 Si / 1000 Ang^3
#
#
#
# Elastic Constant Matrix: (Units=GPa)
#
#
# Indices 1 2 3 4 5 6 
#
# 1 154.5084 43.9723 83.4333 -3.7759 3.6451 -26.3431
# 2 43.9723 51.7242 27.1596 -0.8752 3.5856 -12.3257
# 3 83.4333 27.1596 116.5654 -18.9613 2.8305 -8.6865
# 4 -3.7759 -0.8752 -18.9613 20.8496 -6.4762 1.7910
# 5 3.6451 3.5856 2.8305 -6.4762 40.7033 0.6567
# 6 -26.3431 -12.3257 -8.6865 1.7910 0.6567 26.7817
#
#
#
# Elastic Compliance Matrix: (Units=1/GPa)
#
#
# Indices 1 2 3 4 5 6 
#
# 1 0.014719 -0.005085 -0.009880 -0.007841 -0.001584 0.009497
# 2 -0.005085 0.026733 -0.002594 -0.003477 -0.002381 0.006751
# 3 -0.009880 -0.002594 0.018358 0.016097 0.002496 -0.006095
# 4 -0.007841 -0.003477 0.016097 0.065004 0.010372 -0.008693
# 5 -0.001584 -0.002381 0.002496 0.010372 0.026448 -0.003186
# 6 0.009497 0.006751 -0.006095 -0.008693 -0.003186 0.048470
#
#
# Mechanical properties :
#
#
# Convention : Reuss Voigt Hill
#
# Bulk Modulus (GPa) = 40.49683 70.21426 55.35554
# Shear Modulus (GPa) = 20.56921 28.88245 24.72583
#
# Velocity S-wave (km/s) = 3.05499 3.62008 3.34947
# Velocity P-wave (km/s) = 5.55146 7.02367 6.33051
#
# Compressibility (1/GPa) = 0.02469329
#
# Stress axis : x y z
#
# Youngs Moduli (GPa) = 67.93723 37.40635 54.47069
#
# Poissons Ratio (x) = 0.19023 0.53817
# Poissons Ratio (y) = 0.34549 0.14127
# Poissons Ratio (z) = 0.67122 0.09702
#
# Static dielectric constant tensor:
#      x y z
#    x 5.192940 -0.637530 0.012470 
#    y -0.637530 4.153020 -0.082840 
#    z 0.012470 -0.082840 4.869100 
# 
# 
# High freq. dielectric constant tensor:
#      x y z
#    x 1.885200 -0.008650 0.007490 
#    y -0.008650 1.846870 -0.004520 
#    z 0.007490 -0.004520 1.870780 
# 
# From -- ./inp_files/345919.got.cif
#   From: 2010.06.25/outbox.cif.g09.slc.cpg/sg2_173_cif.got.tgz:345919.got - 2010.06.27 13:26:56.
