data_PCOD8005680
_publ_section_title
;
Structure prediction by ZEFSAII (Michael W. Deem and Ramdas Pophale) SiO2 
 PCOD8005680
Probable space group: P -1
;
_chemical_formula_sum "Si O2"
_cell_formula_units_Z 14
_cell_length_a 21.125894
_cell_length_b 11.215920
_cell_length_c 6.894441
_cell_angle_alpha 69.458689
_cell_angle_beta 56.128683
_cell_angle_gamma 32.593671
_cell_volume 704.459292
_symmetry_space_group_name_H-M "P -1"
_symmetry_group_IT_number 2
_symmetry_cell_setting 'triclinic'
loop_
_space_group_symop_operation_xyz
x,y,z
-x,-y,-z
loop_
_atom_site_type_symbol
_atom_site_label
_atom_site_fract_x
_atom_site_fract_y
_atom_site_fract_z
Si Si1 0.528609 0.979721 0.684699
Si Si2 0.949876 0.459828 0.462718
Si Si3 0.671925 0.381811 0.151266
Si Si4 0.271824 0.078878 0.619321
Si Si5 0.632611 0.260068 0.628209
Si Si6 0.217654 0.972450 0.103159
Si Si7 0.710180 0.617789 0.880101
O O1 0.500000 0.000000 0.500000
O O2 0.587864 0.038644 0.579792
O O3 0.639015 0.724192 0.727009
O O4 0.385471 0.167724 0.934613
O O5 0.862494 0.646786 0.333308
O O6 0.856612 0.484657 0.717638
O O7 0.000000 0.500000 0.500000
O O8 0.068924 0.211998 0.303134
O O9 0.654485 0.362577 0.416557
O O10 0.525297 0.563852 0.195640
O O11 0.725283 0.451702 0.016065
O O12 0.785762 0.140829 0.977175
O O13 0.271115 0.975901 0.509365
O O14 0.273766 0.017269 0.866068
O O15 0.679811 0.207906 0.797347
#
# Coordination Sequence:
#
# PCOD8005680 Si02
#       7
#     2   2   2   2   2   2   2
#     4  10  22  36  62  93 117 155 198 250 311 352
#     4  11  23  41  63  86 123 163 202 246 300 355
#     4  10  22  39  60  89 125 153 204 248 299 356
#     4  10  21  38  63  92 119 150 204 254 298 356
#     4  10  20  39  61  91 119 159 196 253 300 351
#     4  11  23  37  65  87 120 168 200 238 300 363
#     4  10  23  41  58  89 127 156 193 259 294 349
#
# _framework density 19.873398999999999
#
# number of rings (size 3 to 8) (size 9 to 14) (size 15 to 20)
#    0.000    1.714    2.857    0.857    4.000    1.714 
#    0.000    0.714    0.000    0.000    0.000    0.000 
#    0.000    0.000    0.000    0.000    0.000    0.000 
#
# Total GULP energy -173585.291850 kJ/mol
# GULP energy per Si atom -12398.949418 kJ/mol
# Density = 1.982817 g / cm^3
# Si number density = 19.873399 Si / 1000 Ang^3
#
#
#
# Elastic Constant Matrix: (Units=GPa)
#
#
# Indices 1 2 3 4 5 6 
#
# 1 77.9497 27.7653 48.4290 -10.0551 -15.9727 7.8368
# 2 27.7653 85.5535 41.2869 0.3743 -8.3961 7.4580
# 3 48.4290 41.2869 114.0302 -6.5137 -12.5712 -3.6876
# 4 -10.0551 0.3743 -6.5137 48.0665 -0.4476 1.5920
# 5 -15.9727 -8.3961 -12.5712 -0.4476 39.7598 -9.8240
# 6 7.8368 7.4580 -3.6876 1.5920 -9.8240 24.5756
#
#
#
# Elastic Compliance Matrix: (Units=1/GPa)
#
#
# Indices 1 2 3 4 5 6 
#
# 1 0.019857 -0.002120 -0.007211 0.003409 0.003951 -0.005412
# 2 -0.002120 0.015077 -0.004811 -0.001061 -0.000361 -0.004697
# 3 -0.007211 -0.004811 0.014046 0.000230 0.002194 0.006729
# 4 0.003409 -0.001061 0.000230 0.021624 0.001038 -0.001717
# 5 0.003951 -0.000361 0.002194 0.001038 0.030123 0.011153
# 6 -0.005412 -0.004697 0.006729 -0.001717 0.011153 0.049422
#
#
# Mechanical properties :
#
#
# Convention : Reuss Voigt Hill
#
# Bulk Modulus (GPa) = 48.31463 56.94397 52.62930
# Shear Modulus (GPa) = 26.97877 33.15053 30.06465
#
# Velocity S-wave (km/s) = 3.68847 4.08865 3.89370
# Velocity P-wave (km/s) = 6.51949 7.14178 6.83771
#
# Compressibility (1/GPa) = 0.02069767
#
# Stress axis : x y z
#
# Youngs Moduli (GPa) = 50.35940 66.32670 71.19254
#
# Poissons Ratio (x) = 0.14062 0.51334
# Poissons Ratio (y) = 0.10677 0.34249
# Poissons Ratio (z) = 0.36312 0.31909
#
# Static dielectric constant tensor:
#      x y z
#    x 3.427310 0.094950 -0.123520 
#    y 0.094950 3.711390 -0.111770 
#    z -0.123520 -0.111770 3.795040 
# 
# 
# High freq. dielectric constant tensor:
#      x y z
#    x 1.748170 0.008070 -0.003320 
#    y 0.008070 1.780050 -0.005970 
#    z -0.003320 -0.005970 1.787280 
# 
# From -- ./inp_files/65940.got.cif
#   From: 2010.06.25/outbox.cif.g09.slc.cpg/sg2_33_cif.got.tgz:65940.got - 2010.06.27 13:26:56.
