data_PCOD8005763
_publ_section_title
;
Structure prediction by ZEFSAII (Michael W. Deem and Ramdas Pophale) SiO2 
 PCOD8005763
Probable space group: P -1
;
_chemical_formula_sum "Si O2"
_cell_formula_units_Z 16
_cell_length_a 9.130120
_cell_length_b 15.533476
_cell_length_c 9.213455
_cell_angle_alpha 72.632729
_cell_angle_beta 84.507652
_cell_angle_gamma 38.739365
_cell_volume 759.567736
_symmetry_space_group_name_H-M "P -1"
_symmetry_group_IT_number 2
_symmetry_cell_setting 'triclinic'
loop_
_space_group_symop_operation_xyz
x,y,z
-x,-y,-z
loop_
_atom_site_type_symbol
_atom_site_label
_atom_site_fract_x
_atom_site_fract_y
_atom_site_fract_z
Si Si1 0.866039 0.773285 0.144050
Si Si2 0.029882 0.470644 0.844691
Si Si3 0.689637 0.344123 0.728237
Si Si4 0.551736 0.241964 0.948596
Si Si5 0.668915 0.327673 0.407727
Si Si6 0.346471 0.970948 0.146031
Si Si7 0.520191 0.751404 0.707290
Si Si8 0.860175 0.975546 0.555956
O O1 0.990066 0.625518 0.138818
O O2 0.622001 0.866233 0.206601
O O3 0.057106 0.725829 0.258883
O O4 0.803371 0.868968 0.967599
O O5 0.292159 0.381523 0.822363
O O6 0.804470 0.631041 0.710083
O O7 0.000000 0.500000 0.000000
O O8 0.707571 0.253933 0.887522
O O9 0.641166 0.327390 0.582736
O O10 0.468147 0.515965 0.709222
O O11 0.670443 0.093528 0.949926
O O12 0.534421 0.241137 0.123062
O O13 0.552808 0.299097 0.354449
O O14 0.954364 0.196118 0.407723
O O15 0.228382 0.984941 0.291220
O O16 0.371299 0.911542 0.586852
O O17 0.000000 0.000000 0.500000
#
# Coordination Sequence:
#
# PCOD8005763 Si02
#       8
#     2   2   2   2   2   2   2   2
#     4  10  22  41  70  89 127 168 211 262 308 375
#     4   9  19  40  61  92 126 160 210 261 308 373
#     4  11  23  41  66  92 126 166 212 262 312 374
#     4  10  22  37  67  96 121 166 217 259 309 374
#     4  10  23  41  58  90 131 162 207 259 316 373
#     4  10  23  44  64  96 126 167 213 257 314 376
#     4  10  20  39  62  91 127 168 205 261 317 371
#     4  10  22  39  61  90 128 162 205 261 309 372
#
# _framework density 21.064612
#
# number of rings (size 3 to 8) (size 9 to 14) (size 15 to 20)
#    0.000    2.000    1.250    1.500    5.250    3.000 
#    4.500    2.500    0.000    0.000    0.000    0.000 
#    0.000    0.000    0.000    0.000    0.000    0.000 
#
# Total GULP energy -198328.728011 kJ/mol
# GULP energy per Si atom -12395.545501 kJ/mol
# Density = 2.101667 g / cm^3
# Si number density = 21.064612 Si / 1000 Ang^3
#
#
#
# Elastic Constant Matrix: (Units=GPa)
#
#
# Indices 1 2 3 4 5 6 
#
# 1 82.0620 33.8664 27.1842 6.9309 6.9939 -2.5435
# 2 33.8664 115.8987 34.6179 -6.3822 13.0374 -16.2059
# 3 27.1842 34.6179 83.7049 9.6631 5.1564 -8.9618
# 4 6.9309 -6.3822 9.6631 34.9396 -6.1799 7.5201
# 5 6.9939 13.0374 5.1564 -6.1799 33.6568 -1.0311
# 6 -2.5435 -16.2059 -8.9618 7.5201 -1.0311 22.4314
#
#
#
# Elastic Compliance Matrix: (Units=1/GPa)
#
#
# Indices 1 2 3 4 5 6 
#
# 1 0.015053 -0.003603 -0.003094 -0.002838 -0.001818 -0.001265
# 2 -0.003603 0.011907 -0.003143 0.001931 -0.002839 0.006160
# 3 -0.003094 -0.003143 0.015578 -0.005689 -0.001404 0.005445
# 4 -0.002838 0.001931 -0.005689 0.035023 0.006757 -0.012630
# 5 -0.001818 -0.002839 -0.001404 0.006757 0.032535 -0.003588
# 6 -0.001265 0.006160 0.005445 -0.012630 -0.003588 0.055132
#
#
# Mechanical properties :
#
#
# Convention : Reuss Voigt Hill
#
# Bulk Modulus (GPa) = 43.74933 52.55583 48.15258
# Shear Modulus (GPa) = 25.97028 30.60536 28.28782
#
# Velocity S-wave (km/s) = 3.51506 3.81586 3.66855
# Velocity P-wave (km/s) = 6.10642 6.66471 6.39167
#
# Compressibility (1/GPa) = 0.02285749
#
# Stress axis : x y z
#
# Youngs Moduli (GPa) = 66.43038 83.98580 64.19496
#
# Poissons Ratio (x) = 0.30260 0.19865
# Poissons Ratio (y) = 0.23935 0.20174
# Poissons Ratio (z) = 0.20557 0.26394
#
# Static dielectric constant tensor:
#      x y z
#    x 3.891280 -0.420500 0.318380 
#    y -0.420500 4.708890 -0.464990 
#    z 0.318380 -0.464990 3.664640 
# 
# 
# High freq. dielectric constant tensor:
#      x y z
#    x 1.813450 -0.008150 0.017790 
#    y -0.008150 1.848530 -0.009320 
#    z 0.017790 -0.009320 1.808680 
# 
# From -- ./inp_files/206334.got.cif
#   From: 2010.06.25/outbox.cif.g09.slc.cpg/sg2_104_cif.got.tgz:206334.got - 2010.06.27 13:26:56.
