data_PCOD8005945
_publ_section_title
;
Structure prediction by ZEFSAII (Michael W. Deem and Ramdas Pophale) SiO2 
 PCOD8005945
Probable space group: P -1
;
_chemical_formula_sum "Si O2"
_cell_formula_units_Z 16
_cell_length_a 9.011141
_cell_length_b 11.897216
_cell_length_c 9.853194
_cell_angle_alpha 73.611972
_cell_angle_beta 118.961672
_cell_angle_gamma 70.523881
_cell_volume 734.633466
_symmetry_space_group_name_H-M "P -1"
_symmetry_group_IT_number 2
_symmetry_cell_setting 'triclinic'
loop_
_space_group_symop_operation_xyz
x,y,z
-x,-y,-z
loop_
_atom_site_type_symbol
_atom_site_label
_atom_site_fract_x
_atom_site_fract_y
_atom_site_fract_z
Si Si1 0.068377 0.347309 0.433185
Si Si2 0.325645 0.655363 0.410831
Si Si3 0.912530 0.070213 0.268387
Si Si4 0.229819 0.897282 0.094598
Si Si5 0.684305 0.937061 0.496617
Si Si6 0.074565 0.346411 0.745194
Si Si7 0.573554 0.939499 0.904036
Si Si8 0.181293 0.769771 0.575359
O O1 0.238256 0.224126 0.452193
O O2 0.153574 0.329821 0.630496
O O3 0.002351 0.497378 0.289253
O O4 0.870189 0.340158 0.357035
O O5 0.500000 0.500000 0.500000
O O6 0.340310 0.752745 0.275659
O O7 0.359679 0.694441 0.565601
O O8 0.106094 0.677814 0.310353
O O9 0.125505 0.062276 0.358806
O O10 0.765288 0.170811 0.291418
O O11 0.977295 0.908875 0.369956
O O12 0.767680 0.138033 0.050974
O O13 0.336486 0.977451 0.150045
O O14 0.000000 0.000000 0.000000
O O15 0.500000 0.000000 0.500000
O O16 0.605696 0.029374 0.290162
O O17 0.261501 0.229181 0.959829
O O18 0.500000 0.000000 0.000000
#
# Coordination Sequence:
#
# PCOD8005945 Si02
#       8
#     2   2   2   2   2   2   2   2
#     4   9  19  37  61  89 121 172 200 256 314 382
#     4  11  24  38  64  97 125 166 216 268 319 376
#     4  10  21  39  67  89 126 175 205 261 319 381
#     4  12  22  41  68  95 128 163 223 269 310 373
#     4  11  24  38  62  97 132 160 212 265 325 377
#     4  10  20  39  64  87 129 164 213 262 318 372
#     4  12  25  40  66 101 125 164 224 268 308 385
#     4   9  19  37  64  86 121 164 213 246 318 378
#
# _framework density 21.779568999999999
#
# number of rings (size 3 to 8) (size 9 to 14) (size 15 to 20)
#    0.000    1.500    3.750    1.500    5.250    1.000 
#    0.000    1.250    5.500    0.000    0.000    0.000 
#    0.000    0.000    0.000    0.000    0.000    0.000 
#
# Total GULP energy -198319.940523 kJ/mol
# GULP energy per Si atom -12394.996283 kJ/mol
# Density = 2.173000 g / cm^3
# Si number density = 21.779569 Si / 1000 Ang^3
#
#
#
# Elastic Constant Matrix: (Units=GPa)
#
#
# Indices 1 2 3 4 5 6 
#
# 1 53.1655 27.3795 16.8635 -5.5039 -4.6642 3.9423
# 2 27.3795 140.5354 46.2888 -18.8303 -11.2486 -11.9720
# 3 16.8635 46.2888 89.5368 -11.4854 -12.5946 -3.4707
# 4 -5.5039 -18.8303 -11.4854 43.4987 0.5899 -12.2410
# 5 -4.6642 -11.2486 -12.5946 0.5899 31.9717 1.5430
# 6 3.9423 -11.9720 -3.4707 -12.2410 1.5430 48.6492
#
#
#
# Elastic Compliance Matrix: (Units=1/GPa)
#
#
# Indices 1 2 3 4 5 6 
#
# 1 0.021694 -0.003710 -0.002153 -0.000270 0.001158 -0.002929
# 2 -0.003710 0.009941 -0.003638 0.003815 0.001288 0.003406
# 3 -0.002153 -0.003638 0.014306 0.002072 0.003970 0.000695
# 4 -0.000270 0.003815 0.002072 0.027376 0.001230 0.007958
# 5 0.001158 0.001288 0.003970 0.001230 0.033453 -0.000245
# 6 -0.002929 0.003406 0.000695 0.007958 -0.000245 0.023691
#
#
# Mechanical properties :
#
#
# Convention : Reuss Voigt Hill
#
# Bulk Modulus (GPa) = 37.12187 51.58903 44.35545
# Shear Modulus (GPa) = 31.55720 37.67098 34.61409
#
# Velocity S-wave (km/s) = 3.81062 4.16342 3.99092
# Velocity P-wave (km/s) = 6.03676 6.84473 6.45340
#
# Compressibility (1/GPa) = 0.02693830
#
# Stress axis : x y z
#
# Youngs Moduli (GPa) = 46.09638 100.59147 69.90085
#
# Poissons Ratio (x) = 0.37322 0.15049
# Poissons Ratio (y) = 0.17103 0.25430
# Poissons Ratio (z) = 0.09924 0.36595
#
# Static dielectric constant tensor:
#      x y z
#    x 3.799840 -0.093500 -0.052270 
#    y -0.093500 4.157570 0.009670 
#    z -0.052270 0.009670 3.390050 
# 
# 
# High freq. dielectric constant tensor:
#      x y z
#    x 1.855800 0.003960 -0.017010 
#    y 0.003960 1.865430 0.003380 
#    z -0.017010 0.003380 1.829060 
# 
# From -- ./inp_files/186075.got.cif
#   From: 2010.06.25/outbox.cif.g09.slc.cpg/sg2_94_cif.got.tgz:186075.got - 2010.06.27 13:26:56.
