data_PCOD8005412
_publ_section_title
;
Structure prediction by ZEFSAII (Michael W. Deem and Ramdas Pophale) SiO2 
 PCOD8005412
Probable space group: P -1
;
_chemical_formula_sum "Si O2"
_cell_formula_units_Z 14
_cell_length_a 8.111128
_cell_length_b 6.595502
_cell_length_c 20.144766
_cell_angle_alpha 118.316833
_cell_angle_beta 139.866650
_cell_angle_gamma 80.597549
_cell_volume 572.562567
_symmetry_space_group_name_H-M "P -1"
_symmetry_group_IT_number 2
_symmetry_cell_setting 'triclinic'
loop_
_space_group_symop_operation_xyz
x,y,z
-x,-y,-z
loop_
_atom_site_type_symbol
_atom_site_label
_atom_site_fract_x
_atom_site_fract_y
_atom_site_fract_z
Si Si1 0.829898 0.424321 0.002255
Si Si2 0.381648 0.658167 0.442901
Si Si3 0.291191 0.981416 0.771781
Si Si4 0.839221 0.662075 0.789231
Si Si5 0.239308 0.507539 0.623554
Si Si6 0.745152 0.904851 0.077218
Si Si7 0.152793 0.032370 0.465565
O O1 0.670860 0.614960 0.996274
O O2 0.046011 0.442212 0.129444
O O3 0.610109 0.149207 0.889469
O O4 0.000000 0.500000 0.000000
O O5 0.500000 0.500000 0.500000
O O6 0.143724 0.495378 0.294846
O O7 0.634077 0.832724 0.505557
O O8 0.231954 0.793159 0.468270
O O9 0.168111 0.042870 0.811146
O O10 0.246602 0.686052 0.715738
O O11 0.144565 0.038053 0.670252
O O12 0.528562 0.639819 0.698450
O O13 0.005847 0.948793 0.871396
O O14 0.191588 0.212175 0.571772
O O15 0.000000 0.500000 0.500000
O O16 0.500000 0.000000 0.000000
#
# Coordination Sequence:
#
# PCOD8005412 Si02
#       7
#     2   2   2   2   2   2   2
#     4  12  28  46  69 102 143 193 240 288 359 423
#     4  10  20  38  69 102 135 178 228 285 357 415
#     4  11  22  44  72  98 146 180 236 291 355 425
#     4  11  24  44  71 101 148 181 237 293 355 420
#     4   9  21  42  70 100 135 188 232 286 350 422
#     4  12  26  42  70 106 140 185 237 289 357 422
#     4   9  20  39  65  97 137 177 225 289 343 413
#
# _framework density 24.451477000000001
#
# number of rings (size 3 to 8) (size 9 to 14) (size 15 to 20)
#    0.000    1.429    1.429    3.000    4.000    3.429 
#    0.000    1.429    0.000   15.429    0.000    0.000 
#    0.000    0.000    0.000    0.000    0.000    0.000 
#
# Total GULP energy -173511.257083 kJ/mol
# GULP energy per Si atom -12393.661220 kJ/mol
# Density = 2.439582 g / cm^3
# Si number density = 24.451477 Si / 1000 Ang^3
#
#
#
# Elastic Constant Matrix: (Units=GPa)
#
#
# Indices 1 2 3 4 5 6 
#
# 1 48.3275 30.8034 33.5626 -7.4918 -19.4806 -22.0473
# 2 30.8034 132.3696 63.3271 2.2574 -20.1144 -24.4662
# 3 33.5626 63.3271 144.9552 -1.3281 -8.3222 -12.5470
# 4 -7.4918 2.2574 -1.3281 42.0400 -9.6368 -7.6844
# 5 -19.4806 -20.1144 -8.3222 -9.6368 51.8423 6.7597
# 6 -22.0473 -24.4662 -12.5470 -7.6844 6.7597 44.9535
#
#
#
# Elastic Compliance Matrix: (Units=1/GPa)
#
#
# Indices 1 2 3 4 5 6 
#
# 1 0.042904 -0.001293 -0.006774 0.014297 0.014755 0.018672
# 2 -0.001293 0.010854 -0.003954 0.000372 0.002660 0.003833
# 3 -0.006774 -0.003954 0.009806 -0.001741 -0.002482 -0.002662
# 4 0.014297 0.000372 -0.001741 0.030357 0.009513 0.010487
# 5 0.014755 0.002660 -0.002482 0.009513 0.026501 0.005633
# 6 0.018672 0.003833 -0.002662 0.010487 0.005633 0.033692
#
#
# Mechanical properties :
#
#
# Convention : Reuss Voigt Hill
#
# Bulk Modulus (GPa) = 25.30430 64.55986 44.93208
# Shear Modulus (GPa) = 26.13273 40.96443 33.54858
#
# Velocity S-wave (km/s) = 3.27273 4.09753 3.70813
# Velocity P-wave (km/s) = 4.96511 6.98905 6.06214
#
# Compressibility (1/GPa) = 0.03951897
#
# Stress axis : x y z
#
# Youngs Moduli (GPa) = 23.30791 92.13519 101.97970
#
# Poissons Ratio (x) = 0.11918 0.69085
# Poissons Ratio (y) = 0.03015 0.40326
# Poissons Ratio (z) = 0.15790 0.36433
#
# Static dielectric constant tensor:
#      x y z
#    x 4.477660 -0.261960 0.023290 
#    y -0.261960 4.574410 0.326240 
#    z 0.023290 0.326240 4.482180 
# 
# 
# High freq. dielectric constant tensor:
#      x y z
#    x 1.975580 -0.012030 0.002980 
#    y -0.012030 1.969170 0.016230 
#    z 0.002980 0.016230 1.983810 
# 
# From -- ./inp_files/441873.got.cif
#   From: 2010.06.25/outbox.cif.g09.slc.cpg/sg2_221_cif.got.tgz:441873.got - 2010.06.27 13:26:56.
