data_PCOD8005572
_publ_section_title
;
Structure prediction by ZEFSAII (Michael W. Deem and Ramdas Pophale) SiO2 
 PCOD8005572
Probable space group: P -1
;
_chemical_formula_sum "Si O2"
_cell_formula_units_Z 16
_cell_length_a 10.501988
_cell_length_b 8.188174
_cell_length_c 8.445216
_cell_angle_alpha 87.761179
_cell_angle_beta 90.650141
_cell_angle_gamma 62.936933
_cell_volume 645.865378
_symmetry_space_group_name_H-M "P -1"
_symmetry_group_IT_number 2
_symmetry_cell_setting 'triclinic'
loop_
_space_group_symop_operation_xyz
x,y,z
-x,-y,-z
loop_
_atom_site_type_symbol
_atom_site_label
_atom_site_fract_x
_atom_site_fract_y
_atom_site_fract_z
Si Si1 0.089221 0.421734 0.220108
Si Si2 0.320719 0.633459 0.124359
Si Si3 0.068358 0.803370 0.311810
Si Si4 0.513894 0.653177 0.606387
Si Si5 0.790873 0.110648 0.397201
Si Si6 0.339004 0.096754 0.395447
Si Si7 0.475788 0.266631 0.737896
Si Si8 0.795812 0.532468 0.104534
O O1 0.054547 0.617731 0.289087
O O2 0.189124 0.256158 0.333860
O O3 0.939301 0.410088 0.208797
O O4 0.161719 0.384487 0.049100
O O5 0.179575 0.808579 0.183480
O O6 0.360703 0.468637 0.264088
O O7 0.452925 0.680072 0.112742
O O8 0.281391 0.587094 0.953807
O O9 0.133447 0.807273 0.484644
O O10 0.912518 0.980438 0.279852
O O11 0.355139 0.721395 0.681818
O O12 0.555602 0.819466 0.545361
O O13 0.512499 0.602088 0.415828
O O14 0.716729 0.994558 0.471674
O O15 0.428025 0.950315 0.267403
O O16 0.314947 0.313376 0.783311
#
# Coordination Sequence:
#
# PCOD8005572 Si02
#       8
#     2   2   2   2   2   2   2   2
#     4  10  23  42  63  82 125 165 203 246 302 362
#     4  11  21  44  63  88 124 163 201 250 301 361
#     4  10  20  39  60  85 126 165 190 247 305 358
#     4  11  22  39  62  96 122 153 201 253 307 359
#     4  10  22  36  61  96 127 153 198 253 307 358
#     4  11  22  39  60  96 121 153 205 257 296 359
#     4  11  23  38  67  89 124 156 203 255 301 355
#     4  10  23  43  62  87 119 168 208 242 301 361
#
# _framework density 24.772966
#
# number of rings (size 3 to 8) (size 9 to 14) (size 15 to 20)
#    0.000    1.500    5.000    2.250    3.500    2.000 
#    2.250    0.625    0.000    0.000    0.000    0.000 
#    0.000    0.000    0.000    0.000    0.000    0.000 
#
# Total GULP energy -198209.633708 kJ/mol
# GULP energy per Si atom -12388.102107 kJ/mol
# Density = 2.471658 g / cm^3
# Si number density = 24.772966 Si / 1000 Ang^3
#
#
#
# Elastic Constant Matrix: (Units=GPa)
#
#
# Indices 1 2 3 4 5 6 
#
# 1 146.2397 39.6790 37.1402 11.8930 6.3437 -46.2719
# 2 39.6790 79.6207 24.8875 20.2981 -5.1498 -33.3350
# 3 37.1402 24.8875 41.9748 15.0381 2.2599 -14.4781
# 4 11.8930 20.2981 15.0381 18.5602 -13.5942 -16.2774
# 5 6.3437 -5.1498 2.2599 -13.5942 43.2205 9.8636
# 6 -46.2719 -33.3350 -14.4781 -16.2774 9.8636 37.5196
#
#
#
# Elastic Compliance Matrix: (Units=1/GPa)
#
#
# Indices 1 2 3 4 5 6 
#
# 1 0.016369 0.001442 -0.014150 0.021195 -0.000613 0.025365
# 2 0.001442 0.022753 -0.005184 -0.009971 -0.004193 0.016770
# 3 -0.014150 -0.005184 0.053761 -0.060530 -0.014998 -0.023629
# 4 0.021195 -0.009971 -0.060530 0.188425 0.043471 0.064240
# 5 -0.000613 -0.004193 -0.014998 0.043471 0.037472 -0.001261
# 6 0.025365 0.016770 -0.023629 0.064240 -0.001261 0.091917
#
#
# Mechanical properties :
#
#
# Convention : Reuss Voigt Hill
#
# Bulk Modulus (GPa) = 17.51360 52.36096 34.93728
# Shear Modulus (GPa) = 10.74077 30.93529 20.83803
#
# Velocity S-wave (km/s) = 2.08449 3.53760 2.90342
# Velocity P-wave (km/s) = 3.58866 6.15373 5.03720
#
# Compressibility (1/GPa) = 0.05709848
#
# Stress axis : x y z
#
# Youngs Moduli (GPa) = 61.09041 43.94968 18.60080
#
# Poissons Ratio (x) = -0.06338 0.26321
# Poissons Ratio (y) = -0.08809 0.09643
# Poissons Ratio (z) = 0.86444 0.22785
#
# Static dielectric constant tensor:
#      x y z
#    x 5.062590 -0.232290 0.259430 
#    y -0.232290 4.844910 0.379400 
#    z 0.259430 0.379400 4.073960 
# 
# 
# High freq. dielectric constant tensor:
#      x y z
#    x 2.025210 -0.013590 0.014130 
#    y -0.013590 1.983840 0.026520 
#    z 0.014130 0.026520 1.952830 
# 
# From -- ./inp_files/239737.got.cif
#   From: 2010.06.25/outbox.cif.g09.slc.cpg/sg2_120_cif.got.tgz:239737.got - 2010.06.27 13:26:56.
