data_PCOD8005085
_publ_section_title
;
Structure prediction by ZEFSAII (Michael W. Deem and Ramdas Pophale) SiO2 
 PCOD8005085
Probable space group: P -1
;
_chemical_formula_sum "Si O2"
_cell_formula_units_Z 14
_cell_length_a 22.224238
_cell_length_b 11.895204
_cell_length_c 21.047364
_cell_angle_alpha 159.046083
_cell_angle_beta 161.208288
_cell_angle_gamma 30.198891
_cell_volume 631.435995
_symmetry_space_group_name_H-M "P -1"
_symmetry_group_IT_number 2
_symmetry_cell_setting 'triclinic'
loop_
_space_group_symop_operation_xyz
x,y,z
-x,-y,-z
loop_
_atom_site_type_symbol
_atom_site_label
_atom_site_fract_x
_atom_site_fract_y
_atom_site_fract_z
Si Si1 0.943851 0.682288 0.314866
Si Si2 0.273527 0.647909 0.296713
Si Si3 0.333093 0.528399 0.431106
Si Si4 0.622131 0.724891 0.103074
Si Si5 0.813017 0.529565 0.450742
Si Si6 0.015609 0.735897 0.980521
Si Si7 0.282682 0.366176 0.718515
O O1 0.082360 0.699978 0.523700
O O2 0.726163 0.661826 0.108727
O O3 0.000000 0.000000 0.500000
O O4 0.964673 0.384494 0.134661
O O5 0.236117 0.465848 0.230907
O O6 0.477577 0.621022 0.458674
O O7 0.121412 0.527665 0.025886
O O8 0.249424 0.007480 0.472410
O O9 0.384634 0.902617 0.696216
O O10 0.202707 0.332481 0.251101
O O11 0.755684 0.605708 0.229727
O O12 0.410145 0.527680 0.784679
O O13 0.832368 0.452583 0.352806
O O14 0.904204 0.892465 0.747390
O O15 0.500000 0.500000 0.000000
#
# Coordination Sequence:
#
# PCOD8005085 Si02
#       7
#     2   2   2   2   2   2   2
#     4  12  26  42  62  93 127 171 215 247 306 376
#     4   9  20  36  63  92 122 164 206 251 319 364
#     4  10  20  38  64  93 125 161 204 260 311 368
#     4  10  22  41  66  92 128 163 207 259 309 375
#     4  10  24  42  65  92 125 164 209 261 317 360
#     4  11  23  41  61  92 127 160 212 260 299 372
#     4   8  17  39  63  93 122 153 205 260 310 368
#
# _framework density 22.171685
#
# number of rings (size 3 to 8) (size 9 to 14) (size 15 to 20)
#    0.000    2.000    1.429    0.857    2.000    6.286 
#    0.000    0.000    0.000    0.000    0.000    0.000 
#    0.000    0.000    0.000    0.000    0.000    0.000 
#
# Total GULP energy -173477.761566 kJ/mol
# GULP energy per Si atom -12391.268683 kJ/mol
# Density = 2.212122 g / cm^3
# Si number density = 22.171685 Si / 1000 Ang^3
#
#
#
# Elastic Constant Matrix: (Units=GPa)
#
#
# Indices 1 2 3 4 5 6 
#
# 1 114.7415 22.9306 30.4971 0.0930 17.2795 -5.9141
# 2 22.9306 53.8771 4.1398 -2.1044 0.9158 19.1575
# 3 30.4971 4.1398 83.4099 8.5120 15.0751 8.2308
# 4 0.0930 -2.1044 8.5120 19.7531 4.7351 2.5901
# 5 17.2795 0.9158 15.0751 4.7351 32.7033 -5.7473
# 6 -5.9141 19.1575 8.2308 2.5901 -5.7473 33.5560
#
#
#
# Elastic Compliance Matrix: (Units=1/GPa)
#
#
# Indices 1 2 3 4 5 6 
#
# 1 0.012071 -0.007060 -0.004225 0.000919 -0.003210 0.006573
# 2 -0.007060 0.028297 0.002998 0.004830 -0.002471 -0.018931
# 3 -0.004225 0.002998 0.015499 -0.004087 -0.005618 -0.006905
# 4 0.000919 0.004830 -0.004087 0.055793 -0.008096 -0.007286
# 5 -0.003210 -0.002471 -0.005618 -0.008096 0.037742 0.009312
# 6 0.006573 -0.018931 -0.006905 -0.007286 0.009312 0.045618
#
#
# Mechanical properties :
#
#
# Convention : Reuss Voigt Hill
#
# Bulk Modulus (GPa) = 25.44939 40.79594 33.12267
# Shear Modulus (GPa) = 22.25294 30.16653 26.20973
#
# Velocity S-wave (km/s) = 3.17150 3.69262 3.44194
# Velocity P-wave (km/s) = 4.99144 6.05149 5.54685
#
# Compressibility (1/GPa) = 0.03929367
#
# Stress axis : x y z
#
# Youngs Moduli (GPa) = 82.84580 35.33942 64.52108
#
# Poissons Ratio (x) = 0.24948 0.27262
# Poissons Ratio (y) = 0.58485 -0.19346
# Poissons Ratio (z) = 0.35004 -0.10596
#
# Static dielectric constant tensor:
#      x y z
#    x 4.902450 0.349460 -0.217780 
#    y 0.349460 3.874610 -0.140800 
#    z -0.217780 -0.140800 3.931650 
# 
# 
# High freq. dielectric constant tensor:
#      x y z
#    x 1.884930 0.012870 0.005690 
#    y 0.012870 1.860420 -0.005850 
#    z 0.005690 -0.005850 1.869530 
# 
# From -- ./inp_files/269715.got.cif
#   From: 2010.06.25/outbox.cif.g09.slc.cpg/sg2_135_cif.got.tgz:269715.got - 2010.06.27 13:26:56.
