data_PCOD8005218
_publ_section_title
;
Structure prediction by ZEFSAII (Michael W. Deem and Ramdas Pophale) SiO2 
 PCOD8005218
Probable space group: P -1
;
_chemical_formula_sum "Si O2"
_cell_formula_units_Z 16
_cell_length_a 8.707613
_cell_length_b 14.318750
_cell_length_c 11.653486
_cell_angle_alpha 118.318872
_cell_angle_beta 127.006250
_cell_angle_gamma 38.870983
_cell_volume 728.124557
_symmetry_space_group_name_H-M "P -1"
_symmetry_group_IT_number 2
_symmetry_cell_setting 'triclinic'
loop_
_space_group_symop_operation_xyz
x,y,z
-x,-y,-z
loop_
_atom_site_type_symbol
_atom_site_label
_atom_site_fract_x
_atom_site_fract_y
_atom_site_fract_z
Si Si1 0.702880 0.613130 0.480760
Si Si2 0.574842 0.851136 0.418682
Si Si3 0.246404 0.634200 0.228652
Si Si4 0.715903 0.531127 0.068552
Si Si5 0.049573 0.589152 0.325146
Si Si6 0.201709 0.074243 0.922897
Si Si7 0.123304 0.726845 0.898090
Si Si8 0.968485 0.967838 0.839452
O O1 0.584417 0.777245 0.497769
O O2 0.517653 0.598663 0.323542
O O3 0.000000 0.500000 0.500000
O O4 0.730285 0.568504 0.600167
O O5 0.857904 0.731649 0.407445
O O6 0.500000 0.000000 0.500000
O O7 0.335904 0.897747 0.259899
O O8 0.259883 0.537905 0.082385
O O9 0.219561 0.597687 0.322749
O O10 0.983447 0.808557 0.193454
O O11 0.402350 0.669815 0.037569
O O12 0.862677 0.586409 0.160522
O O13 0.844806 0.413206 0.164927
O O14 0.112195 0.152359 0.050818
O O15 0.500000 0.000000 0.000000
O O16 0.171821 0.956678 0.842295
O O17 0.052124 0.808890 0.789985
O O18 0.000000 0.000000 0.000000
#
# Coordination Sequence:
#
# PCOD8005218 Si02
#       8
#     2   2   2   2   2   2   2   2
#     4  10  24  44  69  95 130 180 228 271 325 395
#     4  11  25  44  67  95 130 178 228 269 322 400
#     4  11  23  43  68 100 135 169 217 280 338 391
#     4  10  22  39  69 104 129 167 224 282 327 396
#     4  11  24  42  70  95 136 174 219 274 338 391
#     4  10  21  36  61  97 137 169 204 272 340 395
#     4   9  21  34  62  93 134 162 221 259 332 382
#     4  10  20  38  65  94 127 172 219 267 329 392
#
# _framework density 21.974264000000002
#
# number of rings (size 3 to 8) (size 9 to 14) (size 15 to 20)
#    0.000    1.750    1.250    2.250   15.750    1.000 
#    0.000    0.625    0.000    0.000    0.000    0.000 
#    0.000    0.000    0.000    0.000    0.000    0.000 
#
# Total GULP energy -198241.936729 kJ/mol
# GULP energy per Si atom -12390.121046 kJ/mol
# Density = 2.192425 g / cm^3
# Si number density = 21.974264 Si / 1000 Ang^3
#
#
#
# Elastic Constant Matrix: (Units=GPa)
#
#
# Indices 1 2 3 4 5 6 
#
# 1 139.9390 62.8777 44.7012 -14.1744 -0.9739 14.3961
# 2 62.8777 109.8589 41.8327 -16.2230 -5.3710 15.2016
# 3 44.7012 41.8327 80.8590 -12.3678 1.5471 2.3342
# 4 -14.1744 -16.2230 -12.3678 41.8681 4.5279 -1.7849
# 5 -0.9739 -5.3710 1.5471 4.5279 37.0399 -12.9287
# 6 14.3961 15.2016 2.3342 -1.7849 -12.9287 37.0470
#
#
#
# Elastic Compliance Matrix: (Units=1/GPa)
#
#
# Indices 1 2 3 4 5 6 
#
# 1 0.010487 -0.004315 -0.003331 0.000917 -0.001183 -0.002463
# 2 -0.004315 0.014158 -0.004468 0.002491 0.000591 -0.003525
# 3 -0.003331 -0.004468 0.016843 0.002311 -0.001095 0.001796
# 4 0.000917 0.002491 0.002311 0.026150 -0.003416 -0.001457
# 5 -0.001183 0.000591 -0.001095 -0.003416 0.031381 0.011073
# 6 -0.002463 -0.003525 0.001796 -0.001457 0.011073 0.033077
#
#
# Mechanical properties :
#
#
# Convention : Reuss Voigt Hill
#
# Bulk Modulus (GPa) = 57.93770 69.94223 63.93997
# Shear Modulus (GPa) = 30.84942 35.27403 33.06172
#
# Velocity S-wave (km/s) = 3.75091 4.01089 3.88308
# Velocity P-wave (km/s) = 6.72180 7.30397 7.01892
#
# Compressibility (1/GPa) = 0.01725992
#
# Stress axis : x y z
#
# Youngs Moduli (GPa) = 95.35558 70.63021 59.37317
#
# Poissons Ratio (x) = 0.30480 0.19777
# Poissons Ratio (y) = 0.41150 0.26526
# Poissons Ratio (z) = 0.31762 0.31555
#
# Static dielectric constant tensor:
#      x y z
#    x 4.384380 0.765600 -0.156270 
#    y 0.765600 4.476150 -0.520710 
#    z -0.156270 -0.520710 4.050420 
# 
# 
# High freq. dielectric constant tensor:
#      x y z
#    x 1.867910 0.028070 0.009770 
#    y 0.028070 1.856940 -0.029140 
#    z 0.009770 -0.029140 1.853460 
# 
# From -- ./inp_files/399332.got.cif
#   From: 2010.06.25/outbox.cif.g09.slc.cpg/sg2_200_cif.got.tgz:399332.got - 2010.06.27 13:26:56.
