data_PCOD8005907
_publ_section_title
;
Structure prediction by ZEFSAII (Michael W. Deem and Ramdas Pophale) SiO2 
 PCOD8005907
Probable space group: P -1
;
_chemical_formula_sum "Si O2"
_cell_formula_units_Z 14
_cell_length_a 8.488061
_cell_length_b 11.436407
_cell_length_c 9.072053
_cell_angle_alpha 105.099668
_cell_angle_beta 50.934216
_cell_angle_gamma 99.639379
_cell_volume 660.143733
_symmetry_space_group_name_H-M "P -1"
_symmetry_group_IT_number 2
_symmetry_cell_setting 'triclinic'
loop_
_space_group_symop_operation_xyz
x,y,z
-x,-y,-z
loop_
_atom_site_type_symbol
_atom_site_label
_atom_site_fract_x
_atom_site_fract_y
_atom_site_fract_z
Si Si1 0.031959 0.660427 0.092151
Si Si2 0.270256 0.966982 0.771148
Si Si3 0.726028 0.959633 0.536572
Si Si4 0.099963 0.814324 0.353702
Si Si5 0.049431 0.632552 0.577569
Si Si6 0.902516 0.798481 0.949101
Si Si7 0.735355 0.476319 0.325132
O O1 0.885290 0.593373 0.277705
O O2 0.158139 0.759818 0.142733
O O3 0.875651 0.713853 0.080890
O O4 0.208391 0.579831 0.886666
O O5 0.205170 0.004116 0.656285
O O6 0.126631 0.855826 0.860188
O O7 0.494737 0.915727 0.646099
O O8 0.250786 0.087829 0.924661
O O9 0.749084 0.075510 0.667108
O O10 0.863984 0.855170 0.492145
O O11 0.137457 0.713688 0.422581
O O12 0.874929 0.713968 0.790632
O O13 0.000000 0.500000 0.500000
O O14 0.213661 0.616016 0.604055
O O15 0.500000 0.500000 0.500000
#
# Coordination Sequence:
#
# PCOD8005907 Si02
#       7
#     2   2   2   2   2   2   2
#     4  10  21  40  64  87 129 164 206 258 316 372
#     4  10  20  39  63  95 119 167 215 260 312 387
#     4  10  22  37  64  93 124 162 215 259 322 373
#     4  11  21  40  61  94 130 164 199 271 319 370
#     4  11  22  40  62  90 130 167 205 260 324 372
#     4  10  21  39  64  90 129 166 206 264 319 380
#     4  10  23  42  65  90 118 171 221 252 303 382
#
# _framework density 21.207501000000001
#
# number of rings (size 3 to 8) (size 9 to 14) (size 15 to 20)
#    0.000    1.714    4.286    0.000    0.000    3.429 
#    2.571    2.143    0.000    0.000    0.000    0.000 
#    0.000    0.000    0.000    0.000    0.000    0.000 
#
# Total GULP energy -173434.730224 kJ/mol
# GULP energy per Si atom -12388.195016 kJ/mol
# Density = 2.115923 g / cm^3
# Si number density = 21.207501 Si / 1000 Ang^3
#
#
#
# Elastic Constant Matrix: (Units=GPa)
#
#
# Indices 1 2 3 4 5 6 
#
# 1 66.9797 18.7739 32.8433 1.8049 -1.4495 -2.6254
# 2 18.7739 85.5245 25.0116 13.8259 3.9973 -1.4392
# 3 32.8433 25.0116 88.1822 12.4598 2.2594 11.9923
# 4 1.8049 13.8259 12.4598 38.0551 9.6100 16.7457
# 5 -1.4495 3.9973 2.2594 9.6100 41.2317 9.4041
# 6 -2.6254 -1.4392 11.9923 16.7457 9.4041 28.1595
#
#
#
# Elastic Compliance Matrix: (Units=1/GPa)
#
#
# Indices 1 2 3 4 5 6 
#
# 1 0.019236 -0.002057 -0.007233 0.000115 0.000187 0.004637
# 2 -0.002057 0.014271 -0.003173 -0.006441 -0.001175 0.006111
# 3 -0.007233 -0.003173 0.016038 -0.000670 0.001070 -0.007625
# 4 0.000115 -0.006441 -0.000670 0.039563 -0.003445 -0.022410
# 5 0.000187 -0.001175 0.001070 -0.003445 0.026806 -0.007402
# 6 0.004637 0.006111 -0.007625 -0.022410 -0.007402 0.055303
#
#
# Mechanical properties :
#
#
# Convention : Reuss Voigt Hill
#
# Bulk Modulus (GPa) = 40.61623 43.77158 42.19390
# Shear Modulus (GPa) = 24.46820 32.42643 28.44732
#
# Velocity S-wave (km/s) = 3.40038 3.91449 3.66646
# Velocity P-wave (km/s) = 5.88304 6.41214 6.15328
#
# Compressibility (1/GPa) = 0.02462070
#
# Stress axis : x y z
#
# Youngs Moduli (GPa) = 51.98702 70.07282 62.35150
#
# Poissons Ratio (x) = 0.14411 0.45097
# Poissons Ratio (y) = 0.10692 0.19782
# Poissons Ratio (z) = 0.37600 0.22232
#
# Static dielectric constant tensor:
#      x y z
#    x 3.571970 -0.019790 0.369900 
#    y -0.019790 4.065460 0.245900 
#    z 0.369900 0.245900 3.924290 
# 
# 
# High freq. dielectric constant tensor:
#      x y z
#    x 1.801740 -0.005930 0.029830 
#    y -0.005930 1.848690 0.016350 
#    z 0.029830 0.016350 1.825140 
# 
# From -- ./inp_files/179723.got.cif
#   From: 2010.06.25/outbox.cif.g09.slc.cpg/sg2_90_cif.got.tgz:179723.got - 2010.06.27 13:26:56.
