data_PCOD8005260
_publ_section_title
;
Structure prediction by ZEFSAII (Michael W. Deem and Ramdas Pophale) SiO2 
 PCOD8005260
Probable space group: P -1
;
_chemical_formula_sum "Si O2"
_cell_formula_units_Z 16
_cell_length_a 9.005184
_cell_length_b 26.904593
_cell_length_c 14.686876
_cell_angle_alpha 159.790189
_cell_angle_beta 128.967994
_cell_angle_gamma 41.103036
_cell_volume 758.652576
_symmetry_space_group_name_H-M "P -1"
_symmetry_group_IT_number 2
_symmetry_cell_setting 'triclinic'
loop_
_space_group_symop_operation_xyz
x,y,z
-x,-y,-z
loop_
_atom_site_type_symbol
_atom_site_label
_atom_site_fract_x
_atom_site_fract_y
_atom_site_fract_z
Si Si1 0.360147 0.192339 0.323754
Si Si2 0.517194 0.290514 0.214621
Si Si3 0.239502 0.022665 0.360618
Si Si4 0.759351 0.562615 0.467032
Si Si5 0.599393 0.383333 0.986738
Si Si6 0.596768 0.738588 0.157554
Si Si7 0.169581 0.573377 0.428527
Si Si8 0.724061 0.250287 0.615083
O O1 0.261990 0.341714 0.467419
O O2 0.546354 0.195224 0.462487
O O3 0.116725 0.263045 0.405466
O O4 0.500000 0.000000 0.000000
O O5 0.461122 0.296288 0.309046
O O6 0.264507 0.434182 0.311023
O O7 0.704282 0.332631 0.348336
O O8 0.645168 0.088872 0.879879
O O9 0.239154 0.195853 0.650915
O O10 0.968380 0.091563 0.387151
O O11 0.377178 0.891638 0.274018
O O12 0.000000 0.500000 0.500000
O O13 0.744425 0.401382 0.153941
O O14 0.500175 0.281888 0.819685
O O15 0.776018 0.272857 0.778768
O O16 0.381784 0.574831 0.188480
O O17 0.755043 0.541628 0.832685
#
# Coordination Sequence:
#
# PCOD8005260 Si02
#       8
#     2   2   2   2   2   2   2   2
#     4  11  24  41  61  95 130 167 208 261 322 373
#     4  10  20  39  63  95 122 160 207 266 315 362
#     4  10  23  39  64  94 129 159 212 271 313 366
#     4  11  22  39  66  95 122 164 218 261 306 378
#     4  10  23  42  62  91 124 171 218 247 319 388
#     4  10  22  40  64  94 120 167 218 260 314 371
#     4  10  20  38  66  88 126 164 207 255 316 380
#     4  10  24  43  61  90 132 171 206 261 319 383
#
# _framework density 21.090022999999999
#
# number of rings (size 3 to 8) (size 9 to 14) (size 15 to 20)
#    0.000    1.750    2.500    0.750    5.250    4.000 
#    2.250    1.875    0.000    0.000    0.000    0.000 
#    0.000    0.000    0.000    0.000    0.000    0.000 
#
# Total GULP energy -198335.044122 kJ/mol
# GULP energy per Si atom -12395.940258 kJ/mol
# Density = 2.104202 g / cm^3
# Si number density = 21.090023 Si / 1000 Ang^3
#
#
#
# Elastic Constant Matrix: (Units=GPa)
#
#
# Indices 1 2 3 4 5 6 
#
# 1 88.1459 42.9152 26.5990 -2.0127 -6.3477 -7.5169
# 2 42.9152 70.6443 32.3383 -22.2780 -10.0823 -19.4036
# 3 26.5990 32.3383 98.9603 -12.9674 -7.4014 -10.1671
# 4 -2.0127 -22.2780 -12.9674 29.3704 0.2236 -7.5477
# 5 -6.3477 -10.0823 -7.4014 0.2236 32.4117 1.0024
# 6 -7.5169 -19.4036 -10.1671 -7.5477 1.0024 37.6024
#
#
#
# Elastic Compliance Matrix: (Units=1/GPa)
#
#
# Indices 1 2 3 4 5 6 
#
# 1 0.020308 -0.019827 -0.002483 -0.017365 -0.002320 -0.010267
# 2 -0.019827 0.050569 -0.001551 0.044016 0.010253 0.030274
# 3 -0.002483 -0.001551 0.012350 0.004857 0.001726 0.002971
# 4 -0.017365 0.044016 0.004857 0.077530 0.009756 0.035857
# 5 -0.002320 0.010253 0.001726 0.009756 0.033719 0.006353
# 6 -0.010267 0.030274 0.002971 0.035857 0.006353 0.047995
#
#
# Mechanical properties :
#
#
# Convention : Reuss Voigt Hill
#
# Bulk Modulus (GPa) = 28.16510 51.27285 39.71898
# Shear Modulus (GPa) = 16.55473 30.27010 23.41241
#
# Velocity S-wave (km/s) = 2.80475 3.79262 3.33546
# Velocity P-wave (km/s) = 4.88595 6.59870 5.80583
#
# Compressibility (1/GPa) = 0.03550493
#
# Stress axis : x y z
#
# Youngs Moduli (GPa) = 49.24100 19.77482 80.97134
#
# Poissons Ratio (x) = 0.39208 0.20106
# Poissons Ratio (y) = 0.97632 0.12558
# Poissons Ratio (z) = 0.12227 0.03067
#
# Static dielectric constant tensor:
#      x y z
#    x 3.775360 0.239840 -0.072680 
#    y 0.239840 2.484710 -0.060280 
#    z -0.072680 -0.060280 3.780740 
# 
# 
# High freq. dielectric constant tensor:
#      x y z
#    x 1.831210 -0.005090 -0.005370 
#    y -0.005090 1.813970 -0.015830 
#    z -0.005370 -0.015830 1.826520 
# 
# From -- ./inp_files/205648.got.cif
#   From: 2010.06.25/outbox.cif.g09.slc.cpg/sg2_103_cif.got.tgz:205648.got - 2010.06.27 13:26:56.
