data_PCOD8005610
_publ_section_title
;
Structure prediction by ZEFSAII (Michael W. Deem and Ramdas Pophale) SiO2 
 PCOD8005610
Probable space group: P -1
;
_chemical_formula_sum "Si O2"
_cell_formula_units_Z 16
_cell_length_a 23.232841
_cell_length_b 18.588777
_cell_length_c 8.849762
_cell_angle_alpha 131.442230
_cell_angle_beta 123.972753
_cell_angle_gamma 16.829581
_cell_volume 778.792154
_symmetry_space_group_name_H-M "P -1"
_symmetry_group_IT_number 2
_symmetry_cell_setting 'triclinic'
loop_
_space_group_symop_operation_xyz
x,y,z
-x,-y,-z
loop_
_atom_site_type_symbol
_atom_site_label
_atom_site_fract_x
_atom_site_fract_y
_atom_site_fract_z
Si Si1 0.953909 0.127123 0.467254
Si Si2 0.197150 0.190795 0.432285
Si Si3 0.613467 0.478627 0.874095
Si Si4 0.012534 0.528510 0.895446
Si Si5 0.832042 0.465979 0.937118
Si Si6 0.793850 0.234330 0.104046
Si Si7 0.547510 0.118947 0.892759
Si Si8 0.183868 0.992000 0.036626
O O1 0.854781 0.358379 0.688100
O O2 0.782736 0.300677 0.344096
O O3 0.179750 0.850416 0.330170
O O4 0.000000 0.000000 0.500000
O O5 0.000000 0.500000 0.500000
O O6 0.183833 0.238819 0.654351
O O7 0.404508 0.961115 0.327570
O O8 0.174374 0.106601 0.265012
O O9 0.608769 0.501980 0.084649
O O10 0.603084 0.590261 0.917370
O O11 0.393402 0.709565 0.844415
O O12 0.775135 0.840699 0.915280
O O13 0.000000 0.500000 0.000000
O O14 0.107861 0.510731 0.013207
O O15 0.589156 0.784838 0.089843
O O16 0.980186 0.242951 0.983250
O O17 0.808402 0.100773 0.956510
O O18 0.000000 0.000000 0.000000
#
# Coordination Sequence:
#
# PCOD8005610 Si02
#       8
#     2   2   2   2   2   2   2   2
#     4  11  21  37  60  94 131 170 206 250 315 377
#     4   9  19  42  66  91 118 159 219 264 315 372
#     4  10  20  39  60  92 130 167 211 258 306 380
#     4  11  25  46  65  93 132 160 214 281 315 377
#     4  12  22  40  68  94 131 172 211 259 320 383
#     4  10  21  37  58  90 133 162 210 260 298 382
#     4  10  21  42  67  94 123 167 218 255 321 388
#     4  11  20  38  66  92 121 173 216 254 312 376
#
# _framework density 20.544633000000001
#
# number of rings (size 3 to 8) (size 9 to 14) (size 15 to 20)
#    0.000    1.500    6.250    1.125    0.000    3.500 
#    6.750    0.000    0.000    0.000    0.000    0.000 
#    0.000    0.000    0.000    0.000    0.000    0.000 
#
# Total GULP energy -198238.810244 kJ/mol
# GULP energy per Si atom -12389.925640 kJ/mol
# Density = 2.049787 g / cm^3
# Si number density = 20.544633 Si / 1000 Ang^3
#
#
#
# Elastic Constant Matrix: (Units=GPa)
#
#
# Indices 1 2 3 4 5 6 
#
# 1 147.6639 43.3959 50.1780 -2.5339 -4.8316 -14.7171
# 2 43.3959 66.2413 39.4894 5.1210 -1.8818 -14.6596
# 3 50.1780 39.4894 135.0406 -2.6830 -6.6091 -11.1223
# 4 -2.5339 5.1210 -2.6830 30.5443 -1.4213 -10.4541
# 5 -4.8316 -1.8818 -6.6091 -1.4213 32.6303 0.6711
# 6 -14.7171 -14.6596 -11.1223 -10.4541 0.6711 36.8308
#
#
#
# Elastic Compliance Matrix: (Units=1/GPa)
#
#
# Indices 1 2 3 4 5 6 
#
# 1 0.008946 -0.004542 -0.001773 0.001993 0.000754 0.001784
# 2 -0.004542 0.021977 -0.004425 -0.002831 -0.000523 0.004802
# 3 -0.001773 -0.004425 0.009540 0.001809 0.001475 0.000898
# 4 0.001993 -0.002831 0.001809 0.037314 0.001902 0.010773
# 5 0.000754 -0.000523 0.001475 0.001902 0.031099 0.000512
# 6 0.001784 0.004802 0.000898 0.010773 0.000512 0.033095
#
#
# Mechanical properties :
#
#
# Convention : Reuss Voigt Hill
#
# Bulk Modulus (GPa) = 52.67836 68.34136 60.50986
# Shear Modulus (GPa) = 29.45046 34.39326 31.92186
#
# Velocity S-wave (km/s) = 3.79025 4.09599 3.94608
# Velocity P-wave (km/s) = 6.69711 7.46368 7.09076
#
# Compressibility (1/GPa) = 0.01898313
#
# Stress axis : x y z
#
# Youngs Moduli (GPa) = 111.78311 45.50304 104.82270
#
# Poissons Ratio (x) = 0.20667 0.18580
# Poissons Ratio (y) = 0.50771 0.46386
# Poissons Ratio (z) = 0.19814 0.20136
#
# Static dielectric constant tensor:
#      x y z
#    x 4.444780 0.300990 -1.644620 
#    y 0.300990 4.063320 -0.933190 
#    z -1.644620 -0.933190 7.183630 
# 
# 
# High freq. dielectric constant tensor:
#      x y z
#    x 1.808130 -0.005480 -0.010770 
#    y -0.005480 1.798830 0.008180 
#    z -0.010770 0.008180 1.791590 
# 
# From -- ./inp_files/348609.got.cif
#   From: 2010.06.25/outbox.cif.g09.slc.cpg/sg2_175_cif.got.tgz:348609.got - 2010.06.27 13:26:56.
