data_PCOD8005240
_publ_section_title
;
Structure prediction by ZEFSAII (Michael W. Deem and Ramdas Pophale) SiO2 
 PCOD8005240
Probable space group: P -1
;
_chemical_formula_sum "Si O2"
_cell_formula_units_Z 14
_cell_length_a 11.614029
_cell_length_b 20.946594
_cell_length_c 7.676778
_cell_angle_alpha 64.504154
_cell_angle_beta 114.638873
_cell_angle_gamma 157.556789
_cell_volume 642.558358
_symmetry_space_group_name_H-M "P -1"
_symmetry_group_IT_number 2
_symmetry_cell_setting 'triclinic'
loop_
_space_group_symop_operation_xyz
x,y,z
-x,-y,-z
loop_
_atom_site_type_symbol
_atom_site_label
_atom_site_fract_x
_atom_site_fract_y
_atom_site_fract_z
Si Si1 0.116140 0.151310 0.536309
Si Si2 0.395102 0.868384 0.141527
Si Si3 0.673693 0.377350 0.801529
Si Si4 0.689608 0.931231 0.956872
Si Si5 0.780277 0.841642 0.784763
Si Si6 0.385469 0.016094 0.476609
Si Si7 0.106612 0.477093 0.881211
O O1 0.466542 0.321459 0.613737
O O2 0.094761 0.133704 0.337331
O O3 0.888790 0.978620 0.686356
O O4 0.973223 0.155090 0.500532
O O5 0.584478 0.909511 0.100257
O O6 0.431323 0.871526 0.366048
O O7 0.042547 0.671170 0.111664
O O8 0.500000 0.000000 0.000000
O O9 0.449278 0.217518 0.971030
O O10 0.894048 0.438340 0.755812
O O11 0.864563 0.519691 0.894354
O O12 0.548770 0.901154 0.743112
O O13 0.055401 0.111993 0.997662
O O14 0.423522 0.650705 0.784197
O O15 0.500000 0.000000 0.500000
#
# Coordination Sequence:
#
# PCOD8005240 Si02
#       7
#     2   2   2   2   2   2   2
#     4  10  21  38  64  96 132 164 208 255 318 387
#     4  11  23  44  62  89 126 169 219 258 307 375
#     4   9  20  40  62  98 128 160 202 266 326 374
#     4  10  20  40  68  90 130 162 206 262 317 382
#     4  10  20  38  65  98 128 163 203 265 325 371
#     4  12  23  38  68  92 116 177 221 247 306 381
#     4  10  21  38  62  96 126 164 205 265 323 367
#
# _framework density 21.787904000000001
#
# number of rings (size 3 to 8) (size 9 to 14) (size 15 to 20)
#    0.000    1.714    2.857    1.714    2.000    2.857 
#    7.714    0.714    0.000    2.571    0.000    0.000 
#    0.000    0.000    0.000    0.000    0.000    0.000 
#
# Total GULP energy -173433.605336 kJ/mol
# GULP energy per Si atom -12388.114667 kJ/mol
# Density = 2.173831 g / cm^3
# Si number density = 21.787904 Si / 1000 Ang^3
#
#
#
# Elastic Constant Matrix: (Units=GPa)
#
#
# Indices 1 2 3 4 5 6 
#
# 1 120.0731 46.4171 36.8178 16.0869 -0.2031 5.0356
# 2 46.4171 139.1430 50.1234 17.2064 1.9368 12.1457
# 3 36.8178 50.1234 124.9352 28.1096 2.0906 -8.1475
# 4 16.0869 17.2064 28.1096 32.6608 3.1606 -7.2587
# 5 -0.2031 1.9368 2.0906 3.1606 21.8829 10.4637
# 6 5.0356 12.1457 -8.1475 -7.2587 10.4637 33.1113
#
#
#
# Elastic Compliance Matrix: (Units=1/GPa)
#
#
# Indices 1 2 3 4 5 6 
#
# 1 0.010226 -0.002253 -0.001576 -0.003252 0.002108 -0.002496
# 2 -0.002253 0.009821 -0.003016 -0.002900 0.002396 -0.005395
# 3 -0.001576 -0.003016 0.011393 -0.006610 -0.001382 0.003137
# 4 -0.003252 -0.002900 -0.006610 0.043498 -0.011723 0.013172
# 5 0.002108 0.002396 -0.001382 -0.011723 0.058070 -0.022460
# 6 -0.002496 -0.005395 0.003137 0.013172 -0.022460 0.043317
#
#
# Mechanical properties :
#
#
# Convention : Reuss Voigt Hill
#
# Bulk Modulus (GPa) = 56.33454 72.31866 64.32660
# Shear Modulus (GPa) = 25.51904 34.25054 29.88479
#
# Velocity S-wave (km/s) = 3.42606 3.96914 3.70756
# Velocity P-wave (km/s) = 6.44690 7.36679 6.92215
#
# Compressibility (1/GPa) = 0.01775110
#
# Stress axis : x y z
#
# Youngs Moduli (GPa) = 97.78565 101.82383 87.77059
#
# Poissons Ratio (x) = 0.22941 0.13833
# Poissons Ratio (y) = 0.22032 0.26469
# Poissons Ratio (z) = 0.15412 0.30707
#
# Static dielectric constant tensor:
#      x y z
#    x 4.103910 0.107660 -0.146530 
#    y 0.107660 4.081170 0.506400 
#    z -0.146530 0.506400 4.150810 
# 
# 
# High freq. dielectric constant tensor:
#      x y z
#    x 1.858340 0.025340 -0.028510 
#    y 0.025340 1.836780 0.034190 
#    z -0.028510 0.034190 1.853930 
# 
# From -- ./inp_files/281870.got.cif
#   From: 2010.06.25/outbox.cif.g09.slc.cpg/sg2_141_cif.got.tgz:281870.got - 2010.06.27 13:26:56.
