data_PCOD8005080
_publ_section_title
;
Structure prediction by ZEFSAII (Michael W. Deem and Ramdas Pophale) SiO2 
 PCOD8005080
Probable space group: P -1
;
_chemical_formula_sum "Si O2"
_cell_formula_units_Z 14
_cell_length_a 9.460767
_cell_length_b 13.152517
_cell_length_c 9.921987
_cell_angle_alpha 32.051392
_cell_angle_beta 107.664741
_cell_angle_gamma 115.553722
_cell_volume 586.095813
_symmetry_space_group_name_H-M "P -1"
_symmetry_group_IT_number 2
_symmetry_cell_setting 'triclinic'
loop_
_space_group_symop_operation_xyz
x,y,z
-x,-y,-z
loop_
_atom_site_type_symbol
_atom_site_label
_atom_site_fract_x
_atom_site_fract_y
_atom_site_fract_z
Si Si1 0.883411 0.981246 0.864987
Si Si2 0.700791 0.454298 0.997467
Si Si3 0.160973 0.154094 0.562125
Si Si4 0.540572 0.724141 0.314853
Si Si5 0.404303 0.917005 0.269171
Si Si6 0.345036 0.338886 0.993034
Si Si7 0.312115 0.977062 0.584769
O O1 0.767047 0.741398 0.081024
O O2 0.778698 0.123755 0.706035
O O3 0.982576 0.058614 0.669908
O O4 0.000000 0.000000 0.000000
O O5 0.825407 0.639421 0.745501
O O6 0.701347 0.502346 0.104154
O O7 0.530545 0.433632 0.904955
O O8 0.748867 0.256723 0.216849
O O9 0.277702 0.193015 0.679568
O O10 0.198218 0.993704 0.654079
O O11 0.500000 0.500000 0.500000
O O12 0.423699 0.727070 0.403516
O O13 0.516279 0.871899 0.026848
O O14 0.504006 0.945711 0.403341
O O15 0.308347 0.121691 0.299484
#
# Coordination Sequence:
#
# PCOD8005080 Si02
#       7
#     2   2   2   2   2   2   2
#     4  12  24  44  62  93 140 176 198 261 329 388
#     4  10  20  40  69  98 116 162 222 270 302 370
#     4  10  23  39  63  94 131 166 207 260 328 371
#     4  10  20  38  64  93 122 166 222 266 296 375
#     4  10  21  38  65  92 123 171 212 256 322 374
#     4  10  23  40  69  95 125 164 216 267 317 367
#     4  10  20  41  70  93 120 163 220 270 309 374
#
# _framework density 23.886882
#
# number of rings (size 3 to 8) (size 9 to 14) (size 15 to 20)
#    0.000    1.714    2.857    1.286    0.000    2.286 
#    0.000    5.000    0.000    0.000    0.000    0.000 
#    0.000    0.000    0.000    0.000    0.000    0.000 
#
# Total GULP energy -173637.176002 kJ/mol
# GULP energy per Si atom -12402.655429 kJ/mol
# Density = 2.383251 g / cm^3
# Si number density = 23.886882 Si / 1000 Ang^3
#
#
#
# Elastic Constant Matrix: (Units=GPa)
#
#
# Indices 1 2 3 4 5 6 
#
# 1 142.5769 29.9802 12.3292 -20.1521 -2.6611 -15.1759
# 2 29.9802 120.0832 15.9417 -31.9324 17.8882 -8.8149
# 3 12.3292 15.9417 33.2903 -30.5708 17.0637 -16.5158
# 4 -20.1521 -31.9324 -30.5708 40.2410 -10.0100 16.5383
# 5 -2.6611 17.8882 17.0637 -10.0100 41.1694 -8.9364
# 6 -15.1759 -8.8149 -16.5158 16.5383 -8.9364 38.0681
#
#
#
# Elastic Compliance Matrix: (Units=1/GPa)
#
#
# Indices 1 2 3 4 5 6 
#
# 1 0.007959 -0.001537 -0.000176 0.002261 0.002304 0.002300
# 2 -0.001537 0.013253 0.017732 0.021667 -0.008197 -0.001188
# 3 -0.000176 0.017732 0.157478 0.118722 -0.041736 0.010982
# 4 0.002261 0.021667 0.118722 0.128371 -0.028348 -0.004998
# 5 0.002304 -0.008197 -0.041736 -0.028348 0.038920 0.002365
# 6 0.002300 -0.001188 0.010982 -0.004998 0.002365 0.034402
#
#
# Mechanical properties :
#
#
# Convention : Reuss Voigt Hill
#
# Bulk Modulus (GPa) = 4.74546 45.82808 25.28677
# Shear Modulus (GPa) = 11.94494 39.74231 25.84362
#
# Velocity S-wave (km/s) = 2.23863 4.08336 3.29282
# Velocity P-wave (km/s) = 2.94498 6.43886 5.00659
#
# Compressibility (1/GPa) = 0.21072761
#
# Stress axis : x y z
#
# Youngs Moduli (GPa) = 125.63633 75.45595 6.35010
#
# Poissons Ratio (x) = 0.11598 0.00112
# Poissons Ratio (y) = 0.19311 -0.11260
# Poissons Ratio (z) = 0.02210 -1.33797
#
# Static dielectric constant tensor:
#      x y z
#    x 4.399910 -0.182680 0.027520 
#    y -0.182680 4.565770 0.024220 
#    z 0.027520 0.024220 4.173410 
# 
# 
# High freq. dielectric constant tensor:
#      x y z
#    x 1.940140 -0.020410 0.000350 
#    y -0.020410 1.959270 0.005340 
#    z 0.000350 0.005340 1.938130 
# 
# From -- ./inp_files/398215.got.cif
#   From: 2010.06.25/outbox.cif.g09.slc.cpg/sg2_200_cif.got.tgz:398215.got - 2010.06.27 13:26:56.
