data_PCOD8005502
_publ_section_title
;
Structure prediction by ZEFSAII (Michael W. Deem and Ramdas Pophale) SiO2 
 PCOD8005502
Probable space group: P -1
;
_chemical_formula_sum "Si O2"
_cell_formula_units_Z 16
_cell_length_a 18.237400
_cell_length_b 11.151739
_cell_length_c 8.387811
_cell_angle_alpha 41.561698
_cell_angle_beta 46.213427
_cell_angle_gamma 47.350634
_cell_volume 770.242438
_symmetry_space_group_name_H-M "P -1"
_symmetry_group_IT_number 2
_symmetry_cell_setting 'triclinic'
loop_
_space_group_symop_operation_xyz
x,y,z
-x,-y,-z
loop_
_atom_site_type_symbol
_atom_site_label
_atom_site_fract_x
_atom_site_fract_y
_atom_site_fract_z
Si Si1 0.685088 0.326003 0.474264
Si Si2 0.869337 0.249245 0.508708
Si Si3 0.606243 0.956899 0.285468
Si Si4 0.305201 0.091334 0.114115
Si Si5 0.801075 0.610837 0.458854
Si Si6 0.319566 0.377152 0.074685
Si Si7 0.532568 0.364763 0.932827
Si Si8 0.100098 0.178303 0.113980
O O1 0.802526 0.293189 0.402576
O O2 0.589788 0.443658 0.625134
O O3 0.672927 0.124334 0.645198
O O4 0.679014 0.439044 0.208404
O O5 0.807114 0.410148 0.569393
O O6 0.985559 0.266889 0.282762
O O7 0.881791 0.036335 0.764926
O O8 0.500000 0.000000 0.500000
O O9 0.695834 0.790086 0.402956
O O10 0.625546 0.164195 0.044904
O O11 0.603132 0.900106 0.159797
O O12 0.316009 0.207999 0.134461
O O13 0.190516 0.179135 0.107479
O O14 0.789050 0.575875 0.700039
O O15 0.897344 0.684349 0.178206
O O16 0.427438 0.317978 0.077997
O O17 0.500000 0.500000 0.000000
#
# Coordination Sequence:
#
# PCOD8005502 Si02
#       8
#     2   2   2   2   2   2   2   2
#     4  10  22  39  58  89 121 156 201 248 306 364
#     4  10  20  41  70  90 119 157 205 261 300 351
#     4  10  20  39  58  85 114 159 207 249 289 348
#     4   9  22  39  60  85 125 155 203 251 303 360
#     4  11  22  37  60  91 122 157 205 248 303 365
#     4  12  24  38  58  88 129 167 189 253 314 358
#     4  11  24  40  61  85 115 165 215 250 297 359
#     4   9  20  41  69  94 113 157 210 253 303 361
#
# _framework density 20.772680999999999
#
# number of rings (size 3 to 8) (size 9 to 14) (size 15 to 20)
#    0.000    1.750    1.250    3.750    1.750    4.000 
#    0.000    2.500    0.000    4.500    0.000    0.000 
#    0.000    0.000    0.000    0.000    0.000    0.000 
#
# Total GULP energy -198232.969056 kJ/mol
# GULP energy per Si atom -12389.560566 kJ/mol
# Density = 2.072540 g / cm^3
# Si number density = 20.772681 Si / 1000 Ang^3
#
#
#
# Elastic Constant Matrix: (Units=GPa)
#
#
# Indices 1 2 3 4 5 6 
#
# 1 81.3768 47.5417 45.9604 12.6104 -7.0916 20.5049
# 2 47.5417 92.6770 36.9377 8.8882 2.2522 15.9453
# 3 45.9604 36.9377 136.8506 6.0057 11.2576 17.8310
# 4 12.6104 8.8882 6.0057 28.9348 0.1225 1.7957
# 5 -7.0916 2.2522 11.2576 0.1225 26.0359 2.3825
# 6 20.5049 15.9453 17.8310 1.7957 2.3825 30.4491
#
#
#
# Elastic Compliance Matrix: (Units=1/GPa)
#
#
# Indices 1 2 3 4 5 6 
#
# 1 0.024551 -0.008494 -0.005315 -0.006448 0.010613 -0.009423
# 2 -0.008494 0.015992 -0.000931 -0.000891 -0.003124 -0.001812
# 3 -0.005315 -0.000931 0.009949 0.000645 -0.005547 -0.001363
# 4 -0.006448 -0.000891 0.000645 0.037371 -0.002355 0.002411
# 5 0.010613 -0.003124 -0.005547 -0.002355 0.044492 -0.005605
# 6 -0.009423 -0.001812 -0.001363 0.002411 -0.005605 0.041231
#
#
# Mechanical properties :
#
#
# Convention : Reuss Voigt Hill
#
# Bulk Modulus (GPa) = 47.59433 63.53158 55.56296
# Shear Modulus (GPa) = 23.80152 29.11493 26.45822
#
# Velocity S-wave (km/s) = 3.38865 3.74785 3.57277
# Velocity P-wave (km/s) = 6.18646 7.02703 6.62010
#
# Compressibility (1/GPa) = 0.02101090
#
# Stress axis : x y z
#
# Youngs Moduli (GPa) = 40.73138 62.53123 100.50963
#
# Poissons Ratio (x) = 0.53116 0.53420
# Poissons Ratio (y) = 0.34599 0.09362
# Poissons Ratio (z) = 0.21649 0.05825
#
# Static dielectric constant tensor:
#      x y z
#    x 3.684700 -0.337620 -0.095100 
#    y -0.337620 3.686120 1.206530 
#    z -0.095100 1.206530 1.968770 
# 
# 
# High freq. dielectric constant tensor:
#      x y z
#    x 1.771770 0.000530 -0.005680 
#    y 0.000530 1.827070 -0.001120 
#    z -0.005680 -0.001120 1.834840 
# 
# From -- ./inp_files/272723.got.cif
#   From: 2010.06.25/outbox.cif.g09.slc.cpg/sg2_137_cif.got.tgz:272723.got - 2010.06.27 13:26:56.
