data_PCOD8005237
_publ_section_title
;
Structure prediction by ZEFSAII (Michael W. Deem and Ramdas Pophale) SiO2 
 PCOD8005237
Probable space group: P -1
;
_chemical_formula_sum "Si O2"
_cell_formula_units_Z 14
_cell_length_a 10.997174
_cell_length_b 6.827967
_cell_length_c 18.524442
_cell_angle_alpha 87.240609
_cell_angle_beta 154.974469
_cell_angle_gamma 98.045356
_cell_volume 572.249298
_symmetry_space_group_name_H-M "P -1"
_symmetry_group_IT_number 2
_symmetry_cell_setting 'triclinic'
loop_
_space_group_symop_operation_xyz
x,y,z
-x,-y,-z
loop_
_atom_site_type_symbol
_atom_site_label
_atom_site_fract_x
_atom_site_fract_y
_atom_site_fract_z
Si Si1 0.117505 0.387091 0.456192
Si Si2 0.269346 0.609368 0.264973
Si Si3 0.428419 0.990798 0.243381
Si Si4 0.985459 0.825988 0.896305
Si Si5 0.163958 0.907231 0.310153
Si Si6 0.919889 0.762971 0.404027
Si Si7 0.251909 0.997266 0.806241
O O1 0.865567 0.229640 0.280527
O O2 0.404801 0.440452 0.557238
O O3 0.984628 0.577854 0.397059
O O4 0.208518 0.303783 0.584142
O O5 0.292324 0.791869 0.219229
O O6 0.025738 0.410119 0.116712
O O7 0.147541 0.684584 0.272765
O O8 0.295151 0.167547 0.203725
O O9 0.781609 0.060027 0.429174
O O10 0.297654 0.943626 0.094308
O O11 0.978663 0.940652 0.815850
O O12 0.500000 0.000000 0.500000
O O13 0.005072 0.902157 0.301294
O O14 0.673717 0.855574 0.226872
O O15 0.500000 0.000000 0.000000
#
# Coordination Sequence:
#
# PCOD8005237 Si02
#       7
#     2   2   2   2   2   2   2
#     4  11  24  43  74 101 133 185 229 285 346 401
#     4  11  21  40  67 101 132 174 223 279 347 398
#     4  10  20  38  65  97 137 170 227 280 336 402
#     4  10  22  37  62 101 137 172 221 284 335 400
#     4  11  24  43  65  97 133 183 228 273 339 413
#     4  11  24  45  71 101 136 180 235 282 341 419
#     4  12  27  47  71  99 142 184 231 285 343 410
#
# _framework density 24.464860000000002
#
# number of rings (size 3 to 8) (size 9 to 14) (size 15 to 20)
#    0.000    1.143    4.286    1.714    2.000    2.286 
#    0.000    0.000    0.000    0.000    0.000    0.000 
#    0.000    0.000    0.000    0.000    0.000    0.000 
#
# Total GULP energy -173536.061481 kJ/mol
# GULP energy per Si atom -12395.432963 kJ/mol
# Density = 2.440918 g / cm^3
# Si number density = 24.464860 Si / 1000 Ang^3
#
#
#
# Elastic Constant Matrix: (Units=GPa)
#
#
# Indices 1 2 3 4 5 6 
#
# 1 52.9291 23.6978 12.6027 -1.9606 10.5487 -10.4817
# 2 23.6978 152.7517 23.8464 15.9413 -10.2216 -20.6882
# 3 12.6027 23.8464 100.3922 -0.3432 -32.6830 0.7992
# 4 -1.9606 15.9413 -0.3432 23.1763 -4.2114 2.4583
# 5 10.5487 -10.2216 -32.6830 -4.2114 38.3107 -10.2454
# 6 -10.4817 -20.6882 0.7992 2.4583 -10.2454 33.1407
#
#
#
# Elastic Compliance Matrix: (Units=1/GPa)
#
#
# Indices 1 2 3 4 5 6 
#
# 1 0.025007 -0.003723 -0.006375 0.002108 -0.012638 0.001675
# 2 -0.003723 0.008958 -0.000436 -0.006410 0.003978 0.006130
# 3 -0.006375 -0.000436 0.016166 0.002734 0.016309 0.002161
# 4 0.002108 -0.006410 0.002734 0.049100 0.003877 -0.005844
# 5 -0.012638 0.003978 0.016309 0.003877 0.048397 0.012767
# 6 0.001675 0.006130 0.002161 -0.005844 0.012767 0.038859
#
#
# Mechanical properties :
#
#
# Convention : Reuss Voigt Hill
#
# Bulk Modulus (GPa) = 34.40925 47.37409 40.89167
# Shear Modulus (GPa) = 23.01570 35.32063 29.16816
#
# Velocity S-wave (km/s) = 3.07052 3.80377 3.45664
# Velocity P-wave (km/s) = 5.16392 6.22075 5.71681
#
# Compressibility (1/GPa) = 0.02906195
#
# Stress axis : x y z
#
# Youngs Moduli (GPa) = 39.98941 111.63711 61.85639
#
# Poissons Ratio (x) = 0.41562 0.39435
# Poissons Ratio (y) = 0.14888 0.02698
# Poissons Ratio (z) = 0.25494 0.04869
#
# Static dielectric constant tensor:
#      x y z
#    x 4.057960 -0.094480 -0.227020 
#    y -0.094480 4.351680 0.103140 
#    z -0.227020 0.103140 3.869000 
# 
# 
# High freq. dielectric constant tensor:
#      x y z
#    x 1.981230 -0.026710 -0.006770 
#    y -0.026710 1.987510 -0.005750 
#    z -0.006770 -0.005750 1.957910 
# 
# From -- ./inp_files/92753.got.cif
#   From: 2010.06.25/outbox.cif.g09.slc.cpg/sg2_47_cif.got.tgz:92753.got - 2010.06.27 13:26:56.
