data_PCOD8005889
_publ_section_title
;
Structure prediction by ZEFSAII (Michael W. Deem and Ramdas Pophale) SiO2 
 PCOD8005889
Probable space group: P -1
;
_chemical_formula_sum "Si O2"
_cell_formula_units_Z 14
_cell_length_a 9.270734
_cell_length_b 20.874672
_cell_length_c 8.975664
_cell_angle_alpha 132.120040
_cell_angle_beta 91.491405
_cell_angle_gamma 49.349715
_cell_volume 667.947379
_symmetry_space_group_name_H-M "P -1"
_symmetry_group_IT_number 2
_symmetry_cell_setting 'triclinic'
loop_
_space_group_symop_operation_xyz
x,y,z
-x,-y,-z
loop_
_atom_site_type_symbol
_atom_site_label
_atom_site_fract_x
_atom_site_fract_y
_atom_site_fract_z
Si Si1 0.824694 0.134920 0.071310
Si Si2 0.427120 0.948961 0.338177
Si Si3 0.506614 0.576497 0.308178
Si Si4 0.704497 0.121364 0.530601
Si Si5 0.734692 0.683834 0.711581
Si Si6 0.797042 0.265820 0.763531
Si Si7 0.764528 0.617014 0.297768
O O1 0.715863 0.284546 0.354001
O O2 0.554447 0.219874 0.147653
O O3 0.000000 0.000000 0.000000
O O4 0.995760 0.061121 0.808411
O O5 0.124947 0.111877 0.511000
O O6 0.500000 0.000000 0.500000
O O7 0.423758 0.874091 0.341857
O O8 0.662261 0.807144 0.997715
O O9 0.331346 0.655165 0.277371
O O10 0.739877 0.532342 0.229452
O O11 0.664108 0.406608 0.088336
O O12 0.727828 0.206005 0.731785
O O13 0.521730 0.210752 0.517134
O O14 0.818226 0.656860 0.497603
O O15 0.000000 0.500000 0.500000
O O16 0.000000 0.500000 0.000000
#
# Coordination Sequence:
#
# PCOD8005889 Si02
#       7
#     2   2   2   2   2   2   2
#     4  11  18  40  68  95 126 170 224 266 320 397
#     4  12  27  42  63  93 140 174 217 273 333 387
#     4   9  20  36  67  96 121 166 217 274 321 387
#     4  11  22  42  68  93 121 181 223 265 324 398
#     4  11  23  40  66  96 134 173 213 273 335 384
#     4  10  20  39  63  93 125 166 217 266 324 383
#     4  10  21  39  68  95 129 167 224 267 333 391
#
# _framework density 20.959735999999999
#
# number of rings (size 3 to 8) (size 9 to 14) (size 15 to 20)
#    0.000    1.429    5.714    1.286    6.000    0.000 
#    0.000    7.143    0.000    0.000    0.000    0.000 
#    0.000    0.000    0.000    0.000    0.000    0.000 
#
# Total GULP energy -173483.902847 kJ/mol
# GULP energy per Si atom -12391.707346 kJ/mol
# Density = 2.091203 g / cm^3
# Si number density = 20.959736 Si / 1000 Ang^3
#
#
#
# Elastic Constant Matrix: (Units=GPa)
#
#
# Indices 1 2 3 4 5 6 
#
# 1 89.0969 41.7333 57.1654 1.7254 11.5947 -2.6208
# 2 41.7333 47.1616 54.9209 -8.5527 5.7183 -3.6592
# 3 57.1654 54.9209 201.0928 -3.9903 28.3110 8.3844
# 4 1.7254 -8.5527 -3.9903 36.9687 -1.6771 -3.4003
# 5 11.5947 5.7183 28.3110 -1.6771 41.0800 4.4740
# 6 -2.6208 -3.6592 8.3844 -3.4003 4.4740 35.0016
#
#
#
# Elastic Compliance Matrix: (Units=1/GPa)
#
#
# Indices 1 2 3 4 5 6 
#
# 1 0.020613 -0.018260 -0.000529 -0.005418 -0.003092 -0.000370
# 2 -0.018260 0.050292 -0.009179 0.012309 0.004248 0.006742
# 3 -0.000529 -0.009179 0.008279 -0.001631 -0.004059 -0.002622
# 4 -0.005418 0.012309 -0.001631 0.030422 0.001745 0.004004
# 5 -0.003092 0.004248 -0.004059 0.001745 0.027732 -0.002190
# 6 -0.000370 0.006742 -0.002622 0.004004 -0.002190 0.030544
#
#
# Mechanical properties :
#
#
# Convention : Reuss Voigt Hill
#
# Bulk Modulus (GPa) = 43.01828 71.66563 57.34196
# Shear Modulus (GPa) = 21.59186 34.84550 28.21868
#
# Velocity S-wave (km/s) = 3.21309 4.08180 3.67321
# Velocity P-wave (km/s) = 5.85953 7.51539 6.73851
#
# Compressibility (1/GPa) = 0.02324593
#
# Stress axis : x y z
#
# Youngs Moduli (GPa) = 48.51298 19.88377 120.79092
#
# Poissons Ratio (x) = 0.36308 0.06394
# Poissons Ratio (y) = 0.88586 1.10878
# Poissons Ratio (z) = 0.02568 0.18252
#
# Static dielectric constant tensor:
#      x y z
#    x 4.996220 -0.643460 0.243990 
#    y -0.643460 3.880890 0.019890 
#    z 0.243990 0.019890 4.612630 
# 
# 
# High freq. dielectric constant tensor:
#      x y z
#    x 1.799260 -0.034700 0.002610 
#    y -0.034700 1.811080 0.002980 
#    z 0.002610 0.002980 1.844550 
# 
# From -- ./inp_files/213537.got.cif
#   From: 2010.06.25/outbox.cif.g09.slc.cpg/sg2_107_cif.got.tgz:213537.got - 2010.06.27 13:26:56.
