data_PCOD8005389
_publ_section_title
;
Structure prediction by ZEFSAII (Michael W. Deem and Ramdas Pophale) SiO2 
 PCOD8005389
Probable space group: P -1
;
_chemical_formula_sum "Si O2"
_cell_formula_units_Z 16
_cell_length_a 8.972666
_cell_length_b 17.183180
_cell_length_c 10.888969
_cell_angle_alpha 30.720472
_cell_angle_beta 94.077554
_cell_angle_gamma 106.636174
_cell_volume 767.417999
_symmetry_space_group_name_H-M "P -1"
_symmetry_group_IT_number 2
_symmetry_cell_setting 'triclinic'
loop_
_space_group_symop_operation_xyz
x,y,z
-x,-y,-z
loop_
_atom_site_type_symbol
_atom_site_label
_atom_site_fract_x
_atom_site_fract_y
_atom_site_fract_z
Si Si1 0.698775 0.249395 0.221238
Si Si2 0.100980 0.840799 0.987329
Si Si3 0.546930 0.075599 0.209916
Si Si4 0.373510 0.043833 0.008980
Si Si5 0.306997 0.428663 0.104834
Si Si6 0.815165 0.824702 0.348082
Si Si7 0.065863 0.705731 0.420987
Si Si8 0.041670 0.352971 0.993069
O O1 0.599116 0.212859 0.135850
O O2 0.586044 0.109549 0.501667
O O3 0.738810 0.434656 0.018842
O O4 0.878647 0.251160 0.206937
O O5 0.289787 0.934028 0.821351
O O6 0.061101 0.981454 0.865961
O O7 0.084637 0.701891 0.278965
O O8 0.972593 0.753535 0.987567
O O9 0.458763 0.134692 0.018159
O O10 0.325487 0.172079 0.755641
O O11 0.500000 0.000000 0.000000
O O12 0.217713 0.865781 0.273242
O O13 0.262891 0.267677 0.405418
O O14 0.500000 0.500000 0.000000
O O15 0.205112 0.370117 0.050752
O O16 0.901056 0.725546 0.417143
O O17 0.055116 0.535355 0.710524
#
# Coordination Sequence:
#
# PCOD8005389 Si02
#       8
#     2   2   2   2   2   2   2   2
#     4  10  22  42  64  93 123 164 211 255 306 374
#     4  10  21  41  65  96 125 162 213 254 310 366
#     4  10  20  38  68  93 123 162 214 255 299 376
#     4  11  21  38  66  91 123 171 206 247 317 369
#     4  12  26  42  62  91 130 160 211 262 316 369
#     4  11  24  41  62  95 128 163 206 264 299 372
#     4  11  22  41  65  94 129 160 212 256 306 373
#     4  11  24  42  69  90 122 175 204 254 319 374
#
# _framework density 20.849133999999999
#
# number of rings (size 3 to 8) (size 9 to 14) (size 15 to 20)
#    0.000    1.250    3.750    3.750    3.500    0.500 
#    4.500    0.625    0.000    0.000    0.000    0.000 
#    0.000    0.000    0.000    0.000    0.000    0.000 
#
# Total GULP energy -198377.234541 kJ/mol
# GULP energy per Si atom -12398.577159 kJ/mol
# Density = 2.080168 g / cm^3
# Si number density = 20.849134 Si / 1000 Ang^3
#
#
#
# Elastic Constant Matrix: (Units=GPa)
#
#
# Indices 1 2 3 4 5 6 
#
# 1 93.1382 38.4319 29.7073 21.8789 -3.7229 21.8718
# 2 38.4319 145.7354 30.7545 22.3997 11.3906 36.0711
# 3 29.7073 30.7545 99.2517 24.2766 -2.1863 14.8369
# 4 21.8789 22.3997 24.2766 31.2442 -1.4556 1.2736
# 5 -3.7229 11.3906 -2.1863 -1.4556 30.4092 5.2182
# 6 21.8718 36.0711 14.8369 1.2736 5.2182 36.7484
#
#
#
# Elastic Compliance Matrix: (Units=1/GPa)
#
#
# Indices 1 2 3 4 5 6 
#
# 1 0.015550 -0.000665 -0.000865 -0.009255 0.003084 -0.008370
# 2 -0.000665 0.010651 -0.000083 -0.006853 -0.002793 -0.009391
# 3 -0.000865 -0.000083 0.013410 -0.009506 0.001234 -0.004664
# 4 -0.009255 -0.006853 -0.009506 0.050239 0.000713 0.014231
# 5 0.003084 -0.002793 0.001234 0.000713 0.035224 -0.004618
# 6 -0.008370 -0.009391 -0.004664 0.014231 -0.004618 0.043457
#
#
# Mechanical properties :
#
#
# Convention : Reuss Voigt Hill
#
# Bulk Modulus (GPa) = 27.48435 59.54586 43.51511
# Shear Modulus (GPa) = 27.19091 35.62914 31.41002
#
# Velocity S-wave (km/s) = 3.61525 4.13837 3.88563
# Velocity P-wave (km/s) = 5.53515 7.17337 6.40683
#
# Compressibility (1/GPa) = 0.03638434
#
# Stress axis : x y z
#
# Youngs Moduli (GPa) = 64.30845 93.89163 74.57360
#
# Poissons Ratio (x) = 0.06243 0.06453
# Poissons Ratio (y) = 0.04276 0.00616
# Poissons Ratio (z) = 0.05565 0.00776
#
# Static dielectric constant tensor:
#      x y z
#    x 3.860540 0.140620 -0.167100 
#    y 0.140620 4.145780 0.197650 
#    z -0.167100 0.197650 4.039330 
# 
# 
# High freq. dielectric constant tensor:
#      x y z
#    x 1.806850 0.001820 -0.016030 
#    y 0.001820 1.827300 0.014880 
#    z -0.016030 0.014880 1.814380 
# 
# From -- ./inp_files/402670.got.cif
#   From: 2010.06.25/outbox.cif.g09.slc.cpg/sg2_202_cif.got.tgz:402670.got - 2010.06.27 13:26:56.
