data_PCOD8005865
_publ_section_title
;
Structure prediction by ZEFSAII (Michael W. Deem and Ramdas Pophale) SiO2 
 PCOD8005865
Probable space group: P -1
;
_chemical_formula_sum "Si O2"
_cell_formula_units_Z 14
_cell_length_a 15.893960
_cell_length_b 8.556968
_cell_length_c 21.868186
_cell_angle_alpha 34.023947
_cell_angle_beta 27.125585
_cell_angle_gamma 49.792530
_cell_volume 707.608642
_symmetry_space_group_name_H-M "P -1"
_symmetry_group_IT_number 2
_symmetry_cell_setting 'triclinic'
loop_
_space_group_symop_operation_xyz
x,y,z
-x,-y,-z
loop_
_atom_site_type_symbol
_atom_site_label
_atom_site_fract_x
_atom_site_fract_y
_atom_site_fract_z
Si Si1 0.040587 0.615907 0.504610
Si Si2 0.208837 0.533170 0.702118
Si Si3 0.374559 0.788584 0.320625
Si Si4 0.606530 0.714551 0.444393
Si Si5 0.044019 0.789819 0.624546
Si Si6 0.018501 0.786557 0.933641
Si Si7 0.196037 0.773342 0.110907
O O1 0.869235 0.378879 0.731967
O O2 0.000000 0.500000 0.500000
O O3 0.257920 0.644897 0.379979
O O4 0.040185 0.948198 0.403723
O O5 0.401594 0.741505 0.547199
O O6 0.272373 0.345628 0.671082
O O7 0.112498 0.748705 0.662085
O O8 0.053054 0.300987 0.922619
O O9 0.443956 0.545841 0.388123
O O10 0.226260 0.881204 0.429775
O O11 0.566750 0.080522 0.088944
O O12 0.747038 0.026176 0.280516
O O13 0.874636 0.478014 0.814739
O O14 0.899998 0.976547 0.918457
O O15 0.000000 0.500000 0.000000
#
# Coordination Sequence:
#
# PCOD8005865 Si02
#       7
#     2   2   2   2   2   2   2
#     4  11  25  43  64  89 127 160 201 256 310 360
#     4  10  21  37  64  92 122 155 208 240 309 357
#     4  10  20  41  68  88 118 161 213 250 299 356
#     4  10  20  39  63  91 122 160 200 256 297 363
#     4  10  23  40  66  92 122 163 201 256 299 358
#     4  12  24  37  60  93 129 164 196 250 309 364
#     4  11  22  43  65  90 121 163 211 249 300 361
#
# _framework density 19.784948
#
# number of rings (size 3 to 8) (size 9 to 14) (size 15 to 20)
#    0.000    1.429    5.714    2.143    2.000    3.429 
#    2.571    0.000    0.000    0.000    0.000    0.000 
#    0.000    0.000    0.000    0.000    0.000    0.000 
#
# Total GULP energy -173612.705545 kJ/mol
# GULP energy per Si atom -12400.907539 kJ/mol
# Density = 1.973992 g / cm^3
# Si number density = 19.784948 Si / 1000 Ang^3
#
#
#
# Elastic Constant Matrix: (Units=GPa)
#
#
# Indices 1 2 3 4 5 6 
#
# 1 141.3686 43.3120 57.4015 -4.3878 -3.5248 -1.0740
# 2 43.3120 65.1984 37.5803 -26.0433 1.4195 7.8448
# 3 57.4015 37.5803 145.4057 -4.1388 -20.4515 0.8290
# 4 -4.3878 -26.0433 -4.1388 21.6369 -4.1088 -4.4498
# 5 -3.5248 1.4195 -20.4515 -4.1088 43.2471 -4.1338
# 6 -1.0740 7.8448 0.8290 -4.4498 -4.1338 20.1776
#
#
#
# Elastic Compliance Matrix: (Units=1/GPa)
#
#
# Indices 1 2 3 4 5 6 
#
# 1 0.010732 -0.010435 -0.001911 -0.010354 -0.000447 0.002332
# 2 -0.010435 0.048482 -0.007067 0.053017 -0.001485 -0.007727
# 3 -0.001911 -0.007067 0.009900 -0.005784 0.004386 0.001862
# 4 -0.010354 0.053017 -0.005784 0.108706 0.005406 0.004155
# 5 -0.000447 -0.001485 0.004386 0.005406 0.026390 0.006972
# 6 0.002332 -0.007727 0.001862 0.004155 0.006972 0.054956
#
#
# Mechanical properties :
#
#
# Convention : Reuss Voigt Hill
#
# Bulk Modulus (GPa) = 33.01473 69.84003 51.42738
# Shear Modulus (GPa) = 16.22924 31.25757 23.74341
#
# Velocity S-wave (km/s) = 2.86716 3.97907 3.46797
# Velocity P-wave (km/s) = 5.26154 7.51577 6.48732
#
# Compressibility (1/GPa) = 0.03028951
#
# Stress axis : x y z
#
# Youngs Moduli (GPa) = 93.18286 20.62602 101.01346
#
# Poissons Ratio (x) = 0.21522 0.19299
# Poissons Ratio (y) = 0.97233 0.71385
# Poissons Ratio (z) = 0.17803 0.14576
#
# Static dielectric constant tensor:
#      x y z
#    x 3.940300 -0.157760 0.024410 
#    y -0.157760 3.300790 -0.035000 
#    z 0.024410 -0.035000 3.730390 
# 
# 
# High freq. dielectric constant tensor:
#      x y z
#    x 1.785650 -0.011610 -0.000830 
#    y -0.011610 1.743940 -0.007290 
#    z -0.000830 -0.007290 1.780690 
# 
# From -- ./inp_files/251363.got.cif
#   From: 2010.06.25/outbox.cif.g09.slc.cpg/sg2_126_cif.got.tgz:251363.got - 2010.06.27 13:26:56.
