data_PCOD8005300
_publ_section_title
;
Structure prediction by ZEFSAII (Michael W. Deem and Ramdas Pophale) SiO2 
 PCOD8005300
Probable space group: P -1
;
_chemical_formula_sum "Si O2"
_cell_formula_units_Z 16
_cell_length_a 15.036425
_cell_length_b 9.574743
_cell_length_c 14.842913
_cell_angle_alpha 142.277327
_cell_angle_beta 138.988389
_cell_angle_gamma 40.365237
_cell_volume 782.099362
_symmetry_space_group_name_H-M "P -1"
_symmetry_group_IT_number 2
_symmetry_cell_setting 'triclinic'
loop_
_space_group_symop_operation_xyz
x,y,z
-x,-y,-z
loop_
_atom_site_type_symbol
_atom_site_label
_atom_site_fract_x
_atom_site_fract_y
_atom_site_fract_z
Si Si1 0.054126 0.336636 0.174750
Si Si2 0.532149 0.304235 0.296217
Si Si3 0.391013 0.506019 0.109652
Si Si4 0.450259 0.167428 0.635966
Si Si5 0.899601 0.036944 0.824202
Si Si6 0.772236 0.775730 0.241581
Si Si7 0.139809 0.252902 0.501641
Si Si8 0.624336 0.713932 0.652207
O O1 0.200720 0.363597 0.266801
O O2 0.918974 0.614449 0.212447
O O3 0.062419 0.219329 0.220851
O O4 0.022869 0.148925 0.986375
O O5 0.445189 0.332187 0.150519
O O6 0.575325 0.537671 0.462064
O O7 0.417178 0.302831 0.284483
O O8 0.685809 0.056657 0.282483
O O9 0.520020 0.582044 0.211556
O O10 0.257625 0.767905 0.162821
O O11 0.341404 0.360301 0.920857
O O12 0.274473 0.273463 0.561735
O O13 0.500000 0.000000 0.500000
O O14 0.530919 0.999576 0.697797
O O15 0.890396 0.977317 0.681285
O O16 0.822806 0.797969 0.391825
O O17 0.000000 0.500000 0.500000
#
# Coordination Sequence:
#
# PCOD8005300 Si02
#       8
#     2   2   2   2   2   2   2   2
#     4  10  21  41  66  95 128 171 212 264 324 383
#     4  11  24  42  65  93 136 171 214 265 318 385
#     4  11  23  42  72  92 127 174 219 264 323 379
#     4  12  21  40  69  97 121 168 226 266 311 386
#     4  10  20  38  66  94 129 167 211 268 320 377
#     4  11  25  42  62  97 137 169 206 269 329 382
#     4  12  23  38  62  98 135 161 209 273 327 369
#     4  11  22  40  69  98 124 172 223 261 314 388
#
# _framework density 20.457757999999998
#
# number of rings (size 3 to 8) (size 9 to 14) (size 15 to 20)
#    0.000    1.000    6.250    0.375    1.750    1.000 
#    2.250    2.500    2.750    0.000    0.000    0.000 
#    0.000    0.000    0.000    0.000    0.000    0.000 
#
# Total GULP energy -198411.122426 kJ/mol
# GULP energy per Si atom -12400.695152 kJ/mol
# Density = 2.041120 g / cm^3
# Si number density = 20.457758 Si / 1000 Ang^3
#
#
#
# Elastic Constant Matrix: (Units=GPa)
#
#
# Indices 1 2 3 4 5 6 
#
# 1 87.5435 25.1895 46.3444 -6.2493 19.8253 -7.9058
# 2 25.1895 87.7656 16.0784 -6.8706 -0.2842 -4.9460
# 3 46.3444 16.0784 130.7634 -14.0146 -6.9997 7.9617
# 4 -6.2493 -6.8706 -14.0146 28.8554 -4.6947 1.2663
# 5 19.8253 -0.2842 -6.9997 -4.6947 31.0713 -6.2441
# 6 -7.9058 -4.9460 7.9617 1.2663 -6.2441 33.9055
#
#
#
# Elastic Compliance Matrix: (Units=1/GPa)
#
#
# Indices 1 2 3 4 5 6 
#
# 1 0.020312 -0.004466 -0.007963 -0.003052 -0.014576 0.003384
# 2 -0.004466 0.012910 0.000423 0.002866 0.003763 0.001328
# 3 -0.007963 0.000423 0.011622 0.005445 0.007867 -0.003279
# 4 -0.003052 0.002866 0.005445 0.038812 0.008782 -0.001404
# 5 -0.014576 0.003763 0.007867 0.008782 0.045284 0.003315
# 6 0.003384 0.001328 -0.003279 -0.001404 0.003315 0.031909
#
#
# Mechanical properties :
#
#
# Convention : Reuss Voigt Hill
#
# Bulk Modulus (GPa) = 48.00437 53.47745 50.74091
# Shear Modulus (GPa) = 26.06798 33.33046 29.69922
#
# Velocity S-wave (km/s) = 3.57351 4.04076 3.81430
# Velocity P-wave (km/s) = 6.36732 6.92585 6.65245
#
# Compressibility (1/GPa) = 0.02083144
#
# Stress axis : x y z
#
# Youngs Moduli (GPa) = 49.23084 77.46083 86.04443
#
# Poissons Ratio (x) = 0.34597 0.68520
# Poissons Ratio (y) = 0.21989 -0.03643
# Poissons Ratio (z) = 0.39204 -0.03279
#
# Static dielectric constant tensor:
#      x y z
#    x 3.489090 -0.092990 -0.059020 
#    y -0.092990 3.980080 -0.254900 
#    z -0.059020 -0.254900 4.345310 
# 
# 
# High freq. dielectric constant tensor:
#      x y z
#    x 1.773470 -0.012670 -0.001460 
#    y -0.012670 1.808200 -0.007930 
#    z -0.001460 -0.007930 1.814530 
# 
# From -- ./inp_files/399300.got.cif
#   From: 2010.06.25/outbox.cif.g09.slc.cpg/sg2_200_cif.got.tgz:399300.got - 2010.06.27 13:26:56.
