data_PCOD8005034
_publ_section_title
;
Structure prediction by ZEFSAII (Michael W. Deem and Ramdas Pophale) SiO2 
 PCOD8005034
Probable space group: P -1
;
_chemical_formula_sum "Si O2"
_cell_formula_units_Z 14
_cell_length_a 13.901387
_cell_length_b 10.657773
_cell_length_c 11.319296
_cell_angle_alpha 96.990366
_cell_angle_beta 150.433129
_cell_angle_gamma 66.774462
_cell_volume 663.746870
_symmetry_space_group_name_H-M "P -1"
_symmetry_group_IT_number 2
_symmetry_cell_setting 'triclinic'
loop_
_space_group_symop_operation_xyz
x,y,z
-x,-y,-z
loop_
_atom_site_type_symbol
_atom_site_label
_atom_site_fract_x
_atom_site_fract_y
_atom_site_fract_z
Si Si1 0.424561 0.583417 0.056424
Si Si2 0.741765 0.658380 0.766921
Si Si3 0.428697 0.682824 0.643363
Si Si4 0.925097 0.672066 0.561123
Si Si5 0.525863 0.798261 0.307158
Si Si6 0.886326 0.842569 0.085958
Si Si7 0.211818 0.306291 0.837991
O O1 0.537606 0.462353 0.271231
O O2 0.503656 0.696718 0.172841
O O3 0.500000 0.500000 0.000000
O O4 0.136480 0.691343 0.770081
O O5 0.593031 0.627210 0.695003
O O6 0.577975 0.725147 0.483661
O O7 0.785246 0.783224 0.874804
O O8 0.000000 0.500000 0.000000
O O9 0.146437 0.800904 0.323790
O O10 0.520305 0.761338 0.835916
O O11 0.758978 0.785141 0.504852
O O12 0.764106 0.733097 0.278001
O O13 0.032149 0.493210 0.687057
O O14 0.289535 0.971903 0.076669
O O15 0.899613 0.769740 0.219409
#
# Coordination Sequence:
#
# PCOD8005034 Si02
#       7
#     2   2   2   2   2   2   2
#     4  11  22  39  65  92 118 157 208 250 293 355
#     4  11  24  43  66  88 114 158 210 250 293 356
#     4  10  21  39  64  88 119 158 202 249 295 353
#     4  10  20  38  64  88 119 160 206 251 291 345
#     4  12  25  39  60  92 126 159 196 247 307 359
#     4  11  24  40  60  91 127 157 194 247 308 364
#     4   9  19  39  64  89 118 159 205 249 295 351
#
# _framework density 21.092379000000001
#
# number of rings (size 3 to 8) (size 9 to 14) (size 15 to 20)
#    0.000    1.429    0.000    8.143    0.000    6.857 
#    0.000    5.000    0.000    0.000    0.000    0.000 
#    0.000    0.000    0.000    0.000    0.000    0.000 
#
# Total GULP energy -173595.665320 kJ/mol
# GULP energy per Si atom -12399.690380 kJ/mol
# Density = 2.104437 g / cm^3
# Si number density = 21.092379 Si / 1000 Ang^3
#
#
#
# Elastic Constant Matrix: (Units=GPa)
#
#
# Indices 1 2 3 4 5 6 
#
# 1 137.7979 38.2913 64.1999 -6.1570 7.0304 -6.1192
# 2 38.2913 85.1838 48.1338 0.5639 3.5038 -10.9506
# 3 64.1999 48.1338 115.5975 -4.7951 14.1045 -4.8287
# 4 -6.1570 0.5639 -4.7951 25.2697 -5.7732 1.4328
# 5 7.0304 3.5038 14.1045 -5.7732 43.6494 3.1258
# 6 -6.1192 -10.9506 -4.8287 1.4328 3.1258 24.4099
#
#
#
# Elastic Compliance Matrix: (Units=1/GPa)
#
#
# Indices 1 2 3 4 5 6 
#
# 1 0.010067 -0.001749 -0.004797 0.001597 0.000232 0.000667
# 2 -0.001749 0.016571 -0.005783 -0.002209 0.000101 0.005968
# 3 -0.004797 -0.005783 0.014120 0.000957 -0.003152 -0.000656
# 4 0.001597 -0.002209 0.000957 0.041620 0.005369 -0.003532
# 5 0.000232 0.000101 -0.003152 0.005369 0.024881 -0.004021
# 6 0.000667 0.005968 -0.000656 -0.003532 -0.004021 0.044404
#
#
# Mechanical properties :
#
#
# Convention : Reuss Voigt Hill
#
# Bulk Modulus (GPa) = 62.11459 71.09213 66.60336
# Shear Modulus (GPa) = 27.51974 31.19608 29.35791
#
# Velocity S-wave (km/s) = 3.61602 3.84998 3.73483
# Velocity P-wave (km/s) = 6.85178 7.31720 7.08831
#
# Compressibility (1/GPa) = 0.01609928
#
# Stress axis : x y z
#
# Youngs Moduli (GPa) = 99.33414 60.34570 70.82281
#
# Poissons Ratio (x) = 0.10556 0.33973
# Poissons Ratio (y) = 0.17375 0.40959
# Poissons Ratio (z) = 0.47650 0.34899
#
# Static dielectric constant tensor:
#      x y z
#    x 3.982420 -0.003000 -0.001370 
#    y -0.003000 3.540930 0.213950 
#    z -0.001370 0.213950 3.998020 
# 
# 
# High freq. dielectric constant tensor:
#      x y z
#    x 1.843800 -0.000180 0.003940 
#    y -0.000180 1.794680 0.013060 
#    z 0.003940 0.013060 1.836160 
# 
# From -- ./inp_files/452507.got.cif
#   From: 2010.06.25/outbox.cif.g09.slc.cpg/sg2_227_cif.got.tgz:452507.got - 2010.06.27 13:26:56.
