data_PCOD8005100
_publ_section_title
;
Structure prediction by ZEFSAII (Michael W. Deem and Ramdas Pophale) SiO2 
 PCOD8005100
Probable space group: P -1
;
_chemical_formula_sum "Si O2"
_cell_formula_units_Z 16
_cell_length_a 17.660302
_cell_length_b 29.225021
_cell_length_c 11.955675
_cell_angle_alpha 161.014319
_cell_angle_beta 27.841847
_cell_angle_gamma 159.488930
_cell_volume 703.347458
_symmetry_space_group_name_H-M "P -1"
_symmetry_group_IT_number 2
_symmetry_cell_setting 'triclinic'
loop_
_space_group_symop_operation_xyz
x,y,z
-x,-y,-z
loop_
_atom_site_type_symbol
_atom_site_label
_atom_site_fract_x
_atom_site_fract_y
_atom_site_fract_z
Si Si1 0.926169 0.305856 0.842650
Si Si2 0.954158 0.049553 0.858339
Si Si3 0.711063 0.842112 0.490657
Si Si4 0.359206 0.671283 0.159098
Si Si5 0.732984 0.179105 0.566956
Si Si6 0.238594 0.606721 0.556947
Si Si7 0.156564 0.042756 0.795891
Si Si8 0.804080 0.219674 0.185289
O O1 0.896072 0.303178 0.742718
O O2 0.803116 0.098987 0.570905
O O3 0.812015 0.373858 0.205744
O O4 0.178674 0.443612 0.871635
O O5 0.155877 0.190853 0.836904
O O6 0.035788 0.003813 0.748686
O O7 0.778647 0.865998 0.587836
O O8 0.849462 0.133792 0.230058
O O9 0.464301 0.654699 0.370006
O O10 0.752403 0.025886 0.817494
O O11 0.309903 0.707148 0.184992
O O12 0.603647 0.749298 0.029100
O O13 0.325192 0.764827 0.517558
O O14 0.500000 0.000000 0.500000
O O15 0.261889 0.759303 0.801470
O O16 0.061366 0.392955 0.255941
O O17 0.000000 0.000000 0.000000
#
# Coordination Sequence:
#
# PCOD8005100 Si02
#       8
#     2   2   2   2   2   2   2   2
#     4  11  23  39  67  93 123 162 212 252 302 375
#     4  11  24  39  63  92 124 166 206 248 316 364
#     4  11  21  40  63  85 127 163 200 252 310 366
#     4  11  23  40  68  91 121 164 211 254 309 359
#     4  12  21  43  67  90 126 164 208 259 302 365
#     4  10  21  37  64  97 118 160 206 249 314 356
#     4  12  23  42  60  89 131 162 203 256 307 367
#     4  10  20  38  64  94 125 152 207 261 295 373
#
# _framework density 22.748359000000001
#
# number of rings (size 3 to 8) (size 9 to 14) (size 15 to 20)
#    0.000    1.000    3.750    3.750    0.000    0.500 
#    0.000    3.750    5.500    0.000    0.000    0.000 
#    0.000    0.000    0.000    0.000    0.000    0.000 
#
# Total GULP energy -198347.857490 kJ/mol
# GULP energy per Si atom -12396.741093 kJ/mol
# Density = 2.269658 g / cm^3
# Si number density = 22.748359 Si / 1000 Ang^3
#
#
#
# Elastic Constant Matrix: (Units=GPa)
#
#
# Indices 1 2 3 4 5 6 
#
# 1 126.9242 32.6178 12.9901 -7.4140 22.8045 4.2427
# 2 32.6178 159.9998 27.7402 -12.0259 22.5880 32.6438
# 3 12.9901 27.7402 44.8520 -13.6006 18.0283 2.2190
# 4 -7.4140 -12.0259 -13.6006 32.1944 -8.2194 1.4156
# 5 22.8045 22.5880 18.0283 -8.2194 32.0310 -3.0309
# 6 4.2427 32.6438 2.2190 1.4156 -3.0309 37.3780
#
#
#
# Elastic Compliance Matrix: (Units=1/GPa)
#
#
# Indices 1 2 3 4 5 6 
#
# 1 0.009222 -0.000900 0.000564 0.000478 -0.006203 -0.000816
# 2 -0.000900 0.009419 -0.002802 0.001246 -0.004900 -0.008402
# 3 0.000564 -0.002802 0.032518 0.009172 -0.014476 -0.001069
# 4 0.000478 0.001246 0.009172 0.036318 0.002669 -0.002846
# 5 -0.006203 -0.004900 -0.014476 0.002669 0.048842 0.009702
# 6 -0.000816 -0.008402 -0.001069 -0.002846 0.009702 0.035142
#
#
# Mechanical properties :
#
#
# Convention : Reuss Voigt Hill
#
# Bulk Modulus (GPa) = 22.27975 53.16357 37.72166
# Shear Modulus (GPa) = 25.94766 37.54921 31.74843
#
# Velocity S-wave (km/s) = 3.38100 4.06721 3.73987
# Velocity P-wave (km/s) = 5.00568 6.74368 5.93860
#
# Compressibility (1/GPa) = 0.04488381
#
# Stress axis : x y z
#
# Youngs Moduli (GPa) = 108.43752 106.17124 30.75255
#
# Poissons Ratio (x) = 0.09553 -0.01735
# Poissons Ratio (y) = 0.09757 0.08616
# Poissons Ratio (z) = -0.06120 0.29747
#
# Static dielectric constant tensor:
#      x y z
#    x 4.256280 0.090500 0.216970 
#    y 0.090500 4.406630 0.019030 
#    z 0.216970 0.019030 3.855320 
# 
# 
# High freq. dielectric constant tensor:
#      x y z
#    x 1.908790 0.002510 0.020140 
#    y 0.002510 1.913370 -0.006270 
#    z 0.020140 -0.006270 1.869520 
# 
# From -- ./inp_files/208990.got.cif
#   From: 2010.06.25/outbox.cif.g09.slc.cpg/sg2_105_cif.got.tgz:208990.got - 2010.06.27 13:26:56.
