data_PCOD8005900
_publ_section_title
;
Structure prediction by ZEFSAII (Michael W. Deem and Ramdas Pophale) SiO2 
 PCOD8005900
Probable space group: P -1
;
_chemical_formula_sum "Si O2"
_cell_formula_units_Z 14
_cell_length_a 9.418357
_cell_length_b 14.921354
_cell_length_c 12.490297
_cell_angle_alpha 30.866039
_cell_angle_beta 133.148946
_cell_angle_gamma 123.432997
_cell_volume 653.952869
_symmetry_space_group_name_H-M "P -1"
_symmetry_group_IT_number 2
_symmetry_cell_setting 'triclinic'
loop_
_space_group_symop_operation_xyz
x,y,z
-x,-y,-z
loop_
_atom_site_type_symbol
_atom_site_label
_atom_site_fract_x
_atom_site_fract_y
_atom_site_fract_z
Si Si1 0.662536 0.778129 0.904891
Si Si2 0.402291 0.840729 0.065919
Si Si3 0.208323 0.058679 0.575216
Si Si4 0.100265 0.641052 0.217828
Si Si5 0.602340 0.471975 0.340449
Si Si6 0.518523 0.158833 0.475437
Si Si7 0.285483 0.372699 0.438209
O O1 0.517150 0.777756 0.729304
O O2 0.661390 0.978111 0.741055
O O3 0.582236 0.655572 0.079650
O O4 0.877853 0.702622 0.060671
O O5 0.213862 0.808775 0.073446
O O6 0.566824 0.676555 0.333900
O O7 0.500000 0.000000 0.000000
O O8 0.339489 0.886241 0.865083
O O9 0.308665 0.127172 0.451281
O O10 0.190867 0.207926 0.505946
O O11 0.000000 0.000000 0.500000
O O12 0.197927 0.546369 0.469734
O O13 0.114443 0.507897 0.259517
O O14 0.621688 0.307364 0.438030
O O15 0.406188 0.469201 0.312472
#
# Coordination Sequence:
#
# PCOD8005900 Si02
#       7
#     2   2   2   2   2   2   2
#     4  11  24  43  62  88 133 167 205 259 308 370
#     4   9  18  35  60  87 123 157 191 255 310 353
#     4  10  20  39  63  94 119 160 212 254 305 368
#     4  11  22  40  62  99 123 152 215 260 307 374
#     4  10  21  43  66  90 123 167 208 254 315 369
#     4  10  24  43  62  88 128 172 209 247 313 378
#     4   9  21  39  62  94 122 155 203 261 315 366
#
# _framework density 21.408270999999999
#
# number of rings (size 3 to 8) (size 9 to 14) (size 15 to 20)
#    0.000    2.000    0.000    4.286    4.000    0.571 
#   12.857    2.143    0.000    0.000    0.000    0.000 
#    0.000    0.000    0.000    0.000    0.000    0.000 
#
# Total GULP energy -173570.799357 kJ/mol
# GULP energy per Si atom -12397.914240 kJ/mol
# Density = 2.135954 g / cm^3
# Si number density = 21.408271 Si / 1000 Ang^3
#
#
#
# Elastic Constant Matrix: (Units=GPa)
#
#
# Indices 1 2 3 4 5 6 
#
# 1 65.9326 37.1083 46.4520 -10.7640 15.8919 1.2724
# 2 37.1083 102.1254 54.5129 -7.3590 9.3429 -6.9591
# 3 46.4520 54.5129 133.9453 -7.5273 -12.3546 -3.1399
# 4 -10.7640 -7.3590 -7.5273 28.1934 -2.8473 1.3465
# 5 15.8919 9.3429 -12.3546 -2.8473 42.9236 -3.7162
# 6 1.2724 -6.9591 -3.1399 1.3465 -3.7162 31.1333
#
#
#
# Elastic Compliance Matrix: (Units=1/GPa)
#
#
# Indices 1 2 3 4 5 6 
#
# 1 0.027601 -0.004158 -0.008733 0.006148 -0.011819 -0.004615
# 2 -0.004158 0.014126 -0.004454 0.000530 -0.002561 0.002550
# 3 -0.008733 -0.004454 0.013077 -0.000267 0.008092 0.001658
# 4 0.006148 0.000530 -0.000267 0.037959 -0.000108 -0.001814
# 5 -0.011819 -0.002561 0.008092 -0.000108 0.030936 0.004424
# 6 -0.004615 0.002550 0.001658 -0.001814 0.004424 0.033652
#
#
# Mechanical properties :
#
#
# Convention : Reuss Voigt Hill
#
# Bulk Modulus (GPa) = 49.71245 64.23886 56.97566
# Shear Modulus (GPa) = 25.15766 31.37873 28.26819
#
# Velocity S-wave (km/s) = 3.43175 3.83264 3.63772
# Velocity P-wave (km/s) = 6.24292 7.04679 6.65700
#
# Compressibility (1/GPa) = 0.02011569
#
# Stress axis : x y z
#
# Youngs Moduli (GPa) = 36.23006 70.78946 76.46950
#
# Poissons Ratio (x) = 0.29434 0.66779
# Poissons Ratio (y) = 0.15065 0.34058
# Poissons Ratio (z) = 0.31639 0.31528
#
# Static dielectric constant tensor:
#      x y z
#    x 3.654590 -0.159210 0.008730 
#    y -0.159210 3.880660 -0.174620 
#    z 0.008730 -0.174620 3.380990 
# 
# 
# High freq. dielectric constant tensor:
#      x y z
#    x 1.825670 -0.009990 -0.014940 
#    y -0.009990 1.842660 -0.009250 
#    z -0.014940 -0.009250 1.850840 
# 
# From -- ./inp_files/295623.got.cif
#   From: 2010.06.25/outbox.cif.g09.slc.cpg/sg2_148_cif.got.tgz:295623.got - 2010.06.27 13:26:56.
