data_PCOD8005405
_publ_section_title
;
Structure prediction by ZEFSAII (Michael W. Deem and Ramdas Pophale) SiO2 
 PCOD8005405
Probable space group: P -1
;
_chemical_formula_sum "Si O2"
_cell_formula_units_Z 16
_cell_length_a 9.606928
_cell_length_b 9.604460
_cell_length_c 16.379990
_cell_angle_alpha 120.017983
_cell_angle_beta 34.764965
_cell_angle_gamma 109.369137
_cell_volume 736.513640
_symmetry_space_group_name_H-M "P -1"
_symmetry_group_IT_number 2
_symmetry_cell_setting 'triclinic'
loop_
_space_group_symop_operation_xyz
x,y,z
-x,-y,-z
loop_
_atom_site_type_symbol
_atom_site_label
_atom_site_fract_x
_atom_site_fract_y
_atom_site_fract_z
Si Si1 0.341894 0.360908 0.531550
Si Si2 0.656616 0.167050 0.737516
Si Si3 0.824393 0.812896 0.575497
Si Si4 0.758921 0.738018 0.155596
Si Si5 0.671003 0.067744 0.370418
Si Si6 0.604522 0.227458 0.959894
Si Si7 0.997670 0.559169 0.135741
Si Si8 0.855201 0.859137 0.755832
O O1 0.500000 0.500000 0.500000
O O2 0.280110 0.338434 0.459467
O O3 0.487874 0.189353 0.439779
O O4 0.096390 0.414845 0.719318
O O5 0.510132 0.245620 0.751871
O O6 0.567948 0.265090 0.891991
O O7 0.942220 0.170076 0.587639
O O8 0.624589 0.978662 0.712100
O O9 0.890567 0.772956 0.625530
O O10 0.780364 0.641540 0.203061
O O11 0.811082 0.920456 0.202795
O O12 0.948369 0.633413 0.969799
O O13 0.877358 0.163308 0.337082
O O14 0.500000 0.000000 0.500000
O O15 0.752315 0.359448 0.969917
O O16 0.763718 0.050922 0.846670
O O17 0.332819 0.234629 0.131423
#
# Coordination Sequence:
#
# PCOD8005405 Si02
#       8
#     2   2   2   2   2   2   2   2
#     4  12  26  45  67 101 142 174 223 294 340 395
#     4  10  20  38  68  98 124 181 231 275 327 415
#     4  10  21  39  67  97 132 172 231 277 336 398
#     4  11  23  39  71  99 128 180 232 270 334 415
#     4  12  22  45  74  97 132 185 235 270 339 421
#     4  10  20  41  63  92 142 169 222 283 342 396
#     4  11  24  44  65  98 138 181 220 285 343 395
#     4  10  22  38  66 101 127 178 227 279 331 404
#
# _framework density 21.723970999999999
#
# number of rings (size 3 to 8) (size 9 to 14) (size 15 to 20)
#    0.000    1.250    5.000    0.750    1.750    3.500 
#    4.500    1.875    0.000    0.000    0.000    0.000 
#    0.000    0.000    0.000    0.000    0.000    0.000 
#
# Total GULP energy -198344.741845 kJ/mol
# GULP energy per Si atom -12396.546365 kJ/mol
# Density = 2.167453 g / cm^3
# Si number density = 21.723971 Si / 1000 Ang^3
#
#
#
# Elastic Constant Matrix: (Units=GPa)
#
#
# Indices 1 2 3 4 5 6 
#
# 1 129.5686 29.9887 45.9200 -0.5508 19.0753 22.1999
# 2 29.9887 71.4034 41.6816 3.6198 9.2968 21.6871
# 3 45.9200 41.6816 109.0591 -1.6096 21.3200 15.3065
# 4 -0.5508 3.6198 -1.6096 39.1318 6.4248 0.0887
# 5 19.0753 9.2968 21.3200 6.4248 39.2510 4.6709
# 6 22.1999 21.6871 15.3065 0.0887 4.6709 28.8945
#
#
#
# Elastic Compliance Matrix: (Units=1/GPa)
#
#
# Indices 1 2 3 4 5 6 
#
# 1 0.010177 -0.000727 -0.002703 0.000564 -0.002756 -0.005398
# 2 -0.000727 0.021949 -0.006460 -0.002368 0.000547 -0.012575
# 3 -0.002703 -0.006460 0.013713 0.001940 -0.004977 0.000459
# 4 0.000564 -0.002368 0.001940 0.026724 -0.005271 0.001086
# 5 -0.002756 0.000547 -0.004977 -0.005271 0.030317 -0.000542
# 6 -0.005398 -0.012575 0.000459 0.001086 -0.000542 0.048035
#
#
# Mechanical properties :
#
#
# Convention : Reuss Voigt Hill
#
# Bulk Modulus (GPa) = 38.37141 60.57906 49.47523
# Shear Modulus (GPa) = 27.87344 34.28486 31.07915
#
# Velocity S-wave (km/s) = 3.58589 3.97697 3.78648
# Velocity P-wave (km/s) = 5.90307 7.00248 6.47615
#
# Compressibility (1/GPa) = 0.02606107
#
# Stress axis : x y z
#
# Youngs Moduli (GPa) = 98.26129 45.55963 72.92124
#
# Poissons Ratio (x) = 0.03311 0.19708
# Poissons Ratio (y) = 0.07142 0.47106
# Poissons Ratio (z) = 0.26556 0.29431
#
# Static dielectric constant tensor:
#      x y z
#    x 4.080150 0.054010 0.288180 
#    y 0.054010 3.774960 0.085030 
#    z 0.288180 0.085030 4.016300 
# 
# 
# High freq. dielectric constant tensor:
#      x y z
#    x 1.871240 0.007350 0.012500 
#    y 0.007350 1.824270 0.016540 
#    z 0.012500 0.016540 1.844910 
# 
# From -- ./inp_files/495371.got.cif
#   From: 2010.06.25/outbox.cif.g09.slc.cpg/sg2_248_cif.got.tgz:495371.got - 2010.06.27 13:26:56.
