data_PCOD8005782
_publ_section_title
;
Structure prediction by ZEFSAII (Michael W. Deem and Ramdas Pophale) SiO2 
 PCOD8005782
Probable space group: P -1
;
_chemical_formula_sum "Si O2"
_cell_formula_units_Z 16
_cell_length_a 11.110887
_cell_length_b 14.426052
_cell_length_c 8.665547
_cell_angle_alpha 37.441674
_cell_angle_beta 116.385930
_cell_angle_gamma 118.758252
_cell_volume 735.178960
_symmetry_space_group_name_H-M "P -1"
_symmetry_group_IT_number 2
_symmetry_cell_setting 'triclinic'
loop_
_space_group_symop_operation_xyz
x,y,z
-x,-y,-z
loop_
_atom_site_type_symbol
_atom_site_label
_atom_site_fract_x
_atom_site_fract_y
_atom_site_fract_z
Si Si1 0.333775 0.261102 0.039275
Si Si2 0.908335 0.939138 0.382931
Si Si3 0.533370 0.099206 0.232003
Si Si4 0.024784 0.149477 0.922722
Si Si5 0.397992 0.165267 0.539690
Si Si6 0.235463 0.600298 0.009057
Si Si7 0.509844 0.534820 0.640730
Si Si8 0.017703 0.349864 0.376455
O O1 0.174009 0.183213 0.042633
O O2 0.372744 0.443965 0.774310
O O3 0.412327 0.191661 0.035044
O O4 0.392950 0.240153 0.268802
O O5 0.752463 0.885144 0.411699
O O6 0.958841 0.794030 0.525143
O O7 0.000000 0.000000 0.500000
O O8 0.918162 0.092175 0.076655
O O9 0.685245 0.219640 0.149483
O O10 0.500000 0.000000 0.500000
O O11 0.529556 0.980683 0.243348
O O12 0.006433 0.299964 0.616448
O O13 0.000000 0.000000 0.000000
O O14 0.485599 0.285079 0.555134
O O15 0.126390 0.603816 0.805224
O O16 0.352373 0.507912 0.151353
O O17 0.144772 0.503977 0.225582
O O18 0.500000 0.500000 0.500000
#
# Coordination Sequence:
#
# PCOD8005782 Si02
#       8
#     2   2   2   2   2   2   2   2
#     4  10  21  40  64  91 128 170 216 263 327 384
#     4  11  20  36  64  95 130 169 216 273 322 389
#     4   9  21  37  63  91 125 167 221 260 318 386
#     4  10  22  36  64  99 124 168 220 270 315 383
#     4  11  21  40  64  95 127 168 221 263 327 388
#     4  10  20  39  62  94 124 174 214 262 322 392
#     4  11  23  40  67  93 127 169 221 271 322 391
#     4  10  21  37  64  88 129 172 225 255 328 387
#
# _framework density 21.763408999999999
#
# number of rings (size 3 to 8) (size 9 to 14) (size 15 to 20)
#    0.000    1.750    2.500    1.875    7.000    0.000 
#    0.000    2.500    5.500   12.000    0.000    0.000 
#    0.000    0.000    0.000    0.000    0.000    0.000 
#
# Total GULP energy -198223.428115 kJ/mol
# GULP energy per Si atom -12388.964257 kJ/mol
# Density = 2.171387 g / cm^3
# Si number density = 21.763409 Si / 1000 Ang^3
#
#
#
# Elastic Constant Matrix: (Units=GPa)
#
#
# Indices 1 2 3 4 5 6 
#
# 1 75.7503 39.3605 29.0099 -13.9390 -15.0950 4.3235
# 2 39.3605 125.4507 29.2272 -21.5586 -14.9225 -2.3319
# 3 29.0099 29.2272 106.4144 -8.3725 -32.2449 3.4372
# 4 -13.9390 -21.5586 -8.3725 32.0024 6.0935 -10.0697
# 5 -15.0950 -14.9225 -32.2449 6.0935 43.2514 -6.9060
# 6 4.3235 -2.3319 3.4372 -10.0697 -6.9060 30.3752
#
#
#
# Elastic Compliance Matrix: (Units=1/GPa)
#
#
# Indices 1 2 3 4 5 6 
#
# 1 0.017428 -0.003999 -0.002731 0.003529 0.002034 -0.000846
# 2 -0.003999 0.010773 -0.001137 0.006200 0.001216 0.003857
# 3 -0.002731 -0.001137 0.012998 0.000080 0.008458 0.000780
# 4 0.003529 0.006200 0.000080 0.041305 -0.000216 0.013609
# 5 0.002034 0.001216 0.008458 -0.000216 0.031535 0.005945
# 6 -0.000846 0.003857 0.000780 0.013609 0.005945 0.039113
#
#
# Mechanical properties :
#
#
# Convention : Reuss Voigt Hill
#
# Bulk Modulus (GPa) = 39.27108 55.86785 47.56946
# Shear Modulus (GPa) = 28.18878 35.12700 31.65789
#
# Velocity S-wave (km/s) = 3.60285 4.02187 3.81811
# Velocity P-wave (km/s) = 5.94904 6.87703 6.42980
#
# Compressibility (1/GPa) = 0.02546403
#
# Stress axis : x y z
#
# Youngs Moduli (GPa) = 57.37784 92.82817 76.93410
#
# Poissons Ratio (x) = 0.37124 0.21014
# Poissons Ratio (y) = 0.22946 0.08747
# Poissons Ratio (z) = 0.15672 0.10554
#
# Static dielectric constant tensor:
#      x y z
#    x 4.122120 -0.243450 -0.367200 
#    y -0.243450 3.251660 -0.355410 
#    z -0.367200 -0.355410 4.521870 
# 
# 
# High freq. dielectric constant tensor:
#      x y z
#    x 1.848690 0.018180 -0.025420 
#    y 0.018180 1.845140 -0.016690 
#    z -0.025420 -0.016690 1.860430 
# 
# From -- ./inp_files/271631.got.cif
#   From: 2010.06.25/outbox.cif.g09.slc.cpg/sg2_136_cif.got.tgz:271631.got - 2010.06.27 13:26:56.
