data_PCOD8005014
_publ_section_title
;
Structure prediction by ZEFSAII (Michael W. Deem and Ramdas Pophale) SiO2 
 PCOD8005014
Probable space group: P -1
;
_chemical_formula_sum "Si O2"
_cell_formula_units_Z 12
_cell_length_a 16.269882
_cell_length_b 15.077672
_cell_length_c 10.089398
_cell_angle_alpha 112.892309
_cell_angle_beta 56.355083
_cell_angle_gamma 161.530814
_cell_volume 558.494601
_symmetry_space_group_name_H-M "P -1"
_symmetry_group_IT_number 2
_symmetry_cell_setting 'triclinic'
loop_
_space_group_symop_operation_xyz
x,y,z
-x,-y,-z
loop_
_atom_site_type_symbol
_atom_site_label
_atom_site_fract_x
_atom_site_fract_y
_atom_site_fract_z
Si Si1 0.464052 0.768500 0.719500
Si Si2 0.271446 0.703101 0.084260
Si Si3 0.857948 0.484443 0.411376
Si Si4 0.450012 0.360829 0.052554
Si Si5 0.824706 0.672321 0.152708
Si Si6 0.483185 0.192543 0.833090
O O1 0.383243 0.709792 0.605079
O O2 0.434027 0.625697 0.692976
O O3 0.193743 0.568097 0.943218
O O4 0.832027 0.152301 0.647987
O O5 0.465542 0.820205 0.086404
O O6 0.950403 0.457550 0.292643
O O7 0.500000 0.000000 0.000000
O O8 0.649971 0.293542 0.620991
O O9 0.636072 0.442669 0.864521
O O10 0.500000 0.500000 0.000000
O O11 0.613939 0.531901 0.148123
O O12 0.051980 0.964129 0.195759
O O13 0.085178 0.835838 0.952607
#
# Coordination Sequence:
#
# PCOD8005014 Si02
#       6
#     2   2   2   2   2   2
#     4  11  21  40  58  87 121 168 200 237 289 360
#     4  10  20  40  58  88 120 169 204 234 283 362
#     4  11  24  35  59  89 128 158 198 247 296 338
#     4  10  21  38  67  90 112 149 202 250 297 356
#     4  10  20  38  64  85 117 153 206 237 296 357
#     4  10  23  38  62  91 123 151 203 253 298 337
#
# _framework density 21.486331
#
# number of rings (size 3 to 8) (size 9 to 14) (size 15 to 20)
#    1.000    0.667    1.667    4.500    2.333    1.333 
#    0.000    5.000    0.000    6.000    0.000    0.000 
#    0.000    0.000    0.000    0.000    0.000    0.000 
#
# Total GULP energy -148659.984341 kJ/mol
# GULP energy per Si atom -12388.332028 kJ/mol
# Density = 2.143743 g / cm^3
# Si number density = 21.486331 Si / 1000 Ang^3
#
#
#
# Elastic Constant Matrix: (Units=GPa)
#
#
# Indices 1 2 3 4 5 6 
#
# 1 140.0763 20.8600 12.7608 7.6797 25.2044 4.0734
# 2 20.8600 90.2717 3.7623 3.6368 11.8942 7.7249
# 3 12.7608 3.7623 59.9401 12.8248 12.1735 4.1951
# 4 7.6797 3.6368 12.8248 22.5877 4.0858 8.9438
# 5 25.2044 11.8942 12.1735 4.0858 20.8875 3.3228
# 6 4.0734 7.7249 4.1951 8.9438 3.3228 38.2358
#
#
#
# Elastic Compliance Matrix: (Units=1/GPa)
#
#
# Indices 1 2 3 4 5 6 
#
# 1 0.009209 -0.000699 0.000584 -0.001552 -0.010815 0.000399
# 2 -0.000699 0.012199 0.000854 -0.000346 -0.006237 -0.001861
# 3 0.000584 0.000854 0.021044 -0.010566 -0.011537 0.000930
# 4 -0.001552 -0.000346 -0.010566 0.055567 -0.000807 -0.011533
# 5 -0.010815 -0.006237 -0.011537 -0.000807 0.071735 -0.002367
# 6 0.000399 -0.001861 0.000930 -0.011533 -0.002367 0.029288
#
#
# Mechanical properties :
#
#
# Convention : Reuss Voigt Hill
#
# Bulk Modulus (GPa) = 22.76365 40.56159 31.66262
# Shear Modulus (GPa) = 23.56182 33.20254 28.38218
#
# Velocity S-wave (km/s) = 3.31508 3.93528 3.63842
# Velocity P-wave (km/s) = 5.02698 6.29026 5.69376
#
# Compressibility (1/GPa) = 0.04392968
#
# Stress axis : x y z
#
# Youngs Moduli (GPa) = 108.58600 81.97686 47.51932
#
# Poissons Ratio (x) = 0.05731 -0.02774
# Poissons Ratio (y) = 0.07591 -0.04059
# Poissons Ratio (z) = -0.06339 -0.07002
#
# Static dielectric constant tensor:
#      x y z
#    x 4.072140 0.436730 -1.229650 
#    y 0.436730 7.125960 -5.585230 
#    z -1.229650 -5.585230 14.078780 
# 
# 
# High freq. dielectric constant tensor:
#      x y z
#    x 1.847570 -0.003420 0.022250 
#    y -0.003420 1.852220 0.003750 
#    z 0.022250 0.003750 1.803840 
# 
# From -- ./inp_files/30521.got.cif
#   From: 2010.06.25/outbox.cif.g09.slc.cpg/sg2_16_cif.got.tgz:30521.got - 2010.06.27 13:26:56.
