data_PCOD8005984
_publ_section_title
;
Structure prediction by ZEFSAII (Michael W. Deem and Ramdas Pophale) SiO2 
 PCOD8005984
Probable space group: P -1
;
_chemical_formula_sum "Si O2"
_cell_formula_units_Z 16
_cell_length_a 12.097493
_cell_length_b 9.297541
_cell_length_c 14.793431
_cell_angle_alpha 111.077064
_cell_angle_beta 72.871630
_cell_angle_gamma 49.385788
_cell_volume 784.496487
_symmetry_space_group_name_H-M "P -1"
_symmetry_group_IT_number 2
_symmetry_cell_setting 'triclinic'
loop_
_space_group_symop_operation_xyz
x,y,z
-x,-y,-z
loop_
_atom_site_type_symbol
_atom_site_label
_atom_site_fract_x
_atom_site_fract_y
_atom_site_fract_z
Si Si1 0.501200 0.337805 0.914537
Si Si2 0.011282 0.285471 0.312707
Si Si3 0.668176 0.090320 0.342528
Si Si4 0.629765 0.824269 0.642851
Si Si5 0.571260 0.891500 0.058462
Si Si6 0.324672 0.431521 0.800385
Si Si7 0.992651 0.456310 0.159378
Si Si8 0.713711 0.362278 0.327719
O O1 0.377096 0.349387 0.006579
O O2 0.359998 0.502921 0.893816
O O3 0.754475 0.005048 0.763442
O O4 0.500000 0.500000 0.000000
O O5 0.873690 0.529581 0.478659
O O6 0.029738 0.362171 0.232791
O O7 0.899124 0.249027 0.309490
O O8 0.505613 0.178613 0.338559
O O9 0.772574 0.114702 0.266762
O O10 0.529638 0.323345 0.508991
O O11 0.849394 0.773598 0.269799
O O12 0.614641 0.869343 0.765347
O O13 0.527852 0.082218 0.668785
O O14 0.783980 0.754918 0.994584
O O15 0.500000 0.000000 0.000000
O O16 0.111867 0.560485 0.880923
O O17 0.297892 0.581699 0.761135
#
# Coordination Sequence:
#
# PCOD8005984 Si02
#       8
#     2   2   2   2   2   2   2   2
#     4  11  25  41  59  87 128 160 195 244 305 361
#     4  10  20  40  62  89 118 161 199 242 298 361
#     4   9  18  33  61  89 121 152 197 255 291 351
#     4   9  20  37  63  86 119 153 207 246 290 350
#     4  11  23  41  60  90 123 158 197 252 300 349
#     4   9  20  38  61  89 116 159 201 248 290 359
#     4  10  20  39  64  91 115 155 205 247 299 344
#     4   9  18  35  58  91 121 154 198 243 304 350
#
# _framework density 20.395246
#
# number of rings (size 3 to 8) (size 9 to 14) (size 15 to 20)
#    0.000    2.250    1.250    0.750    1.750   10.500 
#    2.250    1.250    0.000    3.000    0.000    0.000 
#    0.000    0.000    0.000    0.000    0.000    0.000 
#
# Total GULP energy -198258.104580 kJ/mol
# GULP energy per Si atom -12391.131536 kJ/mol
# Density = 2.034883 g / cm^3
# Si number density = 20.395246 Si / 1000 Ang^3
#
#
#
# Elastic Constant Matrix: (Units=GPa)
#
#
# Indices 1 2 3 4 5 6 
#
# 1 132.7106 50.6525 42.9313 -13.4095 5.3834 7.1533
# 2 50.6525 88.2438 23.5604 -17.9174 -1.1673 0.0483
# 3 42.9313 23.5604 91.2567 -8.7893 -5.1166 -3.3639
# 4 -13.4095 -17.9174 -8.7893 22.9718 -1.0803 -1.5674
# 5 5.3834 -1.1673 -5.1166 -1.0803 32.6972 -0.2957
# 6 7.1533 0.0483 -3.3639 -1.5674 -0.2957 41.5706
#
#
#
# Elastic Compliance Matrix: (Units=1/GPa)
#
#
# Indices 1 2 3 4 5 6 
#
# 1 0.011129 -0.005216 -0.004063 0.000596 -0.002655 -0.002234
# 2 -0.005216 0.016517 -0.000737 0.009716 0.001665 0.001197
# 3 -0.004063 -0.000737 0.013531 0.002495 0.002860 0.001909
# 4 0.000596 0.009716 0.002495 0.052668 0.002398 0.002091
# 5 -0.002655 0.001665 0.002860 0.002398 0.031616 0.001002
# 6 -0.002234 0.001197 0.001909 0.002091 0.001002 0.024679
#
#
# Mechanical properties :
#
#
# Convention : Reuss Voigt Hill
#
# Bulk Modulus (GPa) = 47.29268 60.72217 54.00742
# Shear Modulus (GPa) = 28.21358 32.45238 30.33298
#
# Velocity S-wave (km/s) = 3.72336 3.99328 3.86068
# Velocity P-wave (km/s) = 6.45934 7.14836 6.81256
#
# Compressibility (1/GPa) = 0.02114492
#
# Stress axis : x y z
#
# Youngs Moduli (GPa) = 89.85869 60.54248 73.90617
#
# Poissons Ratio (x) = 0.31579 0.30024
# Poissons Ratio (y) = 0.46871 0.05449
# Poissons Ratio (z) = 0.36505 0.04464
#
# Static dielectric constant tensor:
#      x y z
#    x 3.981550 0.159860 -0.016320 
#    y 0.159860 3.701120 0.035160 
#    z -0.016320 0.035160 3.304540 
# 
# 
# High freq. dielectric constant tensor:
#      x y z
#    x 1.815930 0.004390 -0.007830 
#    y 0.004390 1.790530 -0.003330 
#    z -0.007830 -0.003330 1.780350 
# 
# From -- ./inp_files/312614.got.cif
#   From: 2010.06.25/outbox.cif.g09.slc.cpg/sg2_157_cif.got.tgz:312614.got - 2010.06.27 13:26:56.
