data_PCOD8005793
_publ_section_title
;
Structure prediction by ZEFSAII (Michael W. Deem and Ramdas Pophale) SiO2 
 PCOD8005793
Probable space group: P -1
;
_chemical_formula_sum "Si O2"
_cell_formula_units_Z 16
_cell_length_a 22.277980
_cell_length_b 12.208323
_cell_length_c 7.632392
_cell_angle_alpha 41.464432
_cell_angle_beta 52.443765
_cell_angle_gamma 28.497314
_cell_volume 647.862292
_symmetry_space_group_name_H-M "P -1"
_symmetry_group_IT_number 2
_symmetry_cell_setting 'triclinic'
loop_
_space_group_symop_operation_xyz
x,y,z
-x,-y,-z
loop_
_atom_site_type_symbol
_atom_site_label
_atom_site_fract_x
_atom_site_fract_y
_atom_site_fract_z
Si Si1 0.029956 0.751163 0.068815
Si Si2 0.037323 0.762638 0.429541
Si Si3 0.635361 0.472409 0.793801
Si Si4 0.452791 0.045895 0.745462
Si Si5 0.867661 0.943562 0.826662
Si Si6 0.674952 0.769756 0.896259
Si Si7 0.390628 0.795531 0.662405
Si Si8 0.269805 0.138746 0.804055
O O1 0.177886 0.521669 0.044926
O O2 0.006658 0.729826 0.334935
O O3 0.973258 0.725650 0.053797
O O4 0.954161 0.056246 0.819211
O O5 0.929096 0.909699 0.584823
O O6 0.176295 0.459146 0.608527
O O7 0.581376 0.753747 0.585406
O O8 0.539137 0.545334 0.746522
O O9 0.767305 0.248280 0.723143
O O10 0.645956 0.337853 0.113952
O O11 0.406555 0.946644 0.879536
O O12 0.600396 0.807546 0.823266
O O13 0.369009 0.237318 0.836880
O O14 0.800577 0.892681 0.943693
O O15 0.639678 0.031602 0.656657
O O16 0.295719 0.047579 0.668216
#
# Coordination Sequence:
#
# PCOD8005793 Si02
#       8
#     2   2   2   2   2   2   2   2
#     4  11  23  41  65  93 129 167 207 263 315 376
#     4  11  23  40  63  97 125 166 216 254 313 379
#     4   9  19  38  63  89 116 170 206 250 315 374
#     4  10  21  37  68  90 124 165 208 261 316 374
#     4  11  23  41  65  91 130 170 204 260 315 376
#     4  10  20  39  62  96 125 161 208 262 323 369
#     4   9  19  38  63  86 125 157 210 257 314 373
#     4  11  22  41  61  93 123 163 213 254 310 380
#
# _framework density 24.696607
#
# number of rings (size 3 to 8) (size 9 to 14) (size 15 to 20)
#    0.000    1.750    1.250    3.000    0.000    2.500 
#    9.000    0.000    0.000   15.000    0.000    0.000 
#    0.000    0.000    0.000    0.000    0.000    0.000 
#
# Total GULP energy -198253.879823 kJ/mol
# GULP energy per Si atom -12390.867489 kJ/mol
# Density = 2.464040 g / cm^3
# Si number density = 24.696607 Si / 1000 Ang^3
#
#
#
# Elastic Constant Matrix: (Units=GPa)
#
#
# Indices 1 2 3 4 5 6 
#
# 1 92.7890 2.1428 21.3976 6.2537 -18.8101 -12.8682
# 2 2.1428 86.4202 -5.2936 0.9610 -3.2476 -25.2725
# 3 21.3976 -5.2936 59.9383 -2.9002 -10.5621 -6.6961
# 4 6.2537 0.9610 -2.9002 45.2911 4.5738 1.9630
# 5 -18.8101 -3.2476 -10.5621 4.5738 22.8024 3.9803
# 6 -12.8682 -25.2725 -6.6961 1.9630 3.9803 23.0652
#
#
#
# Elastic Compliance Matrix: (Units=1/GPa)
#
#
# Indices 1 2 3 4 5 6 
#
# 1 0.014937 0.002518 -0.002404 -0.003741 0.010772 0.008854
# 2 0.002518 0.018358 0.003622 -0.001756 0.002841 0.022230
# 3 -0.002404 0.003622 0.019814 0.000571 0.006333 0.007238
# 4 -0.003741 -0.001756 0.000571 0.023577 -0.006990 -0.004646
# 5 0.010772 0.002841 0.006333 -0.006990 0.057187 0.001688
# 6 0.008854 0.022230 0.007238 -0.004646 0.001688 0.074858
#
#
# Mechanical properties :
#
#
# Convention : Reuss Voigt Hill
#
# Bulk Modulus (GPa) = 16.50689 30.62679 23.56684
# Shear Modulus (GPa) = 22.57822 32.95845 27.76833
#
# Velocity S-wave (km/s) = 3.02689 3.65709 3.35681
# Velocity P-wave (km/s) = 4.34908 5.50096 4.95858
#
# Compressibility (1/GPa) = 0.06058077
#
# Stress axis : x y z
#
# Youngs Moduli (GPa) = 66.94756 54.47222 50.46960
#
# Poissons Ratio (x) = -0.13717 0.12132
# Poissons Ratio (y) = -0.16858 -0.18278
# Poissons Ratio (z) = 0.16092 -0.19727
#
# Static dielectric constant tensor:
#      x y z
#    x 4.225780 -0.178880 -0.044710 
#    y -0.178880 4.455300 0.171690 
#    z -0.044710 0.171690 4.760010 
# 
# 
# High freq. dielectric constant tensor:
#      x y z
#    x 1.949190 -0.016770 -0.006530 
#    y -0.016770 1.998690 0.008900 
#    z -0.006530 0.008900 1.982550 
# 
# From -- ./inp_files/189255.got.cif
#   From: 2010.06.25/outbox.cif.g09.slc.cpg/sg2_95_cif.got.tgz:189255.got - 2010.06.27 13:26:56.
