data_PCOD8005402
_publ_section_title
;
Structure prediction by ZEFSAII (Michael W. Deem and Ramdas Pophale) SiO2 
 PCOD8005402
Probable space group: P -1
;
_chemical_formula_sum "Si O2"
_cell_formula_units_Z 10
_cell_length_a 12.405461
_cell_length_b 14.769197
_cell_length_c 5.268382
_cell_angle_alpha 53.676108
_cell_angle_beta 65.716206
_cell_angle_gamma 30.126161
_cell_volume 377.939504
_symmetry_space_group_name_H-M "P -1"
_symmetry_group_IT_number 2
_symmetry_cell_setting 'triclinic'
loop_
_space_group_symop_operation_xyz
x,y,z
-x,-y,-z
loop_
_atom_site_type_symbol
_atom_site_label
_atom_site_fract_x
_atom_site_fract_y
_atom_site_fract_z
Si Si1 0.259604 0.759110 0.651044
Si Si2 0.669548 0.739233 0.772567
Si Si3 0.578113 0.127888 0.709618
Si Si4 0.850365 0.231765 0.755840
Si Si5 0.919130 0.744305 0.693290
O O1 0.413525 0.744489 0.516209
O O2 0.301677 0.646525 0.551673
O O3 0.310440 0.644510 0.046775
O O4 0.000000 0.000000 0.500000
O O5 0.591408 0.778872 0.496614
O O6 0.729495 0.823545 0.601521
O O7 0.491782 0.851433 0.975293
O O8 0.886290 0.491404 0.014510
O O9 0.817876 0.883255 0.813449
O O10 0.000090 0.223564 0.632137
O O11 0.000000 0.000000 0.000000
#
# Coordination Sequence:
#
# PCOD8005402 Si02
#       5
#     2   2   2   2   2
#     4  10  20  38  68  97 129 178 226 269 345 402
#     4  11  29  44  68 115 126 187 237 272 347 418
#     4  12  24  47  73 100 143 177 236 280 342 415
#     4  10  20  38  69  95 124 189 217 263 358 392
#     4  11  25  48  74  94 154 174 224 297 340 398
#
# _framework density 26.459261000000001
#
# number of rings (size 3 to 8) (size 9 to 14) (size 15 to 20)
#    0.000    1.200    4.000    2.400    2.800    8.000 
#    0.000    6.000    0.000    0.000    0.000    0.000 
#    0.000    0.000    0.000    0.000    0.000    0.000 
#
# Total GULP energy -124020.361334 kJ/mol
# GULP energy per Si atom -12402.036133 kJ/mol
# Density = 2.639904 g / cm^3
# Si number density = 26.459261 Si / 1000 Ang^3
#
#
#
# Elastic Constant Matrix: (Units=GPa)
#
#
# Indices 1 2 3 4 5 6 
#
# 1 165.1433 15.5447 55.0851 25.9186 -26.9185 -3.6590
# 2 15.5447 84.3255 24.2425 32.8554 -8.7934 0.1032
# 3 55.0851 24.2425 111.4014 29.3556 -9.3719 9.7100
# 4 25.9186 32.8554 29.3556 34.7610 5.9036 -0.5514
# 5 -26.9185 -8.7934 -9.3719 5.9036 60.4181 11.5749
# 6 -3.6590 0.1032 9.7100 -0.5514 11.5749 21.1831
#
#
#
# Elastic Compliance Matrix: (Units=1/GPa)
#
#
# Indices 1 2 3 4 5 6 
#
# 1 0.008532 0.002504 -0.002402 -0.007474 0.004546 -0.000116
# 2 0.002504 0.021574 0.001921 -0.025348 0.008112 -0.005645
# 3 -0.002402 0.001921 0.014484 -0.013205 0.004653 -0.009950
# 4 -0.007474 -0.025348 -0.013205 0.073048 -0.019552 0.017470
# 5 0.004546 0.008112 0.004653 -0.019552 0.025413 -0.015782
# 6 -0.000116 -0.005645 -0.009950 0.017470 -0.015782 0.060854
#
#
# Mechanical properties :
#
#
# Convention : Reuss Voigt Hill
#
# Bulk Modulus (GPa) = 20.56063 61.17941 40.87002
# Shear Modulus (GPa) = 23.14045 41.00562 32.07303
#
# Velocity S-wave (km/s) = 2.96052 3.94098 3.48540
# Velocity P-wave (km/s) = 4.41291 6.62425 5.62825
#
# Compressibility (1/GPa) = 0.04863664
#
# Stress axis : x y z
#
# Youngs Moduli (GPa) = 117.20289 46.35232 69.03936
#
# Poissons Ratio (x) = -0.11606 0.16582
# Poissons Ratio (y) = -0.29346 -0.13263
# Poissons Ratio (z) = 0.28150 -0.08904
#
# Static dielectric constant tensor:
#      x y z
#    x 6.100790 1.017650 1.699950 
#    y 1.017650 5.859560 1.845160 
#    z 1.699950 1.845160 7.900170 
# 
# 
# High freq. dielectric constant tensor:
#      x y z
#    x 2.074050 0.000560 -0.000820 
#    y 0.000560 2.076580 0.000250 
#    z -0.000820 0.000250 2.069710 
# 
# From -- ./inp_files/27430.got.cif
#   From: 2010.06.25/outbox.cif.g09.slc.cpg/sg2_14_cif.got.tgz:27430.got - 2010.06.27 13:26:56.
