data_PCOD8005552
_publ_section_title
;
Structure prediction by ZEFSAII (Michael W. Deem and Ramdas Pophale) SiO2 
 PCOD8005552
Probable space group: P -1
;
_chemical_formula_sum "Si O2"
_cell_formula_units_Z 16
_cell_length_a 31.763582
_cell_length_b 9.117985
_cell_length_c 16.450757
_cell_angle_alpha 46.516088
_cell_angle_beta 17.795909
_cell_angle_gamma 37.109065
_cell_volume 810.453034
_symmetry_space_group_name_H-M "P -1"
_symmetry_group_IT_number 2
_symmetry_cell_setting 'triclinic'
loop_
_space_group_symop_operation_xyz
x,y,z
-x,-y,-z
loop_
_atom_site_type_symbol
_atom_site_label
_atom_site_fract_x
_atom_site_fract_y
_atom_site_fract_z
Si Si1 0.197202 0.799172 0.308296
Si Si2 0.316124 0.294996 0.725754
Si Si3 0.419828 0.187229 0.152389
Si Si4 0.219815 0.002081 0.643882
Si Si5 0.526244 0.526130 0.535762
Si Si6 0.331498 0.780116 0.231243
Si Si7 0.804015 0.011123 0.928162
Si Si8 0.834612 0.258760 0.293674
O O1 0.324933 0.484640 0.189512
O O2 0.208759 0.920357 0.323503
O O3 0.261268 0.874507 0.086246
O O4 0.990642 0.938085 0.630660
O O5 0.324924 0.436724 0.733966
O O6 0.284590 0.456867 0.640473
O O7 0.500000 0.000000 0.500000
O O8 0.166000 0.261295 0.019913
O O9 0.270376 0.189503 0.469693
O O10 0.596801 0.070573 0.926026
O O11 0.500000 0.000000 0.000000
O O12 0.395051 0.746846 0.462677
O O13 0.175821 0.939407 0.662318
O O14 0.037788 0.149122 0.974542
O O15 0.500000 0.500000 0.500000
O O16 0.338711 0.769712 0.827829
O O17 0.234935 0.729124 0.494311
O O18 0.500000 0.500000 0.000000
#
# Coordination Sequence:
#
# PCOD8005552 Si02
#       8
#     2   2   2   2   2   2   2   2
#     4  10  23  39  61  86 119 160 199 251 297 357
#     4   9  20  36  64  81 116 159 196 241 296 364
#     4  11  20  38  62  91 120 158 199 243 308 367
#     4  10  21  36  63  87 121 156 196 253 303 354
#     4  10  22  38  59  88 118 156 198 250 304 359
#     4  10  23  37  60  87 125 156 199 251 298 360
#     4  10  21  42  61  82 119 162 204 241 304 363
#     4  10  20  39  59  93 119 154 201 250 302 352
#
# _framework density 19.742045000000001
#
# number of rings (size 3 to 8) (size 9 to 14) (size 15 to 20)
#    0.000    2.000    1.250    1.500   10.500    1.000 
#    6.750    3.125    0.000    3.750    0.000    0.000 
#    0.000    0.000    0.000    0.000    0.000    0.000 
#
# Total GULP energy -198273.503645 kJ/mol
# GULP energy per Si atom -12392.093978 kJ/mol
# Density = 1.969711 g / cm^3
# Si number density = 19.742045 Si / 1000 Ang^3
#
#
#
# Elastic Constant Matrix: (Units=GPa)
#
#
# Indices 1 2 3 4 5 6 
#
# 1 155.1685 38.1652 54.4069 -14.2430 8.6087 7.1939
# 2 38.1652 69.9478 26.6085 -14.5949 -1.5869 6.7220
# 3 54.4069 26.6085 114.0653 -15.3616 9.7559 8.1476
# 4 -14.2430 -14.5949 -15.3616 35.7292 0.7129 -2.8936
# 5 8.6087 -1.5869 9.7559 0.7129 31.1692 -0.0574
# 6 7.1939 6.7220 8.1476 -2.8936 -0.0574 21.8923
#
#
#
# Elastic Compliance Matrix: (Units=1/GPa)
#
#
# Indices 1 2 3 4 5 6 
#
# 1 0.008496 -0.003324 -0.003003 0.000724 -0.001593 -0.000562
# 2 -0.003324 0.018255 -0.001981 0.004981 0.002348 -0.003111
# 3 -0.003003 -0.001981 0.011452 0.002789 -0.002924 -0.002306
# 4 0.000724 0.004981 0.002789 0.031653 -0.001541 0.001374
# 5 -0.001593 0.002348 -0.002924 -0.001541 0.033594 0.000775
# 6 -0.000562 -0.003111 -0.002306 0.001374 0.000775 0.047860
#
#
# Mechanical properties :
#
#
# Convention : Reuss Voigt Hill
#
# Bulk Modulus (GPa) = 46.32373 64.17143 55.24758
# Shear Modulus (GPa) = 28.55148 32.42488 30.48818
#
# Velocity S-wave (km/s) = 3.80706 4.05708 3.93406
# Velocity P-wave (km/s) = 6.54525 7.38391 6.97719
#
# Compressibility (1/GPa) = 0.02158721
#
# Stress axis : x y z
#
# Youngs Moduli (GPa) = 117.70017 54.77855 87.32315
#
# Poissons Ratio (x) = 0.18211 0.26224
# Poissons Ratio (y) = 0.39128 0.17294
# Poissons Ratio (z) = 0.35346 0.10849
#
# Static dielectric constant tensor:
#      x y z
#    x 7.095920 0.793790 -1.444490 
#    y 0.793790 3.984730 -0.547780 
#    z -1.444490 -0.547780 4.230850 
# 
# 
# High freq. dielectric constant tensor:
#      x y z
#    x 1.767930 0.000920 -0.014330 
#    y 0.000920 1.763590 -0.007250 
#    z -0.014330 -0.007250 1.775980 
# 
# From -- ./inp_files/321006.got.cif
#   From: 2010.06.25/outbox.cif.g09.slc.cpg/sg2_161_cif.got.tgz:321006.got - 2010.06.27 13:26:56.
