data_PCOD8005815
_publ_section_title
;
Structure prediction by ZEFSAII (Michael W. Deem and Ramdas Pophale) SiO2 
 PCOD8005815
Probable space group: P -1
;
_chemical_formula_sum "Si O2"
_cell_formula_units_Z 12
_cell_length_a 14.822788
_cell_length_b 8.375750
_cell_length_c 12.012439
_cell_angle_alpha 79.023122
_cell_angle_beta 28.561958
_cell_angle_gamma 96.434624
_cell_volume 562.557142
_symmetry_space_group_name_H-M "P -1"
_symmetry_group_IT_number 2
_symmetry_cell_setting 'triclinic'
loop_
_space_group_symop_operation_xyz
x,y,z
-x,-y,-z
loop_
_atom_site_type_symbol
_atom_site_label
_atom_site_fract_x
_atom_site_fract_y
_atom_site_fract_z
Si Si1 0.808448 0.205914 0.693139
Si Si2 0.348642 0.966990 0.340160
Si Si3 0.261529 0.456320 0.307627
Si Si4 0.711472 0.901524 0.265964
Si Si5 0.821656 0.821395 0.378717
Si Si6 0.225759 0.731046 0.719360
O O1 0.800323 0.097440 0.603580
O O2 0.733564 0.348107 0.717035
O O3 0.062567 0.306956 0.454299
O O4 0.617091 0.053281 0.012114
O O5 0.245623 0.783163 0.561215
O O6 0.340550 0.140926 0.379283
O O7 0.197149 0.361363 0.514626
O O8 0.500000 0.500000 0.000000
O O9 0.723502 0.766789 0.365395
O O10 0.457338 0.755442 0.506219
O O11 0.783967 0.112026 0.215309
O O12 0.907920 0.975869 0.947453
O O13 0.000000 0.500000 0.000000
#
# Coordination Sequence:
#
# PCOD8005815 Si02
#       6
#     2   2   2   2   2   2
#     4  10  23  40  61  87 126 158 200 253 299 362
#     4  10  21  41  59  88 123 158 200 253 306 357
#     4  11  22  39  62  91 118 162 206 243 305 366
#     4   9  21  40  61  87 124 161 199 257 306 361
#     4  10  20  39  63  85 123 161 202 250 310 359
#     4  10  21  38  63  90 119 162 206 248 311 365
#
# _framework density 21.331167000000001
#
# number of rings (size 3 to 8) (size 9 to 14) (size 15 to 20)
#    0.000    2.000    1.667    1.000    2.333    2.000 
#    3.000    7.500    0.000    0.000    0.000    0.000 
#    0.000    0.000    0.000    0.000    0.000    0.000 
#
# Total GULP energy -148744.511954 kJ/mol
# GULP energy per Si atom -12395.375996 kJ/mol
# Density = 2.128262 g / cm^3
# Si number density = 21.331167 Si / 1000 Ang^3
#
#
#
# Elastic Constant Matrix: (Units=GPa)
#
#
# Indices 1 2 3 4 5 6 
#
# 1 82.9270 20.6650 62.4598 -2.8760 -2.7515 -17.4031
# 2 20.6650 25.0626 23.2277 -8.6263 4.0893 -4.8090
# 3 62.4598 23.2277 129.4363 -5.7425 0.8366 -2.7687
# 4 -2.8760 -8.6263 -5.7425 34.9567 -3.6307 3.0207
# 5 -2.7515 4.0893 0.8366 -3.6307 52.3249 -4.7159
# 6 -17.4031 -4.8090 -2.7687 3.0207 -4.7159 35.5953
#
#
#
# Elastic Compliance Matrix: (Units=1/GPa)
#
#
# Indices 1 2 3 4 5 6 
#
# 1 0.024089 -0.010341 -0.009690 -0.002740 0.002964 0.010252
# 2 -0.010341 0.057895 -0.004816 0.012151 -0.004074 0.000820
# 3 -0.009690 -0.004816 0.013196 0.000497 -0.000715 -0.004499
# 4 -0.002740 0.012151 0.000497 0.031748 0.000900 -0.002234
# 5 0.002964 -0.004074 -0.000715 0.000900 0.019967 0.003412
# 6 0.010252 0.000820 -0.004499 -0.002234 0.003412 0.033508
#
#
# Mechanical properties :
#
#
# Convention : Reuss Voigt Hill
#
# Bulk Modulus (GPa) = 21.98508 50.01454 35.99981
# Shear Modulus (GPa) = 20.38661 33.31360 26.85011
#
# Velocity S-wave (km/s) = 3.09483 3.95616 3.55170
# Velocity P-wave (km/s) = 4.80620 6.66077 5.80799
#
# Compressibility (1/GPa) = 0.04548538
#
# Stress axis : x y z
#
# Youngs Moduli (GPa) = 41.51320 17.27277 75.77853
#
# Poissons Ratio (x) = 0.17862 0.73428
# Poissons Ratio (y) = 0.42929 0.36497
# Poissons Ratio (z) = 0.40225 0.08319
#
# Static dielectric constant tensor:
#      x y z
#    x 3.991960 -0.175920 0.140040 
#    y -0.175920 3.647950 0.072790 
#    z 0.140040 0.072790 3.981650 
# 
# 
# High freq. dielectric constant tensor:
#      x y z
#    x 1.844360 -0.013480 0.008810 
#    y -0.013480 1.810950 0.007700 
#    z 0.008810 0.007700 1.850550 
# 
# From -- ./inp_files/396879.got.cif
#   From: 2010.06.25/outbox.cif.g09.slc.cpg/sg2_199_cif.got.tgz:396879.got - 2010.06.27 13:26:56.
