data_PCOD8005664
_publ_section_title
;
Structure prediction by ZEFSAII (Michael W. Deem and Ramdas Pophale) SiO2 
 PCOD8005664
Probable space group: P -1
;
_chemical_formula_sum "Si O2"
_cell_formula_units_Z 14
_cell_length_a 11.174042
_cell_length_b 10.138988
_cell_length_c 12.564213
_cell_angle_alpha 94.769258
_cell_angle_beta 156.527036
_cell_angle_gamma 89.531027
_cell_volume 556.645573
_symmetry_space_group_name_H-M "P -1"
_symmetry_group_IT_number 2
_symmetry_cell_setting 'triclinic'
loop_
_space_group_symop_operation_xyz
x,y,z
-x,-y,-z
loop_
_atom_site_type_symbol
_atom_site_label
_atom_site_fract_x
_atom_site_fract_y
_atom_site_fract_z
Si Si1 0.331480 0.369837 0.591393
Si Si2 0.627946 0.137165 0.780345
Si Si3 0.874914 0.701910 0.922224
Si Si4 0.390796 0.844596 0.616700
Si Si5 0.776705 0.172913 0.151638
Si Si6 0.745738 0.874570 0.126644
Si Si7 0.007945 0.500952 0.839520
O O1 0.411381 0.244771 0.576831
O O2 0.643750 0.435879 0.910087
O O3 0.040231 0.295019 0.416548
O O4 0.224803 0.491688 0.446598
O O5 0.746219 0.174851 0.999355
O O6 0.449342 0.986768 0.611529
O O7 0.907979 0.159952 0.926448
O O8 0.533832 0.734285 0.659296
O O9 0.992006 0.649266 0.127086
O O10 0.879180 0.586631 0.832132
O O11 0.030134 0.797494 0.336719
O O12 0.543520 0.864414 0.856704
O O13 0.456054 0.193036 0.943986
O O14 0.865106 0.033162 0.257570
#
# Coordination Sequence:
#
# PCOD8005664 Si02
#       7
#     2   2   2   2   2   2   2
#     4  11  19  38  60  90 116 145 201 249 281 340
#     4  10  21  37  61  95 115 157 186 250 296 348
#     4  10  22  42  59  89 121 155 197 243 288 360
#     4  11  23  39  58  90 126 154 187 239 307 353
#     4  10  20  39  61  89 122 149 204 239 283 353
#     4  10  24  36  61  88 121 161 188 237 298 351
#     4  10  24  37  61  88 113 162 201 235 291 338
#
# _framework density 25.150652999999998
#
# number of rings (size 3 to 8) (size 9 to 14) (size 15 to 20)
#    0.000    1.714    4.286    0.429    2.000   10.286 
#    0.000    2.857    0.000    5.143    0.000    0.000 
#    0.000    0.000    0.000    0.000    0.000    0.000 
#
# Total GULP energy -173493.443724 kJ/mol
# GULP energy per Si atom -12392.388837 kJ/mol
# Density = 2.509341 g / cm^3
# Si number density = 25.150653 Si / 1000 Ang^3
#
#
#
# Elastic Constant Matrix: (Units=GPa)
#
#
# Indices 1 2 3 4 5 6 
#
# 1 54.9416 31.6191 49.5161 3.8569 37.6436 14.0012
# 2 31.6191 65.4633 40.7058 -4.1898 23.7110 20.3547
# 3 49.5161 40.7058 142.1493 -27.4563 30.2922 8.9375
# 4 3.8569 -4.1898 -27.4563 30.3954 -1.2995 -1.2749
# 5 37.6436 23.7110 30.2922 -1.2995 44.9333 3.7164
# 6 14.0012 20.3547 8.9375 -1.2749 3.7164 21.9396
#
#
#
# Elastic Compliance Matrix: (Units=1/GPa)
#
#
# Indices 1 2 3 4 5 6 
#
# 1 0.099554 0.004562 -0.027144 -0.041309 -0.064723 -0.048143
# 2 0.004562 0.029535 -0.006401 -0.003928 -0.013078 -0.025718
# 3 -0.027144 -0.006401 0.018607 0.020539 0.012954 0.014681
# 4 -0.041309 -0.003928 0.020539 0.058014 0.022762 0.021155
# 5 -0.064723 -0.013078 0.012954 0.022762 0.072224 0.037249
# 6 -0.048143 -0.025718 0.014681 0.021155 0.037249 0.089102
#
#
# Mechanical properties :
#
#
# Convention : Reuss Voigt Hill
#
# Bulk Modulus (GPa) = 11.14476 56.24848 33.69662
# Shear Modulus (GPa) = 10.99117 28.83453 19.91285
#
# Velocity S-wave (km/s) = 2.09275 3.38963 2.81685
# Velocity P-wave (km/s) = 3.20629 6.14269 4.89964
#
# Compressibility (1/GPa) = 0.08972824
#
# Stress axis : x y z
#
# Youngs Moduli (GPa) = 10.04485 33.85851 53.74364
#
# Poissons Ratio (x) = -0.15446 1.45882
# Poissons Ratio (y) = -0.04583 0.34404
# Poissons Ratio (z) = 0.27266 0.21674
#
# Static dielectric constant tensor:
#      x y z
#    x 4.150710 0.398040 0.362750 
#    y 0.398040 4.732320 -0.123850 
#    z 0.362750 -0.123850 4.679240 
# 
# 
# High freq. dielectric constant tensor:
#      x y z
#    x 1.955260 0.027690 0.020260 
#    y 0.027690 2.001550 -0.005830 
#    z 0.020260 -0.005830 2.016730 
# 
# From -- ./inp_files/92832.got.cif
#   From: 2010.06.25/outbox.cif.g09.slc.cpg/sg2_47_cif.got.tgz:92832.got - 2010.06.27 13:26:56.
