data_PCOD8005780
_publ_section_title
;
Structure prediction by ZEFSAII (Michael W. Deem and Ramdas Pophale) SiO2 
 PCOD8005780
Probable space group: P -1
;
_chemical_formula_sum "Si O2"
_cell_formula_units_Z 14
_cell_length_a 12.784999
_cell_length_b 14.384435
_cell_length_c 11.874099
_cell_angle_alpha 128.714352
_cell_angle_beta 146.109126
_cell_angle_gamma 31.645090
_cell_volume 613.728866
_symmetry_space_group_name_H-M "P -1"
_symmetry_group_IT_number 2
_symmetry_cell_setting 'triclinic'
loop_
_space_group_symop_operation_xyz
x,y,z
-x,-y,-z
loop_
_atom_site_type_symbol
_atom_site_label
_atom_site_fract_x
_atom_site_fract_y
_atom_site_fract_z
Si Si1 0.407911 0.088872 0.863765
Si Si2 0.724464 0.683633 0.537236
Si Si3 0.363699 0.701042 0.601221
Si Si4 0.204226 0.058949 0.446411
Si Si5 0.776620 0.446490 0.239279
Si Si6 0.913352 0.992229 0.241510
Si Si7 0.192091 0.526828 0.347440
O O1 0.304210 0.034916 0.646477
O O2 0.153854 0.307211 0.824748
O O3 0.688077 0.011523 0.995016
O O4 0.500000 0.000000 0.000000
O O5 0.665283 0.617612 0.334545
O O6 0.693034 0.630486 0.586382
O O7 0.037314 0.597456 0.735495
O O8 0.471956 0.906960 0.484780
O O9 0.288555 0.843969 0.723687
O O10 0.314501 0.599535 0.544610
O O11 0.693887 0.555730 0.740258
O O12 0.164508 0.798978 0.384192
O O13 0.003324 0.264385 0.381563
O O14 0.024132 0.023774 0.265490
O O15 0.500000 0.500000 0.000000
#
# Coordination Sequence:
#
# PCOD8005780 Si02
#       7
#     2   2   2   2   2   2   2
#     4  12  24  40  64 100 141 185 225 268 331 409
#     4  11  25  47  73 100 138 179 224 291 352 394
#     4  10  20  39  62  93 138 186 226 277 321 401
#     4  12  25  47  69 101 144 176 225 289 337 402
#     4  11  27  49  75 102 130 172 239 293 346 408
#     4  11  21  38  65  91 134 185 225 265 339 397
#     4  11  21  40  63  95 140 179 225 278 328 400
#
# _framework density 22.811377
#
# number of rings (size 3 to 8) (size 9 to 14) (size 15 to 20)
#    0.000    0.857    5.714    1.286    2.000    2.286 
#    0.000    0.000    0.000    0.000    0.000    0.000 
#    0.000    0.000    0.000    0.000    0.000    0.000 
#
# Total GULP energy -173557.894499 kJ/mol
# GULP energy per Si atom -12396.992464 kJ/mol
# Density = 2.275946 g / cm^3
# Si number density = 22.811377 Si / 1000 Ang^3
#
#
#
# Elastic Constant Matrix: (Units=GPa)
#
#
# Indices 1 2 3 4 5 6 
#
# 1 113.5244 21.6986 34.6211 3.1154 21.5007 4.6588
# 2 21.6986 97.1850 28.1527 -12.6731 0.0911 -15.5677
# 3 34.6211 28.1527 89.7083 0.6644 20.7931 -5.2076
# 4 3.1154 -12.6731 0.6644 22.9937 2.9359 7.0998
# 5 21.5007 0.0911 20.7931 2.9359 39.7836 -3.6161
# 6 4.6588 -15.5677 -5.2076 7.0998 -3.6161 42.7642
#
#
#
# Elastic Compliance Matrix: (Units=1/GPa)
#
#
# Indices 1 2 3 4 5 6 
#
# 1 0.011080 -0.002296 -0.002589 -0.001297 -0.004765 -0.002546
# 2 -0.002296 0.013339 -0.003843 0.006180 0.003115 0.003876
# 3 -0.002589 -0.003843 0.014822 -0.001535 -0.006187 0.000420
# 4 -0.001297 0.006180 -0.001535 0.049386 -0.002721 -0.006225
# 5 -0.004765 0.003115 -0.006187 -0.002721 0.031504 0.004015
# 6 -0.002546 0.003876 0.000420 -0.006225 0.004015 0.026496
#
#
# Mechanical properties :
#
#
# Convention : Reuss Voigt Hill
#
# Bulk Modulus (GPa) = 45.90322 52.15141 49.02731
# Shear Modulus (GPa) = 29.18081 35.50465 32.34273
#
# Velocity S-wave (km/s) = 3.58050 3.94946 3.76950
# Velocity P-wave (km/s) = 6.10409 6.61130 6.36275
#
# Compressibility (1/GPa) = 0.02178497
#
# Stress axis : x y z
#
# Youngs Moduli (GPa) = 90.25504 74.96643 67.46589
#
# Poissons Ratio (x) = 0.17215 0.17467
# Poissons Ratio (y) = 0.20725 0.25926
# Poissons Ratio (z) = 0.23367 0.28808
#
# Static dielectric constant tensor:
#      x y z
#    x 4.182180 0.068170 0.503700 
#    y 0.068170 4.394970 0.058990 
#    z 0.503700 0.058990 4.376530 
# 
# 
# High freq. dielectric constant tensor:
#      x y z
#    x 1.906800 0.001240 0.031180 
#    y 0.001240 1.913830 -0.013900 
#    z 0.031180 -0.013900 1.869290 
# 
# From -- ./inp_files/433024.got.cif
#   From: 2010.06.25/outbox.cif.g09.slc.cpg/sg2_217_cif.got.tgz:433024.got - 2010.06.27 13:26:56.
