data_PCOD8005792
_publ_section_title
;
Structure prediction by ZEFSAII (Michael W. Deem and Ramdas Pophale) SiO2 
 PCOD8005792
Probable space group: P -1
;
_chemical_formula_sum "Si O2"
_cell_formula_units_Z 16
_cell_length_a 8.834991
_cell_length_b 16.455972
_cell_length_c 12.120993
_cell_angle_alpha 31.639108
_cell_angle_beta 124.281510
_cell_angle_gamma 130.656629
_cell_volume 701.127305
_symmetry_space_group_name_H-M "P -1"
_symmetry_group_IT_number 2
_symmetry_cell_setting 'triclinic'
loop_
_space_group_symop_operation_xyz
x,y,z
-x,-y,-z
loop_
_atom_site_type_symbol
_atom_site_label
_atom_site_fract_x
_atom_site_fract_y
_atom_site_fract_z
Si Si1 0.840367 0.322353 0.600839
Si Si2 0.031720 0.187199 0.003557
Si Si3 0.740206 0.208816 0.370814
Si Si4 0.396603 0.104395 0.189363
Si Si5 0.554674 0.658203 0.502193
Si Si6 0.016170 0.493961 0.753747
Si Si7 0.048038 0.084150 0.542118
Si Si8 0.548676 0.321781 0.803212
O O1 0.617722 0.309749 0.540971
O O2 0.906814 0.332272 0.489241
O O3 0.000000 0.500000 0.500000
O O4 0.875375 0.177319 0.852885
O O5 0.213677 0.161044 0.052519
O O6 0.109122 0.366102 0.893842
O O7 0.918619 0.044831 0.210436
O O8 0.549453 0.205422 0.230657
O O9 0.877914 0.410342 0.202275
O O10 0.854629 0.119484 0.449345
O O11 0.668191 0.096200 0.584861
O O12 0.495071 0.154592 0.049787
O O13 0.752664 0.745887 0.556983
O O14 0.502449 0.458573 0.699478
O O15 0.579414 0.727996 0.304987
O O16 0.780070 0.398214 0.775051
O O17 0.000000 0.000000 0.500000
#
# Coordination Sequence:
#
# PCOD8005792 Si02
#       8
#     2   2   2   2   2   2   2   2
#     4  10  20  39  62  95 135 164 211 276 333 386
#     4  10  23  42  62  98 133 173 219 270 329 394
#     4  10  24  46  64  95 131 180 223 269 329 391
#     4  10  24  42  67  91 138 174 219 272 326 397
#     4  11  23  40  67 101 132 175 216 273 337 389
#     4  11  22  41  70  95 133 171 218 278 327 389
#     4  11  26  44  66  94 141 174 221 272 330 393
#     4  11  22  39  71 101 128 167 229 272 328 385
#
# _framework density 22.82039
#
# number of rings (size 3 to 8) (size 9 to 14) (size 15 to 20)
#    0.000    1.500    3.750    1.500    3.500    6.500 
#    0.000    2.500    0.000    0.000    0.000    0.000 
#    0.000    0.000    0.000    0.000    0.000    0.000 
#
# Total GULP energy -198256.874539 kJ/mol
# GULP energy per Si atom -12391.054659 kJ/mol
# Density = 2.276845 g / cm^3
# Si number density = 22.820390 Si / 1000 Ang^3
#
#
#
# Elastic Constant Matrix: (Units=GPa)
#
#
# Indices 1 2 3 4 5 6 
#
# 1 95.7842 12.0922 29.8768 8.5204 -12.9996 14.7437
# 2 12.0922 93.4282 -8.1706 -2.8626 0.1442 8.4225
# 3 29.8768 -8.1706 67.0614 8.0004 -11.8256 6.5305
# 4 8.5204 -2.8626 8.0004 12.8578 1.5164 10.7034
# 5 -12.9996 0.1442 -11.8256 1.5164 33.1289 5.6859
# 6 14.7437 8.4225 6.5305 10.7034 5.6859 23.0265
#
#
#
# Elastic Compliance Matrix: (Units=1/GPa)
#
#
# Indices 1 2 3 4 5 6 
#
# 1 0.014126 -0.001524 -0.004672 -0.000596 0.005316 -0.008198
# 2 -0.001524 0.012173 0.002078 0.009647 0.001166 -0.008838
# 3 -0.004672 0.002078 0.019311 -0.008595 0.005551 -0.000620
# 4 -0.000596 0.009647 -0.008595 0.140933 0.001640 -0.066625
# 5 0.005316 0.001166 0.005551 0.001640 0.036790 -0.015251
# 6 -0.008198 -0.008838 -0.000620 -0.066625 -0.015251 0.086821
#
#
# Mechanical properties :
#
#
# Convention : Reuss Voigt Hill
#
# Bulk Modulus (GPa) = 26.75801 35.98564 31.37183
# Shear Modulus (GPa) = 15.11256 28.63432 21.87344
#
# Velocity S-wave (km/s) = 2.57619 3.54611 3.09933
# Velocity P-wave (km/s) = 4.53872 5.70700 5.15606
#
# Compressibility (1/GPa) = 0.03737198
#
# Stress axis : x y z
#
# Youngs Moduli (GPa) = 70.78959 82.14964 51.78385
#
# Poissons Ratio (x) = 0.12522 0.24195
# Poissons Ratio (y) = 0.10791 -0.10758
# Poissons Ratio (z) = 0.33075 -0.17067
#
# Static dielectric constant tensor:
#      x y z
#    x 2.842010 1.187690 0.946580 
#    y 1.187690 2.814220 -1.065990 
#    z 0.946580 -1.065990 3.347780 
# 
# 
# High freq. dielectric constant tensor:
#      x y z
#    x 1.899870 0.003930 -0.004860 
#    y 0.003930 1.900930 0.001790 
#    z -0.004860 0.001790 1.898250 
# 
# From -- ./inp_files/402737.got.cif
#   From: 2010.06.25/outbox.cif.g09.slc.cpg/sg2_202_cif.got.tgz:402737.got - 2010.06.27 13:26:56.
