data_PCOD8005476
_publ_section_title
;
Structure prediction by ZEFSAII (Michael W. Deem and Ramdas Pophale) SiO2 
 PCOD8005476
Probable space group: P -1
;
_chemical_formula_sum "Si O2"
_cell_formula_units_Z 12
_cell_length_a 6.500024
_cell_length_b 24.010760
_cell_length_c 5.185154
_cell_angle_alpha 53.648545
_cell_angle_beta 78.965134
_cell_angle_gamma 57.738906
_cell_volume 541.789872
_symmetry_space_group_name_H-M "P -1"
_symmetry_group_IT_number 2
_symmetry_cell_setting 'triclinic'
loop_
_space_group_symop_operation_xyz
x,y,z
-x,-y,-z
loop_
_atom_site_type_symbol
_atom_site_label
_atom_site_fract_x
_atom_site_fract_y
_atom_site_fract_z
Si Si1 0.241302 0.596014 0.486930
Si Si2 0.258413 0.446718 0.726828
Si Si3 0.449810 0.834937 0.557164
Si Si4 0.690012 0.008251 0.594173
Si Si5 0.175182 0.882283 0.983659
Si Si6 0.920579 0.667079 0.852954
O O1 0.285415 0.505201 0.765183
O O2 0.504359 0.589278 0.421209
O O3 0.105119 0.650120 0.619880
O O4 0.078182 0.635776 0.161643
O O5 0.000000 0.500000 0.500000
O O6 0.244284 0.372929 0.058354
O O7 0.440067 0.920421 0.352150
O O8 0.335383 0.819381 0.885551
O O9 0.733786 0.763824 0.649458
O O10 0.284581 0.837709 0.349650
O O11 0.818976 0.034945 0.274423
O O12 0.500000 0.000000 0.500000
O O13 0.881326 0.919352 0.921517
#
# Coordination Sequence:
#
# PCOD8005476 Si02
#       6
#     2   2   2   2   2   2
#     4  10  22  39  62  91 119 158 206 247 286 372
#     4   9  21  40  65  88 119 161 204 242 301 353
#     4  10  20  39  57  83 124 154 192 254 301 352
#     4   9  20  37  62  82 112 155 205 242 296 353
#     4   9  20  38  57  83 114 151 202 247 290 358
#     4  11  22  39  61  88 129 156 197 249 310 349
#
# _framework density 22.148810000000001
#
# number of rings (size 3 to 8) (size 9 to 14) (size 15 to 20)
#    1.000    1.333    0.000    2.000    0.000    9.333 
#    3.000    0.000    0.000    0.000    0.000    0.000 
#    0.000    0.000    0.000    0.000    0.000    0.000 
#
# Total GULP energy -148679.302505 kJ/mol
# GULP energy per Si atom -12389.941875 kJ/mol
# Density = 2.209840 g / cm^3
# Si number density = 22.148810 Si / 1000 Ang^3
#
#
#
# Elastic Constant Matrix: (Units=GPa)
#
#
# Indices 1 2 3 4 5 6 
#
# 1 114.0278 41.1620 36.5120 3.1359 17.2079 -25.2797
# 2 41.1620 162.8989 50.9981 10.8677 14.6278 -33.9481
# 3 36.5120 50.9981 76.6765 18.7351 28.1642 -5.9169
# 4 3.1359 10.8677 18.7351 33.7806 0.0857 9.5954
# 5 17.2079 14.6278 28.1642 0.0857 28.7529 2.7220
# 6 -25.2797 -33.9481 -5.9169 9.5954 2.7220 27.2875
#
#
#
# Elastic Compliance Matrix: (Units=1/GPa)
#
#
# Indices 1 2 3 4 5 6 
#
# 1 0.014362 0.002114 -0.001574 -0.006471 -0.009895 0.018856
# 2 0.002114 0.011569 -0.003430 -0.007324 -0.005543 0.018736
# 3 -0.001574 -0.003430 0.033475 -0.020615 -0.031167 0.011891
# 4 -0.006471 -0.007324 -0.020615 0.055959 0.031640 -0.042410
# 5 -0.009895 -0.005543 -0.031167 0.031640 0.077905 -0.041717
# 6 0.018856 0.018736 0.011891 -0.042410 -0.041717 0.099078
#
#
# Mechanical properties :
#
#
# Convention : Reuss Voigt Hill
#
# Bulk Modulus (GPa) = 18.64777 67.88306 43.26541
# Shear Modulus (GPa) = 15.82247 32.95961 24.39104
#
# Velocity S-wave (km/s) = 2.67567 3.86177 3.32209
# Velocity P-wave (km/s) = 4.24066 7.11334 5.85588
#
# Compressibility (1/GPa) = 0.05362572
#
# Stress axis : x y z
#
# Youngs Moduli (GPa) = 69.62577 86.43420 29.87261
#
# Poissons Ratio (x) = -0.18269 0.04703
# Poissons Ratio (y) = -0.14716 0.10247
# Poissons Ratio (z) = 0.10961 0.29649
#
# Static dielectric constant tensor:
#      x y z
#    x 4.160370 -0.248540 -0.000140 
#    y -0.248540 4.258550 -0.121420 
#    z -0.000140 -0.121420 3.741990 
# 
# 
# High freq. dielectric constant tensor:
#      x y z
#    x 1.865780 -0.016560 0.019940 
#    y -0.016560 1.870770 0.002080 
#    z 0.019940 0.002080 1.846200 
# 
# From -- ./inp_files/13818.got.cif
#   From: 2010.06.25/outbox.cif.g09.slc.cpg/sg2_7_cif.got.tgz:13818.got - 2010.06.27 13:26:56.
