data_PCOD8005430
_publ_section_title
;
Structure prediction by ZEFSAII (Michael W. Deem and Ramdas Pophale) SiO2 
 PCOD8005430
Probable space group: P -1
;
_chemical_formula_sum "Si O2"
_cell_formula_units_Z 16
_cell_length_a 12.381799
_cell_length_b 21.372173
_cell_length_c 18.914670
_cell_angle_alpha 160.585503
_cell_angle_beta 28.265960
_cell_angle_gamma 141.331076
_cell_volume 747.251252
_symmetry_space_group_name_H-M "P -1"
_symmetry_group_IT_number 2
_symmetry_cell_setting 'triclinic'
loop_
_space_group_symop_operation_xyz
x,y,z
-x,-y,-z
loop_
_atom_site_type_symbol
_atom_site_label
_atom_site_fract_x
_atom_site_fract_y
_atom_site_fract_z
Si Si1 0.964612 0.788057 0.225180
Si Si2 0.047762 0.356141 0.653099
Si Si3 0.471246 0.487531 0.920498
Si Si4 0.736401 0.931007 0.651067
Si Si5 0.869574 0.882859 0.125140
Si Si6 0.391958 0.085873 0.546096
Si Si7 0.029654 0.508363 0.409552
Si Si8 0.191624 0.160944 0.218475
O O1 0.855518 0.780490 0.358024
O O2 0.759073 0.954315 0.475938
O O3 0.191859 0.868235 0.182856
O O4 0.051198 0.570926 0.907546
O O5 0.179249 0.183444 0.446808
O O6 0.183811 0.302824 0.442020
O O7 0.775211 0.352860 0.795112
O O8 0.466279 0.271746 0.674294
O O9 0.688185 0.533628 0.807389
O O10 0.500000 0.500000 0.000000
O O11 0.448534 0.996501 0.884996
O O12 0.791734 0.862611 0.227985
O O13 0.636713 0.917229 0.244958
O O14 0.048214 0.669505 0.770902
O O15 0.991800 0.052330 0.228346
O O16 0.000000 0.500000 0.500000
O O17 0.870850 0.712479 0.682739
#
# Coordination Sequence:
#
# PCOD8005430 Si02
#       8
#     2   2   2   2   2   2   2   2
#     4  10  24  43  66  95 130 179 234 274 335 395
#     4  11  23  42  73  96 126 178 234 277 329 402
#     4  11  19  42  68  97 134 169 229 278 329 405
#     4  11  26  43  66  96 138 180 223 279 338 406
#     4  11  23  39  68  99 134 174 224 272 349 399
#     4  10  20  38  69  97 125 173 227 282 320 405
#     4  12  27  40  63 102 140 179 216 280 349 402
#     4  12  26  45  65 102 143 174 225 283 342 409
#
# _framework density 21.411809000000002
#
# number of rings (size 3 to 8) (size 9 to 14) (size 15 to 20)
#    0.000    1.000    3.750    2.250    5.250    5.000 
#    0.000    0.000    0.000    0.000    0.000    0.000 
#    0.000    0.000    0.000    0.000    0.000    0.000 
#
# Total GULP energy -198377.276584 kJ/mol
# GULP energy per Si atom -12398.579787 kJ/mol
# Density = 2.136307 g / cm^3
# Si number density = 21.411809 Si / 1000 Ang^3
#
#
#
# Elastic Constant Matrix: (Units=GPa)
#
#
# Indices 1 2 3 4 5 6 
#
# 1 108.7417 47.3257 34.8629 -4.4497 -8.9783 -16.7239
# 2 47.3257 84.8112 48.4859 -2.5051 13.0349 -17.5713
# 3 34.8629 48.4859 88.3566 3.3824 -1.1147 -3.7849
# 4 -4.4497 -2.5051 3.3824 30.9456 0.5123 -0.9495
# 5 -8.9783 13.0349 -1.1147 0.5123 39.8090 1.8519
# 6 -16.7239 -17.5713 -3.7849 -0.9495 1.8519 34.1687
#
#
#
# Elastic Compliance Matrix: (Units=1/GPa)
#
#
# Indices 1 2 3 4 5 6 
#
# 1 0.013580 -0.006960 -0.001418 0.001541 0.005158 0.002674
# 2 -0.006960 0.025752 -0.011231 0.002774 -0.010782 0.009253
# 3 -0.001418 -0.011231 0.018013 -0.003297 0.004127 -0.004789
# 4 0.001541 0.002774 -0.003297 0.033227 -0.001211 0.002804
# 5 0.005158 -0.010782 0.004127 -0.001211 0.030142 -0.004231
# 6 0.002674 0.009253 -0.004789 0.002804 -0.004231 0.035110
#
#
# Mechanical properties :
#
#
# Convention : Reuss Voigt Hill
#
# Bulk Modulus (GPa) = 55.16781 60.36203 57.76492
# Shear Modulus (GPa) = 24.86502 31.06699 27.96601
#
# Velocity S-wave (km/s) = 3.41145 3.81324 3.61792
# Velocity P-wave (km/s) = 6.42949 6.90217 6.67002
#
# Compressibility (1/GPa) = 0.01812651
#
# Stress axis : x y z
#
# Youngs Moduli (GPa) = 73.63691 38.83239 55.51441
#
# Poissons Ratio (x) = 0.27029 0.07873
# Poissons Ratio (y) = 0.51255 0.62347
# Poissons Ratio (z) = 0.10443 0.43612
#
# Static dielectric constant tensor:
#      x y z
#    x 3.883060 -0.166460 -0.103850 
#    y -0.166460 3.645840 -0.001320 
#    z -0.103850 -0.001320 3.747290 
# 
# 
# High freq. dielectric constant tensor:
#      x y z
#    x 1.850640 -0.003620 -0.002820 
#    y -0.003620 1.840690 0.009410 
#    z -0.002820 0.009410 1.832820 
# 
# From -- ./inp_files/398073.got.cif
#   From: 2010.06.25/outbox.cif.g09.slc.cpg/sg2_200_cif.got.tgz:398073.got - 2010.06.27 13:26:56.
