data_PCOD8005597
_publ_section_title
;
Structure prediction by ZEFSAII (Michael W. Deem and Ramdas Pophale) SiO2 
 PCOD8005597
Probable space group: P -1
;
_chemical_formula_sum "Si O2"
_cell_formula_units_Z 16
_cell_length_a 14.711221
_cell_length_b 9.217193
_cell_length_c 15.282820
_cell_angle_alpha 89.225028
_cell_angle_beta 150.877198
_cell_angle_gamma 72.116498
_cell_volume 761.750009
_symmetry_space_group_name_H-M "P -1"
_symmetry_group_IT_number 2
_symmetry_cell_setting 'triclinic'
loop_
_space_group_symop_operation_xyz
x,y,z
-x,-y,-z
loop_
_atom_site_type_symbol
_atom_site_label
_atom_site_fract_x
_atom_site_fract_y
_atom_site_fract_z
Si Si1 0.916182 0.109127 0.796669
Si Si2 0.780908 0.917909 0.800138
Si Si3 0.906059 0.346677 0.240230
Si Si4 0.752489 0.737844 0.626781
Si Si5 0.321041 0.149532 0.726566
Si Si6 0.227254 0.266126 0.844002
Si Si7 0.740634 0.443930 0.536012
Si Si8 0.377229 0.740230 0.091904
O O1 0.774922 0.044429 0.718334
O O2 0.728330 0.296910 0.577164
O O3 0.002442 0.169930 0.947832
O O4 0.147758 0.944940 0.934722
O O5 0.517321 0.059552 0.626143
O O6 0.819921 0.745574 0.783711
O O7 0.758805 0.567582 0.138360
O O8 0.052336 0.288129 0.273245
O O9 0.094607 0.208115 0.477023
O O10 0.708858 0.317794 0.060599
O O11 0.751217 0.565707 0.616171
O O12 0.220048 0.221632 0.738119
O O13 0.414415 0.255753 0.766972
O O14 0.535305 0.920184 0.905481
O O15 0.982886 0.325469 0.680919
O O16 0.496245 0.582234 0.270196
#
# Coordination Sequence:
#
# PCOD8005597 Si02
#       8
#     2   2   2   2   2   2   2   2
#     4  11  22  40  62  88 123 165 206 258 311 361
#     4  10  21  39  63  86 123 161 211 256 309 362
#     4  11  23  41  66  93 128 165 208 252 315 369
#     4  10  20  39  60  90 120 163 206 257 304 365
#     4  11  22  44  68  90 130 162 207 256 312 366
#     4  10  23  42  65  97 122 166 207 257 306 375
#     4  11  23  40  64  90 127 164 207 252 316 366
#     4  12  23  41  65  93 128 167 205 255 314 370
#
# _framework density 21.004265
#
# number of rings (size 3 to 8) (size 9 to 14) (size 15 to 20)
#    0.000    1.250    6.250    0.375    0.000    2.500 
#    0.000    2.500    0.000    0.000    0.000    0.000 
#    0.000    0.000    0.000    0.000    0.000    0.000 
#
# Total GULP energy -198447.065244 kJ/mol
# GULP energy per Si atom -12402.941578 kJ/mol
# Density = 2.095646 g / cm^3
# Si number density = 21.004265 Si / 1000 Ang^3
#
#
#
# Elastic Constant Matrix: (Units=GPa)
#
#
# Indices 1 2 3 4 5 6 
#
# 1 29.4429 24.8378 17.3136 -11.4857 -6.6878 -3.4835
# 2 24.8378 89.0130 59.0191 -0.5543 -10.2625 -12.0617
# 3 17.3136 59.0191 104.2983 -0.9286 -23.3998 8.5896
# 4 -11.4857 -0.5543 -0.9286 39.6990 4.0577 3.2464
# 5 -6.6878 -10.2625 -23.3998 4.0577 29.9356 -10.3583
# 6 -3.4835 -12.0617 8.5896 3.2464 -10.3583 26.0740
#
#
#
# Elastic Compliance Matrix: (Units=1/GPa)
#
#
# Indices 1 2 3 4 5 6 
#
# 1 0.052611 -0.014337 0.000729 0.014409 0.005668 0.000614
# 2 -0.014337 0.026736 -0.013786 -0.005595 0.001593 0.016324
# 3 0.000729 -0.013786 0.019742 0.000540 0.007360 -0.009927
# 4 0.014409 -0.005595 0.000540 0.030291 -0.004613 -0.006445
# 5 0.005668 0.001593 0.007360 -0.004613 0.048082 0.018746
# 6 0.000614 0.016324 -0.009927 -0.006445 0.018746 0.057505
#
#
# Mechanical properties :
#
#
# Convention : Reuss Voigt Hill
#
# Bulk Modulus (GPa) = 22.57321 47.23281 34.90301
# Shear Modulus (GPa) = 16.41905 27.24729 21.83317
#
# Velocity S-wave (km/s) = 2.79892 3.60561 3.22757
# Velocity P-wave (km/s) = 4.60604 6.31427 5.52655
#
# Compressibility (1/GPa) = 0.04430030
#
# Stress axis : x y z
#
# Youngs Moduli (GPa) = 19.00734 37.40218 50.65443
#
# Poissons Ratio (x) = 0.53624 -0.03692
# Poissons Ratio (y) = 0.27251 0.69832
# Poissons Ratio (z) = -0.01385 0.51563
#
# Static dielectric constant tensor:
#      x y z
#    x 3.759830 -0.143730 -0.010990 
#    y -0.143730 3.909880 -0.037720 
#    z -0.010990 -0.037720 3.728350 
# 
# 
# High freq. dielectric constant tensor:
#      x y z
#    x 1.818620 -0.016760 0.002590 
#    y -0.016760 1.825580 -0.001350 
#    z 0.002590 -0.001350 1.818540 
# 
# From -- ./inp_files/494854.got.cif
#   From: 2010.06.25/outbox.cif.g09.slc.cpg/sg2_248_cif.got.tgz:494854.got - 2010.06.27 13:26:56.
