data_PCOD8005937
_publ_section_title
;
Structure prediction by ZEFSAII (Michael W. Deem and Ramdas Pophale) SiO2 
 PCOD8005937
Probable space group: P -1
;
_chemical_formula_sum "Si O2"
_cell_formula_units_Z 16
_cell_length_a 7.721074
_cell_length_b 6.522337
_cell_length_c 16.618305
_cell_angle_alpha 99.411551
_cell_angle_beta 112.885556
_cell_angle_gamma 100.917462
_cell_volume 730.572618
_symmetry_space_group_name_H-M "P -1"
_symmetry_group_IT_number 2
_symmetry_cell_setting 'triclinic'
loop_
_space_group_symop_operation_xyz
x,y,z
-x,-y,-z
loop_
_atom_site_type_symbol
_atom_site_label
_atom_site_fract_x
_atom_site_fract_y
_atom_site_fract_z
Si Si1 0.140488 0.741567 0.044344
Si Si2 0.082418 0.989449 0.892729
Si Si3 0.049612 0.315609 0.288548
Si Si4 0.447527 0.329671 0.906084
Si Si5 0.250471 0.434193 0.719252
Si Si6 0.672451 0.314471 0.560124
Si Si7 0.082048 0.993613 0.409590
Si Si8 0.288816 0.379690 0.551380
O O1 0.363621 0.737985 0.094843
O O2 0.059910 0.855601 0.110911
O O3 0.000000 0.500000 0.000000
O O4 0.140642 0.893143 0.978227
O O5 0.278788 0.120843 0.890341
O O6 0.963988 0.781390 0.808908
O O7 0.848386 0.372686 0.276953
O O8 0.221431 0.537961 0.336195
O O9 0.099996 0.145628 0.345659
O O10 0.377441 0.434836 0.821725
O O11 0.500000 0.500000 0.000000
O O12 0.369922 0.477980 0.659409
O O13 0.107791 0.201367 0.654750
O O14 0.723759 0.089056 0.557534
O O15 0.443995 0.285284 0.525737
O O16 0.755867 0.430078 0.497716
O O17 0.095633 0.162844 0.500029
#
# Coordination Sequence:
#
# PCOD8005937 Si02
#       8
#     2   2   2   2   2   2   2   2
#     4  11  25  44  71 100 128 179 226 280 341 402
#     4  11  24  46  69  98 136 177 226 275 342 404
#     4  10  22  40  62  90 130 168 210 269 329 390
#     4  12  24  46  71  97 138 180 222 282 339 398
#     4  11  24  39  61  96 123 167 221 269 326 398
#     4   9  21  39  61  90 131 168 207 274 334 382
#     4  10  20  39  64  86 121 171 208 259 328 384
#     4  10  21  39  60  93 126 166 217 269 327 397
#
# _framework density 21.900628000000001
#
# number of rings (size 3 to 8) (size 9 to 14) (size 15 to 20)
#    0.000    1.500    2.500    1.875    0.000    7.500 
#    2.250    0.000    0.000    0.000    0.000    0.000 
#    0.000    0.000    0.000    0.000    0.000    0.000 
#
# Total GULP energy -198251.444734 kJ/mol
# GULP energy per Si atom -12390.715296 kJ/mol
# Density = 2.185078 g / cm^3
# Si number density = 21.900628 Si / 1000 Ang^3
#
#
#
# Elastic Constant Matrix: (Units=GPa)
#
#
# Indices 1 2 3 4 5 6 
#
# 1 104.6586 46.7769 32.5077 -6.3956 2.1954 -22.1531
# 2 46.7769 111.6054 36.1807 -4.5360 -2.6460 -21.3206
# 3 32.5077 36.1807 132.7233 4.5978 -5.5129 -11.4345
# 4 -6.3956 -4.5360 4.5978 34.0003 -11.9513 6.4656
# 5 2.1954 -2.6460 -5.5129 -11.9513 24.3500 -3.3685
# 6 -22.1531 -21.3206 -11.4345 6.4656 -3.3685 34.0475
#
#
#
# Elastic Compliance Matrix: (Units=1/GPa)
#
#
# Indices 1 2 3 4 5 6 
#
# 1 0.013000 -0.003874 -0.001746 0.000883 -0.000836 0.005196
# 2 -0.003874 0.012166 -0.001922 0.001155 0.002422 0.004472
# 3 -0.001746 -0.001922 0.008677 -0.001481 0.001323 0.000987
# 4 0.000883 0.001155 -0.001481 0.036818 0.017160 -0.004494
# 5 -0.000836 0.002422 0.001323 0.017160 0.050565 0.003161
# 6 0.005196 0.004472 0.000987 -0.004494 0.003161 0.037050
#
#
# Mechanical properties :
#
#
# Convention : Reuss Voigt Hill
#
# Bulk Modulus (GPa) = 53.30496 64.43533 58.87015
# Shear Modulus (GPa) = 27.83787 34.04771 30.94279
#
# Velocity S-wave (km/s) = 3.56912 3.94718 3.76290
# Velocity P-wave (km/s) = 6.43250 7.08937 6.76891
#
# Compressibility (1/GPa) = 0.01875998
#
# Stress axis : x y z
#
# Youngs Moduli (GPa) = 76.92384 82.19934 115.24528
#
# Poissons Ratio (x) = 0.31845 0.20118
# Poissons Ratio (y) = 0.29801 0.22146
# Poissons Ratio (z) = 0.13428 0.15795
#
# Static dielectric constant tensor:
#      x y z
#    x 3.922500 -0.078110 -0.018660 
#    y -0.078110 4.118420 0.067850 
#    z -0.018660 0.067850 4.120780 
# 
# 
# High freq. dielectric constant tensor:
#      x y z
#    x 1.852730 -0.007490 0.000940 
#    y -0.007490 1.879210 0.003910 
#    z 0.000940 0.003910 1.867030 
# 
# From -- ./inp_files/488526.got.cif
#   From: 2010.06.25/outbox.cif.g09.slc.cpg/sg2_245_cif.got.tgz:488526.got - 2010.06.27 13:26:56.
