data_PCOD8005734
_publ_section_title
;
Structure prediction by ZEFSAII (Michael W. Deem and Ramdas Pophale) SiO2 
 PCOD8005734
Probable space group: P -1
;
_chemical_formula_sum "Si O2"
_cell_formula_units_Z 16
_cell_length_a 9.771750
_cell_length_b 23.637448
_cell_length_c 6.952132
_cell_angle_alpha 59.095818
_cell_angle_beta 133.414935
_cell_angle_gamma 131.871370
_cell_volume 864.106189
_symmetry_space_group_name_H-M "P -1"
_symmetry_group_IT_number 2
_symmetry_cell_setting 'triclinic'
loop_
_space_group_symop_operation_xyz
x,y,z
-x,-y,-z
loop_
_atom_site_type_symbol
_atom_site_label
_atom_site_fract_x
_atom_site_fract_y
_atom_site_fract_z
Si Si1 0.635280 0.582859 0.577796
Si Si2 0.391215 0.909684 0.035394
Si Si3 0.809930 0.945171 0.551396
Si Si4 0.720003 0.056270 0.508572
Si Si5 0.740008 0.667186 0.137262
Si Si6 0.344982 0.583347 0.627800
Si Si7 0.916788 0.587831 0.185753
Si Si8 0.003360 0.154236 0.947871
O O1 0.500000 0.500000 0.500000
O O2 0.730551 0.643424 0.391605
O O3 0.480944 0.600614 0.532058
O O4 0.833615 0.589238 0.887461
O O5 0.581760 0.893007 0.308340
O O6 0.181605 0.862819 0.045990
O O7 0.318629 0.892339 0.774501
O O8 0.500000 0.000000 0.000000
O O9 0.803313 0.001599 0.603408
O O10 0.853871 0.883269 0.795660
O O11 0.000000 0.000000 0.500000
O O12 0.898034 0.120522 0.701579
O O13 0.500000 0.000000 0.500000
O O14 0.898587 0.647784 0.201699
O O15 0.835663 0.756679 0.069505
O O16 0.499897 0.627539 0.880206
O O17 0.232364 0.494109 0.718998
O O18 0.168132 0.609799 0.380874
#
# Coordination Sequence:
#
# PCOD8005734 Si02
#       8
#     2   2   2   2   2   2   2   2
#     4  11  19  38  64  92 122 163 206 250 288 362
#     4  10  20  39  62  88 118 151 202 251 298 366
#     4  11  20  40  67  87 115 160 207 249 300 369
#     4  11  20  39  66  89 116 156 209 247 296 373
#     4  11  24  40  59  89 133 154 202 258 311 348
#     4  10  21  39  65  93 120 162 212 242 295 369
#     4  10  21  39  67  90 119 170 202 246 298 365
#     4  12  24  39  62  93 122 160 197 264 313 348
#
# _framework density 18.516242999999999
#
# number of rings (size 3 to 8) (size 9 to 14) (size 15 to 20)
#    0.000    1.250    7.500    1.125    0.000    4.500 
#    0.000    0.000    2.750    0.000    0.000    0.000 
#    0.000    0.000    0.000    0.000    0.000    0.000 
#
# Total GULP energy -198382.642661 kJ/mol
# GULP energy per Si atom -12398.915166 kJ/mol
# Density = 1.847410 g / cm^3
# Si number density = 18.516243 Si / 1000 Ang^3
#
#
#
# Elastic Constant Matrix: (Units=GPa)
#
#
# Indices 1 2 3 4 5 6 
#
# 1 130.4217 39.9156 89.2028 -17.5530 20.4443 -1.0436
# 2 39.9156 91.7895 59.1493 -25.9811 15.3980 -12.2009
# 3 89.2028 59.1493 196.0454 -18.5788 22.4295 -3.8689
# 4 -17.5530 -25.9811 -18.5788 51.2386 -8.5738 -3.7072
# 5 20.4443 15.3980 22.4295 -8.5738 48.9325 2.3076
# 6 -1.0436 -12.2009 -3.8689 -3.7072 2.3076 21.4696
#
#
#
# Elastic Compliance Matrix: (Units=1/GPa)
#
#
# Indices 1 2 3 4 5 6 
#
# 1 0.011726 -0.001607 -0.004516 0.001162 -0.002085 -0.000732
# 2 -0.001607 0.017858 -0.003422 0.007634 -0.002563 0.011047
# 3 -0.004516 -0.003422 0.008227 -0.000492 -0.000862 -0.000674
# 4 0.001162 0.007634 -0.000492 0.024419 0.001221 0.008391
# 5 -0.002085 -0.002563 -0.000862 0.001221 0.022910 -0.003965
# 6 -0.000732 0.011047 -0.000674 0.008391 -0.003965 0.054574
#
#
# Mechanical properties :
#
#
# Convention : Reuss Voigt Hill
#
# Bulk Modulus (GPa) = 53.42038 88.31022 70.86530
# Shear Modulus (GPa) = 30.29528 39.66073 34.97800
#
# Velocity S-wave (km/s) = 4.04932 4.63313 4.35103
# Velocity P-wave (km/s) = 7.12572 8.74175 7.97477
#
# Compressibility (1/GPa) = 0.01871945
#
# Stress axis : x y z
#
# Youngs Moduli (GPa) = 85.28371 55.99841 121.55435
#
# Poissons Ratio (x) = 0.09001 0.54894
# Poissons Ratio (y) = 0.13709 0.41594
# Poissons Ratio (z) = 0.38514 0.19162
#
# Static dielectric constant tensor:
#      x y z
#    x 3.438480 0.057270 0.044410 
#    y 0.057270 3.197140 0.168870 
#    z 0.044410 0.168870 4.034250 
# 
# 
# High freq. dielectric constant tensor:
#      x y z
#    x 1.723370 0.006290 -0.000780 
#    y 0.006290 1.699710 0.007560 
#    z -0.000780 0.007560 1.738050 
# 
# From -- ./inp_files/54726.got.cif
#   From: 2010.06.25/outbox.cif.g09.slc.cpg/sg2_28_cif.got.tgz:54726.got - 2010.06.27 13:26:56.
