data_PCOD8005728
_publ_section_title
;
Structure prediction by ZEFSAII (Michael W. Deem and Ramdas Pophale) SiO2 
 PCOD8005728
Probable space group: P -1
;
_chemical_formula_sum "Si O2"
_cell_formula_units_Z 16
_cell_length_a 13.379221
_cell_length_b 8.952442
_cell_length_c 21.390609
_cell_angle_alpha 54.620435
_cell_angle_beta 156.739710
_cell_angle_gamma 127.178891
_cell_volume 803.839993
_symmetry_space_group_name_H-M "P -1"
_symmetry_group_IT_number 2
_symmetry_cell_setting 'triclinic'
loop_
_space_group_symop_operation_xyz
x,y,z
-x,-y,-z
loop_
_atom_site_type_symbol
_atom_site_label
_atom_site_fract_x
_atom_site_fract_y
_atom_site_fract_z
Si Si1 0.836652 0.784056 0.516043
Si Si2 0.624383 0.333487 0.633644
Si Si3 0.050898 0.434268 0.953442
Si Si4 0.233215 0.893706 0.344482
Si Si5 0.647017 0.519558 0.280331
Si Si6 0.696070 0.910884 0.271565
Si Si7 0.101914 0.817486 0.959949
Si Si8 0.914617 0.438271 0.572104
O O1 0.593601 0.793984 0.417547
O O2 0.773476 0.878355 0.393927
O O3 0.866321 0.574627 0.567233
O O4 0.099239 0.895747 0.675649
O O5 0.500000 0.500000 0.500000
O O6 0.700489 0.217906 0.649094
O O7 0.892588 0.414679 0.803618
O O8 0.014640 0.626340 0.917084
O O9 0.351216 0.446905 0.107913
O O10 0.940760 0.248723 0.976731
O O11 0.081146 0.757781 0.344329
O O12 0.500000 0.000000 0.500000
O O13 0.068393 0.039658 0.192716
O O14 0.731540 0.743061 0.287145
O O15 0.691490 0.412818 0.396248
O O16 0.815279 0.474182 0.329639
O O17 0.398690 0.927349 0.092603
#
# Coordination Sequence:
#
# PCOD8005728 Si02
#       8
#     2   2   2   2   2   2   2   2
#     4  10  20  39  62  87 123 160 201 250 301 363
#     4  12  24  41  62  91 124 165 205 248 314 366
#     4  10  21  42  66  89 124 162 207 247 310 370
#     4  12  26  40  61  93 126 161 206 259 307 364
#     4   9  20  39  68  90 116 164 204 253 300 365
#     4   9  19  38  63  90 116 157 207 249 299 357
#     4  10  21  41  66  91 124 162 202 258 302 364
#     4  10  21  41  61  91 124 160 208 246 308 362
#
# _framework density 19.90446
#
# number of rings (size 3 to 8) (size 9 to 14) (size 15 to 20)
#    0.000    1.750    2.500    1.500    3.500    1.500 
#    6.750    2.500    0.000    0.000    0.000    0.000 
#    0.000    0.000    0.000    0.000    0.000    0.000 
#
# Total GULP energy -198364.618821 kJ/mol
# GULP energy per Si atom -12397.788676 kJ/mol
# Density = 1.985916 g / cm^3
# Si number density = 19.904460 Si / 1000 Ang^3
#
#
#
# Elastic Constant Matrix: (Units=GPa)
#
#
# Indices 1 2 3 4 5 6 
#
# 1 71.9222 28.3920 45.2003 9.7865 8.0917 -4.2290
# 2 28.3920 78.7151 65.1596 -0.9384 -4.3746 7.6895
# 3 45.2003 65.1596 163.3934 2.4809 2.4630 -8.1482
# 4 9.7865 -0.9384 2.4809 42.6619 -1.5751 1.0595
# 5 8.0917 -4.3746 2.4630 -1.5751 28.7999 2.7796
# 6 -4.2290 7.6895 -8.1482 1.0595 2.7796 18.2678
#
#
#
# Elastic Compliance Matrix: (Units=1/GPa)
#
#
# Indices 1 2 3 4 5 6 
#
# 1 0.019900 -0.006439 -0.002367 -0.005032 -0.007383 0.007677
# 2 -0.006439 0.024808 -0.009157 0.003293 0.008226 -0.017460
# 3 -0.002367 -0.009157 0.010902 -0.000599 -0.002520 0.008587
# 4 -0.005032 0.003293 -0.000599 0.024962 0.003798 -0.004844
# 5 -0.007383 0.008226 -0.002520 0.003798 0.039681 -0.012554
# 6 0.007677 -0.017460 0.008587 -0.004844 -0.012554 0.069889
#
#
# Mechanical properties :
#
#
# Convention : Reuss Voigt Hill
#
# Bulk Modulus (GPa) = 50.79905 65.72607 58.26256
# Shear Modulus (GPa) = 21.49345 29.63116 25.56231
#
# Velocity S-wave (km/s) = 3.28964 3.86251 3.58753
# Velocity P-wave (km/s) = 6.32502 7.27904 6.81874
#
# Compressibility (1/GPa) = 0.01968541
#
# Stress axis : x y z
#
# Youngs Moduli (GPa) = 50.25170 40.30887 91.72717
#
# Poissons Ratio (x) = 0.25954 0.21709
# Poissons Ratio (y) = 0.32356 0.83993
# Poissons Ratio (z) = 0.11893 0.36910
#
# Static dielectric constant tensor:
#      x y z
#    x 3.807060 0.191280 0.265250 
#    y 0.191280 3.775820 0.112070 
#    z 0.265250 0.112070 3.840320 
# 
# 
# High freq. dielectric constant tensor:
#      x y z
#    x 1.775270 0.000900 0.007620 
#    y 0.000900 1.770830 0.005380 
#    z 0.007620 0.005380 1.782530 
# 
# From -- ./inp_files/404089.got.cif
#   From: 2010.06.25/outbox.cif.g09.slc.cpg/sg2_203_cif.got.tgz:404089.got - 2010.06.27 13:26:56.
