data_PCOD8005853
_publ_section_title
;
Structure prediction by ZEFSAII (Michael W. Deem and Ramdas Pophale) SiO2 
 PCOD8005853
Probable space group: P -1
;
_chemical_formula_sum "Si O2"
_cell_formula_units_Z 16
_cell_length_a 20.266747
_cell_length_b 11.902389
_cell_length_c 11.638189
_cell_angle_alpha 33.793209
_cell_angle_beta 38.886192
_cell_angle_gamma 26.608050
_cell_volume 692.275404
_symmetry_space_group_name_H-M "P -1"
_symmetry_group_IT_number 2
_symmetry_cell_setting 'triclinic'
loop_
_space_group_symop_operation_xyz
x,y,z
-x,-y,-z
loop_
_atom_site_type_symbol
_atom_site_label
_atom_site_fract_x
_atom_site_fract_y
_atom_site_fract_z
Si Si1 0.472504 0.544446 0.633391
Si Si2 0.169579 0.884827 0.874046
Si Si3 0.275380 0.519185 0.636383
Si Si4 0.337034 0.373102 0.254102
Si Si5 0.631256 0.042616 0.012215
Si Si6 0.942358 0.005444 0.308120
Si Si7 0.793135 0.212976 0.727988
Si Si8 0.910126 0.590420 0.429375
O O1 0.500000 0.500000 0.500000
O O2 0.300789 0.794693 0.689547
O O3 0.558032 0.627985 0.492359
O O4 0.549163 0.240901 0.842950
O O5 0.052157 0.964619 0.865382
O O6 0.108343 0.153968 0.808016
O O7 0.231594 0.628127 0.088283
O O8 0.217629 0.724625 0.651049
O O9 0.175367 0.707460 0.500514
O O10 0.272345 0.286383 0.869700
O O11 0.508724 0.133251 0.192493
O O12 0.332237 0.495208 0.278527
O O13 0.260060 0.258968 0.459566
O O14 0.739647 0.058144 0.909461
O O15 0.056539 0.002230 0.218132
O O16 0.993185 0.704094 0.525109
O O17 0.000000 0.500000 0.500000
#
# Coordination Sequence:
#
# PCOD8005853 Si02
#       8
#     2   2   2   2   2   2   2   2
#     4  10  20  39  63  90 121 150 192 248 302 356
#     4  10  20  39  63  90 119 153 195 255 302 349
#     4  11  22  40  59  87 124 157 200 243 295 356
#     4  10  21  40  61  91 120 149 203 252 297 350
#     4  10  23  39  62  91 116 160 201 242 300 352
#     4  10  21  39  59  85 121 161 196 247 293 350
#     4  10  23  39  59  83 121 162 203 246 286 349
#     4   9  20  36  58  87 115 156 195 235 299 349
#
# _framework density 23.112189999999998
#
# number of rings (size 3 to 8) (size 9 to 14) (size 15 to 20)
#    0.000    2.000    1.250    1.500    0.000    8.000 
#    2.250    6.250    0.000    0.000    0.000    0.000 
#    0.000    0.000    0.000    0.000    0.000    0.000 
#
# Total GULP energy -198297.799700 kJ/mol
# GULP energy per Si atom -12393.612481 kJ/mol
# Density = 2.305959 g / cm^3
# Si number density = 23.112190 Si / 1000 Ang^3
#
#
#
# Elastic Constant Matrix: (Units=GPa)
#
#
# Indices 1 2 3 4 5 6 
#
# 1 91.1901 15.4840 34.8884 -14.8112 -9.2848 10.1188
# 2 15.4840 62.2327 13.3810 -20.7441 -10.6262 15.4446
# 3 34.8884 13.3810 87.9179 -21.7335 -17.9436 13.9821
# 4 -14.8112 -20.7441 -21.7335 25.2425 9.6436 1.5002
# 5 -9.2848 -10.6262 -17.9436 9.6436 39.7139 5.5482
# 6 10.1188 15.4446 13.9821 1.5002 5.5482 36.4512
#
#
#
# Elastic Compliance Matrix: (Units=1/GPa)
#
#
# Indices 1 2 3 4 5 6 
#
# 1 0.013487 -0.000426 -0.003716 0.004253 0.000664 -0.002414
# 2 -0.000426 0.029509 0.006697 0.028367 0.006320 -0.017083
# 3 -0.003716 0.006697 0.019470 0.018122 0.006866 -0.011065
# 4 0.004253 0.028367 0.018122 0.082406 0.000052 -0.023551
# 5 0.000664 0.006320 0.006866 0.000052 0.031555 -0.010301
# 6 -0.002414 -0.017083 -0.011065 -0.023551 -0.010301 0.042124
#
#
# Mechanical properties :
#
#
# Convention : Reuss Voigt Hill
#
# Bulk Modulus (GPa) = 14.79816 40.98306 27.89061
# Shear Modulus (GPa) = 21.18940 32.12067 26.65503
#
# Velocity S-wave (km/s) = 3.03117 3.73201 3.39970
# Velocity P-wave (km/s) = 4.32056 6.02837 5.24445
#
# Compressibility (1/GPa) = 0.06757595
#
# Stress axis : x y z
#
# Youngs Moduli (GPa) = 74.14804 33.88745 51.36006
#
# Poissons Ratio (x) = 0.01445 0.19086
# Poissons Ratio (y) = 0.03161 -0.34397
# Poissons Ratio (z) = 0.27554 -0.22695
#
# Static dielectric constant tensor:
#      x y z
#    x 4.330160 0.017580 -0.193310 
#    y 0.017580 4.431970 0.051570 
#    z -0.193310 0.051570 4.221950 
# 
# 
# High freq. dielectric constant tensor:
#      x y z
#    x 1.924690 -0.009360 -0.010610 
#    y -0.009360 1.910380 0.003640 
#    z -0.010610 0.003640 1.903410 
# 
# From -- ./inp_files/70001.got.cif
#   From: 2010.06.25/outbox.cif.g09.slc.cpg/sg2_36_cif.got.tgz:70001.got - 2010.06.27 13:26:56.
