data_PCOD8005352
_publ_section_title
;
Structure prediction by ZEFSAII (Michael W. Deem and Ramdas Pophale) SiO2 
 PCOD8005352
Probable space group: P -1
;
_chemical_formula_sum "Si O2"
_cell_formula_units_Z 16
_cell_length_a 21.684290
_cell_length_b 8.267645
_cell_length_c 13.537675
_cell_angle_alpha 123.120961
_cell_angle_beta 22.843372
_cell_angle_gamma 125.839581
_cell_volume 763.621648
_symmetry_space_group_name_H-M "P -1"
_symmetry_group_IT_number 2
_symmetry_cell_setting 'triclinic'
loop_
_space_group_symop_operation_xyz
x,y,z
-x,-y,-z
loop_
_atom_site_type_symbol
_atom_site_label
_atom_site_fract_x
_atom_site_fract_y
_atom_site_fract_z
Si Si1 0.181421 0.213208 0.999101
Si Si2 0.908236 0.087608 0.805630
Si Si3 0.154078 0.821049 0.620277
Si Si4 0.625600 0.378665 0.070072
Si Si5 0.301790 0.254061 0.623003
Si Si6 0.039573 0.478412 0.047587
Si Si7 0.470106 0.798554 0.038628
Si Si8 0.231243 0.984224 0.222171
O O1 0.999626 0.223894 0.241212
O O2 0.179091 0.018097 0.002180
O O3 0.258268 0.404277 0.015574
O O4 0.293889 0.208384 0.736005
O O5 0.955673 0.324179 0.830534
O O6 0.068711 0.009820 0.523219
O O7 0.784264 0.026368 0.876660
O O8 0.102214 0.702472 0.759214
O O9 0.208318 0.056717 0.637114
O O10 0.300896 0.746026 0.330687
O O11 0.491323 0.322500 0.336241
O O12 0.538235 0.373209 0.089141
O O13 0.737135 0.221418 0.853683
O O14 0.215990 0.429938 0.781377
O O15 0.000000 0.500000 0.000000
O O16 0.620266 0.824319 0.902931
O O17 0.500000 0.000000 0.000000
#
# Coordination Sequence:
#
# PCOD8005352 Si02
#       8
#     2   2   2   2   2   2   2   2
#     4  11  23  39  65  95 128 168 218 259 307 392
#     4  11  24  42  62  93 134 172 206 261 330 371
#     4  11  21  41  70  95 121 170 222 259 314 373
#     4  11  23  41  68  96 124 165 217 265 322 364
#     4  11  22  42  68  94 126 166 218 264 312 379
#     4  11  24  40  65  95 132 172 209 261 318 385
#     4  10  20  38  67  94 123 159 209 274 311 369
#     4  10  22  42  67  88 132 166 206 272 316 379
#
# _framework density 20.952786
#
# number of rings (size 3 to 8) (size 9 to 14) (size 15 to 20)
#    0.000    1.250    2.500    6.375    1.750    4.000 
#    2.250    2.500    0.000    0.000    0.000    0.000 
#    0.000    0.000    0.000    0.000    0.000    0.000 
#
# Total GULP energy -198442.123699 kJ/mol
# GULP energy per Si atom -12402.632731 kJ/mol
# Density = 2.090510 g / cm^3
# Si number density = 20.952786 Si / 1000 Ang^3
#
#
#
# Elastic Constant Matrix: (Units=GPa)
#
#
# Indices 1 2 3 4 5 6 
#
# 1 117.2472 18.7078 22.6563 -6.9722 5.4538 11.1599
# 2 18.7078 80.5028 18.0503 -2.3859 -8.3811 7.7007
# 3 22.6563 18.0503 73.6929 3.5710 0.7749 2.1818
# 4 -6.9722 -2.3859 3.5710 27.8537 6.0091 -1.7314
# 5 5.4538 -8.3811 0.7749 6.0091 26.3690 -4.3569
# 6 11.1599 7.7007 2.1818 -1.7314 -4.3569 42.6858
#
#
#
# Elastic Compliance Matrix: (Units=1/GPa)
#
#
# Indices 1 2 3 4 5 6 
#
# 1 0.009922 -0.001765 -0.002670 0.003322 -0.003685 -0.002381
# 2 -0.001765 0.014116 -0.002923 0.000040 0.004688 -0.001456
# 3 -0.002670 -0.002923 0.015235 -0.002824 -0.000128 0.000319
# 4 0.003322 0.000040 -0.002824 0.039148 -0.009532 -0.000116
# 5 -0.003685 0.004688 -0.000128 -0.009532 0.043034 0.004130
# 6 -0.002381 -0.001456 0.000319 -0.000116 0.004130 0.024713
#
#
# Mechanical properties :
#
#
# Convention : Reuss Voigt Hill
#
# Bulk Modulus (GPa) = 40.72002 43.36354 42.04178
# Shear Modulus (GPa) = 29.57371 33.51692 31.54532
#
# Velocity S-wave (km/s) = 3.76100 4.00389 3.88434
# Velocity P-wave (km/s) = 6.19165 6.48965 6.34240
#
# Compressibility (1/GPa) = 0.02455795
#
# Stress axis : x y z
#
# Youngs Moduli (GPa) = 100.78619 70.84209 65.63630
#
# Poissons Ratio (x) = 0.12500 0.17525
# Poissons Ratio (y) = 0.17784 0.19187
# Poissons Ratio (z) = 0.26910 0.20709
#
# Static dielectric constant tensor:
#      x y z
#    x 4.186910 0.268960 0.097180 
#    y 0.268960 3.860470 -0.044080 
#    z 0.097180 -0.044080 3.806470 
# 
# 
# High freq. dielectric constant tensor:
#      x y z
#    x 1.830900 0.017570 0.010580 
#    y 0.017570 1.815290 -0.004750 
#    z 0.010580 -0.004750 1.819320 
# 
# From -- ./inp_files/542679.got.cif
#   From: 2010.06.25/outbox.cif.g09.slc.cpg/sg2_272_cif.got.tgz:542679.got - 2010.06.27 13:26:56.
