data_PCOD8005564
_publ_section_title
;
Structure prediction by ZEFSAII (Michael W. Deem and Ramdas Pophale) SiO2 
 PCOD8005564
Probable space group: P -1
;
_chemical_formula_sum "Si O2"
_cell_formula_units_Z 12
_cell_length_a 23.304488
_cell_length_b 6.609990
_cell_length_c 5.208219
_cell_angle_alpha 75.609258
_cell_angle_beta 53.346743
_cell_angle_gamma 63.077436
_cell_volume 573.620448
_symmetry_space_group_name_H-M "P -1"
_symmetry_group_IT_number 2
_symmetry_cell_setting 'triclinic'
loop_
_space_group_symop_operation_xyz
x,y,z
-x,-y,-z
loop_
_atom_site_type_symbol
_atom_site_label
_atom_site_fract_x
_atom_site_fract_y
_atom_site_fract_z
Si Si1 0.022417 0.705243 0.787665
Si Si2 0.621322 0.223595 0.704293
Si Si3 0.271140 0.550542 0.767310
Si Si4 0.094680 0.795868 0.070104
Si Si5 0.533649 0.623955 0.178525
Si Si6 0.326836 0.273013 0.186565
O O1 0.066079 0.665782 0.408071
O O2 0.078556 0.727412 0.851656
O O3 0.945172 0.932303 0.886203
O O4 0.000000 0.500000 0.000000
O O5 0.675740 0.306429 0.351972
O O6 0.544271 0.199653 0.803464
O O7 0.674013 0.977097 0.750773
O O8 0.594529 0.422752 0.917106
O O9 0.301775 0.374350 0.504945
O O10 0.185855 0.729757 0.874182
O O11 0.268595 0.416816 0.075724
O O12 0.500000 0.500000 0.500000
O O13 0.584753 0.754047 0.114697
#
# Coordination Sequence:
#
# PCOD8005564 Si02
#       6
#     2   2   2   2   2   2
#     4  10  21  41  66  92 117 156 198 236 290 352
#     4  10  23  39  58  86 118 159 202 251 301 346
#     4  11  24  40  57  90 125 154 197 244 297 357
#     4  10  22  39  62  91 124 153 193 246 288 349
#     4  10  20  39  60  84 116 156 208 256 291 348
#     4  11  24  39  61  86 120 162 204 244 298 353
#
# _framework density 20.919754000000001
#
# number of rings (size 3 to 8) (size 9 to 14) (size 15 to 20)
#    0.000    1.667    1.667    2.000    2.333    3.333 
#    0.000    0.000    0.000    0.000    0.000    0.000 
#    0.000    0.000    0.000    0.000    0.000    0.000 
#
# Total GULP energy -148701.773170 kJ/mol
# GULP energy per Si atom -12391.814431 kJ/mol
# Density = 2.087214 g / cm^3
# Si number density = 20.919754 Si / 1000 Ang^3
#
#
#
# Elastic Constant Matrix: (Units=GPa)
#
#
# Indices 1 2 3 4 5 6 
#
# 1 59.8958 48.0904 7.0046 18.3635 18.8945 10.8916
# 2 48.0904 99.8101 37.8179 -29.6206 -21.5676 -34.3710
# 3 7.0046 37.8179 69.9960 -6.4293 13.3562 6.3937
# 4 18.3635 -29.6206 -6.4293 24.6924 -17.0401 -15.0619
# 5 18.8945 -21.5676 13.3562 -17.0401 24.6055 -26.1917
# 6 10.8916 -34.3710 6.3937 -15.0619 -26.1917 -18.3093
#
#
#
# Elastic Compliance Matrix: (Units=1/GPa)
#
#
# Indices 1 2 3 4 5 6 
#
# 1 0.017328 -0.002700 -0.002551 -0.005398 0.000840 0.017724
# 2 -0.002700 0.007361 -0.001934 0.000713 -0.003050 -0.012324
# 3 -0.002551 -0.001934 0.015858 0.005635 -0.000488 0.003714
# 4 -0.005398 0.000713 0.005635 0.030456 -0.002622 -0.023885
# 5 0.000840 -0.003050 -0.000488 -0.002622 0.017645 -0.017030
# 6 0.017724 -0.012324 0.003714 -0.023885 -0.017030 0.024369
#
#
# Mechanical properties :
#
#
# Convention : Reuss Voigt Hill
#
# Bulk Modulus (GPa) = 38.19805 46.16973 42.18389
# Shear Modulus (GPa) = 36.73434 15.31701 26.02567
#
# Velocity S-wave (km/s) = 4.19497 2.70882 3.53097
# Velocity P-wave (km/s) = 6.46240 5.64813 6.06894
#
# Compressibility (1/GPa) = 0.02617935
#
# Stress axis : x y z
#
# Youngs Moduli (GPa) = 57.70848 135.84796 63.05920
#
# Poissons Ratio (x) = 0.36674 0.16084
# Poissons Ratio (y) = 0.15579 0.12195
# Poissons Ratio (z) = 0.14719 0.26272
#
# Static dielectric constant tensor:
#      x y z
#    x 2.653980 0.286440 0.343850 
#    y 0.286440 3.478960 -0.152790 
#    z 0.343850 -0.152790 3.644490 
# 
# 
# High freq. dielectric constant tensor:
#      x y z
#    x 1.815750 -0.012360 0.000720 
#    y -0.012360 1.816280 -0.009700 
#    z 0.000720 -0.009700 1.822230 
# 
# From -- ./inp_files/3185.got.cif
#   From: 2010.06.25/outbox.cif.g09.slc.cpg/sg2_2_cif.got.tgz:3185.got - 2010.06.27 13:26:56.
