data_PCOD8005940
_publ_section_title
;
Structure prediction by ZEFSAII (Michael W. Deem and Ramdas Pophale) SiO2 
 PCOD8005940
Probable space group: P -1
;
_chemical_formula_sum "Si O2"
_cell_formula_units_Z 16
_cell_length_a 15.194379
_cell_length_b 12.005963
_cell_length_c 9.162050
_cell_angle_alpha 75.000425
_cell_angle_beta 37.901742
_cell_angle_gamma 57.406411
_cell_volume 819.203748
_symmetry_space_group_name_H-M "P -1"
_symmetry_group_IT_number 2
_symmetry_cell_setting 'triclinic'
loop_
_space_group_symop_operation_xyz
x,y,z
-x,-y,-z
loop_
_atom_site_type_symbol
_atom_site_label
_atom_site_fract_x
_atom_site_fract_y
_atom_site_fract_z
Si Si1 0.010437 0.512909 0.310022
Si Si2 0.484156 0.539603 0.841531
Si Si3 0.153033 0.694445 0.050286
Si Si4 0.666531 0.720330 0.183406
Si Si5 0.329702 0.313990 0.473715
Si Si6 0.357650 0.704373 0.503957
Si Si7 0.124249 0.011218 0.728517
Si Si8 0.571753 0.975657 0.575007
O O1 0.055216 0.621456 0.164265
O O2 0.000000 0.500000 0.500000
O O3 0.830935 0.562129 0.449228
O O4 0.159228 0.360169 0.110678
O O5 0.523014 0.656233 0.726899
O O6 0.613995 0.401182 0.624284
O O7 0.500000 0.500000 0.000000
O O8 0.284336 0.610643 0.037967
O O9 0.005084 0.851909 0.246577
O O10 0.259180 0.689409 0.772193
O O11 0.719851 0.696326 0.292249
O O12 0.544046 0.665502 0.329123
O O13 0.569643 0.881925 0.203278
O O14 0.404767 0.164666 0.345406
O O15 0.242137 0.863935 0.537726
O O16 0.245239 0.040654 0.656190
O O17 0.000000 0.000000 0.000000
O O18 0.500000 0.000000 0.500000
#
# Coordination Sequence:
#
# PCOD8005940 Si02
#       8
#     2   2   2   2   2   2   2   2
#     4  12  24  38  56  87 125 155 191 243 295 344
#     4  12  24  39  59  86 120 158 198 241 289 349
#     4  11  20  40  64  85 116 155 200 237 288 352
#     4  10  20  39  64  87 115 151 198 243 286 352
#     4  11  22  39  59  90 119 151 197 243 294 344
#     4  10  20  39  65  89 109 153 203 239 287 347
#     4   9  19  35  62  89 112 148 194 244 287 344
#     4   9  19  36  59  89 118 145 190 246 293 338
#
# _framework density 19.53116
#
# number of rings (size 3 to 8) (size 9 to 14) (size 15 to 20)
#    0.000    1.500    3.750    2.250    1.750    0.000 
#    2.250    2.500    0.000    0.000    0.000    0.000 
#    0.000    0.000    0.000    0.000    0.000    0.000 
#
# Total GULP energy -198327.864702 kJ/mol
# GULP energy per Si atom -12395.491544 kJ/mol
# Density = 1.948671 g / cm^3
# Si number density = 19.531160 Si / 1000 Ang^3
#
#
#
# Elastic Constant Matrix: (Units=GPa)
#
#
# Indices 1 2 3 4 5 6 
#
# 1 79.9229 37.0828 30.7698 9.5153 1.8596 -4.3275
# 2 37.0828 119.1062 43.9269 25.7010 2.6622 10.3519
# 3 30.7698 43.9269 57.6811 13.6767 6.3008 -10.0433
# 4 9.5153 25.7010 13.6767 23.4011 -3.9050 -10.4093
# 5 1.8596 2.6622 6.3008 -3.9050 28.7138 -3.8204
# 6 -4.3275 10.3519 -10.0433 -10.4093 -3.8204 35.6907
#
#
#
# Elastic Compliance Matrix: (Units=1/GPa)
#
#
# Indices 1 2 3 4 5 6 
#
# 1 0.016381 -0.003222 -0.006493 0.001605 0.001104 0.001680
# 2 -0.003222 0.019187 -0.010010 -0.021548 -0.004370 -0.015525
# 3 -0.006493 -0.010010 0.030766 -0.000503 -0.004116 0.010186
# 4 0.001605 -0.021548 -0.000503 0.083465 0.017685 0.032539
# 5 0.001104 -0.004370 -0.004116 0.017685 0.039753 0.009656
# 6 0.001680 -0.015525 0.010186 0.032539 0.009656 0.046115
#
#
# Mechanical properties :
#
#
# Convention : Reuss Voigt Hill
#
# Bulk Modulus (GPa) = 37.19720 53.36325 45.28023
# Shear Modulus (GPa) = 17.60072 27.22318 22.41195
#
# Velocity S-wave (km/s) = 3.00519 3.73746 3.39115
# Velocity P-wave (km/s) = 5.57924 6.78279 6.21024
#
# Compressibility (1/GPa) = 0.02688374
#
# Stress axis : x y z
#
# Youngs Moduli (GPa) = 61.04538 52.11754 32.50363
#
# Poissons Ratio (x) = 0.16795 0.21105
# Poissons Ratio (y) = 0.19672 0.32535
# Poissons Ratio (z) = 0.39637 0.52168
#
# Static dielectric constant tensor:
#      x y z
#    x 3.587990 -0.103150 -0.229330 
#    y -0.103150 4.670300 0.341010 
#    z -0.229330 0.341010 3.441290 
# 
# 
# High freq. dielectric constant tensor:
#      x y z
#    x 1.754260 0.006850 -0.028040 
#    y 0.006850 1.781720 0.017030 
#    z -0.028040 0.017030 1.736590 
# 
# From -- ./inp_files/186048.got.cif
#   From: 2010.06.25/outbox.cif.g09.slc.cpg/sg2_94_cif.got.tgz:186048.got - 2010.06.27 13:26:56.
