data_PCOD8005319
_publ_section_title
;
Structure prediction by ZEFSAII (Michael W. Deem and Ramdas Pophale) SiO2 
 PCOD8005319
Probable space group: P -1
;
_chemical_formula_sum "Si O2"
_cell_formula_units_Z 16
_cell_length_a 7.891681
_cell_length_b 16.759437
_cell_length_c 12.949639
_cell_angle_alpha 155.470792
_cell_angle_beta 84.432401
_cell_angle_gamma 101.511047
_cell_volume 681.540111
_symmetry_space_group_name_H-M "P -1"
_symmetry_group_IT_number 2
_symmetry_cell_setting 'triclinic'
loop_
_space_group_symop_operation_xyz
x,y,z
-x,-y,-z
loop_
_atom_site_type_symbol
_atom_site_label
_atom_site_fract_x
_atom_site_fract_y
_atom_site_fract_z
Si Si1 0.028536 0.790623 0.141527
Si Si2 0.990898 0.760043 0.335384
Si Si3 0.329008 0.962293 0.187455
Si Si4 0.147981 0.786203 0.563707
Si Si5 0.326551 0.481107 0.253140
Si Si6 0.594530 0.616798 0.231309
Si Si7 0.359542 0.204799 0.098514
Si Si8 0.851849 0.860584 0.774013
O O1 0.049857 0.703977 0.152939
O O2 0.013219 0.013637 0.405040
O O3 0.201259 0.791796 0.065494
O O4 0.850088 0.654576 0.945710
O O5 0.798829 0.622545 0.217235
O O6 0.131130 0.727356 0.373986
O O7 0.424241 0.155495 0.481179
O O8 0.212568 0.024337 0.178719
O O9 0.459612 0.855275 0.997198
O O10 0.291971 0.700833 0.515475
O O11 0.951524 0.708545 0.536141
O O12 0.205013 0.025797 0.849310
O O13 0.500376 0.486734 0.181873
O O14 0.360551 0.408448 0.279012
O O15 0.500000 0.500000 0.000000
O O16 0.317421 0.243644 0.266808
O O17 0.000000 0.000000 0.000000
#
# Coordination Sequence:
#
# PCOD8005319 Si02
#       8
#     2   2   2   2   2   2   2   2
#     4  10  20  38  66  98 128 180 231 267 335 414
#     4  10  20  40  66  93 138 180 222 278 336 401
#     4  11  22  45  70  98 143 177 222 287 340 401
#     4  11  22  42  69  96 138 177 226 285 338 398
#     4  12  24  41  66  98 138 180 227 278 336 405
#     4  11  22  41  67 100 139 179 219 277 339 404
#     4  11  24  43  67 100 135 178 230 281 340 402
#     4  10  21  43  74  96 129 182 227 283 350 395
#
# _framework density 23.476241000000002
#
# number of rings (size 3 to 8) (size 9 to 14) (size 15 to 20)
#    0.000    1.250    6.250    1.125    0.000    2.000 
#    2.250    1.875    0.000    0.000    0.000    0.000 
#    0.000    0.000    0.000    0.000    0.000    0.000 
#
# Total GULP energy -198258.758235 kJ/mol
# GULP energy per Si atom -12391.172390 kJ/mol
# Density = 2.342281 g / cm^3
# Si number density = 23.476241 Si / 1000 Ang^3
#
#
#
# Elastic Constant Matrix: (Units=GPa)
#
#
# Indices 1 2 3 4 5 6 
#
# 1 76.4959 56.8984 1.8628 -0.0058 -18.0210 10.2374
# 2 56.8984 154.3586 16.6741 -15.5507 -20.5612 27.3381
# 3 1.8628 16.6741 38.1980 3.7119 5.5850 -3.5189
# 4 -0.0058 -15.5507 3.7119 28.0905 2.0333 1.5910
# 5 -18.0210 -20.5612 5.5850 2.0333 32.2477 4.9629
# 6 10.2374 27.3381 -3.5189 1.5910 4.9629 51.6475
#
#
#
# Elastic Compliance Matrix: (Units=1/GPa)
#
#
# Indices 1 2 3 4 5 6 
#
# 1 0.019870 -0.006880 0.001395 -0.004445 0.006868 -0.000725
# 2 -0.006880 0.012576 -0.007403 0.007881 0.005977 -0.006614
# 3 0.001395 -0.007403 0.032251 -0.008028 -0.010106 0.007058
# 4 -0.004445 0.007881 -0.008028 0.041167 0.002153 -0.005312
# 5 0.006868 0.005977 -0.010106 0.002153 0.041703 -0.009287
# 6 -0.000725 -0.006614 0.007058 -0.005312 -0.009287 0.024544
#
#
# Mechanical properties :
#
#
# Convention : Reuss Voigt Hill
#
# Bulk Modulus (GPa) = 25.69266 46.65813 36.17540
# Shear Modulus (GPa) = 23.71253 35.30495 29.50874
#
# Velocity S-wave (km/s) = 3.18160 3.88217 3.54921
# Velocity P-wave (km/s) = 4.94617 6.32556 5.67791
#
# Compressibility (1/GPa) = 0.03892162
#
# Stress axis : x y z
#
# Youngs Moduli (GPa) = 50.32588 79.51939 31.00696
#
# Poissons Ratio (x) = 0.54707 -0.04326
# Poissons Ratio (y) = 0.34623 0.22954
# Poissons Ratio (z) = -0.07021 0.58868
#
# Static dielectric constant tensor:
#      x y z
#    x 4.329290 0.570610 -0.058260 
#    y 0.570610 4.901790 0.018000 
#    z -0.058260 0.018000 4.431780 
# 
# 
# High freq. dielectric constant tensor:
#      x y z
#    x 1.931450 0.020520 0.007400 
#    y 0.020520 1.937900 -0.006470 
#    z 0.007400 -0.006470 1.916370 
# 
# From -- ./inp_files/206682.got.cif
#   From: 2010.06.25/outbox.cif.g09.slc.cpg/sg2_104_cif.got.tgz:206682.got - 2010.06.27 13:26:56.
