data_PCOD8005929
_publ_section_title
;
Structure prediction by ZEFSAII (Michael W. Deem and Ramdas Pophale) SiO2 
 PCOD8005929
Probable space group: P -1
;
_chemical_formula_sum "Si O2"
_cell_formula_units_Z 16
_cell_length_a 8.828766
_cell_length_b 15.168361
_cell_length_c 11.079695
_cell_angle_alpha 101.794033
_cell_angle_beta 103.863814
_cell_angle_gamma 30.705979
_cell_volume 735.585052
_symmetry_space_group_name_H-M "P -1"
_symmetry_group_IT_number 2
_symmetry_cell_setting 'triclinic'
loop_
_space_group_symop_operation_xyz
x,y,z
-x,-y,-z
loop_
_atom_site_type_symbol
_atom_site_label
_atom_site_fract_x
_atom_site_fract_y
_atom_site_fract_z
Si Si1 0.364929 0.467070 0.603018
Si Si2 0.887271 0.496841 0.092497
Si Si3 0.955863 0.288773 0.171318
Si Si4 0.879515 0.340699 0.620921
Si Si5 0.494536 0.963259 0.621419
Si Si6 0.361767 0.374197 0.244969
Si Si7 0.263991 0.800742 0.964624
Si Si8 0.354574 0.827943 0.526488
O O1 0.289094 0.543173 0.741294
O O2 0.662855 0.363102 0.574367
O O3 0.101151 0.618544 0.496448
O O4 0.460795 0.313622 0.585899
O O5 0.991892 0.339643 0.078040
O O6 0.068169 0.454376 0.225004
O O7 0.524527 0.677322 0.082534
O O8 0.000000 0.500000 0.000000
O O9 0.857194 0.241095 0.086277
O O10 0.249543 0.129972 0.264359
O O11 0.760915 0.463807 0.739589
O O12 0.193715 0.149457 0.675056
O O13 0.492102 0.857791 0.578529
O O14 0.500000 0.000000 0.500000
O O15 0.572482 0.246453 0.137613
O O16 0.573800 0.265472 0.368815
O O17 0.000000 0.000000 0.000000
O O18 0.000000 0.000000 0.500000
#
# Coordination Sequence:
#
# PCOD8005929 Si02
#       8
#     2   2   2   2   2   2   2   2
#     4  10  21  38  66  95 136 180 213 250 329 418
#     4  10  24  48  69  91 127 178 235 287 334 390
#     4  12  24  45  68 100 135 178 220 281 347 391
#     4  10  20  39  63  99 137 180 205 256 329 415
#     4  12  25  39  64 106 143 171 217 267 323 411
#     4  10  22  44  70  92 134 179 219 267 345 396
#     4  11  26  46  70  97 128 169 235 298 334 388
#     4  11  23  39  65 101 139 174 219 256 319 421
#
# _framework density 21.751394000000001
#
# number of rings (size 3 to 8) (size 9 to 14) (size 15 to 20)
#    0.000    1.250    5.000    0.375    3.500    2.500 
#    0.000    2.500    0.000    0.000    0.000    0.000 
#    0.000    0.000    0.000    0.000    0.000    0.000 
#
# Total GULP energy -198210.205300 kJ/mol
# GULP energy per Si atom -12388.137831 kJ/mol
# Density = 2.170189 g / cm^3
# Si number density = 21.751394 Si / 1000 Ang^3
#
#
#
# Elastic Constant Matrix: (Units=GPa)
#
#
# Indices 1 2 3 4 5 6 
#
# 1 107.0196 58.1162 39.6752 -3.8479 25.0185 5.3239
# 2 58.1162 170.4391 60.3091 -0.2780 20.7747 5.5870
# 3 39.6752 60.3091 80.5935 4.2116 15.4460 -1.1246
# 4 -3.8479 -0.2780 4.2116 47.2051 -0.5686 12.3702
# 5 25.0185 20.7747 15.4460 -0.5686 39.5589 -5.2275
# 6 5.3239 5.5870 -1.1246 12.3702 -5.2275 30.4922
#
#
#
# Elastic Compliance Matrix: (Units=1/GPa)
#
#
# Indices 1 2 3 4 5 6 
#
# 1 0.013971 -0.002399 -0.004022 0.002530 -0.006537 -0.004295
# 2 -0.002399 0.008740 -0.005181 0.000806 -0.001292 -0.001922
# 3 -0.004022 -0.005181 0.018784 -0.002902 -0.001685 0.003233
# 4 0.002530 0.000806 -0.002902 0.024507 -0.001989 -0.010980
# 5 -0.006537 -0.001292 -0.001685 -0.001989 0.031720 0.007561
# 6 -0.004295 -0.001922 0.003233 -0.010980 0.007561 0.039767
#
#
# Mechanical properties :
#
#
# Convention : Reuss Voigt Hill
#
# Bulk Modulus (GPa) = 54.66828 74.91703 64.79265
# Shear Modulus (GPa) = 29.97786 36.78133 33.37960
#
# Velocity S-wave (km/s) = 3.71644 4.11662 3.92164
# Velocity P-wave (km/s) = 6.60331 7.55729 7.09635
#
# Compressibility (1/GPa) = 0.01829214
#
# Stress axis : x y z
#
# Youngs Moduli (GPa) = 71.57931 114.41360 53.23608
#
# Poissons Ratio (x) = 0.27447 0.21410
# Poissons Ratio (y) = 0.17171 0.27580
# Poissons Ratio (z) = 0.28788 0.59275
#
# Static dielectric constant tensor:
#      x y z
#    x 4.057910 -0.111730 0.324170 
#    y -0.111730 4.074780 -0.201740 
#    z 0.324170 -0.201740 3.949510 
# 
# 
# High freq. dielectric constant tensor:
#      x y z
#    x 1.860770 0.003530 0.019550 
#    y 0.003530 1.866130 -0.012960 
#    z 0.019550 -0.012960 1.838960 
# 
# From -- ./inp_files/272172.got.cif
#   From: 2010.06.25/outbox.cif.g09.slc.cpg/sg2_137_cif.got.tgz:272172.got - 2010.06.27 13:26:56.
