data_PCOD8005513
_publ_section_title
;
Structure prediction by ZEFSAII (Michael W. Deem and Ramdas Pophale) SiO2 
 PCOD8005513
Probable space group: P -1
;
_chemical_formula_sum "Si O2"
_cell_formula_units_Z 16
_cell_length_a 17.312289
_cell_length_b 8.995426
_cell_length_c 15.539690
_cell_angle_alpha 140.767135
_cell_angle_beta 154.863642
_cell_angle_gamma 41.354928
_cell_volume 639.071282
_symmetry_space_group_name_H-M "P -1"
_symmetry_group_IT_number 2
_symmetry_cell_setting 'triclinic'
loop_
_space_group_symop_operation_xyz
x,y,z
-x,-y,-z
loop_
_atom_site_type_symbol
_atom_site_label
_atom_site_fract_x
_atom_site_fract_y
_atom_site_fract_z
Si Si1 0.930677 0.485074 0.711138
Si Si2 0.446947 0.701930 0.467628
Si Si3 0.809728 0.336052 0.071004
Si Si4 0.241738 0.640609 0.773613
Si Si5 0.419385 0.139603 0.741629
Si Si6 0.448786 0.277339 0.596128
Si Si7 0.018534 0.831815 0.089524
Si Si8 0.922939 0.032641 0.602542
O O1 0.760746 0.616352 0.538402
O O2 0.917227 0.212182 0.597468
O O3 0.112818 0.486604 0.837472
O O4 0.930056 0.619962 0.863628
O O5 0.500000 0.500000 0.500000
O O6 0.548529 0.592185 0.435406
O O7 0.233716 0.771659 0.259164
O O8 0.506850 0.949658 0.671353
O O9 0.820203 0.408067 0.213064
O O10 0.592039 0.352814 0.841359
O O11 0.926964 0.072015 0.055023
O O12 0.304314 0.371573 0.679492
O O13 0.411605 0.785510 0.001789
O O14 0.065112 0.787419 0.610703
O O15 0.282909 0.018650 0.610334
O O16 0.500000 0.000000 0.500000
O O17 0.989647 0.860631 0.176406
#
# Coordination Sequence:
#
# PCOD8005513 Si02
#       8
#     2   2   2   2   2   2   2   2
#     4  12  23  37  61  97 133 168 204 262 327 382
#     4  11  23  37  64  96 129 159 200 269 314 368
#     4  11  23  41  61  95 130 172 214 253 318 387
#     4  10  23  43  72  86 121 173 217 266 305 375
#     4  10  22  43  64  97 120 162 226 259 309 372
#     4  12  22  36  59  91 130 168 205 255 316 375
#     4  10  20  39  58  90 133 171 210 250 311 390
#     4  10  23  38  65  93 125 161 212 273 313 367
#
# _framework density 25.036332999999999
#
# number of rings (size 3 to 8) (size 9 to 14) (size 15 to 20)
#    0.000    1.250    2.500    4.125    3.500    3.000 
#    0.000    0.625    0.000   10.500    0.000    0.000 
#    0.000    0.000    0.000    0.000    0.000    0.000 
#
# Total GULP energy -198377.065487 kJ/mol
# GULP energy per Si atom -12398.566593 kJ/mol
# Density = 2.497935 g / cm^3
# Si number density = 25.036333 Si / 1000 Ang^3
#
#
#
# Elastic Constant Matrix: (Units=GPa)
#
#
# Indices 1 2 3 4 5 6 
#
# 1 44.8213 28.3237 5.3020 1.7707 11.7328 16.6118
# 2 28.3237 105.4677 32.8037 10.2019 3.2705 7.6152
# 3 5.3020 32.8037 82.6925 -6.6372 15.7460 11.6605
# 4 1.7707 10.2019 -6.6372 27.4416 0.0843 2.1922
# 5 11.7328 3.2705 15.7460 0.0843 30.5471 1.1131
# 6 16.6118 7.6152 11.6605 2.1922 1.1131 34.2174
#
#
#
# Elastic Compliance Matrix: (Units=1/GPa)
#
#
# Indices 1 2 3 4 5 6 
#
# 1 0.041113 -0.012412 0.009096 0.005821 -0.018435 -0.020070
# 2 -0.012412 0.015402 -0.008037 -0.007336 0.007078 0.005577
# 3 0.009096 -0.008037 0.018912 0.007745 -0.012068 -0.009175
# 4 0.005821 -0.007336 0.007745 0.041186 -0.005327 -0.006298
# 5 -0.018435 0.007078 -0.012068 -0.005327 0.044917 0.010367
# 6 -0.020070 0.005577 -0.009175 -0.006298 0.010367 0.040920
#
#
# Mechanical properties :
#
#
# Convention : Reuss Voigt Hill
#
# Bulk Modulus (GPa) = 18.96861 40.64891 29.80876
# Shear Modulus (GPa) = 20.59902 29.54471 25.07186
#
# Velocity S-wave (km/s) = 2.87150 3.43895 3.16795
# Velocity P-wave (km/s) = 4.31125 5.66036 5.03123
#
# Compressibility (1/GPa) = 0.05271867
#
# Stress axis : x y z
#
# Youngs Moduli (GPa) = 24.32342 64.92569 52.87752
#
# Poissons Ratio (x) = 0.80587 -0.48095
# Poissons Ratio (y) = 0.30191 0.42499
# Poissons Ratio (z) = -0.22123 0.52182
#
# Static dielectric constant tensor:
#      x y z
#    x 6.790470 -1.557900 -1.006290 
#    y -1.557900 5.413030 0.556480 
#    z -1.006290 0.556480 5.050850 
# 
# 
# High freq. dielectric constant tensor:
#      x y z
#    x 1.993660 -0.005100 0.013250 
#    y -0.005100 1.992000 -0.006750 
#    z 0.013250 -0.006750 1.995360 
# 
# From -- ./inp_files/577644.got.cif
#   From: 2010.06.25/outbox.cif.g09.slc.cpg/sg2_289_cif.got.tgz:577644.got - 2010.06.27 13:26:56.
