data_PCOD8005934
_publ_section_title
;
Structure prediction by ZEFSAII (Michael W. Deem and Ramdas Pophale) SiO2 
 PCOD8005934
Probable space group: P -1
;
_chemical_formula_sum "Si O2"
_cell_formula_units_Z 14
_cell_length_a 6.559430
_cell_length_b 19.710898
_cell_length_c 5.550862
_cell_angle_alpha 83.743591
_cell_angle_beta 101.454247
_cell_angle_gamma 60.087028
_cell_volume 591.127873
_symmetry_space_group_name_H-M "P -1"
_symmetry_group_IT_number 2
_symmetry_cell_setting 'triclinic'
loop_
_space_group_symop_operation_xyz
x,y,z
-x,-y,-z
loop_
_atom_site_type_symbol
_atom_site_label
_atom_site_fract_x
_atom_site_fract_y
_atom_site_fract_z
Si Si1 0.171148 0.188012 0.884983
Si Si2 0.672564 0.615769 0.787764
Si Si3 0.217074 0.679032 0.942875
Si Si4 0.935247 0.098337 0.692732
Si Si5 0.281391 0.908523 0.849952
Si Si6 0.843402 0.446173 0.789926
Si Si7 0.879898 0.673398 0.476761
O O1 0.225602 0.252931 0.760908
O O2 0.081166 0.144737 0.700205
O O3 0.430278 0.122572 0.090496
O O4 0.950434 0.234439 0.006478
O O5 0.475596 0.666907 0.927902
O O6 0.645252 0.542756 0.708287
O O7 0.645762 0.679323 0.553160
O O8 0.951826 0.576670 0.951031
O O9 0.075769 0.679513 0.675773
O O10 0.286900 0.603210 0.162146
O O11 0.778894 0.123595 0.396810
O O12 0.778126 0.119021 0.897766
O O13 0.137622 0.004263 0.771082
O O14 0.976349 0.415428 0.576928
#
# Coordination Sequence:
#
# PCOD8005934 Si02
#       7
#     2   2   2   2   2   2   2
#     4  11  25  43  65  98 143 179 219 287 348 411
#     4  10  20  39  64  84 125 171 222 281 333 403
#     4  10  23  38  57  95 129 168 225 269 344 414
#     4  10  24  45  75 107 136 185 235 281 347 406
#     4  10  24  46  73 107 139 180 239 283 335 423
#     4   9  20  39  60  88 120 171 222 281 336 392
#     4  10  23  38  56  94 127 168 225 268 345 412
#
# _framework density 23.683541000000002
#
# number of rings (size 3 to 8) (size 9 to 14) (size 15 to 20)
#    0.000    2.000    0.000    1.286    4.000    7.429 
#    0.000    4.286    0.000    0.000    0.000    0.000 
#    0.000    0.000    0.000    0.000    0.000    0.000 
#
# Total GULP energy -173523.487290 kJ/mol
# GULP energy per Si atom -12394.534806 kJ/mol
# Density = 2.362964 g / cm^3
# Si number density = 23.683541 Si / 1000 Ang^3
#
#
#
# Elastic Constant Matrix: (Units=GPa)
#
#
# Indices 1 2 3 4 5 6 
#
# 1 126.2263 57.2986 34.7432 8.3434 -21.3649 -19.3299
# 2 57.2986 93.2446 37.7082 19.3470 1.2866 -5.0642
# 3 34.7432 37.7082 100.0253 28.1090 -8.2031 -6.8653
# 4 8.3434 19.3470 28.1090 24.8942 0.5266 6.7810
# 5 -21.3649 1.2866 -8.2031 0.5266 39.0732 6.9935
# 6 -19.3299 -5.0642 -6.8653 6.7810 6.9935 28.8705
#
#
#
# Elastic Compliance Matrix: (Units=1/GPa)
#
#
# Indices 1 2 3 4 5 6 
#
# 1 0.013784 -0.008039 -0.001203 0.001311 0.006521 0.005645
# 2 -0.008039 0.018581 -0.001805 -0.009889 -0.005448 0.001090
# 3 -0.001203 -0.001805 0.017285 -0.019694 0.002021 0.007124
# 4 0.001311 -0.009889 -0.019694 0.076031 0.000074 -0.023416
# 5 0.006521 -0.005448 0.002021 0.000074 0.030385 -0.003487
# 6 0.005645 0.001090 0.007124 -0.023416 -0.003487 0.046647
#
#
# Mechanical properties :
#
#
# Convention : Reuss Voigt Hill
#
# Bulk Modulus (GPa) = 36.29155 64.33290 50.31222
# Shear Modulus (GPa) = 21.36801 31.21732 26.29267
#
# Velocity S-wave (km/s) = 3.00697 3.63451 3.33553
# Velocity P-wave (km/s) = 5.23571 6.69592 6.01033
#
# Compressibility (1/GPa) = 0.02755462
#
# Stress axis : x y z
#
# Youngs Moduli (GPa) = 72.54577 53.81869 57.85283
#
# Poissons Ratio (x) = 0.43266 0.06962
# Poissons Ratio (y) = 0.58321 0.10444
# Poissons Ratio (z) = 0.08730 0.09716
#
# Static dielectric constant tensor:
#      x y z
#    x 4.138190 0.124890 -0.209070 
#    y 0.124890 4.385990 0.122560 
#    z -0.209070 0.122560 4.273640 
# 
# 
# High freq. dielectric constant tensor:
#      x y z
#    x 1.933460 0.005130 -0.006430 
#    y 0.005130 1.944340 0.009170 
#    z -0.006430 0.009170 1.933000 
# 
# From -- ./inp_files/7463.got.cif
#   From: 2010.06.25/outbox.cif.g09.slc.cpg/sg2_4_cif.got.tgz:7463.got - 2010.06.27 13:26:56.
