data_PCOD8005318
_publ_section_title
;
Structure prediction by ZEFSAII (Michael W. Deem and Ramdas Pophale) SiO2 
 PCOD8005318
Probable space group: P -1
;
_chemical_formula_sum "Si O2"
_cell_formula_units_Z 16
_cell_length_a 20.236970
_cell_length_b 21.858642
_cell_length_c 8.859461
_cell_angle_alpha 144.900976
_cell_angle_beta 31.645636
_cell_angle_gamma 158.991996
_cell_volume 731.386195
_symmetry_space_group_name_H-M "P -1"
_symmetry_group_IT_number 2
_symmetry_cell_setting 'triclinic'
loop_
_space_group_symop_operation_xyz
x,y,z
-x,-y,-z
loop_
_atom_site_type_symbol
_atom_site_label
_atom_site_fract_x
_atom_site_fract_y
_atom_site_fract_z
Si Si1 0.877599 0.869678 0.177932
Si Si2 0.680742 0.788388 0.110143
Si Si3 0.645889 0.159594 0.825933
Si Si4 0.052629 0.234363 0.905271
Si Si5 0.667004 0.897143 0.845881
Si Si6 0.601621 0.204811 0.334327
Si Si7 0.946314 0.539065 0.545356
Si Si8 0.625446 0.674621 0.683090
O O1 0.726509 0.746360 0.081986
O O2 0.873992 0.765623 0.079835
O O3 0.797369 0.923648 0.519837
O O4 0.108193 0.033299 0.009825
O O5 0.550680 0.804304 0.439938
O O6 0.566715 0.644817 0.913093
O O7 0.861335 0.295317 0.595258
O O8 0.520523 0.965419 0.675423
O O9 0.516359 0.162688 0.996769
O O10 0.691930 0.217932 0.029338
O O11 0.144021 0.216628 0.562466
O O12 0.811360 0.074865 0.017006
O O13 0.140196 0.412181 0.105018
O O14 0.582076 0.757721 0.853026
O O15 0.782869 0.371584 0.420394
O O16 0.000000 0.500000 0.500000
O O17 0.500000 0.500000 0.500000
#
# Coordination Sequence:
#
# PCOD8005318 Si02
#       8
#     2   2   2   2   2   2   2   2
#     4  10  20  38  66  98 128 172 224 275 335 409
#     4  11  20  39  68 100 130 170 224 278 337 404
#     4  11  26  46  73  98 136 188 228 281 350 393
#     4  11  22  43  63  94 134 174 216 279 338 400
#     4  11  21  43  65  94 134 176 224 275 340 410
#     4  11  25  48  70  99 139 181 230 285 337 413
#     4  12  28  46  70 103 136 178 239 283 337 406
#     4  11  23  38  62  95 136 169 212 277 339 399
#
# _framework density 21.876268
#
# number of rings (size 3 to 8) (size 9 to 14) (size 15 to 20)
#    0.000    1.000    3.750    3.375    3.500    1.000 
#    2.250    1.875    0.000    0.000    0.000    0.000 
#    0.000    0.000    0.000    0.000    0.000    0.000 
#
# Total GULP energy -198322.038124 kJ/mol
# GULP energy per Si atom -12395.127383 kJ/mol
# Density = 2.182648 g / cm^3
# Si number density = 21.876268 Si / 1000 Ang^3
#
#
#
# Elastic Constant Matrix: (Units=GPa)
#
#
# Indices 1 2 3 4 5 6 
#
# 1 107.3213 24.4966 36.6971 14.6055 3.0192 10.4233
# 2 24.4966 87.2703 10.8062 19.6301 5.7746 5.5055
# 3 36.6971 10.8062 61.1306 14.6237 0.0842 -1.6716
# 4 14.6055 19.6301 14.6237 42.5797 1.5870 4.7786
# 5 3.0192 5.7746 0.0842 1.5870 37.9632 -1.5922
# 6 10.4233 5.5055 -1.6716 4.7786 -1.5922 30.3437
#
#
#
# Elastic Compliance Matrix: (Units=1/GPa)
#
#
# Indices 1 2 3 4 5 6 
#
# 1 0.012848 -0.002296 -0.007355 -0.000298 -0.000828 -0.004398
# 2 -0.002296 0.013438 0.000257 -0.005334 -0.001676 -0.000883
# 3 -0.007355 0.000257 0.022240 -0.005793 0.000934 0.004666
# 4 -0.000298 -0.005334 -0.005793 0.028477 -0.000500 -0.003760
# 5 -0.000828 -0.001676 0.000934 -0.000500 0.026770 0.002124
# 6 -0.004398 -0.000883 0.004666 -0.003760 0.002124 0.035587
#
#
# Mechanical properties :
#
#
# Convention : Reuss Voigt Hill
#
# Bulk Modulus (GPa) = 33.62664 44.41357 39.02010
# Shear Modulus (GPa) = 29.75133 34.42547 32.08840
#
# Velocity S-wave (km/s) = 3.69179 3.97122 3.83405
# Velocity P-wave (km/s) = 5.79458 6.43224 6.12172
#
# Compressibility (1/GPa) = 0.02973833
#
# Stress axis : x y z
#
# Youngs Moduli (GPa) = 77.83440 74.41677 44.96424
#
# Poissons Ratio (x) = 0.17089 0.33069
# Poissons Ratio (y) = 0.17874 -0.01157
# Poissons Ratio (z) = 0.57243 -0.01915
#
# Static dielectric constant tensor:
#      x y z
#    x 4.199390 -0.224240 0.790170 
#    y -0.224240 3.891830 -0.413700 
#    z 0.790170 -0.413700 5.269850 
# 
# 
# High freq. dielectric constant tensor:
#      x y z
#    x 1.868490 0.011790 0.005780 
#    y 0.011790 1.857770 -0.001460 
#    z 0.005780 -0.001460 1.869030 
# 
# From -- ./inp_files/320733.got.cif
#   From: 2010.06.25/outbox.cif.g09.slc.cpg/sg2_161_cif.got.tgz:320733.got - 2010.06.27 13:26:56.
