data_PCOD8005861
_publ_section_title
;
Structure prediction by ZEFSAII (Michael W. Deem and Ramdas Pophale) SiO2 
 PCOD8005861
Probable space group: P -1
;
_chemical_formula_sum "Si O2"
_cell_formula_units_Z 16
_cell_length_a 15.098633
_cell_length_b 5.744891
_cell_length_c 9.189086
_cell_angle_alpha 103.001190
_cell_angle_beta 74.275259
_cell_angle_gamma 89.276897
_cell_volume 745.258727
_symmetry_space_group_name_H-M "P -1"
_symmetry_group_IT_number 2
_symmetry_cell_setting 'triclinic'
loop_
_space_group_symop_operation_xyz
x,y,z
-x,-y,-z
loop_
_atom_site_type_symbol
_atom_site_label
_atom_site_fract_x
_atom_site_fract_y
_atom_site_fract_z
Si Si1 0.894277 0.134560 0.440782
Si Si2 0.788103 0.751181 0.288052
Si Si3 0.910405 0.986833 0.732487
Si Si4 0.450672 0.772672 0.555438
Si Si5 0.816821 0.370531 0.002696
Si Si6 0.324890 0.954200 0.864084
Si Si7 0.714714 0.457742 0.519073
Si Si8 0.742120 0.691031 0.827128
O O1 0.820239 0.347276 0.459965
O O2 0.991400 0.169414 0.320114
O O3 0.860418 0.880120 0.371363
O O4 0.910759 0.141484 0.606663
O O5 0.848850 0.554043 0.135468
O O6 0.733069 0.925750 0.225642
O O7 0.711718 0.643453 0.412177
O O8 0.824525 0.827516 0.741219
O O9 0.897184 0.161847 0.904111
O O10 0.500000 0.500000 0.500000
O O11 0.356351 0.745772 0.502637
O O12 0.500000 0.000000 0.500000
O O13 0.425197 0.856126 0.744321
O O14 0.724596 0.274281 0.094774
O O15 0.788592 0.483451 0.876593
O O16 0.330784 0.137679 0.022148
O O17 0.686926 0.586410 0.702347
#
# Coordination Sequence:
#
# PCOD8005861 Si02
#       8
#     2   2   2   2   2   2   2   2
#     4  11  22  36  61  93 138 171 229 281 324 402
#     4  11  20  38  66  89 127 178 225 272 328 409
#     4  10  22  37  56  99 134 176 224 279 327 382
#     4  12  27  46  76 105 136 170 226 291 346 416
#     4  10  20  39  63  90 129 176 217 274 331 402
#     4  10  22  43  66  96 130 174 216 274 348 399
#     4  12  23  42  67  99 125 180 223 272 347 405
#     4  10  22  39  68  91 135 177 222 265 336 409
#
# _framework density 21.469054
#
# number of rings (size 3 to 8) (size 9 to 14) (size 15 to 20)
#    0.000    1.250    5.000    0.750    1.750    2.000 
#    0.000   10.000    0.000    0.000    0.000    0.000 
#    0.000    0.000    0.000    0.000    0.000    0.000 
#
# Total GULP energy -198298.834320 kJ/mol
# GULP energy per Si atom -12393.677145 kJ/mol
# Density = 2.142019 g / cm^3
# Si number density = 21.469054 Si / 1000 Ang^3
#
#
#
# Elastic Constant Matrix: (Units=GPa)
#
#
# Indices 1 2 3 4 5 6 
#
# 1 41.2253 4.3584 32.4003 15.6423 -10.1830 3.7275
# 2 4.3584 62.0468 34.8646 19.0792 -13.1923 4.4497
# 3 32.4003 34.8646 150.5943 26.2195 -12.1196 7.9191
# 4 15.6423 19.0792 26.2195 38.3391 4.0427 2.2551
# 5 -10.1830 -13.1923 -12.1196 4.0427 38.8885 3.3837
# 6 3.7275 4.4497 7.9191 2.2551 3.3837 30.5968
#
#
#
# Elastic Compliance Matrix: (Units=1/GPa)
#
#
# Indices 1 2 3 4 5 6 
#
# 1 0.038319 0.009199 -0.006047 -0.017223 0.013466 -0.004661
# 2 0.009199 0.024883 -0.004134 -0.014282 0.011384 -0.003876
# 3 -0.006047 -0.004134 0.009272 -0.001779 0.000172 -0.000950
# 4 -0.017223 -0.014282 -0.001779 0.042794 -0.014627 0.003099
# 5 0.013466 0.011384 0.000172 -0.014627 0.035212 -0.006157
# 6 -0.004661 -0.003876 -0.000950 0.003099 -0.006157 0.034513
#
#
# Mechanical properties :
#
#
# Convention : Reuss Voigt Hill
#
# Bulk Modulus (GPa) = 14.18181 44.12367 29.15274
# Shear Modulus (GPa) = 23.75753 33.71442 28.73598
#
# Velocity S-wave (km/s) = 3.33016 3.96709 3.66250
# Velocity P-wave (km/s) = 4.62673 6.44830 5.61192
#
# Compressibility (1/GPa) = 0.07051285
#
# Stress axis : x y z
#
# Youngs Moduli (GPa) = 26.09645 40.18750 107.85449
#
# Poissons Ratio (x) = -0.36970 0.65217
# Poissons Ratio (y) = -0.24007 0.44582
# Poissons Ratio (z) = 0.15780 0.16612
#
# Static dielectric constant tensor:
#      x y z
#    x 3.585410 0.042940 -0.138060 
#    y 0.042940 3.990270 0.257710 
#    z -0.138060 0.257710 4.371910 
# 
# 
# High freq. dielectric constant tensor:
#      x y z
#    x 1.797440 0.005430 -0.004010 
#    y 0.005430 1.852090 0.011490 
#    z -0.004010 0.011490 1.868570 
# 
# From -- ./inp_files/37900.got.cif
#   From: 2010.06.25/outbox.cif.g09.slc.cpg/sg2_19_cif.got.tgz:37900.got - 2010.06.27 13:26:56.
