data_PCOD8005623
_publ_section_title
;
Structure prediction by ZEFSAII (Michael W. Deem and Ramdas Pophale) SiO2 
 PCOD8005623
Probable space group: P -1
;
_chemical_formula_sum "Si O2"
_cell_formula_units_Z 14
_cell_length_a 7.533301
_cell_length_b 13.771316
_cell_length_c 9.856291
_cell_angle_alpha 39.368041
_cell_angle_beta 106.079213
_cell_angle_gamma 109.363841
_cell_volume 611.534311
_symmetry_space_group_name_H-M "P -1"
_symmetry_group_IT_number 2
_symmetry_cell_setting 'triclinic'
loop_
_space_group_symop_operation_xyz
x,y,z
-x,-y,-z
loop_
_atom_site_type_symbol
_atom_site_label
_atom_site_fract_x
_atom_site_fract_y
_atom_site_fract_z
Si Si1 0.337413 0.273481 0.159700
Si Si2 0.031729 0.338445 0.358050
Si Si3 0.382255 0.868535 0.022656
Si Si4 0.889117 0.209549 0.724494
Si Si5 0.169861 0.060492 0.573833
Si Si6 0.753442 0.864926 0.983933
Si Si7 0.259853 0.562175 0.986843
O O1 0.338485 0.159646 0.411695
O O2 0.210231 0.181386 0.113026
O O3 0.543815 0.321308 0.089088
O O4 0.258538 0.425326 0.023602
O O5 0.105971 0.175709 0.547112
O O6 0.923367 0.347197 0.469186
O O7 0.890642 0.336761 0.203059
O O8 0.201855 0.486968 0.205203
O O9 0.539220 0.788264 0.069386
O O10 0.252006 0.930264 0.814793
O O11 0.239675 0.752197 0.218170
O O12 0.500000 0.000000 0.000000
O O13 0.784792 0.051449 0.800186
O O14 0.098703 0.200294 0.823195
O O15 0.000000 0.000000 0.500000
#
# Coordination Sequence:
#
# PCOD8005623 Si02
#       7
#     2   2   2   2   2   2   2
#     4  10  21  39  59  85 120 150 203 251 286 350
#     4  10  20  39  61  79 118 158 196 246 302 342
#     4  10  22  36  56  93 122 155 193 230 311 375
#     4  10  20  39  61  88 123 156 189 247 310 362
#     4  11  22  35  60  96 120 147 196 253 308 368
#     4  10  21  38  62  90 123 154 190 248 309 362
#     4   9  22  39  58  84 111 161 204 245 286 345
#
# _framework density 22.893236000000002
#
# number of rings (size 3 to 8) (size 9 to 14) (size 15 to 20)
#    0.000    2.000    0.000    4.286    6.000    0.571 
#    5.143    1.429    0.000    0.000    0.000    0.000 
#    0.000    0.000    0.000    0.000    0.000    0.000 
#
# Total GULP energy -173498.450657 kJ/mol
# GULP energy per Si atom -12392.746475 kJ/mol
# Density = 2.284113 g / cm^3
# Si number density = 22.893236 Si / 1000 Ang^3
#
#
#
# Elastic Constant Matrix: (Units=GPa)
#
#
# Indices 1 2 3 4 5 6 
#
# 1 137.1608 10.4829 55.8762 6.1200 -32.2352 7.6811
# 2 10.4829 50.1164 14.3858 22.6275 -7.4992 1.2639
# 3 55.8762 14.3858 106.9864 18.1877 -41.3818 6.5182
# 4 6.1200 22.6275 18.1877 24.3842 -3.0674 -2.1455
# 5 -32.2352 -7.4992 -41.3818 -3.0674 46.2089 5.7025
# 6 7.6811 1.2639 6.5182 -2.1455 5.7025 25.6549
#
#
#
# Elastic Compliance Matrix: (Units=1/GPa)
#
#
# Indices 1 2 3 4 5 6 
#
# 1 0.009830 -0.000977 -0.003520 0.001322 0.003977 -0.002774
# 2 -0.000977 0.037495 0.006232 -0.038753 0.009458 -0.008481
# 3 -0.003520 0.006232 0.020872 -0.019182 0.017206 -0.009985
# 4 0.001322 -0.038753 -0.019182 0.090176 -0.018793 0.018106
# 5 0.003977 0.009458 0.017206 -0.018793 0.042207 -0.016982
# 6 -0.002774 -0.008481 -0.009985 0.018106 -0.016982 0.048053
#
#
# Mechanical properties :
#
#
# Convention : Reuss Voigt Hill
#
# Bulk Modulus (GPa) = 13.95357 50.63928 32.29642
# Shear Modulus (GPa) = 18.58362 33.48417 26.03389
#
# Velocity S-wave (km/s) = 2.85222 3.82857 3.37588
# Velocity P-wave (km/s) = 4.11766 6.45846 5.41604
#
# Compressibility (1/GPa) = 0.07166626
#
# Stress axis : x y z
#
# Youngs Moduli (GPa) = 101.72467 26.66992 47.91091
#
# Poissons Ratio (x) = 0.02607 0.16866
# Poissons Ratio (y) = 0.09943 -0.29858
# Poissons Ratio (z) = 0.35810 -0.16621
#
# Static dielectric constant tensor:
#      x y z
#    x 4.645250 -0.019070 -0.463110 
#    y -0.019070 3.793480 0.108170 
#    z -0.463110 0.108170 4.012090 
# 
# 
# High freq. dielectric constant tensor:
#      x y z
#    x 1.923160 0.002300 -0.026050 
#    y 0.002300 1.873270 0.020340 
#    z -0.026050 0.020340 1.891040 
# 
# From -- ./inp_files/199076.got.cif
#   From: 2010.06.25/outbox.cif.g09.slc.cpg/sg2_100_cif.got.tgz:199076.got - 2010.06.27 13:26:56.
