data_PCOD8005912
_publ_section_title
;
Structure prediction by ZEFSAII (Michael W. Deem and Ramdas Pophale) SiO2 
 PCOD8005912
Probable space group: P -1
;
_chemical_formula_sum "Si O2"
_cell_formula_units_Z 16
_cell_length_a 12.295155
_cell_length_b 8.918202
_cell_length_c 18.620111
_cell_angle_alpha 150.166947
_cell_angle_beta 46.629372
_cell_angle_gamma 132.070105
_cell_volume 722.573306
_symmetry_space_group_name_H-M "P -1"
_symmetry_group_IT_number 2
_symmetry_cell_setting 'triclinic'
loop_
_space_group_symop_operation_xyz
x,y,z
-x,-y,-z
loop_
_atom_site_type_symbol
_atom_site_label
_atom_site_fract_x
_atom_site_fract_y
_atom_site_fract_z
Si Si1 0.015520 0.399004 0.346069
Si Si2 0.478540 0.831266 0.622397
Si Si3 0.211234 0.330147 0.356649
Si Si4 0.740617 0.896476 0.254888
Si Si5 0.723526 0.323042 0.931071
Si Si6 0.574898 0.989720 0.129143
Si Si7 0.126027 0.263477 0.088473
Si Si8 0.449272 0.349226 0.627016
O O1 0.916216 0.652890 0.517467
O O2 0.163913 0.446906 0.349540
O O3 0.062319 0.420125 0.250595
O O4 0.909546 0.062707 0.271527
O O5 0.500000 0.500000 0.500000
O O6 0.584576 0.881735 0.523527
O O7 0.313754 0.890484 0.694219
O O8 0.510922 0.042080 0.766485
O O9 0.368094 0.547136 0.401656
O O10 0.221862 0.979853 0.195368
O O11 0.627076 0.850955 0.355221
O O12 0.748540 0.560320 0.083396
O O13 0.541723 0.238455 0.963196
O O14 0.821670 0.460237 0.875250
O O15 0.614675 0.340809 0.228451
O O16 0.733529 0.884496 0.012927
O O17 0.000000 0.000000 0.000000
#
# Coordination Sequence:
#
# PCOD8005912 Si02
#       8
#     2   2   2   2   2   2   2   2
#     4  11  25  44  67  91 136 171 211 261 329 392
#     4  10  20  39  63  95 131 163 208 268 318 373
#     4  10  25  46  64  96 130 170 212 274 320 379
#     4  12  23  41  67 100 127 169 217 266 318 386
#     4  11  25  43  68  96 129 165 224 272 312 380
#     4  10  23  42  64 100 127 167 216 270 319 376
#     4  12  24  43  66  94 132 176 208 264 328 387
#     4  10  23  40  72  93 129 168 219 268 319 372
#
# _framework density 22.143080000000001
#
# number of rings (size 3 to 8) (size 9 to 14) (size 15 to 20)
#    0.000    1.250    3.750    0.750    3.500    3.000 
#    2.250    0.000    0.000    0.000    0.000    0.000 
#    0.000    0.000    0.000    0.000    0.000    0.000 
#
# Total GULP energy -198270.759624 kJ/mol
# GULP energy per Si atom -12391.922477 kJ/mol
# Density = 2.209268 g / cm^3
# Si number density = 22.143080 Si / 1000 Ang^3
#
#
#
# Elastic Constant Matrix: (Units=GPa)
#
#
# Indices 1 2 3 4 5 6 
#
# 1 65.8364 15.8009 31.8776 -6.7010 -5.4233 -1.6865
# 2 15.8009 60.9289 11.0030 -12.0127 -13.2978 -7.5455
# 3 31.8776 11.0030 109.8337 -11.4324 0.3952 -0.5567
# 4 -6.7010 -12.0127 -11.4324 39.0940 -3.1009 5.1238
# 5 -5.4233 -13.2978 0.3952 -3.1009 27.3614 -3.0118
# 6 -1.6865 -7.5455 -0.5567 5.1238 -3.0118 30.2163
#
#
#
# Elastic Compliance Matrix: (Units=1/GPa)
#
#
# Indices 1 2 3 4 5 6 
#
# 1 0.018680 -0.003224 -0.005012 0.000901 0.002335 0.000225
# 2 -0.003224 0.021659 -0.000611 0.006116 0.011172 0.005294
# 3 -0.005012 -0.000611 0.010842 0.002116 -0.001286 -0.000720
# 4 0.000901 0.006116 0.002116 0.029072 0.006118 -0.002703
# 5 0.002335 0.011172 -0.001286 0.006118 0.043838 0.006229
# 6 0.000225 0.005294 -0.000720 -0.002703 0.006229 0.035495
#
#
# Mechanical properties :
#
#
# Convention : Reuss Voigt Hill
#
# Bulk Modulus (GPa) = 29.86268 39.32910 34.59589
# Shear Modulus (GPa) = 26.53364 31.19551 28.86458
#
# Velocity S-wave (km/s) = 3.46538 3.75749 3.61439
# Velocity P-wave (km/s) = 5.43390 6.05185 5.75118
#
# Compressibility (1/GPa) = 0.03348661
#
# Stress axis : x y z
#
# Youngs Moduli (GPa) = 53.53455 46.17078 92.23625
#
# Poissons Ratio (x) = 0.14885 0.46228
# Poissons Ratio (y) = 0.17260 0.05633
# Poissons Ratio (z) = 0.26831 0.02820
#
# Static dielectric constant tensor:
#      x y z
#    x 4.157690 -0.155640 0.138600 
#    y -0.155640 3.866210 -0.096100 
#    z 0.138600 -0.096100 4.367010 
# 
# 
# High freq. dielectric constant tensor:
#      x y z
#    x 1.875620 -0.011730 0.002880 
#    y -0.011730 1.846560 -0.006360 
#    z 0.002880 -0.006360 1.897120 
# 
# From -- ./inp_files/283062.got.cif
#   From: 2010.06.25/outbox.cif.g09.slc.cpg/sg2_142_cif.got.tgz:283062.got - 2010.06.27 13:26:56.
