data_PCOD8005842
_publ_section_title
;
Structure prediction by ZEFSAII (Michael W. Deem and Ramdas Pophale) SiO2 
 PCOD8005842
Probable space group: P -1
;
_chemical_formula_sum "Si O2"
_cell_formula_units_Z 14
_cell_length_a 11.831925
_cell_length_b 11.613887
_cell_length_c 9.114542
_cell_angle_alpha 149.994073
_cell_angle_beta 79.502981
_cell_angle_gamma 97.049072
_cell_volume 614.299298
_symmetry_space_group_name_H-M "P -1"
_symmetry_group_IT_number 2
_symmetry_cell_setting 'triclinic'
loop_
_space_group_symop_operation_xyz
x,y,z
-x,-y,-z
loop_
_atom_site_type_symbol
_atom_site_label
_atom_site_fract_x
_atom_site_fract_y
_atom_site_fract_z
Si Si1 0.731551 0.426986 0.715015
Si Si2 0.642434 0.978175 0.787537
Si Si3 0.725817 0.259834 0.842125
Si Si4 0.956786 0.118057 0.288423
Si Si5 0.865110 0.658354 0.336077
Si Si6 0.547472 0.323378 0.417589
Si Si7 0.870865 0.821086 0.207038
O O1 0.679578 0.397759 0.859901
O O2 0.824479 0.218049 0.417349
O O3 0.628181 0.449553 0.649100
O O4 0.790662 0.667524 0.958628
O O5 0.772547 0.869512 0.629127
O O6 0.555867 0.773790 0.569252
O O7 0.624785 0.169126 0.870212
O O8 0.620799 0.106690 0.088869
O O9 0.798575 0.039841 0.525724
O O10 0.805241 0.418276 0.096942
O O11 0.033211 0.328140 0.553079
O O12 0.970249 0.914353 0.183504
O O13 0.000000 0.000000 0.000000
O O14 0.919862 0.678601 0.180689
O O15 0.500000 0.500000 0.500000
#
# Coordination Sequence:
#
# PCOD8005842 Si02
#       7
#     2   2   2   2   2   2   2
#     4  10  23  41  61  90 122 157 203 251 299 353
#     4  10  22  40  64  90 117 159 202 245 301 359
#     4   9  20  40  64  90 119 156 204 251 296 352
#     4  11  23  37  60  92 124 158 197 245 297 358
#     4  10  20  39  63  89 122 158 197 243 301 359
#     4  11  24  41  62  88 123 162 200 247 303 360
#     4   9  21  38  59  88 123 160 197 243 297 357
#
# _framework density 22.790192999999999
#
# number of rings (size 3 to 8) (size 9 to 14) (size 15 to 20)
#    0.000    2.000    0.000    2.143    0.000   15.429 
#    0.000   10.000    0.000    0.000    0.000    0.000 
#    0.000    0.000    0.000    0.000    0.000    0.000 
#
# Total GULP energy -173564.132798 kJ/mol
# GULP energy per Si atom -12397.438057 kJ/mol
# Density = 2.273832 g / cm^3
# Si number density = 22.790193 Si / 1000 Ang^3
#
#
#
# Elastic Constant Matrix: (Units=GPa)
#
#
# Indices 1 2 3 4 5 6 
#
# 1 97.1356 54.4090 30.7012 -8.3215 33.4603 -4.2369
# 2 54.4090 129.1726 42.5333 -0.0830 15.4635 24.1209
# 3 30.7012 42.5333 94.3834 -0.9042 36.2450 4.8279
# 4 -8.3215 -0.0830 -0.9042 38.2102 1.4853 0.3404
# 5 33.4603 15.4635 36.2450 1.4853 39.0978 -5.6843
# 6 -4.2369 24.1209 4.8279 0.3404 -5.6843 34.8987
#
#
#
# Elastic Compliance Matrix: (Units=1/GPa)
#
#
# Indices 1 2 3 4 5 6 
#
# 1 0.020574 -0.008795 0.003499 0.005150 -0.016797 0.005306
# 2 -0.008795 0.014236 -0.005188 -0.002136 0.005438 -0.009283
# 3 0.003499 -0.005188 0.019247 0.001965 -0.019120 -0.001785
# 4 0.005150 -0.002136 0.001965 0.027577 -0.006356 0.000525
# 5 -0.016797 0.005438 -0.019120 -0.006356 0.056660 0.006138
# 6 0.005306 -0.009283 -0.001785 0.000525 0.006138 0.036956
#
#
# Mechanical properties :
#
#
# Convention : Reuss Voigt Hill
#
# Bulk Modulus (GPa) = 30.22102 63.99762 47.10932
# Shear Modulus (GPa) = 24.12573 35.31123 29.71848
#
# Velocity S-wave (km/s) = 3.25715 3.94052 3.61502
# Velocity P-wave (km/s) = 5.23781 6.98897 6.17578
#
# Compressibility (1/GPa) = 0.03308955
#
# Stress axis : x y z
#
# Youngs Moduli (GPa) = 48.60495 70.24677 51.95490
#
# Poissons Ratio (x) = 0.61782 -0.18181
# Poissons Ratio (y) = 0.42748 0.26955
# Poissons Ratio (z) = -0.17009 0.36445
#
# Static dielectric constant tensor:
#      x y z
#    x 3.735290 0.338980 0.029790 
#    y 0.338980 5.212320 0.040210 
#    z 0.029790 0.040210 4.194830 
# 
# 
# High freq. dielectric constant tensor:
#      x y z
#    x 1.868690 0.018410 -0.000030 
#    y 0.018410 1.901430 0.004750 
#    z -0.000030 0.004750 1.918110 
# 
# From -- ./inp_files/26739.got.cif
#   From: 2010.06.25/outbox.cif.g09.slc.cpg/sg2_14_cif.got.tgz:26739.got - 2010.06.27 13:26:56.
