data_PCOD8005784
_publ_section_title
;
Structure prediction by ZEFSAII (Michael W. Deem and Ramdas Pophale) SiO2 
 PCOD8005784
Probable space group: P -1
;
_chemical_formula_sum "Si O2"
_cell_formula_units_Z 16
_cell_length_a 10.944871
_cell_length_b 8.965619
_cell_length_c 12.208055
_cell_angle_alpha 104.278117
_cell_angle_beta 142.943415
_cell_angle_gamma 73.183669
_cell_volume 690.758990
_symmetry_space_group_name_H-M "P -1"
_symmetry_group_IT_number 2
_symmetry_cell_setting 'triclinic'
loop_
_space_group_symop_operation_xyz
x,y,z
-x,-y,-z
loop_
_atom_site_type_symbol
_atom_site_label
_atom_site_fract_x
_atom_site_fract_y
_atom_site_fract_z
Si Si1 0.080191 0.608253 0.262436
Si Si2 0.177799 0.918409 0.921849
Si Si3 0.648645 0.775738 0.933742
Si Si4 0.476013 0.864437 0.314893
Si Si5 0.378395 0.455962 0.296877
Si Si6 0.710002 0.552682 0.414635
Si Si7 0.358042 0.637605 0.857533
Si Si8 0.265821 0.898160 0.395863
O O1 0.145871 0.525633 0.177257
O O2 0.130363 0.493357 0.381106
O O3 0.200396 0.756447 0.392889
O O4 0.839929 0.655393 0.094539
O O5 0.208704 0.756581 0.847713
O O6 0.306452 0.048499 0.991305
O O7 0.269844 0.875021 0.099064
O O8 0.936273 0.984319 0.767583
O O9 0.612067 0.724882 0.770408
O O10 0.470636 0.753269 0.886109
O O11 0.669129 0.735424 0.391327
O O12 0.404148 0.830568 0.379593
O O13 0.583370 0.017749 0.406877
O O14 0.500000 0.500000 0.500000
O O15 0.475145 0.531067 0.275365
O O16 0.781587 0.449639 0.339782
O O17 0.500000 0.500000 0.000000
#
# Coordination Sequence:
#
# PCOD8005784 Si02
#       8
#     2   2   2   2   2   2   2   2
#     4  10  20  39  62  94 129 161 213 257 312 384
#     4  11  24  44  64  91 128 170 214 259 314 377
#     4  10  23  39  62  95 121 169 211 260 319 370
#     4  11  22  40  65  94 131 165 205 259 324 374
#     4   9  18  33  61  89 125 158 199 250 307 371
#     4  10  21  38  62  92 122 168 209 259 316 368
#     4  11  23  44  64  87 124 165 217 267 311 372
#     4  10  24  40  63  99 128 164 207 260 317 383
#
# _framework density 23.162928999999998
#
# number of rings (size 3 to 8) (size 9 to 14) (size 15 to 20)
#    0.000    1.750    2.500    1.125    5.250    2.000 
#    2.250    2.500    0.000    0.000    0.000    0.000 
#    0.000    0.000    0.000    0.000    0.000    0.000 
#
# Total GULP energy -198210.430992 kJ/mol
# GULP energy per Si atom -12388.151937 kJ/mol
# Density = 2.311021 g / cm^3
# Si number density = 23.162929 Si / 1000 Ang^3
#
#
#
# Elastic Constant Matrix: (Units=GPa)
#
#
# Indices 1 2 3 4 5 6 
#
# 1 26.4978 16.6030 13.1492 17.8932 -9.0078 -13.3381
# 2 16.6030 99.2174 19.2104 -1.8800 -10.5577 -28.5750
# 3 13.1492 19.2104 83.1456 6.2977 -8.5836 -17.3259
# 4 17.8932 -1.8800 6.2977 33.3989 -5.2333 -5.6311
# 5 -9.0078 -10.5577 -8.5836 -5.2333 28.1071 2.2426
# 6 -13.3381 -28.5750 -17.3259 -5.6311 2.2426 35.7729
#
#
#
# Elastic Compliance Matrix: (Units=1/GPa)
#
#
# Indices 1 2 3 4 5 6 
#
# 1 0.084722 -0.008063 -0.003654 -0.040200 0.014233 0.016158
# 2 -0.008063 0.014755 -0.000343 0.007369 0.003463 0.009556
# 3 -0.003654 -0.000343 0.013969 0.000575 0.002670 0.005052
# 4 -0.040200 0.007369 0.000575 0.051627 -0.000273 -0.000680
# 5 0.014233 0.003463 0.002670 -0.000273 0.041669 0.006711
# 6 0.016158 0.009556 0.005052 -0.000680 0.006711 0.043531
#
#
# Mechanical properties :
#
#
# Convention : Reuss Voigt Hill
#
# Bulk Modulus (GPa) = 11.19512 34.08733 22.64123
# Shear Modulus (GPa) = 16.43815 30.11566 23.27691
#
# Velocity S-wave (km/s) = 2.66686 3.60969 3.17349
# Velocity P-wave (km/s) = 3.78505 5.66758 4.81913
#
# Compressibility (1/GPa) = 0.08932461
#
# Stress axis : x y z
#
# Youngs Moduli (GPa) = 11.80329 67.77347 71.58618
#
# Poissons Ratio (x) = 0.54648 0.26160
# Poissons Ratio (y) = 0.09517 0.02457
# Poissons Ratio (z) = 0.04313 0.02326
#
# Static dielectric constant tensor:
#      x y z
#    x 4.122820 -0.365250 0.003100 
#    y -0.365250 4.338790 0.212460 
#    z 0.003100 0.212460 4.149790 
# 
# 
# High freq. dielectric constant tensor:
#      x y z
#    x 1.892130 -0.012780 0.000830 
#    y -0.012780 1.927550 0.007530 
#    z 0.000830 0.007530 1.915050 
# 
# From -- ./inp_files/417694.got.cif
#   From: 2010.06.25/outbox.cif.g09.slc.cpg/sg2_209_cif.got.tgz:417694.got - 2010.06.27 13:26:56.
