data_PCOD8005332
_publ_section_title
;
Structure prediction by ZEFSAII (Michael W. Deem and Ramdas Pophale) SiO2 
 PCOD8005332
Probable space group: P -1
;
_chemical_formula_sum "Si O2"
_cell_formula_units_Z 16
_cell_length_a 5.752065
_cell_length_b 17.132321
_cell_length_c 19.620749
_cell_angle_alpha 20.521554
_cell_angle_beta 77.217057
_cell_angle_gamma 73.788583
_cell_volume 646.213706
_symmetry_space_group_name_H-M "P -1"
_symmetry_group_IT_number 2
_symmetry_cell_setting 'triclinic'
loop_
_space_group_symop_operation_xyz
x,y,z
-x,-y,-z
loop_
_atom_site_type_symbol
_atom_site_label
_atom_site_fract_x
_atom_site_fract_y
_atom_site_fract_z
Si Si1 0.937516 0.758240 0.315776
Si Si2 0.668455 0.566470 0.728136
Si Si3 0.489977 0.114591 0.082000
Si Si4 0.257058 0.087020 0.985411
Si Si5 0.564233 0.743975 0.731415
Si Si6 0.085466 0.580724 0.590747
Si Si7 0.312898 0.894536 0.397157
Si Si8 0.011034 0.839815 0.695771
O O1 0.096202 0.897318 0.146454
O O2 0.980887 0.762942 0.390336
O O3 0.000000 0.500000 0.500000
O O4 0.659943 0.891397 0.218324
O O5 0.678996 0.570222 0.806020
O O6 0.482310 0.797512 0.528815
O O7 0.920378 0.587097 0.662314
O O8 0.612146 0.331126 0.897477
O O9 0.271804 0.159109 0.005029
O O10 0.409018 0.076866 0.194843
O O11 0.500000 0.000000 0.000000
O O12 0.143077 0.329030 0.758851
O O13 0.785267 0.705732 0.805789
O O14 0.292607 0.694423 0.809614
O O15 0.500000 0.000000 0.500000
O O16 0.312501 0.675216 0.528327
O O17 0.055082 0.018273 0.345841
O O18 0.000000 0.000000 0.500000
#
# Coordination Sequence:
#
# PCOD8005332 Si02
#       8
#     2   2   2   2   2   2   2   2
#     4  12  28  46  70 101 139 179 235 291 356 436
#     4  12  24  42  73  99 142 187 232 300 356 420
#     4  12  27  46  66 110 136 178 242 290 354 430
#     4  12  28  46  70 101 139 179 235 291 356 436
#     4  10  20  38  67 103 139 191 248 287 359 444
#     4  12  25  44  72 102 134 192 232 292 362 424
#     4  12  24  42  73  99 142 187 232 300 356 420
#     4  10  20  38  67 103 139 191 248 287 359 444
#
# _framework density 24.759609000000001
#
# number of rings (size 3 to 8) (size 9 to 14) (size 15 to 20)
#    0.000    0.500    7.500    2.250    3.500    2.000 
#    0.000    1.250    0.000    0.000    0.000    0.000 
#    0.000    0.000    0.000    0.000    0.000    0.000 
#
# Total GULP energy -198233.869413 kJ/mol
# GULP energy per Si atom -12389.616838 kJ/mol
# Density = 2.470325 g / cm^3
# Si number density = 24.759609 Si / 1000 Ang^3
#
#
#
# Elastic Constant Matrix: (Units=GPa)
#
#
# Indices 1 2 3 4 5 6 
#
# 1 111.1890 10.3194 7.0572 6.0330 -6.0356 -8.9095
# 2 10.3194 90.2009 17.0692 3.9114 -1.0399 -19.6542
# 3 7.0572 17.0692 76.6393 17.5119 -12.5499 0.6447
# 4 6.0330 3.9114 17.5119 30.6111 -5.0400 -6.1707
# 5 -6.0356 -1.0399 -12.5499 -5.0400 22.7815 -4.2942
# 6 -8.9095 -19.6542 0.6447 -6.1707 -4.2942 48.5447
#
#
#
# Elastic Compliance Matrix: (Units=1/GPa)
#
#
# Indices 1 2 3 4 5 6 
#
# 1 0.009372 -0.000643 -0.000103 -0.000986 0.002472 0.001555
# 2 -0.000643 0.012854 -0.003163 0.001357 -0.000027 0.005298
# 3 -0.000103 -0.003163 0.016839 -0.008483 0.006852 -0.001995
# 4 -0.000986 0.001357 -0.008483 0.039565 0.005003 0.005953
# 5 0.002472 -0.000027 0.006852 0.005003 0.050458 0.005451
# 6 0.001555 0.005298 -0.001995 0.005953 0.005451 0.024295
#
#
# Mechanical properties :
#
#
# Convention : Reuss Voigt Hill
#
# Bulk Modulus (GPa) = 32.00183 38.54677 35.27430
# Shear Modulus (GPa) = 29.13474 36.62636 32.88055
#
# Velocity S-wave (km/s) = 3.43403 3.85031 3.64812
# Velocity P-wave (km/s) = 5.35505 5.94716 5.65885
#
# Compressibility (1/GPa) = 0.03124821
#
# Stress axis : x y z
#
# Youngs Moduli (GPa) = 106.69953 77.79874 59.38532
#
# Poissons Ratio (x) = 0.05001 0.00611
# Poissons Ratio (y) = 0.06858 0.18782
# Poissons Ratio (z) = 0.01098 0.24605
#
# Static dielectric constant tensor:
#      x y z
#    x 11.953800 -0.482670 1.865370 
#    y -0.482670 4.533610 -0.076170 
#    z 1.865370 -0.076170 5.992440 
# 
# 
# High freq. dielectric constant tensor:
#      x y z
#    x 1.980830 0.001900 -0.004690 
#    y 0.001900 1.997240 0.003900 
#    z -0.004690 0.003900 1.981460 
# 
# From -- ./inp_files/340098.got.cif
#   From: 2010.06.25/outbox.cif.g09.slc.cpg/sg2_171_cif.got.tgz:340098.got - 2010.06.27 13:26:56.
