data_PCOD8005361
_publ_section_title
;
Structure prediction by ZEFSAII (Michael W. Deem and Ramdas Pophale) SiO2 
 PCOD8005361
Probable space group: P -1
;
_chemical_formula_sum "Si O2"
_cell_formula_units_Z 14
_cell_length_a 6.991726
_cell_length_b 20.178482
_cell_length_c 13.742431
_cell_angle_alpha 157.432133
_cell_angle_beta 126.014663
_cell_angle_gamma 53.742606
_cell_volume 594.481620
_symmetry_space_group_name_H-M "P -1"
_symmetry_group_IT_number 2
_symmetry_cell_setting 'triclinic'
loop_
_space_group_symop_operation_xyz
x,y,z
-x,-y,-z
loop_
_atom_site_type_symbol
_atom_site_label
_atom_site_fract_x
_atom_site_fract_y
_atom_site_fract_z
Si Si1 0.457066 0.270644 0.791531
Si Si2 0.848238 0.696535 0.982852
Si Si3 0.380018 0.548881 0.297582
Si Si4 0.236374 0.069141 0.894124
Si Si5 0.852027 0.966889 0.510456
Si Si6 0.894662 0.657241 0.382336
Si Si7 0.289771 0.178309 0.260962
O O1 0.324044 0.152484 0.660411
O O2 0.351282 0.282589 0.667030
O O3 0.730779 0.171395 0.738673
O O4 0.415912 0.467701 0.089625
O O5 0.622247 0.614495 0.849687
O O6 0.084355 0.548324 0.860736
O O7 0.778098 0.747777 0.920725
O O8 0.907673 0.876019 0.296659
O O9 0.592150 0.659773 0.527527
O O10 0.125346 0.679343 0.413548
O O11 0.508170 0.973417 0.844568
O O12 0.149112 0.110124 0.035161
O O13 0.069916 0.948957 0.627683
O O14 0.892563 0.767318 0.631084
#
# Coordination Sequence:
#
# PCOD8005361 Si02
#       7
#     2   2   2   2   2   2   2
#     4  10  20  38  67  96 128 166 208 259 333 360
#     4   9  22  40  66  93 128 156 209 270 317 350
#     4   9  22  41  64  99 124 165 209 267 304 378
#     4  11  24  43  61  94 130 169 211 264 302 392
#     4  10  21  39  65  97 129 164 207 269 313 380
#     4  10  22  40  66  98 124 162 212 264 311 376
#     4  11  25  43  67  88 129 177 213 245 325 371
#
# _framework density 23.54993
#
# number of rings (size 3 to 8) (size 9 to 14) (size 15 to 20)
#    0.857    1.143    0.000    2.571    4.000    1.714 
#    0.000    9.286    0.000    0.000    0.000    0.000 
#    0.000    0.000    0.000    0.000    0.000    0.000 
#
# Total GULP energy -173511.946480 kJ/mol
# GULP energy per Si atom -12393.710463 kJ/mol
# Density = 2.349633 g / cm^3
# Si number density = 23.549930 Si / 1000 Ang^3
#
#
#
# Elastic Constant Matrix: (Units=GPa)
#
#
# Indices 1 2 3 4 5 6 
#
# 1 66.7346 43.2519 30.1958 -1.4768 -33.5891 1.4805
# 2 43.2519 115.2621 42.5800 -15.7755 -31.0271 -3.9649
# 3 30.1958 42.5800 95.4183 -11.9839 -40.4217 -0.7311
# 4 -1.4768 -15.7755 -11.9839 33.5998 4.6649 -4.1800
# 5 -33.5891 -31.0271 -40.4217 4.6649 46.0164 -4.2893
# 6 1.4805 -3.9649 -0.7311 -4.1800 -4.2893 13.4478
#
#
#
# Elastic Compliance Matrix: (Units=1/GPa)
#
#
# Indices 1 2 3 4 5 6 
#
# 1 0.027066 -0.006648 0.000786 -0.004031 0.016284 -0.000956
# 2 -0.006648 0.013724 -0.002098 0.005952 0.002640 0.007356
# 3 0.000786 -0.002098 0.018266 0.004239 0.015382 0.006512
# 4 -0.004031 0.005952 0.004239 0.035307 0.002540 0.014214
# 5 0.016284 0.002640 0.015382 0.002540 0.050202 0.016624
# 6 -0.000956 0.007356 0.006512 0.014214 0.016624 0.086710
#
#
# Mechanical properties :
#
#
# Convention : Reuss Voigt Hill
#
# Bulk Modulus (GPa) = 23.18251 56.60782 39.89517
# Shear Modulus (GPa) = 19.11516 29.37196 24.24356
#
# Velocity S-wave (km/s) = 2.85210 3.53543 3.21199
# Velocity P-wave (km/s) = 4.55097 6.38398 5.54376
#
# Compressibility (1/GPa) = 0.04313597
#
# Stress axis : x y z
#
# Youngs Moduli (GPa) = 36.94698 72.86529 54.74657
#
# Poissons Ratio (x) = 0.48441 -0.04304
# Poissons Ratio (y) = 0.24562 0.11487
# Poissons Ratio (z) = -0.02905 0.15288
#
# Static dielectric constant tensor:
#      x y z
#    x 4.306600 0.111120 -0.310920 
#    y 0.111120 3.958020 0.253870 
#    z -0.310920 0.253870 4.312310 
# 
# 
# High freq. dielectric constant tensor:
#      x y z
#    x 1.941710 0.019040 -0.005040 
#    y 0.019040 1.916760 0.017360 
#    z -0.005040 0.017360 1.931640 
# 
# From -- ./inp_files/508679.got.cif
#   From: 2010.06.25/outbox.cif.g09.slc.cpg/sg2_255_cif.got.tgz:508679.got - 2010.06.27 13:26:56.
