data_PCOD8005695
_publ_section_title
;
Structure prediction by ZEFSAII (Michael W. Deem and Ramdas Pophale) SiO2 
 PCOD8005695
Probable space group: P -1
;
_chemical_formula_sum "Si O2"
_cell_formula_units_Z 16
_cell_length_a 13.209391
_cell_length_b 25.012954
_cell_length_c 11.694473
_cell_angle_alpha 30.981861
_cell_angle_beta 32.961770
_cell_angle_gamma 21.710364
_cell_volume 717.191956
_symmetry_space_group_name_H-M "P -1"
_symmetry_group_IT_number 2
_symmetry_cell_setting 'triclinic'
loop_
_space_group_symop_operation_xyz
x,y,z
-x,-y,-z
loop_
_atom_site_type_symbol
_atom_site_label
_atom_site_fract_x
_atom_site_fract_y
_atom_site_fract_z
Si Si1 0.336497 0.961684 0.740418
Si Si2 0.479837 0.095117 0.748570
Si Si3 0.001322 0.015440 0.152825
Si Si4 0.611333 0.630878 0.609404
Si Si5 0.473441 0.633724 0.981749
Si Si6 0.078635 0.887318 0.533893
Si Si7 0.032666 0.642058 0.391094
Si Si8 0.808868 0.612040 0.870995
O O1 0.094829 0.043053 0.725675
O O2 0.547623 0.777500 0.873509
O O3 0.500000 0.000000 0.500000
O O4 0.181071 0.024870 0.894505
O O5 0.419846 0.231908 0.611903
O O6 0.231361 0.181686 0.732106
O O7 0.782666 0.956918 0.652392
O O8 0.500000 0.000000 0.000000
O O9 0.728465 0.181856 0.163298
O O10 0.193397 0.894323 0.296982
O O11 0.325727 0.708298 0.673963
O O12 0.887192 0.482250 0.548365
O O13 0.626062 0.571202 0.828966
O O14 0.303708 0.600268 0.226208
O O15 0.705139 0.552356 0.011036
O O16 0.000000 0.000000 0.500000
O O17 0.962113 0.624514 0.613432
O O18 0.000000 0.500000 0.000000
#
# Coordination Sequence:
#
# PCOD8005695 Si02
#       8
#     2   2   2   2   2   2   2   2
#     4  10  22  43  67  94 119 168 230 283 331 383
#     4  11  22  39  67 101 138 180 226 268 332 410
#     4  10  20  39  67  91 128 169 214 280 331 383
#     4  11  23  43  66 102 147 176 216 279 345 414
#     4  11  22  44  71  95 137 178 217 279 347 401
#     4  10  20  39  61  96 136 172 214 268 330 404
#     4  12  25  43  71 100 140 185 218 277 347 404
#     4  11  26  47  66  94 137 178 230 282 329 403
#
# _framework density 22.309229999999999
#
# number of rings (size 3 to 8) (size 9 to 14) (size 15 to 20)
#    0.000    1.250    3.750    3.000    3.500    0.500 
#    2.250    0.000    0.000    0.000    0.000    0.000 
#    0.000    0.000    0.000    0.000    0.000    0.000 
#
# Total GULP energy -198345.763021 kJ/mol
# GULP energy per Si atom -12396.610189 kJ/mol
# Density = 2.225845 g / cm^3
# Si number density = 22.309230 Si / 1000 Ang^3
#
#
#
# Elastic Constant Matrix: (Units=GPa)
#
#
# Indices 1 2 3 4 5 6 
#
# 1 102.8598 24.6533 60.8363 -3.8947 21.1180 -25.6021
# 2 24.6533 79.0131 19.7791 2.8720 22.2679 -19.3157
# 3 60.8363 19.7791 136.5406 8.6662 16.0513 -22.5184
# 4 -3.8947 2.8720 8.6662 30.9900 -2.5962 5.9648
# 5 21.1180 22.2679 16.0513 -2.5962 51.8965 -0.4071
# 6 -25.6021 -19.3157 -22.5184 5.9648 -0.4071 34.6563
#
#
#
# Elastic Compliance Matrix: (Units=1/GPa)
#
#
# Indices 1 2 3 4 5 6 
#
# 1 0.015873 -0.000579 -0.005324 0.001704 -0.004419 0.007599
# 2 -0.000579 0.017550 0.000623 -0.004524 -0.007632 0.010448
# 3 -0.005324 0.000623 0.010791 -0.004693 -0.001640 0.004215
# 4 0.001704 -0.004524 -0.004693 0.036620 0.004448 -0.010562
# 5 -0.004419 -0.007632 -0.001640 0.004448 0.025001 -0.009056
# 6 0.007599 0.010448 0.004215 -0.010562 -0.009056 0.044741
#
#
# Mechanical properties :
#
#
# Convention : Reuss Voigt Hill
#
# Bulk Modulus (GPa) = 29.71325 58.77231 44.24278
# Shear Modulus (GPa) = 29.01010 37.71822 33.36416
#
# Velocity S-wave (km/s) = 3.60997 4.11627 3.87141
# Velocity P-wave (km/s) = 5.54288 6.99951 6.31335
#
# Compressibility (1/GPa) = 0.03365502
#
# Stress axis : x y z
#
# Youngs Moduli (GPa) = 63.00174 56.97951 92.66636
#
# Poissons Ratio (x) = 0.03298 0.49333
# Poissons Ratio (y) = 0.03646 -0.05772
# Poissons Ratio (z) = 0.33541 -0.03549
#
# Static dielectric constant tensor:
#      x y z
#    x 4.395930 -0.576430 0.037630 
#    y -0.576430 5.138350 0.289150 
#    z 0.037630 0.289150 3.844550 
# 
# 
# High freq. dielectric constant tensor:
#      x y z
#    x 1.881390 -0.011570 0.008010 
#    y -0.011570 1.874420 0.020730 
#    z 0.008010 0.020730 1.871680 
# 
# From -- ./inp_files/458363.got.cif
#   From: 2010.06.25/outbox.cif.g09.slc.cpg/sg2_230_cif.got.tgz:458363.got - 2010.06.27 13:26:56.
