data_PCOD8005767
_publ_section_title
;
Structure prediction by ZEFSAII (Michael W. Deem and Ramdas Pophale) SiO2 
 PCOD8005767
Probable space group: P -1
;
_chemical_formula_sum "Si O2"
_cell_formula_units_Z 16
_cell_length_a 10.474841
_cell_length_b 6.891634
_cell_length_c 22.131076
_cell_angle_alpha 55.888294
_cell_angle_beta 143.566641
_cell_angle_gamma 113.212804
_cell_volume 780.252525
_symmetry_space_group_name_H-M "P -1"
_symmetry_group_IT_number 2
_symmetry_cell_setting 'triclinic'
loop_
_space_group_symop_operation_xyz
x,y,z
-x,-y,-z
loop_
_atom_site_type_symbol
_atom_site_label
_atom_site_fract_x
_atom_site_fract_y
_atom_site_fract_z
Si Si1 0.633584 0.110567 0.232109
Si Si2 0.959969 0.705216 0.866545
Si Si3 0.815555 0.637755 0.443517
Si Si4 0.131075 0.180009 0.053412
Si Si5 0.938672 0.455728 0.325116
Si Si6 0.515404 0.720488 0.626206
Si Si7 0.247556 0.149777 0.416402
Si Si8 0.117976 0.002800 0.771169
O O1 0.383045 0.104692 0.150555
O O2 0.714578 0.340669 0.253924
O O3 0.685494 0.093616 0.182524
O O4 0.773684 0.898557 0.356446
O O5 0.932366 0.835178 0.897742
O O6 0.720875 0.693583 0.752158
O O7 0.112811 0.841405 0.857301
O O8 0.076085 0.442297 0.961817
O O9 0.599655 0.514163 0.372374
O O10 0.000000 0.500000 0.500000
O O11 0.905248 0.640122 0.544550
O O12 0.000000 0.000000 0.000000
O O13 0.089731 0.373380 0.340307
O O14 0.860685 0.731874 0.246618
O O15 0.573322 0.741576 0.573966
O O16 0.362011 0.964914 0.542065
O O17 0.110546 0.988907 0.350877
#
# Coordination Sequence:
#
# PCOD8005767 Si02
#       8
#     2   2   2   2   2   2   2   2
#     4  11  25  40  65  92 128 169 212 260 317 372
#     4  10  25  44  69  92 127 164 218 267 313 366
#     4  12  22  36  60  94 135 169 205 252 308 382
#     4  11  26  48  67  94 121 163 221 273 314 369
#     4  11  22  38  62  93 131 169 206 249 315 384
#     4  10  20  39  62  91 132 168 202 260 312 370
#     4   9  20  38  59  95 134 163 207 249 308 390
#     4  10  21  44  63  97 132 166 204 260 311 385
#
# _framework density 20.506181999999999
#
# number of rings (size 3 to 8) (size 9 to 14) (size 15 to 20)
#    0.000    1.500    2.500    1.875    3.500    7.000 
#    0.000    1.250    0.000    0.000    0.000    0.000 
#    0.000    0.000    0.000    0.000    0.000    0.000 
#
# Total GULP energy -198370.342190 kJ/mol
# GULP energy per Si atom -12398.146387 kJ/mol
# Density = 2.045951 g / cm^3
# Si number density = 20.506182 Si / 1000 Ang^3
#
#
#
# Elastic Constant Matrix: (Units=GPa)
#
#
# Indices 1 2 3 4 5 6 
#
# 1 106.5998 59.7920 38.8421 -2.9398 -7.2114 7.6696
# 2 59.7920 140.6715 36.8717 5.7305 -1.9037 1.2043
# 3 38.8421 36.8717 89.2851 -1.6433 -2.7612 -2.2068
# 4 -2.9398 5.7305 -1.6433 29.2343 1.4806 0.9451
# 5 -7.2114 -1.9037 -2.7612 1.4806 36.0692 -1.5003
# 6 7.6696 1.2043 -2.2068 0.9451 -1.5003 26.8713
#
#
#
# Elastic Compliance Matrix: (Units=1/GPa)
#
#
# Indices 1 2 3 4 5 6 
#
# 1 0.014155 -0.004968 -0.004106 0.002199 0.001992 -0.004121
# 2 -0.004968 0.009816 -0.001932 -0.002536 -0.000482 0.000882
# 3 -0.004106 -0.001932 0.013862 0.000657 0.000210 0.002386
# 4 0.002199 -0.002536 0.000657 0.035077 -0.001157 -0.001758
# 5 0.001992 -0.000482 0.000210 -0.001157 0.028206 0.001086
# 6 -0.004121 0.000882 0.002386 -0.001758 0.001086 0.038670
#
#
# Mechanical properties :
#
#
# Convention : Reuss Voigt Hill
#
# Bulk Modulus (GPa) = 63.20882 67.50756 65.35819
# Shear Modulus (GPa) = 29.92711 31.83833 30.88272
#
# Velocity S-wave (km/s) = 3.82438 3.94461 3.88496
# Velocity P-wave (km/s) = 7.09876 7.33066 7.21564
#
# Compressibility (1/GPa) = 0.01582058
#
# Stress axis : x y z
#
# Youngs Moduli (GPa) = 70.64425 101.87421 72.13935
#
# Poissons Ratio (x) = 0.50608 0.29623
# Poissons Ratio (y) = 0.35094 0.13940
# Poissons Ratio (z) = 0.29009 0.19686
#
# Static dielectric constant tensor:
#      x y z
#    x 3.866030 0.021410 0.005020 
#    y 0.021410 3.552440 -0.015400 
#    z 0.005020 -0.015400 3.581480 
# 
# 
# High freq. dielectric constant tensor:
#      x y z
#    x 1.811490 0.003740 0.004330 
#    y 0.003740 1.808700 -0.003000 
#    z 0.004330 -0.003000 1.793700 
# 
# From -- ./inp_files/511326.got.cif
#   From: 2010.06.25/outbox.cif.g09.slc.cpg/sg2_256_cif.got.tgz:511326.got - 2010.06.27 13:26:56.
