data_PCOD8005765
_publ_section_title
;
Structure prediction by ZEFSAII (Michael W. Deem and Ramdas Pophale) SiO2 
 PCOD8005765
Probable space group: P -1
;
_chemical_formula_sum "Si O2"
_cell_formula_units_Z 16
_cell_length_a 15.572256
_cell_length_b 9.528511
_cell_length_c 15.369486
_cell_angle_alpha 141.508973
_cell_angle_beta 39.517120
_cell_angle_gamma 142.854616
_cell_volume 788.278067
_symmetry_space_group_name_H-M "P -1"
_symmetry_group_IT_number 2
_symmetry_cell_setting 'triclinic'
loop_
_space_group_symop_operation_xyz
x,y,z
-x,-y,-z
loop_
_atom_site_type_symbol
_atom_site_label
_atom_site_fract_x
_atom_site_fract_y
_atom_site_fract_z
Si Si1 0.050141 0.567901 0.638470
Si Si2 0.419927 0.168302 0.155075
Si Si3 0.135126 0.667455 0.167587
Si Si4 0.041020 0.305109 0.826375
Si Si5 0.640978 0.974599 0.339048
Si Si6 0.705136 0.586576 0.198468
Si Si7 0.101638 0.272750 0.309786
Si Si8 0.447609 0.528375 0.149795
O O1 0.059320 0.338713 0.469374
O O2 0.907605 0.443910 0.756666
O O3 0.012958 0.732122 0.677564
O O4 0.209856 0.742322 0.651923
O O5 0.522269 0.382772 0.251371
O O6 0.429526 0.305729 0.122400
O O7 0.248660 0.978339 0.231082
O O8 0.500000 0.000000 0.000000
O O9 0.979540 0.644952 0.234258
O O10 0.208347 0.512526 0.984830
O O11 0.213975 0.366285 0.747047
O O12 0.918011 0.012931 0.809410
O O13 0.000000 0.500000 0.000000
O O14 0.711206 0.845665 0.286267
O O15 0.576523 0.810150 0.220726
O O16 0.500000 0.000000 0.500000
O O17 0.276554 0.494332 0.258641
O O18 0.500000 0.500000 0.000000
#
# Coordination Sequence:
#
# PCOD8005765 Si02
#       8
#     2   2   2   2   2   2   2   2
#     4  11  25  41  65  94 129 178 214 269 336 392
#     4   9  19  38  59  89 126 159 200 265 319 375
#     4  10  21  39  64  95 122 167 218 261 330 393
#     4  10  20  39  62  91 128 166 209 271 326 379
#     4  11  22  43  64  91 133 170 217 268 335 387
#     4   9  20  37  64  89 125 169 206 270 322 376
#     4  11  23  43  63  91 134 168 221 273 323 394
#     4  11  24  39  67  96 124 170 217 270 321 385
#
# _framework density 20.297405999999999
#
# number of rings (size 3 to 8) (size 9 to 14) (size 15 to 20)
#    0.000    1.750    3.750    0.000    5.250    3.000 
#    0.000    0.000    0.000    1.500    0.000    0.000 
#    0.000    0.000    0.000    0.000    0.000    0.000 
#
# Total GULP energy -198220.851553 kJ/mol
# GULP energy per Si atom -12388.803222 kJ/mol
# Density = 2.025121 g / cm^3
# Si number density = 20.297406 Si / 1000 Ang^3
#
#
#
# Elastic Constant Matrix: (Units=GPa)
#
#
# Indices 1 2 3 4 5 6 
#
# 1 115.6194 45.8492 43.2782 3.3877 0.3882 23.6344
# 2 45.8492 108.4625 40.6956 6.0059 11.6517 8.4044
# 3 43.2782 40.6956 81.9146 1.0132 3.7533 -1.5541
# 4 3.3877 6.0059 1.0132 26.7553 1.7376 -0.2811
# 5 0.3882 11.6517 3.7533 1.7376 27.8671 2.0734
# 6 23.6344 8.4044 -1.5541 -0.2811 2.0734 28.3424
#
#
#
# Elastic Compliance Matrix: (Units=1/GPa)
#
#
# Indices 1 2 3 4 5 6 
#
# 1 0.014867 -0.003097 -0.006665 -0.001254 0.002962 -0.012074
# 2 -0.003097 0.012942 -0.004583 -0.002058 -0.004534 -0.001195
# 3 -0.006665 -0.004583 0.018193 0.001341 -0.001121 0.008010
# 4 -0.001254 -0.002058 0.001341 0.038089 -0.001845 0.002242
# 5 0.002962 -0.004534 -0.001121 -0.001845 0.038303 -0.004008
# 6 -0.012074 -0.001195 0.008010 0.002242 -0.004008 0.046460
#
#
# Mechanical properties :
#
#
# Convention : Reuss Voigt Hill
#
# Bulk Modulus (GPa) = 57.76536 62.84915 60.30726
# Shear Modulus (GPa) = 24.59233 28.33784 26.46508
#
# Velocity S-wave (km/s) = 3.48458 3.74054 3.61482
# Velocity P-wave (km/s) = 6.68663 7.04889 6.87015
#
# Compressibility (1/GPa) = 0.01731141
#
# Stress axis : x y z
#
# Youngs Moduli (GPa) = 67.26322 77.26765 54.96606
#
# Poissons Ratio (x) = 0.23929 0.36637
# Poissons Ratio (y) = 0.20830 0.25191
# Poissons Ratio (z) = 0.44834 0.35412
#
# Static dielectric constant tensor:
#      x y z
#    x 4.938050 1.349590 -0.081130 
#    y 1.349590 5.135500 0.387790 
#    z -0.081130 0.387790 3.445260 
# 
# 
# High freq. dielectric constant tensor:
#      x y z
#    x 1.814080 0.022050 -0.016220 
#    y 0.022050 1.788790 0.026170 
#    z -0.016220 0.026170 1.764170 
# 
# From -- ./inp_files/389326.got.cif
#   From: 2010.06.25/outbox.cif.g09.slc.cpg/sg2_195_cif.got.tgz:389326.got - 2010.06.27 13:26:56.
