data_PCOD8005500
_publ_section_title
;
Structure prediction by ZEFSAII (Michael W. Deem and Ramdas Pophale) SiO2 
 PCOD8005500
Probable space group: P -1
;
_chemical_formula_sum "Si O2"
_cell_formula_units_Z 16
_cell_length_a 9.210688
_cell_length_b 16.468335
_cell_length_c 8.905662
_cell_angle_alpha 61.026066
_cell_angle_beta 68.703972
_cell_angle_gamma 46.429108
_cell_volume 855.310230
_symmetry_space_group_name_H-M "P -1"
_symmetry_group_IT_number 2
_symmetry_cell_setting 'triclinic'
loop_
_space_group_symop_operation_xyz
x,y,z
-x,-y,-z
loop_
_atom_site_type_symbol
_atom_site_label
_atom_site_fract_x
_atom_site_fract_y
_atom_site_fract_z
Si Si1 0.963422 0.227997 0.241148
Si Si2 0.647073 0.093406 0.026666
Si Si3 0.389023 0.714035 0.519467
Si Si4 0.553741 0.843144 0.273017
Si Si5 0.390708 0.065613 0.330023
Si Si6 0.681150 0.286574 0.802618
Si Si7 0.420442 0.526444 0.838207
Si Si8 0.074169 0.177481 0.900182
O O1 0.822111 0.197313 0.387146
O O2 0.823668 0.373490 0.161292
O O3 0.150877 0.170921 0.335850
O O4 0.039470 0.178506 0.089625
O O5 0.490347 0.123542 0.186621
O O6 0.833035 0.953161 0.079842
O O7 0.528453 0.136960 0.878580
O O8 0.715329 0.172179 0.964702
O O9 0.523497 0.756328 0.447903
O O10 0.333022 0.711368 0.372009
O O11 0.511647 0.581138 0.663210
O O12 0.784851 0.787562 0.224056
O O13 0.423066 0.970964 0.285404
O O14 0.500000 0.000000 0.500000
O O15 0.482350 0.408467 0.837483
O O16 0.871077 0.274869 0.798392
O O17 0.500000 0.500000 0.000000
#
# Coordination Sequence:
#
# PCOD8005500 Si02
#       8
#     2   2   2   2   2   2   2   2
#     4  10  21  38  60  85 121 153 200 237 299 348
#     4  10  21  37  58  87 120 158 194 239 305 349
#     4   9  23  37  60  87 118 149 206 240 296 341
#     4  10  20  39  58  84 121 159 183 247 304 352
#     4  11  22  36  59  89 127 152 192 250 299 352
#     4  11  21  38  61  86 117 159 201 246 284 361
#     4  10  21  39  61  83 119 162 199 244 292 346
#     4  11  19  37  64  85 121 156 197 234 305 357
#
# _framework density 18.706661
#
# number of rings (size 3 to 8) (size 9 to 14) (size 15 to 20)
#    0.750    1.000    3.750    1.500    3.500    2.500 
#    0.000    1.250    0.000    0.000    0.000    0.000 
#    0.000    0.000    0.000    0.000    0.000    0.000 
#
# Total GULP energy -198286.961285 kJ/mol
# GULP energy per Si atom -12392.935080 kJ/mol
# Density = 1.866408 g / cm^3
# Si number density = 18.706661 Si / 1000 Ang^3
#
#
#
# Elastic Constant Matrix: (Units=GPa)
#
#
# Indices 1 2 3 4 5 6 
#
# 1 104.2029 44.1210 52.0591 0.0977 -4.4562 -14.5133
# 2 44.1210 86.1778 27.0072 -0.3565 -9.5130 -14.5988
# 3 52.0591 27.0072 110.2539 -3.3992 -14.9449 -3.5678
# 4 0.0977 -0.3565 -3.3992 25.5002 -8.4722 -0.1548
# 5 -4.4562 -9.5130 -14.9449 -8.4722 28.7565 -7.6245
# 6 -14.5133 -14.5988 -3.5678 -0.1548 -7.6245 19.3424
#
#
#
# Elastic Compliance Matrix: (Units=1/GPa)
#
#
# Indices 1 2 3 4 5 6 
#
# 1 0.015674 -0.005187 -0.006133 -0.001315 -0.001211 0.006227
# 2 -0.005187 0.017555 -0.000031 0.003496 0.009497 0.013124
# 3 -0.006133 -0.000031 0.013111 0.004191 0.007271 0.000692
# 4 -0.001315 0.003496 0.004191 0.046400 0.019590 0.010519
# 5 -0.001211 0.009497 0.007271 0.019590 0.055094 0.029475
# 6 0.006227 0.013124 0.000692 0.010519 0.029475 0.078108
#
#
# Mechanical properties :
#
#
# Convention : Reuss Voigt Hill
#
# Bulk Modulus (GPa) = 42.30670 60.77882 51.54276
# Shear Modulus (GPa) = 19.49130 26.54964 23.02047
#
# Velocity S-wave (km/s) = 3.23142 3.77140 3.51180
# Velocity P-wave (km/s) = 6.04878 7.17813 6.63752
#
# Compressibility (1/GPa) = 0.02363692
#
# Stress axis : x y z
#
# Youngs Moduli (GPa) = 63.80115 56.96283 76.27239
#
# Poissons Ratio (x) = 0.29545 0.46781
# Poissons Ratio (y) = 0.33092 0.00240
# Poissons Ratio (z) = 0.39132 0.00179
#
# Static dielectric constant tensor:
#      x y z
#    x 3.534960 0.040720 -0.253510 
#    y 0.040720 3.430850 -0.118020 
#    z -0.253510 -0.118020 3.532230 
# 
# 
# High freq. dielectric constant tensor:
#      x y z
#    x 1.714880 -0.008030 0.001220 
#    y -0.008030 1.713770 0.004960 
#    z 0.001220 0.004960 1.735640 
# 
# From -- ./inp_files/206356.got.cif
#   From: 2010.06.25/outbox.cif.g09.slc.cpg/sg2_104_cif.got.tgz:206356.got - 2010.06.27 13:26:56.
