data_PCOD8005233
_publ_section_title
;
Structure prediction by ZEFSAII (Michael W. Deem and Ramdas Pophale) SiO2 
 PCOD8005233
Probable space group: P -1
;
_chemical_formula_sum "Si O2"
_cell_formula_units_Z 16
_cell_length_a 8.826923
_cell_length_b 13.167710
_cell_length_c 8.443814
_cell_angle_alpha 52.418587
_cell_angle_beta 112.933014
_cell_angle_gamma 113.698294
_cell_volume 697.915100
_symmetry_space_group_name_H-M "P -1"
_symmetry_group_IT_number 2
_symmetry_cell_setting 'triclinic'
loop_
_space_group_symop_operation_xyz
x,y,z
-x,-y,-z
loop_
_atom_site_type_symbol
_atom_site_label
_atom_site_fract_x
_atom_site_fract_y
_atom_site_fract_z
Si Si1 0.439557 0.694550 0.199981
Si Si2 0.175760 0.430099 0.735696
Si Si3 0.620190 0.769584 0.888984
Si Si4 0.040433 0.065165 0.209995
Si Si5 0.283147 0.720025 0.625598
Si Si6 0.716219 0.590900 0.558560
Si Si7 0.838499 0.222314 0.799738
Si Si8 0.008773 0.800849 0.615008
O O1 0.572756 0.676321 0.408597
O O2 0.351667 0.546546 0.245996
O O3 0.305693 0.772138 0.137319
O O4 0.533112 0.781117 0.011207
O O5 0.202571 0.569094 0.698835
O O6 0.234356 0.443714 0.565227
O O7 0.977903 0.360074 0.727252
O O8 0.284696 0.349177 0.958263
O O9 0.760735 0.902535 0.783414
O O10 0.482177 0.746114 0.715371
O O11 0.006614 0.157444 0.252058
O O12 0.980462 0.913019 0.374322
O O13 0.926615 0.100244 0.986414
O O14 0.247987 0.805803 0.379995
O O15 0.190728 0.766455 0.696020
O O16 0.869601 0.670332 0.646653
#
# Coordination Sequence:
#
# PCOD8005233 Si02
#       8
#     2   2   2   2   2   2   2   2
#     4  10  21  37  64  97 136 155 199 257 321 380
#     4  10  20  40  60  98 135 160 199 259 316 380
#     4  10  24  41  63  94 131 171 201 256 313 372
#     4  10  26  47  63  86 128 167 221 262 302 360
#     4  12  22  37  68  97 125 161 213 252 320 374
#     4  10  20  38  65  97 126 165 200 256 320 371
#     4  11  21  39  64  94 130 162 207 262 307 374
#     4  11  24  44  69  87 120 173 219 258 307 365
#
# _framework density 22.925426000000002
#
# number of rings (size 3 to 8) (size 9 to 14) (size 15 to 20)
#    0.000    1.500    2.500    2.250    1.750    3.000 
#    0.000    5.000    0.000    0.000    0.000    0.000 
#    0.000    0.000    0.000    0.000    0.000    0.000 
#
# Total GULP energy -198457.112210 kJ/mol
# GULP energy per Si atom -12403.569513 kJ/mol
# Density = 2.287325 g / cm^3
# Si number density = 22.925426 Si / 1000 Ang^3
#
#
#
# Elastic Constant Matrix: (Units=GPa)
#
#
# Indices 1 2 3 4 5 6 
#
# 1 133.8500 16.5247 17.2238 6.5860 3.3529 5.6604
# 2 16.5247 31.1374 -3.4769 5.5299 4.2074 2.2605
# 3 17.2238 -3.4769 58.2450 11.7169 8.5064 19.0761
# 4 6.5860 5.5299 11.7169 24.8065 9.8639 3.6492
# 5 3.3529 4.2074 8.5064 9.8639 41.6003 4.0492
# 6 5.6604 2.2605 19.0761 3.6492 4.0492 24.2095
#
#
#
# Elastic Compliance Matrix: (Units=1/GPa)
#
#
# Indices 1 2 3 4 5 6 
#
# 1 0.008438 -0.004959 -0.003156 0.000080 0.000360 0.000905
# 2 -0.004959 0.038115 0.008249 -0.009117 -0.002285 -0.007143
# 3 -0.003156 0.008249 0.027411 -0.010318 -0.001814 -0.019772
# 4 0.000080 -0.009117 -0.010318 0.050434 -0.009215 0.002902
# 5 0.000360 -0.002285 -0.001814 -0.009215 0.026948 -0.001560
# 6 0.000905 -0.007143 -0.019772 0.002902 -0.001560 0.057165
#
#
# Mechanical properties :
#
#
# Convention : Reuss Voigt Hill
#
# Bulk Modulus (GPa) = 13.47151 31.53062 22.50106
# Shear Modulus (GPa) = 21.46033 30.98732 26.22383
#
# Velocity S-wave (km/s) = 3.06288 3.68048 3.38579
# Velocity P-wave (km/s) = 4.28921 5.64311 5.01208
#
# Compressibility (1/GPa) = 0.07423075
#
# Stress axis : x y z
#
# Youngs Moduli (GPa) = 118.50827 26.23636 36.48192
#
# Poissons Ratio (x) = 0.13011 0.11515
# Poissons Ratio (y) = 0.58770 -0.30093
# Poissons Ratio (z) = 0.37405 -0.21642
#
# Static dielectric constant tensor:
#      x y z
#    x 4.411180 0.076650 0.022730 
#    y 0.076650 3.720200 0.009880 
#    z 0.022730 0.009880 4.165240 
# 
# 
# High freq. dielectric constant tensor:
#      x y z
#    x 1.924230 0.001830 0.005800 
#    y 0.001830 1.876210 -0.000200 
#    z 0.005800 -0.000200 1.906870 
# 
# From -- ./inp_files/205762.got.cif
#   From: 2010.06.25/outbox.cif.g09.slc.cpg/sg2_103_cif.got.tgz:205762.got - 2010.06.27 13:26:56.
