data_PCOD8005982
_publ_section_title
;
Structure prediction by ZEFSAII (Michael W. Deem and Ramdas Pophale) SiO2 
 PCOD8005982
Probable space group: P -1
;
_chemical_formula_sum "Si O2"
_cell_formula_units_Z 16
_cell_length_a 11.638882
_cell_length_b 15.598832
_cell_length_c 7.016479
_cell_angle_alpha 116.977507
_cell_angle_beta 116.918058
_cell_angle_gamma 41.221721
_cell_volume 734.490766
_symmetry_space_group_name_H-M "P -1"
_symmetry_group_IT_number 2
_symmetry_cell_setting 'triclinic'
loop_
_space_group_symop_operation_xyz
x,y,z
-x,-y,-z
loop_
_atom_site_type_symbol
_atom_site_label
_atom_site_fract_x
_atom_site_fract_y
_atom_site_fract_z
Si Si1 0.853755 0.743808 0.730094
Si Si2 0.808045 0.618048 0.891019
Si Si3 0.966082 0.901921 0.573006
Si Si4 0.657732 0.990571 0.639930
Si Si5 0.187078 0.681344 0.818623
Si Si6 0.637104 0.721984 0.265123
Si Si7 0.202862 0.806367 0.307279
Si Si8 0.602326 0.593321 0.423884
O O1 0.762416 0.897555 0.812360
O O2 0.773220 0.724168 0.474303
O O3 0.060332 0.656166 0.755189
O O4 0.817035 0.711870 0.870847
O O5 0.677479 0.695698 0.047197
O O6 0.735233 0.569440 0.656603
O O7 0.000000 0.500000 0.000000
O O8 0.792762 0.922996 0.492023
O O9 0.103225 0.805463 0.745573
O O10 0.064824 0.830190 0.377166
O O11 0.895575 0.046991 0.690387
O O12 0.500000 0.000000 0.500000
O O13 0.570232 0.139717 0.749172
O O14 0.355194 0.542715 0.702215
O O15 0.244596 0.708500 0.076301
O O16 0.642418 0.617846 0.270660
O O17 0.398393 0.721781 0.462598
#
# Coordination Sequence:
#
# PCOD8005982 Si02
#       8
#     2   2   2   2   2   2   2   2
#     4   9  21  38  59  95 126 165 218 263 326 389
#     4  11  23  39  64  94 131 174 212 269 336 387
#     4  10  23  44  64  95 130 171 224 264 323 388
#     4   9  18  38  66  93 128 163 208 275 325 376
#     4  11  23  40  65  94 129 173 216 270 321 385
#     4  10  20  39  64  90 130 169 208 272 329 384
#     4  11  24  44  67  91 131 179 217 269 316 387
#     4  11  24  42  64  97 131 168 226 267 322 392
#
# _framework density 21.783798000000001
#
# number of rings (size 3 to 8) (size 9 to 14) (size 15 to 20)
#    0.000    1.750    1.250    2.250    0.000    9.000 
#    9.000    0.000    0.000    0.000    0.000    0.000 
#    0.000    0.000    0.000    0.000    0.000    0.000 
#
# Total GULP energy -198263.624130 kJ/mol
# GULP energy per Si atom -12391.476508 kJ/mol
# Density = 2.173422 g / cm^3
# Si number density = 21.783798 Si / 1000 Ang^3
#
#
#
# Elastic Constant Matrix: (Units=GPa)
#
#
# Indices 1 2 3 4 5 6 
#
# 1 91.4232 43.0603 40.7935 -7.4431 -17.8407 -7.0190
# 2 43.0603 151.8421 55.2370 -6.6957 -3.0541 -5.7725
# 3 40.7935 55.2370 116.1496 -5.2523 -16.4885 2.8927
# 4 -7.4431 -6.6957 -5.2523 25.2967 2.5092 -2.9079
# 5 -17.8407 -3.0541 -16.4885 2.5092 33.2454 4.8854
# 6 -7.0190 -5.7725 2.8927 -2.9079 4.8854 25.5932
#
#
#
# Elastic Compliance Matrix: (Units=1/GPa)
#
#
# Indices 1 2 3 4 5 6 
#
# 1 0.015261 -0.002816 -0.003162 0.002887 0.005682 0.003151
# 2 -0.002816 0.008782 -0.003602 0.001306 -0.002931 0.002323
# 3 -0.003162 -0.003602 0.012175 -0.000270 0.004614 -0.003967
# 4 0.002887 0.001306 -0.000270 0.041650 -0.002539 0.006334
# 5 0.005682 -0.002931 0.004614 -0.002539 0.036346 -0.006851
# 6 0.003151 0.002323 -0.003967 0.006334 -0.006851 0.042937
#
#
# Mechanical properties :
#
#
# Convention : Reuss Voigt Hill
#
# Bulk Modulus (GPa) = 58.62680 70.84405 64.73542
# Shear Modulus (GPa) = 27.47307 31.51535 29.49421
#
# Velocity S-wave (km/s) = 3.55515 3.80772 3.68360
# Velocity P-wave (km/s) = 6.61994 7.20581 6.91908
#
# Compressibility (1/GPa) = 0.01705705
#
# Stress axis : x y z
#
# Youngs Moduli (GPa) = 65.52551 113.87254 82.13713
#
# Poissons Ratio (x) = 0.32069 0.25972
# Poissons Ratio (y) = 0.18453 0.29587
# Poissons Ratio (z) = 0.20719 0.41018
#
# Static dielectric constant tensor:
#      x y z
#    x 4.059410 -0.055040 -0.238910 
#    y -0.055040 4.807880 -0.233970 
#    z -0.238910 -0.233970 3.774370 
# 
# 
# High freq. dielectric constant tensor:
#      x y z
#    x 1.858800 -0.004200 -0.015620 
#    y -0.004200 1.879250 -0.014380 
#    z -0.015620 -0.014380 1.827760 
# 
# From -- ./inp_files/80579.got.cif
#   From: 2010.06.25/outbox.cif.g09.slc.cpg/sg2_41_cif.got.tgz:80579.got - 2010.06.27 13:26:56.
