data_PCOD8005798
_publ_section_title
;
Structure prediction by ZEFSAII (Michael W. Deem and Ramdas Pophale) SiO2 
 PCOD8005798
Probable space group: P -1
;
_chemical_formula_sum "Si O2"
_cell_formula_units_Z 14
_cell_length_a 12.066129
_cell_length_b 18.382967
_cell_length_c 11.969742
_cell_angle_alpha 26.585807
_cell_angle_beta 35.369007
_cell_angle_gamma 27.825832
_cell_volume 550.792583
_symmetry_space_group_name_H-M "P -1"
_symmetry_group_IT_number 2
_symmetry_cell_setting 'triclinic'
loop_
_space_group_symop_operation_xyz
x,y,z
-x,-y,-z
loop_
_atom_site_type_symbol
_atom_site_label
_atom_site_fract_x
_atom_site_fract_y
_atom_site_fract_z
Si Si1 0.436858 0.850778 0.379912
Si Si2 0.859721 0.131366 0.785413
Si Si3 0.672703 0.445287 0.112147
Si Si4 0.851994 0.874280 0.958699
Si Si5 0.292074 0.167599 0.246520
Si Si6 0.250401 0.530573 0.728470
Si Si7 0.362047 0.894180 0.779018
O O1 0.481309 0.640291 0.662416
O O2 0.689142 0.799985 0.213244
O O3 0.310318 0.003405 0.378511
O O4 0.255582 0.953067 0.284319
O O5 0.675076 0.360025 0.569306
O O6 0.767765 0.147127 0.962479
O O7 0.136529 0.066410 0.650310
O O8 0.877014 0.958416 0.937769
O O9 0.751191 0.411061 0.223206
O O10 0.527027 0.679963 0.873166
O O11 0.897838 0.325220 0.010873
O O12 0.470440 0.051593 0.368847
O O13 0.024834 0.353760 0.242637
O O14 0.390502 0.284417 0.941165
#
# Coordination Sequence:
#
# PCOD8005798 Si02
#       7
#     2   2   2   2   2   2   2
#     4  11  21  37  65  97 125 159 202 269 315 361
#     4  11  22  43  64  87 127 173 205 251 314 377
#     4  11  22  42  64  97 126 161 210 264 311 373
#     4  11  22  36  66  96 125 160 208 260 319 368
#     4  10  20  39  62  97 124 155 210 266 304 375
#     4  10  21  37  67  93 124 159 210 260 314 364
#     4  10  25  42  62  88 129 167 213 250 304 381
#
# _framework density 25.417918
#
# number of rings (size 3 to 8) (size 9 to 14) (size 15 to 20)
#    0.000    1.429    4.286    1.286    0.000    5.714 
#    0.000    0.714    3.143    0.000    0.000    0.000 
#    0.000    0.000    0.000    0.000    0.000    0.000 
#
# Total GULP energy -173636.419557 kJ/mol
# GULP energy per Si atom -12402.601397 kJ/mol
# Density = 2.536007 g / cm^3
# Si number density = 25.417918 Si / 1000 Ang^3
#
#
#
# Elastic Constant Matrix: (Units=GPa)
#
#
# Indices 1 2 3 4 5 6 
#
# 1 99.3090 38.6931 40.6213 -20.8787 -5.7192 -6.2652
# 2 38.6931 94.9541 18.4121 -18.3782 -2.6571 4.8564
# 3 40.6213 18.4121 75.8981 -23.2598 -5.5165 2.1367
# 4 -20.8787 -18.3782 -23.2598 36.4341 -0.4000 -2.3164
# 5 -5.7192 -2.6571 -5.5165 -0.4000 50.4451 -2.4975
# 6 -6.2652 4.8564 2.1367 -2.3164 -2.4975 41.6439
#
#
#
# Elastic Compliance Matrix: (Units=1/GPa)
#
#
# Indices 1 2 3 4 5 6 
#
# 1 0.015260 -0.004639 -0.006257 0.002635 0.000989 0.003364
# 2 -0.004639 0.013237 0.000664 0.004316 0.000178 -0.002025
# 3 -0.006257 0.000664 0.019256 0.008968 0.001432 -0.001422
# 4 0.002635 0.004316 0.008968 0.036981 0.001879 0.001603
# 5 0.000989 0.000178 0.001432 0.001879 0.020184 0.001370
# 6 0.003364 -0.002025 -0.001422 0.001603 0.001370 0.025000
#
#
# Mechanical properties :
#
#
# Convention : Reuss Voigt Hill
#
# Bulk Modulus (GPa) = 36.64584 51.73491 44.19037
# Shear Modulus (GPa) = 31.35244 37.20026 34.27635
#
# Velocity S-wave (km/s) = 3.51590 3.82978 3.67619
# Velocity P-wave (km/s) = 5.56154 6.32093 5.95336
#
# Compressibility (1/GPa) = 0.02728823
#
# Stress axis : x y z
#
# Youngs Moduli (GPa) = 65.53252 75.54620 51.93299
#
# Poissons Ratio (x) = 0.35049 0.32495
# Poissons Ratio (y) = 0.30403 -0.03451
# Poissons Ratio (z) = 0.41004 -0.05020
#
# Static dielectric constant tensor:
#      x y z
#    x 4.861950 -0.471790 -0.060800 
#    y -0.471790 4.721300 0.176010 
#    z -0.060800 0.176010 5.165040 
# 
# 
# High freq. dielectric constant tensor:
#      x y z
#    x 2.023380 -0.021870 -0.007270 
#    y -0.021870 2.022160 0.018810 
#    z -0.007270 0.018810 2.048720 
# 
# From -- ./inp_files/158404.got.cif
#   From: 2010.06.25/outbox.cif.g09.slc.cpg/sg2_80_cif.got.tgz:158404.got - 2010.06.27 13:26:56.
