data_PCOD8005641
_publ_section_title
;
Structure prediction by ZEFSAII (Michael W. Deem and Ramdas Pophale) SiO2 
 PCOD8005641
Probable space group: P -1
;
_chemical_formula_sum "Si O2"
_cell_formula_units_Z 16
_cell_length_a 20.422443
_cell_length_b 17.108458
_cell_length_c 10.588516
_cell_angle_alpha 43.710328
_cell_angle_beta 52.132649
_cell_angle_gamma 18.465676
_cell_volume 764.927627
_symmetry_space_group_name_H-M "P -1"
_symmetry_group_IT_number 2
_symmetry_cell_setting 'triclinic'
loop_
_space_group_symop_operation_xyz
x,y,z
-x,-y,-z
loop_
_atom_site_type_symbol
_atom_site_label
_atom_site_fract_x
_atom_site_fract_y
_atom_site_fract_z
Si Si1 0.505455 0.237778 0.195235
Si Si2 0.921808 0.331041 0.758704
Si Si3 0.118426 0.199857 0.907408
Si Si4 0.878024 0.970450 0.678112
Si Si5 0.873732 0.741351 0.548178
Si Si6 0.153903 0.771967 0.417261
Si Si7 0.820517 0.153391 0.149567
Si Si8 0.635107 0.187372 0.481672
O O1 0.330644 0.357020 0.264990
O O2 0.628771 0.085457 0.090312
O O3 0.676570 0.000002 0.380868
O O4 0.366897 0.525744 0.049669
O O5 0.062872 0.176406 0.896253
O O6 0.935014 0.415470 0.542217
O O7 0.015221 0.094077 0.868177
O O8 0.960278 0.505900 0.725580
O O9 0.080064 0.194041 0.096369
O O10 0.807427 0.163526 0.623468
O O11 0.683084 0.180345 0.569788
O O12 0.091211 0.742718 0.613188
O O13 0.791780 0.882357 0.619799
O O14 0.388404 0.452074 0.451366
O O15 0.963866 0.028028 0.239328
O O16 0.684488 0.216190 0.281675
#
# Coordination Sequence:
#
# PCOD8005641 Si02
#       8
#     2   2   2   2   2   2   2   2
#     4  11  21  36  60  85 113 151 183 226 288 335
#     4  10  21  37  57  85 116 146 184 231 281 335
#     4  11  24  39  55  82 116 152 193 231 267 326
#     4  10  22  37  59  85 113 146 186 231 280 333
#     4  10  24  40  55  81 115 150 195 234 265 323
#     4  10  20  39  61  87 116 139 179 235 287 340
#     4  10  21  35  59  91 115 141 181 230 287 343
#     4  10  21  39  60  82 113 151 184 230 285 328
#
# _framework density 20.917012
#
# number of rings (size 3 to 8) (size 9 to 14) (size 15 to 20)
#    0.000    1.750    0.000    4.500    0.000   12.000 
#    0.000    0.625    0.000    0.000    0.000    0.000 
#    0.000    0.000    0.000    0.000    0.000    0.000 
#
# Total GULP energy -198367.220288 kJ/mol
# GULP energy per Si atom -12397.951268 kJ/mol
# Density = 2.086940 g / cm^3
# Si number density = 20.917012 Si / 1000 Ang^3
#
#
#
# Elastic Constant Matrix: (Units=GPa)
#
#
# Indices 1 2 3 4 5 6 
#
# 1 37.7182 35.7392 10.9293 -11.9330 -5.1449 -3.2956
# 2 35.7392 149.2835 51.8966 -0.4598 -5.4306 -18.5798
# 3 10.9293 51.8966 101.7871 -11.5248 -9.9740 -3.7317
# 4 -11.9330 -0.4598 -11.5248 20.1091 5.0172 -3.0797
# 5 -5.1449 -5.4306 -9.9740 5.0172 19.5579 0.1282
# 6 -3.2956 -18.5798 -3.7317 -3.0797 0.1282 28.7193
#
#
#
# Elastic Compliance Matrix: (Units=1/GPa)
#
#
# Indices 1 2 3 4 5 6 
#
# 1 0.047141 -0.012745 0.005235 0.029878 0.003861 0.001031
# 2 -0.012745 0.012343 -0.005910 -0.009836 -0.000447 0.004702
# 3 0.005235 -0.005910 0.013782 0.009743 0.004268 -0.000406
# 4 0.029878 -0.009836 0.009743 0.076188 -0.009490 0.006543
# 5 0.003861 -0.000447 0.004268 -0.009490 0.056637 -0.000562
# 6 0.001031 0.004702 -0.000406 0.006543 -0.000562 0.038631
#
#
# Mechanical properties :
#
#
# Convention : Reuss Voigt Hill
#
# Bulk Modulus (GPa) = 21.53918 53.99102 37.76510
# Shear Modulus (GPa) = 17.41943 26.35882 21.88913
#
# Velocity S-wave (km/s) = 2.88894 3.55373 3.23844
# Velocity P-wave (km/s) = 4.63117 6.53503 5.66367
#
# Compressibility (1/GPa) = 0.04642702
#
# Stress axis : x y z
#
# Youngs Moduli (GPa) = 21.21300 81.01760 72.55901
#
# Poissons Ratio (x) = 1.03257 -0.37987
# Poissons Ratio (y) = 0.27036 0.42880
# Poissons Ratio (z) = -0.11106 0.47879
#
# Static dielectric constant tensor:
#      x y z
#    x 3.842730 -0.041370 -0.086910 
#    y -0.041370 4.096300 0.316730 
#    z -0.086910 0.316730 3.556490 
# 
# 
# High freq. dielectric constant tensor:
#      x y z
#    x 1.817780 -0.006750 -0.005240 
#    y -0.006750 1.833290 0.017710 
#    z -0.005240 0.017710 1.797860 
# 
# From -- ./inp_files/472187.got.cif
#   From: 2010.06.25/outbox.cif.g09.slc.cpg/sg2_237_cif.got.tgz:472187.got - 2010.06.27 13:26:56.
