data_PCOD8005973
_publ_section_title
;
Structure prediction by ZEFSAII (Michael W. Deem and Ramdas Pophale) SiO2 
 PCOD8005973
Probable space group: P -1
;
_chemical_formula_sum "Si O2"
_cell_formula_units_Z 16
_cell_length_a 6.658205
_cell_length_b 18.895126
_cell_length_c 6.713176
_cell_angle_alpha 91.524505
_cell_angle_beta 115.963353
_cell_angle_gamma 76.571495
_cell_volume 735.844200
_symmetry_space_group_name_H-M "P -1"
_symmetry_group_IT_number 2
_symmetry_cell_setting 'triclinic'
loop_
_space_group_symop_operation_xyz
x,y,z
-x,-y,-z
loop_
_atom_site_type_symbol
_atom_site_label
_atom_site_fract_x
_atom_site_fract_y
_atom_site_fract_z
Si Si1 0.376818 0.919446 0.013510
Si Si2 0.780626 0.208709 0.210809
Si Si3 0.730576 0.835312 0.471842
Si Si4 0.899321 0.342786 0.142603
Si Si5 0.767010 0.478549 0.844250
Si Si6 0.659536 0.403731 0.419960
Si Si7 0.387244 0.045212 0.265971
Si Si8 0.421685 0.281825 0.370548
O O1 0.610466 0.882381 0.236190
O O2 0.247441 0.993572 0.082763
O O3 0.214844 0.863856 0.921581
O O4 0.428914 0.940152 0.813155
O O5 0.800835 0.271086 0.064929
O O6 0.544709 0.232544 0.235383
O O7 0.998242 0.196750 0.458290
O O8 0.748419 0.878592 0.691725
O O9 0.600431 0.771074 0.457549
O O10 0.866555 0.365101 0.362527
O O11 0.166506 0.325882 0.195057
O O12 0.745927 0.408274 0.954159
O O13 0.764905 0.455568 0.611056
O O14 0.550210 0.546368 0.796280
O O15 0.000000 0.500000 0.000000
O O16 0.565567 0.341405 0.492897
O O17 0.500000 0.000000 0.500000
#
# Coordination Sequence:
#
# PCOD8005973 Si02
#       8
#     2   2   2   2   2   2   2   2
#     4  10  20  39  64  90 122 165 201 248 312 354
#     4  10  22  40  61  91 123 162 209 250 299 367
#     4  10  21  39  61  89 125 159 202 257 299 361
#     4  10  22  42  62  90 125 162 205 252 304 358
#     4  11  22  42  65  91 124 159 203 256 301 364
#     4  10  23  41  62  92 121 160 205 247 310 364
#     4   9  19  39  64  91 126 156 202 257 297 361
#     4  10  20  43  59  86 131 156 202 262 293 358
#
# _framework density 21.743731
#
# number of rings (size 3 to 8) (size 9 to 14) (size 15 to 20)
#    0.000    2.000    2.500    0.375    1.750    1.000 
#   11.250    5.625    0.000    0.000    0.000    0.000 
#    0.000    0.000    0.000    0.000    0.000    0.000 
#
# Total GULP energy -198245.645339 kJ/mol
# GULP energy per Si atom -12390.352834 kJ/mol
# Density = 2.169424 g / cm^3
# Si number density = 21.743731 Si / 1000 Ang^3
#
#
#
# Elastic Constant Matrix: (Units=GPa)
#
#
# Indices 1 2 3 4 5 6 
#
# 1 86.6459 2.1168 29.6408 -3.7301 5.0031 8.7466
# 2 2.1168 73.1656 24.3351 -16.4278 9.2676 24.4247
# 3 29.6408 24.3351 82.1061 -12.1067 0.9023 11.6961
# 4 -3.7301 -16.4278 -12.1067 34.2844 4.9794 2.4226
# 5 5.0031 9.2676 0.9023 4.9794 22.9763 2.9268
# 6 8.7466 24.4247 11.6961 2.4226 2.9268 26.0101
#
#
#
# Elastic Compliance Matrix: (Units=1/GPa)
#
#
# Indices 1 2 3 4 5 6 
#
# 1 0.014275 0.004924 -0.005092 0.003290 -0.004727 -0.006910
# 2 0.004924 0.029658 -0.003912 0.017233 -0.013065 -0.027883
# 3 -0.005092 -0.003912 0.015940 0.003118 0.001673 -0.002261
# 4 0.003290 0.017233 0.003118 0.042449 -0.014310 -0.021034
# 5 -0.004727 -0.013065 0.001673 -0.014310 0.051760 0.008614
# 6 -0.006910 -0.027883 -0.002261 -0.021034 0.008614 0.068960
#
#
# Mechanical properties :
#
#
# Convention : Reuss Voigt Hill
#
# Bulk Modulus (GPa) = 19.33632 39.34478 29.34055
# Shear Modulus (GPa) = 20.12571 29.04249 24.58410
#
# Velocity S-wave (km/s) = 3.04565 3.65865 3.36613
# Velocity P-wave (km/s) = 4.61303 5.99847 5.35078
#
# Compressibility (1/GPa) = 0.05171615
#
# Stress axis : x y z
#
# Youngs Moduli (GPa) = 70.05361 33.71729 62.73455
#
# Poissons Ratio (x) = -0.16604 0.31942
# Poissons Ratio (y) = -0.34498 0.24539
# Poissons Ratio (z) = 0.35668 0.13189
#
# Static dielectric constant tensor:
#      x y z
#    x 3.647930 -0.109660 -0.101770 
#    y -0.109660 4.623140 0.005460 
#    z -0.101770 0.005460 3.621260 
# 
# 
# High freq. dielectric constant tensor:
#      x y z
#    x 1.834250 0.000160 -0.004700 
#    y 0.000160 1.889390 -0.005160 
#    z -0.004700 -0.005160 1.825490 
# 
# From -- ./inp_files/10820.got.cif
#   From: 2010.06.25/outbox.cif.g09.slc.cpg/sg2_6_cif.got.tgz:10820.got - 2010.06.27 13:26:56.
