data_PCOD8005314
_publ_section_title
;
Structure prediction by ZEFSAII (Michael W. Deem and Ramdas Pophale) SiO2 
 PCOD8005314
Probable space group: P -1
;
_chemical_formula_sum "Si O2"
_cell_formula_units_Z 14
_cell_length_a 20.063800
_cell_length_b 22.844273
_cell_length_c 9.166295
_cell_angle_alpha 137.946882
_cell_angle_beta 146.790162
_cell_angle_gamma 16.929906
_cell_volume 624.388658
_symmetry_space_group_name_H-M "P -1"
_symmetry_group_IT_number 2
_symmetry_cell_setting 'triclinic'
loop_
_space_group_symop_operation_xyz
x,y,z
-x,-y,-z
loop_
_atom_site_type_symbol
_atom_site_label
_atom_site_fract_x
_atom_site_fract_y
_atom_site_fract_z
Si Si1 0.880170 0.978711 0.942086
Si Si2 0.620517 0.328084 0.077941
Si Si3 0.702681 0.879824 0.792446
Si Si4 0.246668 0.233463 0.858742
Si Si5 0.139350 0.677567 0.630962
Si Si6 0.783515 0.347999 0.822978
Si Si7 0.733675 0.691825 0.665791
O O1 0.537184 0.173975 0.667999
O O2 0.877317 0.085834 0.118723
O O3 0.059937 0.811682 0.836864
O O4 0.030757 0.854507 0.141657
O O5 0.778642 0.321764 0.365474
O O6 0.353181 0.496328 0.018817
O O7 0.443869 0.431207 0.791144
O O8 0.843578 0.697203 0.771769
O O9 0.500000 0.000000 0.500000
O O10 0.510088 0.046218 0.879943
O O11 0.987704 0.752297 0.047843
O O12 0.123889 0.221178 0.675549
O O13 0.993250 0.450685 0.708643
O O14 0.363419 0.211069 0.170568
O O15 0.500000 0.500000 0.500000
#
# Coordination Sequence:
#
# PCOD8005314 Si02
#       7
#     2   2   2   2   2   2   2
#     4  11  21  42  67  99 132 178 229 277 348 406
#     4  10  22  40  64  95 136 176 221 276 336 409
#     4  12  24  45  71  99 136 185 227 280 343 406
#     4  11  24  42  68 107 137 172 231 289 338 401
#     4  10  20  38  66  97 132 173 215 278 338 396
#     4  11  27  45  65  96 136 182 230 282 340 406
#     4  11  24  41  70 106 135 175 228 288 344 402
#
# _framework density 22.421934
#
# number of rings (size 3 to 8) (size 9 to 14) (size 15 to 20)
#    0.000    1.143    4.286    1.714    2.000    2.286 
#    0.000    0.000    0.000    0.000    0.000    0.000 
#    0.000    0.000    0.000    0.000    0.000    0.000 
#
# Total GULP energy -173516.573292 kJ/mol
# GULP energy per Si atom -12394.040949 kJ/mol
# Density = 2.237090 g / cm^3
# Si number density = 22.421934 Si / 1000 Ang^3
#
#
#
# Elastic Constant Matrix: (Units=GPa)
#
#
# Indices 1 2 3 4 5 6 
#
# 1 122.0029 58.1215 48.1267 -9.7429 20.1945 12.3248
# 2 58.1215 119.2874 32.4455 -8.9407 5.5626 27.1611
# 3 48.1267 32.4455 107.5502 -17.5361 6.4495 6.7718
# 4 -9.7429 -8.9407 -17.5361 32.3307 4.3055 -2.1798
# 5 20.1945 5.5626 6.4495 4.3055 35.1844 -13.3571
# 6 12.3248 27.1611 6.7718 -2.1798 -13.3571 45.2990
#
#
#
# Elastic Compliance Matrix: (Units=1/GPa)
#
#
# Indices 1 2 3 4 5 6 
#
# 1 0.013446 -0.004474 -0.003803 0.001576 -0.007468 -0.002533
# 2 -0.004474 0.012550 -0.001026 0.001373 -0.001923 -0.006655
# 3 -0.003803 -0.001026 0.012207 0.005261 -0.000571 -0.000090
# 4 0.001576 0.001373 0.005261 0.035452 -0.007376 -0.002508
# 5 -0.007468 -0.001923 -0.000571 -0.007376 0.039553 0.014578
# 6 -0.002533 -0.006655 -0.000090 -0.002508 0.014578 0.030947
#
#
# Mechanical properties :
#
#
# Convention : Reuss Voigt Hill
#
# Bulk Modulus (GPa) = 51.02647 69.58088 60.30368
# Shear Modulus (GPa) = 29.53484 36.57262 33.05373
#
# Velocity S-wave (km/s) = 3.63330 4.04308 3.84366
# Velocity P-wave (km/s) = 6.35673 7.27291 6.83020
#
# Compressibility (1/GPa) = 0.01959767
#
# Stress axis : x y z
#
# Youngs Moduli (GPa) = 74.37304 79.68208 81.92083
#
# Poissons Ratio (x) = 0.35648 0.31153
# Poissons Ratio (y) = 0.33273 0.08404
# Poissons Ratio (z) = 0.28283 0.08174
#
# Static dielectric constant tensor:
#      x y z
#    x 4.612880 0.144250 0.003750 
#    y 0.144250 4.315970 -0.072330 
#    z 0.003750 -0.072330 3.907180 
# 
# 
# High freq. dielectric constant tensor:
#      x y z
#    x 1.891400 0.012390 0.003860 
#    y 0.012390 1.889000 -0.017030 
#    z 0.003860 -0.017030 1.870380 
# 
# From -- ./inp_files/337857.got.cif
#   From: 2010.06.25/outbox.cif.g09.slc.cpg/sg2_169_cif.got.tgz:337857.got - 2010.06.27 13:26:56.
