data_PCOD8005715
_publ_section_title
;
Structure prediction by ZEFSAII (Michael W. Deem and Ramdas Pophale) SiO2 
 PCOD8005715
Probable space group: P -1
;
_chemical_formula_sum "Si O2"
_cell_formula_units_Z 12
_cell_length_a 11.409925
_cell_length_b 11.005521
_cell_length_c 14.390129
_cell_angle_alpha 43.611423
_cell_angle_beta 146.752104
_cell_angle_gamma 115.053462
_cell_volume 598.963464
_symmetry_space_group_name_H-M "P -1"
_symmetry_group_IT_number 2
_symmetry_cell_setting 'triclinic'
loop_
_space_group_symop_operation_xyz
x,y,z
-x,-y,-z
loop_
_atom_site_type_symbol
_atom_site_label
_atom_site_fract_x
_atom_site_fract_y
_atom_site_fract_z
Si Si1 0.060175 0.519001 0.677295
Si Si2 0.360172 0.457956 0.727130
Si Si3 0.010514 0.741072 0.086211
Si Si4 0.100352 0.774106 0.717861
Si Si5 0.181529 0.383809 0.263644
Si Si6 0.681689 0.177461 0.611435
O O1 0.236526 0.452256 0.743902
O O2 0.132652 0.328107 0.898077
O O3 0.120053 0.671236 0.688668
O O4 0.774700 0.606789 0.406531
O O5 0.324565 0.679001 0.556415
O O6 0.647968 0.307574 0.011510
O O7 0.181379 0.557482 0.233032
O O8 0.183847 0.803444 0.220089
O O9 0.808809 0.945502 0.787642
O O10 0.899809 0.754444 0.656797
O O11 0.000000 0.000000 0.500000
O O12 0.422180 0.237932 0.449065
O O13 0.000000 0.500000 0.000000
#
# Coordination Sequence:
#
# PCOD8005715 Si02
#       6
#     2   2   2   2   2   2
#     4   9  21  40  61  84 115 153 194 243 286 344
#     4  10  20  40  61  85 117 149 196 241 288 348
#     4   9  21  38  62  87 112 155 194 239 293 345
#     4  11  24  39  57  87 118 155 194 237 294 346
#     4  11  22  39  56  87 121 150 192 242 289 348
#     4  10  20  39  62  86 116 151 195 239 295 347
#
# _framework density 20.034613
#
# number of rings (size 3 to 8) (size 9 to 14) (size 15 to 20)
#    0.000    2.000    1.667    1.000    2.333    2.667 
#    0.000    0.000    0.000    0.000    0.000    0.000 
#    0.000    0.000    0.000    0.000    0.000    0.000 
#
# Total GULP energy -148688.723046 kJ/mol
# GULP energy per Si atom -12390.726920 kJ/mol
# Density = 1.998901 g / cm^3
# Si number density = 20.034613 Si / 1000 Ang^3
#
#
#
# Elastic Constant Matrix: (Units=GPa)
#
#
# Indices 1 2 3 4 5 6 
#
# 1 12.2508 -17.2683 -23.5116 8.7636 -9.2221 10.7676
# 2 -17.2683 68.5241 26.5999 0.8969 -6.1451 12.3089
# 3 -23.5116 26.5999 91.9875 -7.1407 -7.0126 12.2339
# 4 8.7636 0.8969 -7.1407 24.9380 8.8020 -8.4776
# 5 -9.2221 -6.1451 -7.0126 8.8020 33.2968 4.9146
# 6 10.7676 12.3089 12.2339 -8.4776 4.9146 17.9329
#
#
#
# Elastic Compliance Matrix: (Units=1/GPa)
#
#
# Indices 1 2 3 4 5 6 
#
# 1 -0.017565 -0.011663 -0.006158 0.026304 -0.021324 0.041033
# 2 -0.011663 0.012679 -0.007610 0.005921 -0.005197 0.007716
# 3 -0.006158 -0.007610 0.010951 0.009561 -0.004390 0.007173
# 4 0.026304 0.005921 0.009561 0.025982 0.005841 -0.015699
# 5 -0.021324 -0.005197 -0.004390 0.005841 0.018168 0.017148
# 6 0.041033 0.007716 0.007173 -0.015699 0.017148 0.008816
#
#
# Mechanical properties :
#
#
# Convention : Reuss Voigt Hill
#
# Bulk Modulus (GPa) = -22.32242 16.04471 -3.13886
# Shear Modulus (GPa) = 52.65347 27.69638 40.17493
#
# Velocity S-wave (km/s) = 5.13209 3.72213 4.48289
# Velocity P-wave (km/s) = 4.89404 5.14764 5.02244
#
# Compressibility (1/GPa) = -0.04479801
#
# Stress axis : x y z
#
# Youngs Moduli (GPa) = -56.93037 78.87202 91.31295
#
# Poissons Ratio (x) = 0.91992 0.56229
# Poissons Ratio (y) = -0.66400 0.69491
# Poissons Ratio (z) = -0.35057 0.60023
#
# Static dielectric constant tensor:
#      x y z
#    x 3.787470 -0.054180 -0.222280 
#    y -0.054180 3.862170 0.211890 
#    z -0.222280 0.211890 3.539050 
# 
# 
# High freq. dielectric constant tensor:
#      x y z
#    x 1.784100 0.013530 -0.013560 
#    y 0.013530 1.782340 0.010520 
#    z -0.013560 0.010520 1.783450 
# 
# From -- ./inp_files/75595.got.cif
#   From: 2010.06.25/outbox.cif.g09.slc.cpg/sg2_38_cif.got.tgz:75595.got - 2010.06.27 13:26:56.
