data_PCOD8005976
_publ_section_title
;
Structure prediction by ZEFSAII (Michael W. Deem and Ramdas Pophale) SiO2 
 PCOD8005976
Probable space group: P -1
;
_chemical_formula_sum "Si O2"
_cell_formula_units_Z 16
_cell_length_a 20.066979
_cell_length_b 10.235569
_cell_length_c 16.480652
_cell_angle_alpha 148.952519
_cell_angle_beta 33.696469
_cell_angle_gamma 154.933580
_cell_volume 715.012040
_symmetry_space_group_name_H-M "P -1"
_symmetry_group_IT_number 2
_symmetry_cell_setting 'triclinic'
loop_
_space_group_symop_operation_xyz
x,y,z
-x,-y,-z
loop_
_atom_site_type_symbol
_atom_site_label
_atom_site_fract_x
_atom_site_fract_y
_atom_site_fract_z
Si Si1 0.612582 0.792635 0.299577
Si Si2 0.722486 0.837699 0.751458
Si Si3 0.178670 0.759122 0.278561
Si Si4 0.401847 0.018217 0.910680
Si Si5 0.877898 0.561442 0.402829
Si Si6 0.498807 0.616345 0.649452
Si Si7 0.742779 0.650537 0.953635
Si Si8 0.872855 0.317691 0.105210
O O1 0.431122 0.556052 0.323093
O O2 0.605934 0.706100 0.354856
O O3 0.704545 0.186791 0.400560
O O4 0.695064 0.683864 0.108029
O O5 0.871223 0.856765 0.586299
O O6 0.741885 0.121963 0.829333
O O7 0.711320 0.930931 0.902907
O O8 0.160254 0.466470 0.186650
O O9 0.999280 0.619423 0.378253
O O10 0.308398 0.113899 0.384034
O O11 0.585987 0.387049 0.913032
O O12 0.418461 0.781383 0.818115
O O13 0.307777 0.845229 0.828394
O O14 0.924714 0.562152 0.260957
O O15 0.500000 0.500000 0.500000
O O16 0.864900 0.014424 0.979440
O O17 0.000000 0.500000 0.000000
#
# Coordination Sequence:
#
# PCOD8005976 Si02
#       8
#     2   2   2   2   2   2   2   2
#     4   9  20  37  63  92 119 165 211 253 297 370
#     4  10  20  39  64  90 123 168 209 247 303 377
#     4  10  21  38  64  87 122 162 207 254 305 368
#     4  10  21  40  64  91 122 163 206 255 308 368
#     4  11  23  39  63  92 126 165 206 256 309 367
#     4  10  22  41  65  92 123 163 205 263 312 362
#     4   9  20  41  63  90 120 166 215 249 300 367
#     4  11  24  38  61  96 130 162 199 260 316 363
#
# _framework density 22.377247000000001
#
# number of rings (size 3 to 8) (size 9 to 14) (size 15 to 20)
#    0.000    2.000    0.000    2.625    3.500    6.000 
#    4.500    0.625    0.000    0.000    0.000    0.000 
#    0.000    0.000    0.000    0.000    0.000    0.000 
#
# Total GULP energy -198229.861036 kJ/mol
# GULP energy per Si atom -12389.366315 kJ/mol
# Density = 2.232632 g / cm^3
# Si number density = 22.377247 Si / 1000 Ang^3
#
#
#
# Elastic Constant Matrix: (Units=GPa)
#
#
# Indices 1 2 3 4 5 6 
#
# 1 117.2351 39.1824 46.8757 2.1595 6.4777 4.4481
# 2 39.1824 89.9109 41.7550 1.6480 6.0718 -17.2714
# 3 46.8757 41.7550 103.8333 -2.6636 0.3365 -2.7113
# 4 2.1595 1.6480 -2.6636 30.7879 0.8366 0.2139
# 5 6.4777 6.0718 0.3365 0.8366 26.0087 -2.0259
# 6 4.4481 -17.2714 -2.7113 0.2139 -2.0259 36.8554
#
#
#
# Elastic Compliance Matrix: (Units=1/GPa)
#
#
# Indices 1 2 3 4 5 6 
#
# 1 0.011601 -0.003808 -0.003814 -0.000855 -0.002202 -0.003581
# 2 -0.003808 0.016683 -0.004805 -0.001035 -0.002243 0.007807
# 3 -0.003814 -0.004805 0.013302 0.001632 0.001791 -0.000724
# 4 -0.000855 -0.001035 0.001632 0.032758 -0.000658 -0.000488
# 5 -0.002202 -0.002243 0.001791 -0.000658 0.039638 0.001529
# 6 -0.003581 0.007807 -0.000724 -0.000488 0.001529 0.031257
#
#
# Mechanical properties :
#
#
# Convention : Reuss Voigt Hill
#
# Bulk Modulus (GPa) = 59.76674 62.95618 61.36146
# Shear Modulus (GPa) = 28.46210 30.94146 29.70178
#
# Velocity S-wave (km/s) = 3.57027 3.72253 3.64719
# Velocity P-wave (km/s) = 6.61532 6.83165 6.72435
#
# Compressibility (1/GPa) = 0.01673172
#
# Stress axis : x y z
#
# Youngs Moduli (GPa) = 86.19969 59.94048 75.17453
#
# Poissons Ratio (x) = 0.22824 0.28674
# Poissons Ratio (y) = 0.32822 0.36124
# Poissons Ratio (z) = 0.32880 0.28803
#
# Static dielectric constant tensor:
#      x y z
#    x 4.476690 0.132250 -0.242630 
#    y 0.132250 4.297980 0.201130 
#    z -0.242630 0.201130 3.994660 
# 
# 
# High freq. dielectric constant tensor:
#      x y z
#    x 1.884660 0.008000 -0.001490 
#    y 0.008000 1.897160 0.013260 
#    z -0.001490 0.013260 1.859920 
# 
# From -- ./inp_files/189909.got.cif
#   From: 2010.06.25/outbox.cif.g09.slc.cpg/sg2_95_cif.got.tgz:189909.got - 2010.06.27 13:26:56.
