data_PCOD8005762
_publ_section_title
;
Structure prediction by ZEFSAII (Michael W. Deem and Ramdas Pophale) SiO2 
 PCOD8005762
Probable space group: P -1
;
_chemical_formula_sum "Si O2"
_cell_formula_units_Z 16
_cell_length_a 5.268392
_cell_length_b 14.926308
_cell_length_c 12.662141
_cell_angle_alpha 109.291527
_cell_angle_beta 122.508792
_cell_angle_gamma 101.444557
_cell_volume 698.562045
_symmetry_space_group_name_H-M "P -1"
_symmetry_group_IT_number 2
_symmetry_cell_setting 'triclinic'
loop_
_space_group_symop_operation_xyz
x,y,z
-x,-y,-z
loop_
_atom_site_type_symbol
_atom_site_label
_atom_site_fract_x
_atom_site_fract_y
_atom_site_fract_z
Si Si1 0.680251 0.903816 0.441535
Si Si2 0.291007 0.555521 0.428737
Si Si3 0.884971 0.026002 0.092500
Si Si4 0.714582 0.730191 0.743049
Si Si5 0.913679 0.073977 0.723414
Si Si6 0.345495 0.668024 0.275090
Si Si7 0.673359 0.695497 0.146923
Si Si8 0.703557 0.343252 0.173353
O O1 0.356317 0.884470 0.288428
O O2 0.661341 0.788649 0.411569
O O3 0.684485 0.955715 0.576487
O O4 0.000000 0.000000 0.500000
O O5 0.500000 0.500000 0.500000
O O6 0.388427 0.657861 0.566768
O O7 0.389050 0.593271 0.343755
O O8 0.891025 0.467165 0.306036
O O9 0.129760 0.150233 0.223190
O O10 0.895267 0.939616 0.140285
O O11 0.500000 0.000000 0.000000
O O12 0.000000 0.000000 0.000000
O O13 0.578974 0.727640 0.830718
O O14 0.011465 0.695287 0.795591
O O15 0.190119 0.174698 0.753604
O O16 0.407597 0.633033 0.158332
O O17 0.977583 0.663600 0.203819
O O18 0.480140 0.660138 0.978867
#
# Coordination Sequence:
#
# PCOD8005762 Si02
#       8
#     2   2   2   2   2   2   2   2
#     4  10  20  39  62  91 126 170 215 267 325 388
#     4  10  25  47  70  97 130 175 227 283 330 386
#     4  12  26  41  65 100 139 179 219 267 329 406
#     4  11  23  45  67  98 132 179 226 273 328 393
#     4  10  22  38  59  92 130 170 216 268 325 393
#     4  11  24  41  65  97 129 168 219 269 334 396
#     4  11  23  40  64  95 130 169 211 271 333 397
#     4  11  24  44  70  93 132 175 226 280 334 386
#
# _framework density 22.904194
#
# number of rings (size 3 to 8) (size 9 to 14) (size 15 to 20)
#    0.000    1.250    1.250    4.125    1.750    6.000 
#    4.500    0.000    0.000    0.000    0.000    0.000 
#    0.000    0.000    0.000    0.000    0.000    0.000 
#
# Total GULP energy -198255.757862 kJ/mol
# GULP energy per Si atom -12390.984866 kJ/mol
# Density = 2.285206 g / cm^3
# Si number density = 22.904194 Si / 1000 Ang^3
#
#
#
# Elastic Constant Matrix: (Units=GPa)
#
#
# Indices 1 2 3 4 5 6 
#
# 1 127.9905 32.5139 27.1974 -21.4413 -0.2153 15.1343
# 2 32.5139 121.7928 42.2314 -16.5473 7.3922 13.6668
# 3 27.1974 42.2314 106.5580 -14.3601 3.1779 -0.3557
# 4 -21.4413 -16.5473 -14.3601 53.1528 5.3045 -6.5302
# 5 -0.2153 7.3922 3.1779 5.3045 28.7783 -2.0363
# 6 15.1343 13.6668 -0.3557 -6.5302 -2.0363 28.7113
#
#
#
# Elastic Compliance Matrix: (Units=1/GPa)
#
#
# Indices 1 2 3 4 5 6 
#
# 1 0.009317 -0.001154 -0.001588 0.002520 -0.000194 -0.003823
# 2 -0.001154 0.010671 -0.003641 0.001633 -0.002957 -0.004355
# 3 -0.001588 -0.003641 0.011493 0.001754 -0.000451 0.003080
# 4 0.002520 0.001633 0.001754 0.021559 -0.004391 0.002508
# 5 -0.000194 -0.002957 -0.000451 -0.004391 0.036585 0.003100
# 6 -0.003823 -0.004355 0.003080 0.002508 0.003100 0.039746
#
#
# Mechanical properties :
#
#
# Convention : Reuss Voigt Hill
#
# Bulk Modulus (GPa) = 53.43072 62.24738 57.83905
# Shear Modulus (GPa) = 33.69816 39.08840 36.39328
#
# Velocity S-wave (km/s) = 3.83987 4.13559 3.99047
# Velocity P-wave (km/s) = 6.56034 7.07392 6.82197
#
# Compressibility (1/GPa) = 0.01871583
#
# Stress axis : x y z
#
# Youngs Moduli (GPa) = 107.32514 93.71037 87.00838
#
# Poissons Ratio (x) = 0.10810 0.13820
# Poissons Ratio (y) = 0.12381 0.31680
# Poissons Ratio (z) = 0.17047 0.34121
#
# Static dielectric constant tensor:
#      x y z
#    x 3.847080 0.156740 0.299760 
#    y 0.156740 4.420330 -0.071630 
#    z 0.299760 -0.071630 3.540530 
# 
# 
# High freq. dielectric constant tensor:
#      x y z
#    x 1.895500 0.007650 0.000100 
#    y 0.007650 1.917030 0.007000 
#    z 0.000100 0.007000 1.908490 
# 
# From -- ./inp_files/367804.got.cif
#   From: 2010.06.25/outbox.cif.g09.slc.cpg/sg2_184_cif.got.tgz:367804.got - 2010.06.27 13:26:56.
