data_PCOD8005557
_publ_section_title
;
Structure prediction by ZEFSAII (Michael W. Deem and Ramdas Pophale) SiO2 
 PCOD8005557
Probable space group: P -1
;
_chemical_formula_sum "Si O2"
_cell_formula_units_Z 14
_cell_length_a 12.353292
_cell_length_b 16.738969
_cell_length_c 11.890727
_cell_angle_alpha 30.834044
_cell_angle_beta 137.355494
_cell_angle_gamma 118.167815
_cell_volume 758.294166
_symmetry_space_group_name_H-M "P -1"
_symmetry_group_IT_number 2
_symmetry_cell_setting 'triclinic'
loop_
_space_group_symop_operation_xyz
x,y,z
-x,-y,-z
loop_
_atom_site_type_symbol
_atom_site_label
_atom_site_fract_x
_atom_site_fract_y
_atom_site_fract_z
Si Si1 0.197748 0.674037 0.818863
Si Si2 0.741619 0.030529 0.836644
Si Si3 0.461224 0.581551 0.748361
Si Si4 0.863622 0.375485 0.696011
Si Si5 0.154367 0.321970 0.556008
Si Si6 0.293523 0.551419 0.284052
Si Si7 0.896270 0.978916 0.784834
O O1 0.025698 0.664082 0.651360
O O2 0.196866 0.858351 0.568339
O O3 0.373922 0.516733 0.090799
O O4 0.194581 0.659254 0.968206
O O5 0.575020 0.216343 0.516399
O O6 0.753842 0.004288 0.743193
O O7 0.924951 0.024666 0.025598
O O8 0.715648 0.874378 0.064117
O O9 0.284642 0.573474 0.576749
O O10 0.500000 0.500000 0.000000
O O11 0.901432 0.542444 0.544374
O O12 0.790907 0.330373 0.811764
O O13 0.049787 0.206116 0.011713
O O14 0.264828 0.376000 0.484200
O O15 0.500000 0.500000 0.500000
#
# Coordination Sequence:
#
# PCOD8005557 Si02
#       7
#     2   2   2   2   2   2   2
#     4  11  19  36  62  83 114 143 194 229 274 327
#     4   9  18  35  55  81 119 142 188 223 283 330
#     4  11  20  36  59  86 110 155 185 223 280 345
#     4   9  21  37  57  83 111 149 188 221 292 322
#     4   9  21  37  57  85 111 148 185 241 270 328
#     4  10  20  39  60  79 114 151 186 231 280 336
#     4   9  18  33  57  84 108 153 180 229 274 340
#
# _framework density 18.462491
#
# number of rings (size 3 to 8) (size 9 to 14) (size 15 to 20)
#    0.857    1.429    2.857    0.429    2.000    1.143 
#    0.000    4.286    0.000    0.000    0.000    0.000 
#    0.000    0.000    0.000    0.000    0.000    0.000 
#
# Total GULP energy -173521.558101 kJ/mol
# GULP energy per Si atom -12394.397007 kJ/mol
# Density = 1.842047 g / cm^3
# Si number density = 18.462491 Si / 1000 Ang^3
#
#
#
# Elastic Constant Matrix: (Units=GPa)
#
#
# Indices 1 2 3 4 5 6 
#
# 1 39.7041 6.4741 35.2328 7.8807 -10.3993 -8.2797
# 2 6.4741 78.5782 49.5010 1.9631 -6.5365 -10.9178
# 3 35.2328 49.5010 137.0427 -12.8178 -16.9164 -7.5871
# 4 7.8807 1.9631 -12.8178 26.2416 -7.5756 -1.4831
# 5 -10.3993 -6.5365 -16.9164 -7.5756 37.2040 0.9006
# 6 -8.2797 -10.9178 -7.5871 -1.4831 0.9006 33.8167
#
#
#
# Elastic Compliance Matrix: (Units=1/GPa)
#
#
# Indices 1 2 3 4 5 6 
#
# 1 0.043860 0.007909 -0.015204 -0.019977 0.002452 0.008940
# 2 0.007909 0.018933 -0.009399 -0.008224 -0.000547 0.005594
# 3 -0.015204 -0.009399 0.016369 0.014430 0.004542 -0.002573
# 4 -0.019977 -0.008224 0.014430 0.054745 0.010733 -0.002194
# 5 0.002452 -0.000547 0.004542 0.010733 0.031693 0.001070
# 6 0.008940 0.005594 -0.002573 -0.002194 0.001070 0.032864
#
#
# Mechanical properties :
#
#
# Convention : Reuss Voigt Hill
#
# Bulk Modulus (GPa) = 21.84643 48.63785 35.24214
# Shear Modulus (GPa) = 20.23399 30.39361 25.31380
#
# Velocity S-wave (km/s) = 3.31411 4.06178 3.70684
# Velocity P-wave (km/s) = 5.14810 6.95692 6.11971
#
# Compressibility (1/GPa) = 0.04577408
#
# Stress axis : x y z
#
# Youngs Moduli (GPa) = 22.79995 52.81834 61.09189
#
# Poissons Ratio (x) = -0.41775 0.92883
# Poissons Ratio (y) = -0.18033 0.57421
# Poissons Ratio (z) = 0.34665 0.49645
#
# Static dielectric constant tensor:
#      x y z
#    x 3.328220 -0.207560 -0.168420 
#    y -0.207560 3.361050 -0.097450 
#    z -0.168420 -0.097450 3.585870 
# 
# 
# High freq. dielectric constant tensor:
#      x y z
#    x 1.703200 -0.012630 -0.009240 
#    y -0.012630 1.706340 -0.002610 
#    z -0.009240 -0.002610 1.719540 
# 
# From -- ./inp_files/197844.got.cif
#   From: 2010.06.25/outbox.cif.g09.slc.cpg/sg2_99_cif.got.tgz:197844.got - 2010.06.27 13:26:56.
