data_PCOD8005470
_publ_section_title
;
Structure prediction by ZEFSAII (Michael W. Deem and Ramdas Pophale) SiO2 
 PCOD8005470
Probable space group: P -1
;
_chemical_formula_sum "Si O2"
_cell_formula_units_Z 16
_cell_length_a 12.208564
_cell_length_b 13.347613
_cell_length_c 8.933576
_cell_angle_alpha 41.954735
_cell_angle_beta 84.948770
_cell_angle_gamma 64.835659
_cell_volume 815.848060
_symmetry_space_group_name_H-M "P -1"
_symmetry_group_IT_number 2
_symmetry_cell_setting 'triclinic'
loop_
_space_group_symop_operation_xyz
x,y,z
-x,-y,-z
loop_
_atom_site_type_symbol
_atom_site_label
_atom_site_fract_x
_atom_site_fract_y
_atom_site_fract_z
Si Si1 0.090954 0.810771 0.623928
Si Si2 0.968604 0.650779 0.983830
Si Si3 0.973082 0.167154 0.721086
Si Si4 0.844175 0.723008 0.527528
Si Si5 0.663859 0.398048 0.968319
Si Si6 0.687246 0.853129 0.690899
Si Si7 0.849296 0.422279 0.709041
Si Si8 0.505443 0.248889 0.234427
O O1 0.101005 0.829153 0.424275
O O2 0.236033 0.703874 0.793495
O O3 0.000000 0.000000 0.500000
O O4 0.017949 0.707129 0.771815
O O5 0.039641 0.436263 0.207403
O O6 0.018573 0.701440 0.071003
O O7 0.812653 0.751598 0.895552
O O8 0.880463 0.354933 0.610080
O O9 0.109451 0.152714 0.684479
O O10 0.000000 0.000000 0.000000
O O11 0.722605 0.836540 0.527591
O O12 0.807385 0.629044 0.504563
O O13 0.737807 0.391739 0.815962
O O14 0.564664 0.603941 0.792093
O O15 0.583725 0.303840 0.053388
O O16 0.601142 0.768139 0.827005
O O17 0.605821 0.061022 0.511539
#
# Coordination Sequence:
#
# PCOD8005470 Si02
#       8
#     2   2   2   2   2   2   2   2
#     4  11  21  36  62  91 120 146 189 252 298 344
#     4   9  19  34  61  86 118 145 187 246 301 337
#     4  12  24  35  55  96 121 157 182 228 321 363
#     4  10  21  36  59  87 124 150 186 245 299 356
#     4  10  20  39  56  86 119 151 196 247 286 336
#     4  11  18  34  56  93 112 147 201 248 284 336
#     4   9  21  37  59  86 122 151 185 234 307 359
#     4  10  22  31  56  87 116 154 198 247 283 326
#
# _framework density 19.611495000000001
#
# number of rings (size 3 to 8) (size 9 to 14) (size 15 to 20)
#    0.750    1.000    2.500    3.000    3.500    0.000 
#    0.000    0.000    0.000    3.000    6.500    4.375 
#    0.000    0.000    0.000    0.000    0.000    0.000 
#
# Total GULP energy -198305.738023 kJ/mol
# GULP energy per Si atom -12394.108626 kJ/mol
# Density = 1.956686 g / cm^3
# Si number density = 19.611495 Si / 1000 Ang^3
#
#
#
# Elastic Constant Matrix: (Units=GPa)
#
#
# Indices 1 2 3 4 5 6 
#
# 1 135.1475 34.2392 36.9534 -8.3541 -20.8200 -14.2094
# 2 34.2392 109.4446 30.9888 -1.1365 3.5612 6.2153
# 3 36.9534 30.9888 73.4842 -4.5920 -12.6662 -0.8061
# 4 -8.3541 -1.1365 -4.5920 31.8676 -2.8210 -0.2764
# 5 -20.8200 3.5612 -12.6662 -2.8210 32.5668 -8.6852
# 6 -14.2094 6.2153 -0.8061 -0.2764 -8.6852 22.3482
#
#
#
# Elastic Compliance Matrix: (Units=1/GPa)
#
#
# Indices 1 2 3 4 5 6 
#
# 1 0.012614 -0.004509 -0.002001 0.004024 0.011820 0.013845
# 2 -0.004509 0.012804 -0.004964 -0.002337 -0.009132 -0.010185
# 3 -0.002001 -0.004964 0.018219 0.002627 0.007575 0.003741
# 4 0.004024 -0.002337 0.002627 0.033556 0.008644 0.007078
# 5 0.011820 -0.009132 0.007575 0.008644 0.051027 0.030266
# 6 0.013845 -0.010185 0.003741 0.007078 0.030266 0.068367
#
#
# Mechanical properties :
#
#
# Convention : Reuss Voigt Hill
#
# Bulk Modulus (GPa) = 48.33455 58.04880 53.19168
# Shear Modulus (GPa) = 22.08161 31.74951 26.91556
#
# Velocity S-wave (km/s) = 3.35916 4.02795 3.70866
# Velocity P-wave (km/s) = 6.30435 7.16213 6.74689
#
# Compressibility (1/GPa) = 0.02068913
#
# Stress axis : x y z
#
# Youngs Moduli (GPa) = 79.27615 78.09808 54.88772
#
# Poissons Ratio (x) = 0.35212 0.10985
# Poissons Ratio (y) = 0.35743 0.27247
# Poissons Ratio (z) = 0.15866 0.38770
#
# Static dielectric constant tensor:
#      x y z
#    x 3.731780 0.014010 -0.211910 
#    y 0.014010 3.461600 -0.215880 
#    z -0.211910 -0.215880 3.271970 
# 
# 
# High freq. dielectric constant tensor:
#      x y z
#    x 1.771570 0.005620 -0.026750 
#    y 0.005620 1.758330 -0.021880 
#    z -0.026750 -0.021880 1.731350 
# 
# From -- ./inp_files/269459.got.cif
#   From: 2010.06.25/outbox.cif.g09.slc.cpg/sg2_135_cif.got.tgz:269459.got - 2010.06.27 13:26:56.
