data_PCOD8005514
_publ_section_title
;
Structure prediction by ZEFSAII (Michael W. Deem and Ramdas Pophale) SiO2 
 PCOD8005514
Probable space group: P -1
;
_chemical_formula_sum "Si O2"
_cell_formula_units_Z 16
_cell_length_a 9.187236
_cell_length_b 16.042952
_cell_length_c 11.317973
_cell_angle_alpha 76.189329
_cell_angle_beta 111.815087
_cell_angle_gamma 151.003117
_cell_volume 736.813956
_symmetry_space_group_name_H-M "P -1"
_symmetry_group_IT_number 2
_symmetry_cell_setting 'triclinic'
loop_
_space_group_symop_operation_xyz
x,y,z
-x,-y,-z
loop_
_atom_site_type_symbol
_atom_site_label
_atom_site_fract_x
_atom_site_fract_y
_atom_site_fract_z
Si Si1 0.323933 0.166525 0.689751
Si Si2 0.283179 0.779206 0.081460
Si Si3 0.743170 0.138031 0.188719
Si Si4 0.516700 0.934092 0.624323
Si Si5 0.432273 0.567243 0.957509
Si Si6 0.418975 0.204057 0.443559
Si Si7 0.753960 0.711204 0.238481
Si Si8 0.588899 0.631403 0.731666
O O1 0.484737 0.190158 0.836477
O O2 0.490604 0.222124 0.597113
O O3 0.358417 0.284626 0.685769
O O4 0.954572 0.965958 0.639729
O O5 0.944476 0.594206 0.099355
O O6 0.425334 0.931393 0.136134
O O7 0.238156 0.774773 0.929005
O O8 0.729269 0.167714 0.307741
O O9 0.053880 0.226336 0.242628
O O10 0.426032 0.799769 0.582425
O O11 0.500000 0.000000 0.500000
O O12 0.868631 0.102613 0.728246
O O13 0.587208 0.675552 0.846198
O O14 0.500000 0.500000 0.000000
O O15 0.603361 0.684938 0.086004
O O16 0.555643 0.363498 0.398012
O O17 0.646173 0.562411 0.279719
#
# Coordination Sequence:
#
# PCOD8005514 Si02
#       8
#     2   2   2   2   2   2   2   2
#     4  10  22  41  65  90 127 172 215 256 317 374
#     4  11  21  38  66  95 127 170 210 261 310 386
#     4  11  22  37  69  98 123 166 221 256 307 379
#     4  11  25  44  66  93 128 170 214 258 313 381
#     4  10  20  39  58  93 133 164 200 259 334 362
#     4  10  23  43  64  92 126 170 214 262 313 373
#     4  10  23  41  64  94 129 169 201 266 327 370
#     4  11  22  42  66  96 130 164 211 262 316 380
#
# _framework density 21.715115000000001
#
# number of rings (size 3 to 8) (size 9 to 14) (size 15 to 20)
#    0.000    1.500    3.750    2.250    5.250    2.000 
#    2.250    3.750    0.000    0.000    0.000    0.000 
#    0.000    0.000    0.000    0.000    0.000    0.000 
#
# Total GULP energy -198375.323198 kJ/mol
# GULP energy per Si atom -12398.457700 kJ/mol
# Density = 2.166569 g / cm^3
# Si number density = 21.715115 Si / 1000 Ang^3
#
#
#
# Elastic Constant Matrix: (Units=GPa)
#
#
# Indices 1 2 3 4 5 6 
#
# 1 112.3024 44.7024 55.3301 -19.3539 -18.2810 -0.7392
# 2 44.7024 55.0542 23.6974 -7.3235 -11.0740 -1.3878
# 3 55.3301 23.6974 83.7311 -23.0961 -9.2031 1.5891
# 4 -19.3539 -7.3235 -23.0961 37.1847 1.0962 3.3119
# 5 -18.2810 -11.0740 -9.2031 1.0962 43.7482 -7.3711
# 6 -0.7392 -1.3878 1.5891 3.3119 -7.3711 39.9271
#
#
#
# Elastic Compliance Matrix: (Units=1/GPa)
#
#
# Indices 1 2 3 4 5 6 
#
# 1 0.017695 -0.009996 -0.007923 0.002160 0.003264 0.000719
# 2 -0.009996 0.027210 -0.001005 -0.000670 0.002746 0.001363
# 3 -0.007923 -0.001005 0.019734 0.008076 0.000111 -0.001616
# 4 0.002160 -0.000670 0.008076 0.033121 0.001123 -0.002845
# 5 0.003264 0.002746 0.000111 0.001123 0.025722 0.004807
# 6 0.000719 0.001363 -0.001616 -0.002845 0.004807 0.026294
#
#
# Mechanical properties :
#
#
# Convention : Reuss Voigt Hill
#
# Bulk Modulus (GPa) = 37.32463 55.39417 46.35940
# Shear Modulus (GPa) = 25.43818 32.66253 29.05036
#
# Velocity S-wave (km/s) = 3.42636 3.88253 3.66155
# Velocity P-wave (km/s) = 5.73401 6.75748 6.26668
#
# Compressibility (1/GPa) = 0.02679196
#
# Stress axis : x y z
#
# Youngs Moduli (GPa) = 56.51175 36.75114 50.67469
#
# Poissons Ratio (x) = 0.36735 0.40152
# Poissons Ratio (y) = 0.56487 0.05091
# Poissons Ratio (z) = 0.44777 0.03692
#
# Static dielectric constant tensor:
#      x y z
#    x 3.803240 -0.117800 -0.229720 
#    y -0.117800 3.571770 -0.016870 
#    z -0.229720 -0.016870 4.546390 
# 
# 
# High freq. dielectric constant tensor:
#      x y z
#    x 1.853040 0.003940 -0.001860 
#    y 0.003940 1.833750 -0.003010 
#    z -0.001860 -0.003010 1.859170 
# 
# From -- ./inp_files/208236.got.cif
#   From: 2010.06.25/outbox.cif.g09.slc.cpg/sg2_105_cif.got.tgz:208236.got - 2010.06.27 13:26:56.
