data_PCOD8005185
_publ_section_title
;
Structure prediction by ZEFSAII (Michael W. Deem and Ramdas Pophale) SiO2 
 PCOD8005185
Probable space group: P -1
;
_chemical_formula_sum "Si O2"
_cell_formula_units_Z 14
_cell_length_a 9.891982
_cell_length_b 9.821658
_cell_length_c 9.265249
_cell_angle_alpha 81.414786
_cell_angle_beta 91.871546
_cell_angle_gamma 54.511987
_cell_volume 716.736669
_symmetry_space_group_name_H-M "P -1"
_symmetry_group_IT_number 2
_symmetry_cell_setting 'triclinic'
loop_
_space_group_symop_operation_xyz
x,y,z
-x,-y,-z
loop_
_atom_site_type_symbol
_atom_site_label
_atom_site_fract_x
_atom_site_fract_y
_atom_site_fract_z
Si Si1 0.726726 0.904426 0.098748
Si Si2 0.529131 0.157023 0.824276
Si Si3 0.182357 0.985821 0.661787
Si Si4 0.455695 0.172386 0.401346
Si Si5 0.056084 0.769406 0.629303
Si Si6 0.606393 0.555369 0.422098
Si Si7 0.796143 0.807349 0.806858
O O1 0.629767 0.850047 0.200515
O O2 0.854724 0.908172 0.207658
O O3 0.819241 0.772583 0.987206
O O4 0.592805 0.099675 0.001117
O O5 0.480087 0.342174 0.748248
O O6 0.681397 0.014822 0.747030
O O7 0.091417 0.116677 0.507402
O O8 0.381211 0.859849 0.662089
O O9 0.113616 0.873397 0.694454
O O10 0.384549 0.316626 0.497694
O O11 0.307729 0.252836 0.263172
O O12 0.500000 0.000000 0.500000
O O13 0.207530 0.607397 0.576751
O O14 0.979262 0.715349 0.757072
O O15 0.500000 0.500000 0.500000
#
# Coordination Sequence:
#
# PCOD8005185 Si02
#       7
#     2   2   2   2   2   2   2
#     4   9  18  39  71  86 114 166 220 245 291 383
#     4   9  18  38  66  87 115 160 215 244 295 374
#     4  11  20  39  63  89 124 169 203 248 313 373
#     4  12  18  38  67  85 115 168 210 244 301 369
#     4  11  25  35  57  97 132 153 206 261 309 362
#     4  12  24  39  60  95 133 160 199 266 316 358
#     4  10  20  38  65  92 111 162 217 250 292 368
#
# _framework density 19.532976000000001
#
# number of rings (size 3 to 8) (size 9 to 14) (size 15 to 20)
#    0.857    0.571    5.714    0.000    2.000    1.143 
#    0.000    1.429    3.143    0.000    0.000    0.000 
#    0.000    0.000    0.000    0.000    0.000    0.000 
#
# Total GULP energy -173490.314906 kJ/mol
# GULP energy per Si atom -12392.165350 kJ/mol
# Density = 1.948852 g / cm^3
# Si number density = 19.532976 Si / 1000 Ang^3
#
#
#
# Elastic Constant Matrix: (Units=GPa)
#
#
# Indices 1 2 3 4 5 6 
#
# 1 117.8601 34.5257 56.9100 10.5265 -4.1393 -8.6192
# 2 34.5257 64.4606 21.4037 14.7460 -11.7016 0.2602
# 3 56.9100 21.4037 94.3612 17.0659 1.9920 9.6163
# 4 10.5265 14.7460 17.0659 31.4991 7.0136 -9.2243
# 5 -4.1393 -11.7016 1.9920 7.0136 35.8339 10.9291
# 6 -8.6192 0.2602 9.6163 -9.2243 10.9291 29.4191
#
#
#
# Elastic Compliance Matrix: (Units=1/GPa)
#
#
# Indices 1 2 3 4 5 6 
#
# 1 0.016158 -0.008589 -0.010907 0.010087 -0.006569 0.013978
# 2 -0.008589 0.026407 0.004202 -0.020283 0.016426 -0.016585
# 3 -0.010907 0.004202 0.020941 -0.016734 0.007779 -0.018214
# 4 0.010087 -0.020283 -0.016734 0.065223 -0.029497 0.040013
# 5 -0.006569 0.016426 0.007779 -0.029497 0.047457 -0.031491
# 6 0.013978 -0.016585 -0.018214 0.040013 -0.031491 0.068432
#
#
# Mechanical properties :
#
#
# Convention : Reuss Voigt Hill
#
# Bulk Modulus (GPa) = 30.37846 55.81786 43.09816
# Shear Modulus (GPa) = 17.47168 30.27326 23.87247
#
# Velocity S-wave (km/s) = 2.99401 3.94109 3.49974
# Velocity P-wave (km/s) = 5.24770 7.02480 6.20025
#
# Compressibility (1/GPa) = 0.03291806
#
# Stress axis : x y z
#
# Youngs Moduli (GPa) = 61.88979 37.86859 47.75396
#
# Poissons Ratio (x) = 0.32526 0.52084
# Poissons Ratio (y) = 0.53158 -0.20066
# Poissons Ratio (z) = 0.67501 -0.15913
#
# Static dielectric constant tensor:
#      x y z
#    x 3.519280 0.018840 0.072950 
#    y 0.018840 3.352910 0.102490 
#    z 0.072950 0.102490 3.580630 
# 
# 
# High freq. dielectric constant tensor:
#      x y z
#    x 1.758410 -0.003280 -0.002640 
#    y -0.003280 1.724040 0.013750 
#    z -0.002640 0.013750 1.763640 
# 
# From -- ./inp_files/382301.got.cif
#   From: 2010.06.25/outbox.cif.g09.slc.cpg/sg2_192_cif.got.tgz:382301.got - 2010.06.27 13:26:56.
