data_PCOD8005972
_publ_section_title
;
Structure prediction by ZEFSAII (Michael W. Deem and Ramdas Pophale) SiO2 
 PCOD8005972
Probable space group: P -1
;
_chemical_formula_sum "Si O2"
_cell_formula_units_Z 16
_cell_length_a 12.059854
_cell_length_b 11.359074
_cell_length_c 6.644463
_cell_angle_alpha 76.140431
_cell_angle_beta 123.127551
_cell_angle_gamma 91.819464
_cell_volume 734.549285
_symmetry_space_group_name_H-M "P -1"
_symmetry_group_IT_number 2
_symmetry_cell_setting 'triclinic'
loop_
_space_group_symop_operation_xyz
x,y,z
-x,-y,-z
loop_
_atom_site_type_symbol
_atom_site_label
_atom_site_fract_x
_atom_site_fract_y
_atom_site_fract_z
Si Si1 0.595144 0.466268 0.793663
Si Si2 0.910057 0.095610 0.237144
Si Si3 0.620185 0.611203 0.146647
Si Si4 0.188928 0.057626 0.139672
Si Si5 0.606807 0.873565 0.984556
Si Si6 0.684235 0.055907 0.298523
Si Si7 0.812082 0.489388 0.704662
Si Si8 0.044480 0.294267 0.083550
O O1 0.500000 0.500000 0.500000
O O2 0.526009 0.366394 0.895805
O O3 0.739906 0.432114 0.848846
O O4 0.603588 0.576637 0.912327
O O5 0.766632 0.129018 0.191153
O O6 0.975535 0.219850 0.219203
O O7 0.000000 0.000000 0.500000
O O8 0.898164 0.028183 0.038854
O O9 0.718533 0.508807 0.406561
O O10 0.680795 0.738075 0.149349
O O11 0.329533 0.064183 0.166124
O O12 0.116262 0.195704 0.038628
O O13 0.215866 0.991289 0.405551
O O14 0.450040 0.864512 0.787507
O O15 0.631855 0.939811 0.189593
O O16 0.853692 0.622310 0.748064
O O17 0.935640 0.387709 0.816688
#
# Coordination Sequence:
#
# PCOD8005972 Si02
#       8
#     2   2   2   2   2   2   2   2
#     4   9  20  41  59  86 123 155 207 255 299 362
#     4  11  24  42  63  92 127 166 208 256 310 367
#     4  10  20  39  64  90 122 164 204 251 311 365
#     4  11  22  42  64  90 127 163 206 257 313 367
#     4  10  22  38  66  94 121 159 203 260 307 368
#     4  10  22  41  61  95 125 156 207 253 316 366
#     4  10  23  42  61  92 126 164 210 251 308 365
#     4  11  23  42  64  91 128 167 206 257 303 373
#
# _framework density 21.782063000000001
#
# number of rings (size 3 to 8) (size 9 to 14) (size 15 to 20)
#    0.000    1.750    1.250    2.250    3.500    1.000 
#    9.000    1.875    0.000    0.000    0.000    0.000 
#    0.000    0.000    0.000    0.000    0.000    0.000 
#
# Total GULP energy -198288.930409 kJ/mol
# GULP energy per Si atom -12393.058151 kJ/mol
# Density = 2.173249 g / cm^3
# Si number density = 21.782063 Si / 1000 Ang^3
#
#
#
# Elastic Constant Matrix: (Units=GPa)
#
#
# Indices 1 2 3 4 5 6 
#
# 1 89.6730 10.6316 35.1048 7.9625 -1.6977 -3.3582
# 2 10.6316 53.4311 35.3513 -0.0752 -1.0882 5.8180
# 3 35.1048 35.3513 113.1127 11.3274 -5.3691 -4.2433
# 4 7.9625 -0.0752 11.3274 25.7376 -0.3611 -0.5925
# 5 -1.6977 -1.0882 -5.3691 -0.3611 29.7274 2.7423
# 6 -3.3582 5.8180 -4.2433 -0.5925 2.7423 32.2276
#
#
#
# Elastic Compliance Matrix: (Units=1/GPa)
#
#
# Indices 1 2 3 4 5 6 
#
# 1 0.012848 -0.000242 -0.003646 -0.002352 -0.000042 0.000863
# 2 -0.000242 0.024837 -0.008262 0.003656 -0.000043 -0.005526
# 3 -0.003646 -0.008262 0.013190 -0.004619 0.001573 0.002630
# 4 -0.002352 0.003656 -0.004619 0.041604 -0.000262 -0.000726
# 5 -0.000042 -0.000043 0.001573 -0.000262 0.034165 -0.002702
# 6 0.000863 -0.005526 0.002630 -0.000726 -0.002702 0.032680
#
#
# Mechanical properties :
#
#
# Convention : Reuss Voigt Hill
#
# Bulk Modulus (GPa) = 37.63137 46.48800 42.05969
# Shear Modulus (GPa) = 25.97632 29.21378 27.59505
#
# Velocity S-wave (km/s) = 3.45709 3.66619 3.56317
# Velocity P-wave (km/s) = 5.76620 6.26977 6.02325
#
# Compressibility (1/GPa) = 0.02657358
#
# Stress axis : x y z
#
# Youngs Moduli (GPa) = 77.83357 40.26325 75.81310
#
# Poissons Ratio (x) = 0.00976 0.27639
# Poissons Ratio (y) = 0.01887 0.62640
# Poissons Ratio (z) = 0.28376 0.33267
#
# Static dielectric constant tensor:
#      x y z
#    x 4.578760 0.154150 0.033570 
#    y 0.154150 3.734020 0.099470 
#    z 0.033570 0.099470 3.783160 
# 
# 
# High freq. dielectric constant tensor:
#      x y z
#    x 1.877980 0.012630 0.000930 
#    y 0.012630 1.838770 0.006630 
#    z 0.000930 0.006630 1.847450 
# 
# From -- ./inp_files/70133.got.cif
#   From: 2010.06.25/outbox.cif.g09.slc.cpg/sg2_36_cif.got.tgz:70133.got - 2010.06.27 13:26:56.
