data_PCOD8005636
_publ_section_title
;
Structure prediction by ZEFSAII (Michael W. Deem and Ramdas Pophale) SiO2 
 PCOD8005636
Probable space group: P -1
;
_chemical_formula_sum "Si O2"
_cell_formula_units_Z 16
_cell_length_a 11.581868
_cell_length_b 18.078046
_cell_length_c 8.022900
_cell_angle_alpha 52.067025
_cell_angle_beta 62.383826
_cell_angle_gamma 35.694808
_cell_volume 770.718299
_symmetry_space_group_name_H-M "P -1"
_symmetry_group_IT_number 2
_symmetry_cell_setting 'triclinic'
loop_
_space_group_symop_operation_xyz
x,y,z
-x,-y,-z
loop_
_atom_site_type_symbol
_atom_site_label
_atom_site_fract_x
_atom_site_fract_y
_atom_site_fract_z
Si Si1 0.036671 0.520200 0.268313
Si Si2 0.726448 0.548364 0.359569
Si Si3 0.547268 0.672595 0.662006
Si Si4 0.696550 0.203803 0.789656
Si Si5 0.036200 0.730219 0.952735
Si Si6 0.825443 0.030414 0.647730
Si Si7 0.320564 0.676032 0.067534
Si Si8 0.700000 0.398270 0.358402
O O1 0.275239 0.384448 0.258088
O O2 0.000000 0.500000 0.500000
O O3 0.906300 0.523053 0.234080
O O4 0.947072 0.674783 0.112203
O O5 0.665187 0.567746 0.568173
O O6 0.537545 0.692553 0.186911
O O7 0.788312 0.414728 0.424727
O O8 0.383939 0.838043 0.488180
O O9 0.435765 0.648635 0.863525
O O10 0.809345 0.058603 0.819495
O O11 0.769992 0.186541 0.953635
O O12 0.734390 0.271039 0.547016
O O13 0.198057 0.629821 0.841603
O O14 0.143022 0.706070 0.085037
O O15 0.870045 0.896026 0.781268
O O16 0.000000 0.000000 0.500000
O O17 0.463182 0.546271 0.286583
#
# Coordination Sequence:
#
# PCOD8005636 Si02
#       8
#     2   2   2   2   2   2   2   2
#     4  10  23  38  62  89 113 158 204 245 286 346
#     4   9  20  38  57  87 120 152 194 245 294 344
#     4  10  20  39  61  85 120 154 198 243 294 348
#     4  10  22  36  59  91 124 153 188 253 302 346
#     4  12  23  36  61  92 118 157 197 239 300 359
#     4  11  21  40  59  88 125 157 190 241 306 355
#     4  11  21  33  61  90 121 147 200 249 299 343
#     4  11  21  34  61  93 121 146 193 260 303 338
#
# _framework density 20.759855000000002
#
# number of rings (size 3 to 8) (size 9 to 14) (size 15 to 20)
#    0.000    1.500    3.750    2.625    8.750    1.000 
#    0.000    5.625    0.000    0.750    0.000    0.000 
#    0.000    0.000    0.000    0.000    0.000    0.000 
#
# Total GULP energy -198270.743818 kJ/mol
# GULP energy per Si atom -12391.921489 kJ/mol
# Density = 2.071260 g / cm^3
# Si number density = 20.759855 Si / 1000 Ang^3
#
#
#
# Elastic Constant Matrix: (Units=GPa)
#
#
# Indices 1 2 3 4 5 6 
#
# 1 125.7201 29.8861 25.4529 -7.9667 -7.9066 -0.4541
# 2 29.8861 78.1393 13.9476 -12.1031 -2.5780 6.7150
# 3 25.4529 13.9476 67.7673 -17.0621 -11.1995 0.5067
# 4 -7.9667 -12.1031 -17.0621 37.4179 7.0137 6.1038
# 5 -7.9066 -2.5780 -11.1995 7.0137 29.6770 1.6795
# 6 -0.4541 6.7150 0.5067 6.1038 1.6795 24.2502
#
#
#
# Elastic Compliance Matrix: (Units=1/GPa)
#
#
# Indices 1 2 3 4 5 6 
#
# 1 0.009335 -0.003253 -0.002840 -0.000798 0.001251 0.001249
# 2 -0.003253 0.015399 -0.000769 0.004964 -0.000681 -0.005511
# 3 -0.002840 -0.000769 0.018557 0.007123 0.004629 -0.002341
# 4 -0.000798 0.004964 0.007123 0.033850 -0.004542 -0.009744
# 5 0.001251 -0.000681 0.004629 -0.004542 0.036864 -0.001295
# 6 0.001249 -0.005511 -0.002341 -0.009744 -0.001295 0.045378
#
#
# Mechanical properties :
#
#
# Convention : Reuss Voigt Hill
#
# Bulk Modulus (GPa) = 33.82145 45.57777 39.69961
# Shear Modulus (GPa) = 27.32794 31.75835 29.54315
#
# Velocity S-wave (km/s) = 3.63214 3.91550 3.77648
# Velocity P-wave (km/s) = 5.82383 6.51491 6.17904
#
# Compressibility (1/GPa) = 0.02956704
#
# Stress axis : x y z
#
# Youngs Moduli (GPa) = 107.12215 64.93810 53.88736
#
# Poissons Ratio (x) = 0.21125 0.15305
# Poissons Ratio (y) = 0.34849 0.04143
# Poissons Ratio (z) = 0.30425 0.04993
#
# Static dielectric constant tensor:
#      x y z
#    x 4.797170 -0.154510 -0.082350 
#    y -0.154510 3.806010 0.119460 
#    z -0.082350 0.119460 3.650090 
# 
# 
# High freq. dielectric constant tensor:
#      x y z
#    x 1.806120 0.009380 0.008300 
#    y 0.009380 1.797770 0.010980 
#    z 0.008300 0.010980 1.801260 
# 
# From -- ./inp_files/277433.got.cif
#   From: 2010.06.25/outbox.cif.g09.slc.cpg/sg2_139_cif.got.tgz:277433.got - 2010.06.27 13:26:56.
