data_PCOD8005317
_publ_section_title
;
Structure prediction by ZEFSAII (Michael W. Deem and Ramdas Pophale) SiO2 
 PCOD8005317
Probable space group: P -1
;
_chemical_formula_sum "Si O2"
_cell_formula_units_Z 16
_cell_length_a 16.548272
_cell_length_b 8.962127
_cell_length_c 11.116249
_cell_angle_alpha 72.922002
_cell_angle_beta 108.211315
_cell_angle_gamma 45.424187
_cell_volume 727.373742
_symmetry_space_group_name_H-M "P -1"
_symmetry_group_IT_number 2
_symmetry_cell_setting 'triclinic'
loop_
_space_group_symop_operation_xyz
x,y,z
-x,-y,-z
loop_
_atom_site_type_symbol
_atom_site_label
_atom_site_fract_x
_atom_site_fract_y
_atom_site_fract_z
Si Si1 0.268773 0.381524 0.329582
Si Si2 0.051102 0.448993 0.170674
Si Si3 0.455799 0.287543 0.280561
Si Si4 0.393932 0.691139 0.527682
Si Si5 0.189592 0.635220 0.702475
Si Si6 0.621756 0.631097 0.375392
Si Si7 0.725712 0.816605 0.042781
Si Si8 0.487731 0.334108 0.019793
O O1 0.088581 0.572658 0.187311
O O2 0.278285 0.479314 0.191193
O O3 0.291060 0.453517 0.440607
O O4 0.413941 0.013513 0.496802
O O5 0.884484 0.677105 0.121112
O O6 0.218933 0.072742 0.360338
O O7 0.000000 0.500000 0.000000
O O8 0.462549 0.458214 0.282186
O O9 0.507941 0.201266 0.184996
O O10 0.500000 0.500000 0.500000
O O11 0.335758 0.618286 0.567952
O O12 0.285418 0.424031 0.675489
O O13 0.187253 0.490310 0.822026
O O14 0.292950 0.612166 0.817314
O O15 0.000000 0.000000 0.500000
O O16 0.409713 0.989081 0.179228
O O17 0.629112 0.040882 0.061799
O O18 0.500000 0.500000 0.000000
#
# Coordination Sequence:
#
# PCOD8005317 Si02
#       8
#     2   2   2   2   2   2   2   2
#     4  10  22  38  65  98 126 167 220 272 323 399
#     4  11  26  42  63  97 135 174 218 274 339 391
#     4  10  20  38  66  98 126 167 223 267 328 393
#     4  11  21  40  66  97 130 173 217 276 331 394
#     4  11  24  42  66  97 134 175 220 276 332 400
#     4  11  21  42  68  95 126 175 225 264 339 393
#     4  11  24  44  68  95 135 177 221 276 334 402
#     4  11  24  43  70  98 131 179 225 274 332 403
#
# _framework density 21.996946000000001
#
# number of rings (size 3 to 8) (size 9 to 14) (size 15 to 20)
#    0.000    1.250    1.250    6.000    5.250    2.000 
#    0.000    4.375    0.000    0.000    0.000    0.000 
#    0.000    0.000    0.000    0.000    0.000    0.000 
#
# Total GULP energy -198239.290434 kJ/mol
# GULP energy per Si atom -12389.955652 kJ/mol
# Density = 2.194688 g / cm^3
# Si number density = 21.996946 Si / 1000 Ang^3
#
#
#
# Elastic Constant Matrix: (Units=GPa)
#
#
# Indices 1 2 3 4 5 6 
#
# 1 175.1516 58.4785 69.3139 14.8362 25.3922 2.7785
# 2 58.4785 94.9131 46.6045 15.1124 16.1799 -0.4118
# 3 69.3139 46.6045 104.7074 2.1123 15.9903 0.8817
# 4 14.8362 15.1124 2.1123 36.4436 -2.3132 -1.7510
# 5 25.3922 16.1799 15.9903 -2.3132 40.5275 1.6150
# 6 2.7785 -0.4118 0.8817 -1.7510 1.6150 45.8078
#
#
#
# Elastic Compliance Matrix: (Units=1/GPa)
#
#
# Indices 1 2 3 4 5 6 
#
# 1 0.008882 -0.002453 -0.004269 -0.002566 -0.003029 -0.000470
# 2 -0.002453 0.015838 -0.004828 -0.005479 -0.003205 0.000288
# 3 -0.004269 -0.004828 0.014622 0.002832 -0.001008 0.000078
# 4 -0.002566 -0.005479 0.002832 0.030923 0.004399 0.001079
# 5 -0.003029 -0.003205 -0.001008 0.004399 0.028527 -0.000663
# 6 -0.000470 0.000288 0.000078 0.001079 -0.000663 0.021925
#
#
# Mechanical properties :
#
#
# Convention : Reuss Voigt Hill
#
# Bulk Modulus (GPa) = 61.57389 80.39623 70.98506
# Shear Modulus (GPa) = 33.50513 37.91412 35.70963
#
# Velocity S-wave (km/s) = 3.90702 4.15614 4.03350
# Velocity P-wave (km/s) = 6.95743 7.72396 7.35069
#
# Compressibility (1/GPa) = 0.01624065
#
# Stress axis : x y z
#
# Youngs Moduli (GPa) = 112.58942 63.13921 68.39146
#
# Poissons Ratio (x) = 0.15489 0.29199
# Poissons Ratio (y) = 0.27619 0.33019
# Poissons Ratio (z) = 0.48070 0.30483
#
# Static dielectric constant tensor:
#      x y z
#    x 4.670130 0.041990 0.111280 
#    y 0.041990 3.798360 0.171130 
#    z 0.111280 0.171130 3.920290 
# 
# 
# High freq. dielectric constant tensor:
#      x y z
#    x 1.895580 0.003950 0.001410 
#    y 0.003950 1.857040 0.018020 
#    z 0.001410 0.018020 1.848300 
# 
# From -- ./inp_files/447178.got.cif
#   From: 2010.06.25/outbox.cif.g09.slc.cpg/sg2_224_cif.got.tgz:447178.got - 2010.06.27 13:26:56.
