data_PCOD8005072
_publ_section_title
;
Structure prediction by ZEFSAII (Michael W. Deem and Ramdas Pophale) SiO2 
 PCOD8005072
Probable space group: P -1
;
_chemical_formula_sum "Si O2"
_cell_formula_units_Z 14
_cell_length_a 9.180298
_cell_length_b 8.687714
_cell_length_c 23.695659
_cell_angle_alpha 150.397027
_cell_angle_beta 39.851659
_cell_angle_gamma 129.316377
_cell_volume 594.793875
_symmetry_space_group_name_H-M "P -1"
_symmetry_group_IT_number 2
_symmetry_cell_setting 'triclinic'
loop_
_space_group_symop_operation_xyz
x,y,z
-x,-y,-z
loop_
_atom_site_type_symbol
_atom_site_label
_atom_site_fract_x
_atom_site_fract_y
_atom_site_fract_z
Si Si1 0.192536 0.161267 0.181375
Si Si2 0.375323 0.193284 0.014217
Si Si3 0.181874 0.199965 0.849053
Si Si4 0.284237 0.169439 0.586752
Si Si5 0.788221 0.097399 0.712229
Si Si6 0.671079 0.177176 0.649392
Si Si7 0.643321 0.125278 0.194893
O O1 0.240843 0.118847 0.086672
O O2 0.222178 0.512215 0.305110
O O3 0.932245 0.077884 0.238715
O O4 0.355852 0.912011 0.089807
O O5 0.341933 0.559942 0.126941
O O6 0.277703 0.003548 0.931098
O O7 0.404176 0.278779 0.773969
O O8 0.248720 0.104119 0.862168
O O9 0.000000 0.500000 0.000000
O O10 0.270243 0.538720 0.716269
O O11 0.047460 0.059628 0.646648
O O12 0.500000 0.000000 0.500000
O O13 0.303624 0.093616 0.490701
O O14 0.802130 0.037774 0.621547
O O15 0.635584 0.853487 0.709950
#
# Coordination Sequence:
#
# PCOD8005072 Si02
#       7
#     2   2   2   2   2   2   2
#     4  10  20  38  64  92 126 164 199 252 314 365
#     4  10  20  39  64  93 127 160 201 256 317 370
#     4  11  23  39  66  99 123 157 206 255 315 373
#     4  12  27  42  61  91 123 166 215 253 299 364
#     4  10  23  41  63  87 120 165 206 253 311 365
#     4  10  23  42  61  88 125 163 209 251 298 371
#     4  11  24  41  64  94 127 162 204 258 313 363
#
# _framework density 23.537566000000002
#
# number of rings (size 3 to 8) (size 9 to 14) (size 15 to 20)
#    0.000    1.429    0.000    6.857    0.000    8.571 
#    0.000    0.000    0.000    0.000    0.000    0.000 
#    0.000    0.000    0.000    0.000    0.000    0.000 
#
# Total GULP energy -173627.269020 kJ/mol
# GULP energy per Si atom -12401.947787 kJ/mol
# Density = 2.348399 g / cm^3
# Si number density = 23.537566 Si / 1000 Ang^3
#
#
#
# Elastic Constant Matrix: (Units=GPa)
#
#
# Indices 1 2 3 4 5 6 
#
# 1 108.3863 31.2792 45.1068 1.9108 8.5465 24.7306
# 2 31.2792 61.5581 -2.9386 7.3468 -1.7267 31.6886
# 3 45.1068 -2.9386 59.1846 12.2724 25.4817 0.3138
# 4 1.9108 7.3468 12.2724 18.3356 12.4847 -1.4918
# 5 8.5465 -1.7267 25.4817 12.4847 55.3636 -5.2519
# 6 24.7306 31.6886 0.3138 -1.4918 -5.2519 41.2200
#
#
#
# Elastic Compliance Matrix: (Units=1/GPa)
#
#
# Indices 1 2 3 4 5 6 
#
# 1 0.021987 -0.012782 -0.021644 0.015450 0.002464 -0.002327
# 2 -0.012782 0.038980 0.017985 -0.027473 -0.001130 -0.023573
# 3 -0.021644 0.017985 0.044698 -0.027854 -0.010727 -0.003556
# 4 0.015450 -0.027473 -0.027854 0.090135 -0.009408 0.014127
# 5 0.002464 -0.001130 -0.010727 -0.009408 0.024924 0.002307
# 6 -0.002327 -0.023573 -0.003556 0.014127 0.002307 0.044611
#
#
# Mechanical properties :
#
#
# Convention : Reuss Voigt Hill
#
# Bulk Modulus (GPa) = 13.73934 41.78039 27.75987
# Shear Modulus (GPa) = 15.50499 33.36262 24.43381
#
# Velocity S-wave (km/s) = 2.56937 3.76895 3.22542
# Velocity P-wave (km/s) = 3.82780 6.06045 5.06858
#
# Compressibility (1/GPa) = 0.07278368
#
# Stress axis : x y z
#
# Youngs Moduli (GPa) = 45.48188 25.65397 22.37246
#
# Poissons Ratio (x) = 0.32791 0.48423
# Poissons Ratio (y) = 0.58136 -0.40238
# Poissons Ratio (z) = 0.98441 -0.46140
#
# Static dielectric constant tensor:
#      x y z
#    x 4.580050 0.351330 0.009200 
#    y 0.351330 4.610460 0.039400 
#    z 0.009200 0.039400 4.047690 
# 
# 
# High freq. dielectric constant tensor:
#      x y z
#    x 1.946920 0.023120 0.000580 
#    y 0.023120 1.925380 0.001890 
#    z 0.000580 0.001890 1.916920 
# 
# From -- ./inp_files/606909.got.cif
#   From: 2010.06.25/outbox.cif.g09.slc.cpg/sg2_304_cif.got.tgz:606909.got - 2010.06.27 13:26:56.
