data_PCOD8005710
_publ_section_title
;
Structure prediction by ZEFSAII (Michael W. Deem and Ramdas Pophale) SiO2 
 PCOD8005710
Probable space group: P -1
;
_chemical_formula_sum "Si O2"
_cell_formula_units_Z 16
_cell_length_a 26.204056
_cell_length_b 8.484981
_cell_length_c 9.351503
_cell_angle_alpha 52.420604
_cell_angle_beta 148.907200
_cell_angle_gamma 126.475000
_cell_volume 837.610415
_symmetry_space_group_name_H-M "P -1"
_symmetry_group_IT_number 2
_symmetry_cell_setting 'triclinic'
loop_
_space_group_symop_operation_xyz
x,y,z
-x,-y,-z
loop_
_atom_site_type_symbol
_atom_site_label
_atom_site_fract_x
_atom_site_fract_y
_atom_site_fract_z
Si Si1 0.133585 0.574223 0.924156
Si Si2 0.752499 0.229406 0.417452
Si Si3 0.918819 0.379934 0.535572
Si Si4 0.427070 0.075502 0.898233
Si Si5 0.554995 0.160299 0.433780
Si Si6 0.667259 0.550604 0.622902
Si Si7 0.770171 0.626227 0.115882
Si Si8 0.757435 0.080725 0.830768
O O1 0.106865 0.685164 0.653681
O O2 0.037549 0.409635 0.835440
O O3 0.228936 0.461024 0.204899
O O4 0.152915 0.751543 0.989151
O O5 0.855832 0.217075 0.584426
O O6 0.658522 0.115820 0.161919
O O7 0.742065 0.469100 0.270185
O O8 0.750684 0.118000 0.625537
O O9 0.880047 0.595484 0.340381
O O10 0.368541 0.240033 0.602189
O O11 0.500000 0.000000 0.000000
O O12 0.484460 0.172672 0.121845
O O13 0.579340 0.373017 0.456923
O O14 0.655581 0.093039 0.659719
O O15 0.500000 0.000000 0.500000
O O16 0.686113 0.542665 0.841805
O O17 0.778011 0.859224 0.042151
#
# Coordination Sequence:
#
# PCOD8005710 Si02
#       8
#     2   2   2   2   2   2   2   2
#     4   9  19  38  63  87 124 149 197 242 303 345
#     4  10  21  38  61  86 120 153 202 243 289 351
#     4   8  19  39  64  84 118 163 185 246 295 357
#     4  12  22  39  62  85 119 159 201 245 293 348
#     4  11  24  39  57  88 121 155 201 244 299 350
#     4  10  20  39  62  85 119 160 193 247 293 353
#     4   9  19  38  62  85 118 158 194 236 303 338
#     4  11  21  39  61  88 120 155 195 255 283 353
#
# _framework density 19.101958
#
# number of rings (size 3 to 8) (size 9 to 14) (size 15 to 20)
#    0.750    1.250    2.500    1.125    1.750    2.000 
#    4.500    3.125    0.000    0.000    0.000    0.000 
#    0.000    0.000    0.000    0.000    0.000    0.000 
#
# Total GULP energy -198236.421123 kJ/mol
# GULP energy per Si atom -12389.776320 kJ/mol
# Density = 1.905848 g / cm^3
# Si number density = 19.101958 Si / 1000 Ang^3
#
#
#
# Elastic Constant Matrix: (Units=GPa)
#
#
# Indices 1 2 3 4 5 6 
#
# 1 75.5776 38.8154 19.2314 11.4051 4.1687 17.2921
# 2 38.8154 96.2792 42.7018 3.7012 14.5670 3.9581
# 3 19.2314 42.7018 74.9471 8.3599 9.9706 4.1494
# 4 11.4051 3.7012 8.3599 41.1125 2.1703 1.0591
# 5 4.1687 14.5670 9.9706 2.1703 19.0747 2.6165
# 6 17.2921 3.9581 4.1494 1.0591 2.6165 33.3398
#
#
#
# Elastic Compliance Matrix: (Units=1/GPa)
#
#
# Indices 1 2 3 4 5 6 
#
# 1 0.020096 -0.008087 0.000035 -0.004798 0.003629 -0.009600
# 2 -0.008087 0.018086 -0.007527 0.002523 -0.008891 0.003602
# 3 0.000035 -0.007527 0.018459 -0.002877 -0.003435 -0.001061
# 4 -0.004798 0.002523 -0.002877 0.026101 -0.002607 0.001923
# 5 0.003629 -0.008891 -0.003435 -0.002607 0.061217 -0.005120
# 6 -0.009600 0.003602 -0.001061 0.001923 -0.005120 0.035018
#
#
# Mechanical properties :
#
#
# Convention : Reuss Voigt Hill
#
# Bulk Modulus (GPa) = 39.24330 49.81123 44.52727
# Shear Modulus (GPa) = 22.86972 28.44243 25.65608
#
# Velocity S-wave (km/s) = 3.46388 3.86292 3.66883
# Velocity P-wave (km/s) = 6.04869 6.78449 6.42713
#
# Compressibility (1/GPa) = 0.02548206
#
# Stress axis : x y z
#
# Youngs Moduli (GPa) = 49.76001 55.29288 54.17396
#
# Poissons Ratio (x) = 0.44718 -0.00191
# Poissons Ratio (y) = 0.40243 0.40778
# Poissons Ratio (z) = -0.00175 0.41620
#
# Static dielectric constant tensor:
#      x y z
#    x 3.427790 -0.079850 0.061550 
#    y -0.079850 3.485970 0.359690 
#    z 0.061550 0.359690 3.246240 
# 
# 
# High freq. dielectric constant tensor:
#      x y z
#    x 1.733550 0.001850 0.001300 
#    y 0.001850 1.739060 0.014920 
#    z 0.001300 0.014920 1.740620 
# 
# From -- ./inp_files/189431.got.cif
#   From: 2010.06.25/outbox.cif.g09.slc.cpg/sg2_95_cif.got.tgz:189431.got - 2010.06.27 13:26:56.
