data_PCOD8005897
_publ_section_title
;
Structure prediction by ZEFSAII (Michael W. Deem and Ramdas Pophale) SiO2 
 PCOD8005897
Probable space group: P -1
;
_chemical_formula_sum "Si O2"
_cell_formula_units_Z 16
_cell_length_a 9.540009
_cell_length_b 14.516858
_cell_length_c 18.355230
_cell_angle_alpha 28.024074
_cell_angle_beta 42.360046
_cell_angle_gamma 39.178439
_cell_volume 741.627858
_symmetry_space_group_name_H-M "P -1"
_symmetry_group_IT_number 2
_symmetry_cell_setting 'triclinic'
loop_
_space_group_symop_operation_xyz
x,y,z
-x,-y,-z
loop_
_atom_site_type_symbol
_atom_site_label
_atom_site_fract_x
_atom_site_fract_y
_atom_site_fract_z
Si Si1 0.088482 0.410161 0.950388
Si Si2 0.503222 0.283560 0.313807
Si Si3 0.618457 0.552427 0.985320
Si Si4 0.480465 0.035009 0.714014
Si Si5 0.477589 0.012697 0.896484
Si Si6 0.786652 0.899111 0.374116
Si Si7 0.298069 0.787934 0.228995
Si Si8 0.632221 0.346532 0.370740
O O1 0.167208 0.569139 0.761044
O O2 0.286570 0.186078 0.044725
O O3 0.000000 0.500000 0.000000
O O4 0.880950 0.388415 0.001266
O O5 0.479956 0.518494 0.132479
O O6 0.264261 0.270939 0.435495
O O7 0.652333 0.228610 0.367828
O O8 0.631301 0.128631 0.306264
O O9 0.500000 0.500000 0.000000
O O10 0.620211 0.785979 0.821585
O O11 0.279343 0.117794 0.673551
O O12 0.643860 0.166197 0.551301
O O13 0.391418 0.069653 0.807140
O O14 0.525773 0.206877 0.778980
O O15 0.287408 0.959689 0.050260
O O16 0.049486 0.848897 0.314157
O O17 0.391521 0.547845 0.329862
#
# Coordination Sequence:
#
# PCOD8005897 Si02
#       8
#     2   2   2   2   2   2   2   2
#     4  11  20  39  66  90 122 170 203 253 326 372
#     4  10  20  39  63  93 131 160 212 253 318 379
#     4  12  22  37  60  94 131 158 204 261 315 370
#     4  11  23  39  61  98 132 158 216 270 305 369
#     4  10  22  41  66  93 122 168 219 261 304 389
#     4  10  22  39  66  93 127 171 205 263 316 376
#     4  10  22  43  66  87 126 179 212 249 324 379
#     4  10  23  41  66  94 130 166 215 260 310 384
#
# _framework density 21.574162000000001
#
# number of rings (size 3 to 8) (size 9 to 14) (size 15 to 20)
#    0.000    1.500    3.750    1.500    0.000    3.500 
#    2.250    1.250    0.000    0.000    0.000    0.000 
#    0.000    0.000    0.000    0.000    0.000    0.000 
#
# Total GULP energy -198266.364172 kJ/mol
# GULP energy per Si atom -12391.647761 kJ/mol
# Density = 2.152506 g / cm^3
# Si number density = 21.574162 Si / 1000 Ang^3
#
#
#
# Elastic Constant Matrix: (Units=GPa)
#
#
# Indices 1 2 3 4 5 6 
#
# 1 98.3592 29.0597 42.3604 17.3787 -1.4593 10.8421
# 2 29.0597 65.0581 43.6207 19.1890 -4.2965 1.8643
# 3 42.3604 43.6207 177.8710 15.1415 -7.0792 -7.5332
# 4 17.3787 19.1890 15.1415 35.5552 0.9985 -4.6606
# 5 -1.4593 -4.2965 -7.0792 0.9985 29.0911 8.5592
# 6 10.8421 1.8643 -7.5332 -4.6606 8.5592 31.9194
#
#
#
# Elastic Compliance Matrix: (Units=1/GPa)
#
#
# Indices 1 2 3 4 5 6 
#
# 1 0.013572 -0.002727 -0.002330 -0.005030 0.001706 -0.006193
# 2 -0.002727 0.022514 -0.004062 -0.009680 0.003631 -0.003734
# 3 -0.002330 -0.004062 0.007247 0.000602 0.000211 0.002770
# 4 -0.005030 -0.009680 0.000602 0.036925 -0.005537 0.009292
# 5 0.001706 0.003631 0.000211 -0.005537 0.038751 -0.011941
# 6 -0.006193 -0.003734 0.002770 0.009292 -0.011941 0.038863
#
#
# Mechanical properties :
#
#
# Convention : Reuss Voigt Hill
#
# Bulk Modulus (GPa) = 39.84426 63.48554 51.66490
# Shear Modulus (GPa) = 27.10389 34.39630 30.75010
#
# Velocity S-wave (km/s) = 3.54830 3.99724 3.77944
# Velocity P-wave (km/s) = 5.94103 7.12702 6.56088
#
# Compressibility (1/GPa) = 0.02509772
#
# Stress axis : x y z
#
# Youngs Moduli (GPa) = 73.67902 44.41711 137.97915
#
# Poissons Ratio (x) = 0.12111 0.32147
# Poissons Ratio (y) = 0.20089 0.56041
# Poissons Ratio (z) = 0.17166 0.18040
#
# Static dielectric constant tensor:
#      x y z
#    x 3.704530 1.748760 0.928990 
#    y 1.748760 -6.504070 -7.519810 
#    z 0.928990 -7.519810 -0.920120 
# 
# 
# High freq. dielectric constant tensor:
#      x y z
#    x 1.832940 0.028290 -0.015030 
#    y 0.028290 1.819590 0.007440 
#    z -0.015030 0.007440 1.870560 
# 
# From -- ./inp_files/514729.got.cif
#   From: 2010.06.25/outbox.cif.g09.slc.cpg/sg2_258_cif.got.tgz:514729.got - 2010.06.27 13:26:56.
