data_PCOD8006327
_publ_section_title
;
Structure prediction by ZEFSAII (Michael W. Deem and Ramdas Pophale) SiO2 
 PCOD8006327
Probable space group: P -1
;
_chemical_formula_sum "Si O2"
_cell_formula_units_Z 14
_cell_length_a 14.452304
_cell_length_b 11.544726
_cell_length_c 8.195358
_cell_angle_alpha 36.722655
_cell_angle_beta 77.310798
_cell_angle_gamma 53.966429
_cell_volume 564.416907
_symmetry_space_group_name_H-M "P -1"
_symmetry_group_IT_number 2
_symmetry_cell_setting 'triclinic'
loop_
_space_group_symop_operation_xyz
x,y,z
-x,-y,-z
loop_
_atom_site_type_symbol
_atom_site_label
_atom_site_fract_x
_atom_site_fract_y
_atom_site_fract_z
Si Si1 0.718927 0.173156 0.399551
Si Si2 0.397392 0.305052 0.260787
Si Si3 0.359993 0.261218 0.683751
Si Si4 0.810326 0.670868 0.805782
Si Si5 0.852956 0.743090 0.350722
Si Si6 0.012837 0.122299 0.505536
Si Si7 0.812286 0.185343 0.696706
O O1 0.767027 0.140521 0.600862
O O2 0.699379 0.969163 0.607435
O O3 0.589155 0.495182 0.043651
O O4 0.830723 0.052047 0.351062
O O5 0.395776 0.322036 0.435924
O O6 0.254878 0.439084 0.094330
O O7 0.500000 0.000000 0.500000
O O8 0.260787 0.224736 0.726792
O O9 0.296175 0.498341 0.570738
O O10 0.500000 0.000000 0.000000
O O11 0.863412 0.694810 0.593574
O O12 0.930904 0.440811 0.141639
O O13 0.000000 0.500000 0.500000
O O14 0.820725 0.015636 0.027528
O O15 0.954649 0.092806 0.719889
O O16 0.000000 0.000000 0.500000
#
# Coordination Sequence:
#
# PCOD8006327 Si02
#       7
#     2   2   2   2   2   2   2
#     4  11  23  39  69 100 133 177 232 280 340 410
#     4  11  24  45  68  93 134 181 233 281 337 409
#     4  11  27  46  69  99 142 184 228 282 346 409
#     4  11  23  42  66  99 136 175 227 285 340 411
#     4  11  26  43  69 105 140 177 226 287 350 403
#     4  10  20  39  67  97 136 175 222 277 342 404
#     4  11  24  41  68 102 139 181 225 284 345 410
#
# _framework density 24.804359000000002
#
# number of rings (size 3 to 8) (size 9 to 14) (size 15 to 20)
#    0.000    1.143    2.857    3.857    6.000    1.714 
#    0.000    0.000    0.000    0.000    0.000    0.000 
#    0.000    0.000    0.000    0.000    0.000    0.000 
#
# Total GULP energy -173491.365464 kJ/mol
# GULP energy per Si atom -12392.240390 kJ/mol
# Density = 2.474790 g / cm^3
# Si number density = 24.804359 Si / 1000 Ang^3
#
#
#
# Elastic Constant Matrix: (Units=GPa)
#
#
# Indices 1 2 3 4 5 6 
#
# 1 67.8398 16.4687 17.2926 8.4826 -2.5443 9.5480
# 2 16.4687 89.0895 4.7606 -11.9991 -8.6032 7.5971
# 3 17.2926 4.7606 130.4438 -14.8993 -20.8594 0.6725
# 4 8.4826 -11.9991 -14.8993 47.3072 -3.6822 -9.0176
# 5 -2.5443 -8.6032 -20.8594 -3.6822 37.0442 -3.3047
# 6 9.5480 7.5971 0.6725 -9.0176 -3.3047 34.7904
#
#
#
# Elastic Compliance Matrix: (Units=1/GPa)
#
#
# Indices 1 2 3 4 5 6 
#
# 1 0.018129 -0.003818 -0.003440 -0.006676 -0.002784 -0.006070
# 2 -0.003818 0.012873 0.001170 0.004570 0.003819 -0.000238
# 3 -0.003440 0.001170 0.009604 0.004863 0.006136 0.002347
# 4 -0.006676 0.004570 0.004863 0.027161 0.006793 0.008426
# 5 -0.002784 0.003819 0.006136 0.006793 0.032235 0.004634
# 6 -0.006070 -0.000238 0.002347 0.008426 0.004634 0.033040
#
#
# Mechanical properties :
#
#
# Convention : Reuss Voigt Hill
#
# Bulk Modulus (GPa) = 35.17434 40.49079 37.83257
# Shear Modulus (GPa) = 32.32170 40.41844 36.37007
#
# Velocity S-wave (km/s) = 3.61372 4.04107 3.83335
# Velocity P-wave (km/s) = 5.62347 6.17521 5.90579
#
# Compressibility (1/GPa) = 0.02842981
#
# Stress axis : x y z
#
# Youngs Moduli (GPa) = 55.15974 77.68464 104.12108
#
# Poissons Ratio (x) = 0.29659 0.35823
# Poissons Ratio (y) = 0.21059 -0.12185
# Poissons Ratio (z) = 0.18978 -0.09091
#
# Static dielectric constant tensor:
#      x y z
#    x 5.232110 -0.285770 0.131860 
#    y -0.285770 4.684950 0.582360 
#    z 0.131860 0.582360 3.583840 
# 
# 
# High freq. dielectric constant tensor:
#      x y z
#    x 1.987760 0.012210 -0.014990 
#    y 0.012210 1.990460 -0.009180 
#    z -0.014990 -0.009180 1.999420 
# 
# From -- ./inp_files/331547.got.cif
#   From: 2010.06.25/outbox.cif.g09.slc.cpg/sg2_166_cif.got.tgz:331547.got - 2010.06.27 13:26:56.
