data_PCOD8006499
_publ_section_title
;
Structure prediction by ZEFSAII (Michael W. Deem and Ramdas Pophale) SiO2 
 PCOD8006499
Probable space group: P -1
;
_chemical_formula_sum "Si O2"
_cell_formula_units_Z 16
_cell_length_a 8.869468
_cell_length_b 16.762129
_cell_length_c 8.712533
_cell_angle_alpha 105.947541
_cell_angle_beta 91.710699
_cell_angle_gamma 133.186545
_cell_volume 863.122573
_symmetry_space_group_name_H-M "P -1"
_symmetry_group_IT_number 2
_symmetry_cell_setting 'triclinic'
loop_
_space_group_symop_operation_xyz
x,y,z
-x,-y,-z
loop_
_atom_site_type_symbol
_atom_site_label
_atom_site_fract_x
_atom_site_fract_y
_atom_site_fract_z
Si Si1 0.286833 0.756087 0.974267
Si Si2 0.028824 0.796915 0.848507
Si Si3 0.668939 0.092190 0.359295
Si Si4 0.218683 0.601644 0.651169
Si Si5 0.432020 0.383698 0.377841
Si Si6 0.465875 0.852591 0.347148
Si Si7 0.597592 0.792808 0.572213
Si Si8 0.675070 0.955684 0.878807
O O1 0.116535 0.762160 0.947384
O O2 0.180672 0.631792 0.828694
O O3 0.523872 0.867399 0.968480
O O4 0.316414 0.755329 0.156841
O O5 0.114892 0.813874 0.687220
O O6 0.767192 0.688689 0.785177
O O7 0.109060 0.917685 0.976829
O O8 0.687510 0.161386 0.541227
O O9 0.454803 0.027828 0.217939
O O10 0.644913 0.988035 0.361015
O O11 0.353357 0.569998 0.671457
O O12 0.361007 0.717635 0.604817
O O13 0.000000 0.500000 0.500000
O O14 0.500000 0.500000 0.500000
O O15 0.354453 0.287405 0.459927
O O16 0.593473 0.825748 0.416311
O O17 0.755579 0.910891 0.749261
#
# Coordination Sequence:
#
# PCOD8006499 Si02
#       8
#     2   2   2   2   2   2   2   2
#     4  10  17  30  57  84 104 139 179 221 256 314
#     4  11  18  31  56  84 110 140 180 218 262 319
#     4   9  17  27  51  81 117 146 168 210 258 328
#     4   9  19  38  58  77  96 136 191 226 257 306
#     4  10  22  37  56  76 102 141 185 227 270 308
#     4  10  16  30  51  81 117 138 175 212 266 316
#     4   8  20  33  52  80 109 137 177 224 259 320
#     4   9  15  31  50  84 109 137 182 213 259 310
#
# _framework density 18.537344999999998
#
# number of rings (size 3 to 8) (size 9 to 14) (size 15 to 20)
#    0.750    1.750    2.500    2.250    0.000    0.500 
#    0.000    1.250    2.750    0.750    0.000    0.000 
#    0.000    0.000    0.000    0.000    0.000    0.000 
#
# Total GULP energy -198247.590298 kJ/mol
# GULP energy per Si atom -12390.474394 kJ/mol
# Density = 1.849515 g / cm^3
# Si number density = 18.537345 Si / 1000 Ang^3
#
#
#
# Elastic Constant Matrix: (Units=GPa)
#
#
# Indices 1 2 3 4 5 6 
#
# 1 72.5620 26.4622 44.7032 18.5502 3.5996 -12.2331
# 2 26.4622 38.3416 39.3093 16.7338 -1.1091 -14.5829
# 3 44.7032 39.3093 157.2215 22.0788 -1.4077 -5.4290
# 4 18.5502 16.7338 22.0788 40.5973 -2.6024 4.3313
# 5 3.5996 -1.1091 -1.4077 -2.6024 20.7517 6.1080
# 6 -12.2331 -14.5829 -5.4290 4.3313 6.1080 35.4778
#
#
#
# Elastic Compliance Matrix: (Units=1/GPa)
#
#
# Indices 1 2 3 4 5 6 
#
# 1 0.021147 -0.006138 -0.003431 -0.006367 -0.006852 0.006201
# 2 -0.006138 0.055832 -0.008939 -0.018113 -0.005487 0.022621
# 3 -0.003431 -0.008939 0.009357 0.000701 0.001973 -0.003851
# 4 -0.006367 -0.018113 0.000701 0.036901 0.009421 -0.015660
# 5 -0.006852 -0.005487 0.001973 0.009421 0.054785 -0.014899
# 6 0.006201 0.022621 -0.003851 -0.015660 -0.014899 0.043511
#
#
# Mechanical properties :
#
#
# Convention : Reuss Voigt Hill
#
# Bulk Modulus (GPa) = 20.27553 54.34162 37.30858
# Shear Modulus (GPa) = 18.18263 29.87537 24.02900
#
# Velocity S-wave (km/s) = 3.13527 4.01887 3.60425
# Velocity P-wave (km/s) = 4.90592 7.13536 6.12296
#
# Compressibility (1/GPa) = 0.04932053
#
# Stress axis : x y z
#
# Youngs Moduli (GPa) = 47.28891 17.91092 106.86948
#
# Poissons Ratio (x) = 0.10994 0.36668
# Poissons Ratio (y) = 0.29026 0.95526
# Poissons Ratio (z) = 0.16225 0.16010
#
# Static dielectric constant tensor:
#      x y z
#    x 3.196310 -0.245610 -0.072680 
#    y -0.245610 3.211730 0.068060 
#    z -0.072680 0.068060 3.450020 
# 
# 
# High freq. dielectric constant tensor:
#      x y z
#    x 1.696640 -0.025470 -0.000690 
#    y -0.025470 1.686260 0.015290 
#    z -0.000690 0.015290 1.718270 
# 
# From -- ./inp_files/215351.got.cif
#   From: 2010.06.25/outbox.cif.g09.slc.cpg/sg2_108_cif.got.tgz:215351.got - 2010.06.27 13:26:56.
