data_PCOD8006645
_publ_section_title
;
Structure prediction by ZEFSAII (Michael W. Deem and Ramdas Pophale) SiO2 
 PCOD8006645
Probable space group: P -1
;
_chemical_formula_sum "Si O2"
_cell_formula_units_Z 16
_cell_length_a 12.706080
_cell_length_b 15.617738
_cell_length_c 8.659195
_cell_angle_alpha 60.370170
_cell_angle_beta 105.184005
_cell_angle_gamma 54.321796
_cell_volume 760.281745
_symmetry_space_group_name_H-M "P -1"
_symmetry_group_IT_number 2
_symmetry_cell_setting 'triclinic'
loop_
_space_group_symop_operation_xyz
x,y,z
-x,-y,-z
loop_
_atom_site_type_symbol
_atom_site_label
_atom_site_fract_x
_atom_site_fract_y
_atom_site_fract_z
Si Si1 0.211418 0.115002 0.601107
Si Si2 0.937768 0.262389 0.090344
Si Si3 0.605983 0.875104 0.804428
Si Si4 0.834727 0.504012 0.249320
Si Si5 0.086029 0.068727 0.843438
Si Si6 0.827012 0.087032 0.675668
Si Si7 0.992657 0.327698 0.763437
Si Si8 0.416190 0.460319 0.054826
O O1 0.126711 0.146643 0.375047
O O2 0.065017 0.313370 0.437293
O O3 0.439143 0.982904 0.778346
O O4 0.226510 0.007470 0.815383
O O5 0.728670 0.405665 0.974471
O O6 0.003659 0.114521 0.155090
O O7 0.894493 0.384884 0.843112
O O8 0.500000 0.000000 0.500000
O O9 0.727126 0.682101 0.975798
O O10 0.768083 0.826448 0.984548
O O11 0.859116 0.503826 0.445454
O O12 0.706381 0.503652 0.158023
O O13 0.975383 0.242167 0.733330
O O14 0.210460 0.908558 0.160694
O O15 0.910044 0.134486 0.641815
O O16 0.606744 0.244682 0.368744
O O17 0.500000 0.500000 0.000000
#
# Coordination Sequence:
#
# PCOD8006645 Si02
#       8
#     2   2   2   2   2   2   2   2
#     4  10  21  41  60  93 123 159 206 255 309 365
#     4  10  21  38  63  90 123 161 200 254 303 361
#     4  12  24  40  67  91 118 165 216 256 304 371
#     4  10  24  41  62  92 127 162 201 259 310 358
#     4   9  21  38  63  89 128 161 199 257 306 363
#     4  10  20  40  62  91 124 165 202 246 309 364
#     4  10  21  43  61  88 129 158 205 262 306 360
#     4  11  23  39  63  93 124 162 206 246 304 376
#
# _framework density 21.044830999999999
#
# number of rings (size 3 to 8) (size 9 to 14) (size 15 to 20)
#    0.000    1.750    1.250    3.375    1.750    6.500 
#    0.000    8.750    0.000    0.000    0.000    0.000 
#    0.000    0.000    0.000    0.000    0.000    0.000 
#
# Total GULP energy -198333.743657 kJ/mol
# GULP energy per Si atom -12395.858979 kJ/mol
# Density = 2.099693 g / cm^3
# Si number density = 21.044831 Si / 1000 Ang^3
#
#
#
# Elastic Constant Matrix: (Units=GPa)
#
#
# Indices 1 2 3 4 5 6 
#
# 1 122.3016 55.6302 58.6592 -0.8164 -7.2115 -26.6066
# 2 55.6302 85.5519 47.6172 4.2919 -2.5444 -12.0624
# 3 58.6592 47.6172 125.1907 7.1854 -6.3464 -14.0695
# 4 -0.8164 4.2919 7.1854 39.4350 -5.6662 -4.8917
# 5 -7.2115 -2.5444 -6.3464 -5.6662 31.3320 -1.7539
# 6 -26.6066 -12.0624 -14.0695 -4.8917 -1.7539 38.7683
#
#
#
# Elastic Compliance Matrix: (Units=1/GPa)
#
#
# Indices 1 2 3 4 5 6 
#
# 1 0.014657 -0.006585 -0.003567 0.003008 0.003065 0.007234
# 2 -0.006585 0.018063 -0.003810 -0.001640 -0.001147 -0.000541
# 3 -0.003567 -0.003810 0.011277 -0.001548 0.000891 0.000304
# 4 0.003008 -0.001640 -0.001548 0.027242 0.005434 0.004675
# 5 0.003065 -0.001147 0.000891 0.005434 0.033932 0.004291
# 6 0.007234 -0.000541 0.000304 0.004675 0.004291 0.031485
#
#
# Mechanical properties :
#
#
# Convention : Reuss Voigt Hill
#
# Bulk Modulus (GPa) = 62.21793 72.98415 67.60104
# Shear Modulus (GPa) = 29.42253 33.31626 31.36939
#
# Velocity S-wave (km/s) = 3.74316 3.98315 3.86502
# Velocity P-wave (km/s) = 6.95056 7.47727 7.21872
#
# Compressibility (1/GPa) = 0.01607254
#
# Stress axis : x y z
#
# Youngs Moduli (GPa) = 68.22469 55.36116 88.67962
#
# Poissons Ratio (x) = 0.36457 0.31636
# Poissons Ratio (y) = 0.44927 0.33784
# Poissons Ratio (z) = 0.24339 0.21091
#
# Static dielectric constant tensor:
#      x y z
#    x 3.987350 -0.113600 -0.274850 
#    y -0.113600 3.647690 0.310850 
#    z -0.274850 0.310850 4.199540 
# 
# 
# High freq. dielectric constant tensor:
#      x y z
#    x 1.830370 0.001280 -0.008970 
#    y 0.001280 1.807930 0.019740 
#    z -0.008970 0.019740 1.834010 
# 
# From -- ./inp_files/272206.got.cif
#   From: 2010.06.25/outbox.cif.g09.slc.cpg/sg2_137_cif.got.tgz:272206.got - 2010.06.27 13:26:56.
