data_PCOD8006463
_publ_section_title
;
Structure prediction by ZEFSAII (Michael W. Deem and Ramdas Pophale) SiO2 
 PCOD8006463
Probable space group: P -1
;
_chemical_formula_sum "Si O2"
_cell_formula_units_Z 12
_cell_length_a 20.806819
_cell_length_b 9.137442
_cell_length_c 14.045586
_cell_angle_alpha 55.623233
_cell_angle_beta 149.735929
_cell_angle_gamma 144.410701
_cell_volume 691.484689
_symmetry_space_group_name_H-M "P -1"
_symmetry_group_IT_number 2
_symmetry_cell_setting 'triclinic'
loop_
_space_group_symop_operation_xyz
x,y,z
-x,-y,-z
loop_
_atom_site_type_symbol
_atom_site_label
_atom_site_fract_x
_atom_site_fract_y
_atom_site_fract_z
Si Si1 0.786367 0.799092 0.351377
Si Si2 0.044052 0.201097 0.056144
Si Si3 0.361904 0.811316 0.250433
Si Si4 0.006309 0.878423 0.762963
Si Si5 0.195782 0.712307 0.270036
Si Si6 0.378542 0.158224 0.025285
O O1 0.851068 0.855720 0.524706
O O2 0.692935 0.884382 0.160748
O O3 0.615857 0.465629 0.230639
O O4 0.000000 0.000000 0.500000
O O5 0.915569 0.235631 0.852176
O O6 0.281133 0.523605 0.232191
O O7 0.989031 0.069867 0.138797
O O8 0.000000 0.000000 0.000000
O O9 0.209092 0.731636 0.164153
O O10 0.583236 0.040003 0.492406
O O11 0.353006 0.923350 0.103864
O O12 0.913931 0.585417 0.727062
O O13 0.237199 0.130209 0.923227
#
# Coordination Sequence:
#
# PCOD8006463 Si02
#       6
#     2   2   2   2   2   2
#     4   9  19  28  48  82 102 121 159 216 257 291
#     4  11  22  33  48  75 109 138 166 202 246 299
#     4  10  18  31  54  74  99 134 167 207 250 297
#     4  10  17  32  52  75 102 131 166 205 248 294
#     4  10  18  31  52  76  98 131 170 206 252 296
#     4  10  16  30  51  78 102 125 161 209 257 292
#
# _framework density 17.353964000000001
#
# number of rings (size 3 to 8) (size 9 to 14) (size 15 to 20)
#    0.000    2.000    5.000    1.000    0.000    0.667 
#    0.000    0.000    0.000    1.000    0.000    7.000 
#    0.000    0.000    0.000    0.000    0.000    0.000 
#
# Total GULP energy -148670.157025 kJ/mol
# GULP energy per Si atom -12389.179752 kJ/mol
# Density = 1.731447 g / cm^3
# Si number density = 17.353964 Si / 1000 Ang^3
#
#
#
# Elastic Constant Matrix: (Units=GPa)
#
#
# Indices 1 2 3 4 5 6 
#
# 1 65.3952 40.9977 36.0317 3.2769 -13.3208 -8.9090
# 2 40.9977 89.1044 43.7890 0.0993 -11.2846 7.9870
# 3 36.0317 43.7890 81.0374 1.2992 -8.8086 6.7401
# 4 3.2769 0.0993 1.2992 41.0923 12.1953 -3.5479
# 5 -13.3208 -11.2846 -8.8086 12.1953 20.2874 4.0860
# 6 -8.9090 7.9870 6.7401 -3.5479 4.0860 26.3914
#
#
#
# Elastic Compliance Matrix: (Units=1/GPa)
#
#
# Indices 1 2 3 4 5 6 
#
# 1 0.029798 -0.009616 -0.007878 -0.004192 0.010747 0.012753
# 2 -0.009616 0.019515 -0.004971 -0.001365 0.004983 -0.008837
# 3 -0.007878 -0.004971 0.019393 -0.001332 0.002631 -0.006694
# 4 -0.004192 -0.001365 -0.001332 0.032929 -0.025436 0.007703
# 5 0.010747 0.004983 0.002631 -0.025436 0.078395 -0.014109
# 6 0.012753 -0.008837 -0.006694 0.007703 -0.014109 0.049800
#
#
# Mechanical properties :
#
#
# Convention : Reuss Voigt Hill
#
# Bulk Modulus (GPa) = 42.06001 53.01931 47.53966
# Shear Modulus (GPa) = 17.68753 25.20212 21.44483
#
# Velocity S-wave (km/s) = 3.19599 3.81496 3.51911
# Velocity P-wave (km/s) = 6.15697 7.07271 6.63067
#
# Compressibility (1/GPa) = 0.02377556
#
# Stress axis : x y z
#
# Youngs Moduli (GPa) = 33.55978 51.24323 51.56488
#
# Poissons Ratio (x) = 0.49275 0.40624
# Poissons Ratio (y) = 0.32271 0.25632
# Poissons Ratio (z) = 0.26439 0.25472
#
# Static dielectric constant tensor:
#      x y z
#    x 2.782560 0.448690 -0.012410 
#    y 0.448690 3.507720 -0.126900 
#    z -0.012410 -0.126900 3.743660 
# 
# 
# High freq. dielectric constant tensor:
#      x y z
#    x 1.598780 0.041860 0.007280 
#    y 0.041860 1.675820 -0.001940 
#    z 0.007280 -0.001940 1.704190 
# 
# From -- ./inp_files/100320.got.cif
#   From: 2010.06.25/outbox.cif.g09.slc.cpg/sg2_51_cif.got.tgz:100320.got - 2010.06.27 13:26:56.
