data_PCOD8006955
_publ_section_title
;
Structure prediction by ZEFSAII (Michael W. Deem and Ramdas Pophale) SiO2 
 PCOD8006955
Probable space group: P -1
;
_chemical_formula_sum "Si O2"
_cell_formula_units_Z 16
_cell_length_a 8.415870
_cell_length_b 22.019034
_cell_length_c 12.608488
_cell_angle_alpha 151.541454
_cell_angle_beta 46.038826
_cell_angle_gamma 142.590923
_cell_volume 676.311132
_symmetry_space_group_name_H-M "P -1"
_symmetry_group_IT_number 2
_symmetry_cell_setting 'triclinic'
loop_
_space_group_symop_operation_xyz
x,y,z
-x,-y,-z
loop_
_atom_site_type_symbol
_atom_site_label
_atom_site_fract_x
_atom_site_fract_y
_atom_site_fract_z
Si Si1 0.520662 0.727089 0.962585
Si Si2 0.973432 0.996142 0.256825
Si Si3 0.295366 0.811897 0.021974
Si Si4 0.572231 0.236451 0.334770
Si Si5 0.600800 0.161263 0.429651
Si Si6 0.142223 0.753159 0.336842
Si Si7 0.219953 0.227292 0.804900
Si Si8 0.447093 0.488908 0.771548
O O1 0.820412 0.869680 0.042132
O O2 0.391222 0.715793 0.892178
O O3 0.372136 0.752721 0.167926
O O4 0.510337 0.573239 0.757186
O O5 0.921541 0.911935 0.262578
O O6 0.853817 0.099964 0.476246
O O7 0.280139 0.089763 0.232968
O O8 0.012905 0.762925 0.125392
O O9 0.505431 0.987143 0.212911
O O10 0.260228 0.766986 0.845575
O O11 0.714833 0.229549 0.364864
O O12 0.572690 0.388780 0.562683
O O13 0.808467 0.245557 0.557150
O O14 0.358551 0.185743 0.587441
O O15 0.863515 0.605853 0.212327
O O16 0.429885 0.388262 0.004159
#
# Coordination Sequence:
#
# PCOD8006955 Si02
#       8
#     2   2   2   2   2   2   2   2
#     4  11  22  40  69  96 134 170 223 275 324 392
#     4  10  20  40  65  97 132 169 219 274 320 385
#     4  12  26  43  68 102 133 180 220 269 333 391
#     4  11  27  44  65  97 144 178 213 267 334 408
#     4  12  23  41  72 103 127 170 223 283 327 380
#     4  11  21  41  69 104 131 165 225 281 336 375
#     4  11  24  41  71 100 133 173 223 278 327 389
#     4  10  25  45  64 102 133 177 217 274 336 391
#
# _framework density 23.65775
#
# number of rings (size 3 to 8) (size 9 to 14) (size 15 to 20)
#    0.000    1.000    5.000    2.250    3.500    3.000 
#    0.000    0.000    0.000    0.000    0.000    0.000 
#    0.000    0.000    0.000    0.000    0.000    0.000 
#
# Total GULP energy -198444.606609 kJ/mol
# GULP energy per Si atom -12402.787913 kJ/mol
# Density = 2.360390 g / cm^3
# Si number density = 23.657750 Si / 1000 Ang^3
#
#
#
# Elastic Constant Matrix: (Units=GPa)
#
#
# Indices 1 2 3 4 5 6 
#
# 1 89.9646 18.5526 8.7366 13.9667 7.5131 -21.0702
# 2 18.5526 58.4918 31.9787 21.0262 6.5876 -13.4181
# 3 8.7366 31.9787 66.1467 16.1022 3.6742 -7.4045
# 4 13.9667 21.0262 16.1022 40.7636 -8.3603 3.5065
# 5 7.5131 6.5876 3.6742 -8.3603 27.3883 -7.8786
# 6 -21.0702 -13.4181 -7.4045 3.5065 -7.8786 30.1179
#
#
#
# Elastic Compliance Matrix: (Units=1/GPa)
#
#
# Indices 1 2 3 4 5 6 
#
# 1 0.014893 0.000079 0.001132 -0.007203 -0.003381 0.010687
# 2 0.000079 0.031155 -0.009812 -0.014719 -0.007444 0.011289
# 3 0.001132 -0.009812 0.020972 -0.004067 -0.001531 0.001650
# 4 -0.007203 -0.014719 -0.004067 0.040331 0.014489 -0.013502
# 5 -0.003381 -0.007444 -0.001531 0.014489 0.045018 0.004031
# 6 0.010687 0.011289 0.001650 -0.013502 0.004031 0.048741
#
#
# Mechanical properties :
#
#
# Convention : Reuss Voigt Hill
#
# Bulk Modulus (GPa) = 20.07307 37.01543 28.54425
# Shear Modulus (GPa) = 21.28409 30.00964 25.64686
#
# Velocity S-wave (km/s) = 3.00270 3.56545 3.29611
# Velocity P-wave (km/s) = 4.53043 5.71228 5.15533
#
# Compressibility (1/GPa) = 0.04981800
#
# Stress axis : x y z
#
# Youngs Moduli (GPa) = 67.14685 32.09739 47.68328
#
# Poissons Ratio (x) = -0.00253 -0.05400
# Poissons Ratio (y) = -0.00529 0.46787
# Poissons Ratio (z) = -0.07604 0.31494
#
# Static dielectric constant tensor:
#      x y z
#    x 4.441690 -0.091430 -0.142120 
#    y -0.091430 4.175020 0.276070 
#    z -0.142120 0.276070 4.215040 
# 
# 
# High freq. dielectric constant tensor:
#      x y z
#    x 1.953870 -0.005730 -0.006200 
#    y -0.005730 1.918080 0.019010 
#    z -0.006200 0.019010 1.930100 
# 
# From -- ./inp_files/158736.got.cif
#   From: 2010.06.25/outbox.cif.g09.slc.cpg/sg2_80_cif.got.tgz:158736.got - 2010.06.27 13:26:56.
