data_PCOD8006807
_publ_section_title
;
Structure prediction by ZEFSAII (Michael W. Deem and Ramdas Pophale) SiO2 
 PCOD8006807
Probable space group: P -1
;
_chemical_formula_sum "Si O2"
_cell_formula_units_Z 16
_cell_length_a 8.763186
_cell_length_b 12.167196
_cell_length_c 14.827758
_cell_angle_alpha 67.748061
_cell_angle_beta 99.389448
_cell_angle_gamma 148.237169
_cell_volume 728.182693
_symmetry_space_group_name_H-M "P -1"
_symmetry_group_IT_number 2
_symmetry_cell_setting 'triclinic'
loop_
_space_group_symop_operation_xyz
x,y,z
-x,-y,-z
loop_
_atom_site_type_symbol
_atom_site_label
_atom_site_fract_x
_atom_site_fract_y
_atom_site_fract_z
Si Si1 0.716683 0.853003 0.785177
Si Si2 0.338014 0.571388 0.492677
Si Si3 0.614286 0.633497 0.339120
Si Si4 0.923736 0.509284 0.241322
Si Si5 0.506391 0.458024 0.854746
Si Si6 0.242426 0.625324 0.061090
Si Si7 0.271121 0.750034 0.524663
Si Si8 0.157491 0.919437 0.101940
O O1 0.434350 0.718481 0.744821
O O2 0.701995 0.700485 0.830270
O O3 0.706058 0.895507 0.872046
O O4 0.029870 0.102545 0.691995
O O5 0.431702 0.610646 0.386058
O O6 0.457822 0.545610 0.575808
O O7 0.471264 0.783448 0.479707
O O8 0.970298 0.344503 0.534850
O O9 0.508366 0.568278 0.246350
O O10 0.934508 0.444374 0.355117
O O11 0.103465 0.558394 0.166042
O O12 0.073578 0.738845 0.197461
O O13 0.679096 0.461632 0.914182
O O14 0.154166 0.236314 0.925719
O O15 0.000000 0.500000 0.000000
O O16 0.564953 0.912083 0.995119
O O17 0.500000 0.000000 0.500000
#
# Coordination Sequence:
#
# PCOD8006807 Si02
#       8
#     2   2   2   2   2   2   2   2
#     4  10  20  40  64  92 121 171 212 258 313 376
#     4  10  22  39  61  93 125 161 217 261 315 381
#     4  10  21  41  64  89 125 168 213 264 313 376
#     4  11  23  42  66  92 132 169 215 258 325 378
#     4  10  23  41  66  91 127 167 217 252 323 381
#     4  12  24  44  63  99 131 166 215 268 316 378
#     4  11  23  40  64  95 130 166 207 263 325 377
#     4  10  22  44  65  89 128 178 210 263 313 378
#
# _framework density 21.972507
#
# number of rings (size 3 to 8) (size 9 to 14) (size 15 to 20)
#    0.000    1.500    1.250    4.500    0.000    3.500 
#   11.250    3.125    0.000    0.000    0.000    0.000 
#    0.000    0.000    0.000    0.000    0.000    0.000 
#
# Total GULP energy -198379.916453 kJ/mol
# GULP energy per Si atom -12398.744778 kJ/mol
# Density = 2.192250 g / cm^3
# Si number density = 21.972507 Si / 1000 Ang^3
#
#
#
# Elastic Constant Matrix: (Units=GPa)
#
#
# Indices 1 2 3 4 5 6 
#
# 1 139.1255 48.4604 39.5465 -4.4878 -1.9915 -11.1835
# 2 48.4604 102.5247 20.6372 -7.2551 2.4278 -24.9684
# 3 39.5465 20.6372 67.7138 -2.6485 -4.1346 -5.4932
# 4 -4.4878 -7.2551 -2.6485 26.7527 2.3208 2.2194
# 5 -1.9915 2.4278 -4.1346 2.3208 36.0047 3.6317
# 6 -11.1835 -24.9684 -5.4932 2.2194 3.6317 40.0279
#
#
#
# Elastic Compliance Matrix: (Units=1/GPa)
#
#
# Indices 1 2 3 4 5 6 
#
# 1 0.009785 -0.003770 -0.004565 0.000165 0.000289 -0.000279
# 2 -0.003770 0.013882 -0.001460 0.002562 -0.002230 0.007466
# 3 -0.004565 -0.001460 0.018018 0.000452 0.001877 0.000092
# 4 0.000165 0.002562 0.000452 0.038385 -0.002567 -0.000189
# 5 0.000289 -0.002230 0.001877 -0.002567 0.028676 -0.003512
# 6 -0.000279 0.007466 0.000092 -0.000189 -0.003512 0.029903
#
#
# Mechanical properties :
#
#
# Convention : Reuss Voigt Hill
#
# Bulk Modulus (GPa) = 45.25294 58.51692 51.88493
# Shear Modulus (GPa) = 30.19279 33.93838 32.06559
#
# Velocity S-wave (km/s) = 3.71093 3.93438 3.82429
# Velocity P-wave (km/s) = 6.24510 6.87960 6.57001
#
# Compressibility (1/GPa) = 0.02209801
#
# Stress axis : x y z
#
# Youngs Moduli (GPa) = 102.19443 72.03790 55.49893
#
# Poissons Ratio (x) = 0.27155 0.25333
# Poissons Ratio (y) = 0.38523 0.08100
# Poissons Ratio (z) = 0.46647 0.10514
#
# Static dielectric constant tensor:
#      x y z
#    x 4.227220 -0.079300 -0.174070 
#    y -0.079300 3.896800 -0.068140 
#    z -0.174070 -0.068140 3.929210 
# 
# 
# High freq. dielectric constant tensor:
#      x y z
#    x 1.882410 -0.006650 -0.004680 
#    y -0.006650 1.859660 0.000420 
#    z -0.004680 0.000420 1.857150 
# 
# From -- ./inp_files/49413.got.cif
#   From: 2010.06.25/outbox.cif.g09.slc.cpg/sg2_25_cif.got.tgz:49413.got - 2010.06.27 13:26:56.
