data_PCOD8006494
_publ_section_title
;
Structure prediction by ZEFSAII (Michael W. Deem and Ramdas Pophale) SiO2 
 PCOD8006494
Probable space group: P -1
;
_chemical_formula_sum "Si O2"
_cell_formula_units_Z 16
_cell_length_a 18.075838
_cell_length_b 31.014332
_cell_length_c 24.765665
_cell_angle_alpha 10.119395
_cell_angle_beta 161.137363
_cell_angle_gamma 159.999084
_cell_volume 780.575696
_symmetry_space_group_name_H-M "P -1"
_symmetry_group_IT_number 2
_symmetry_cell_setting 'triclinic'
loop_
_space_group_symop_operation_xyz
x,y,z
-x,-y,-z
loop_
_atom_site_type_symbol
_atom_site_label
_atom_site_fract_x
_atom_site_fract_y
_atom_site_fract_z
Si Si1 0.143314 0.764041 0.184836
Si Si2 0.930058 0.779890 0.183072
Si Si3 0.670419 0.801179 0.874261
Si Si4 0.083871 0.828985 0.814322
Si Si5 0.390581 0.751093 0.477724
Si Si6 0.816166 0.108150 0.358389
Si Si7 0.097315 0.445468 0.216102
Si Si8 0.431076 0.090253 0.899366
O O1 0.135931 0.478731 0.512182
O O2 0.356894 0.810786 0.317648
O O3 0.897665 0.833153 0.952434
O O4 0.215997 0.917941 0.991191
O O5 0.135851 0.729524 0.349765
O O6 0.734973 0.848384 0.923485
O O7 0.000000 0.000000 0.000000
O O8 0.500000 0.000000 0.500000
O O9 0.531935 0.518767 0.123784
O O10 0.019706 0.545903 0.096830
O O11 0.356336 0.886772 0.941038
O O12 0.000000 0.000000 0.500000
O O13 0.954750 0.881805 0.715498
O O14 0.551506 0.978414 0.337954
O O15 0.902600 0.224426 0.332447
O O16 0.859407 0.326682 0.075833
O O17 0.345167 0.353948 0.505953
O O18 0.500000 0.000000 0.000000
#
# Coordination Sequence:
#
# PCOD8006494 Si02
#       8
#     2   2   2   2   2   2   2   2
#     4   9  20  39  62  83 124 165 198 248 312 369
#     4   9  19  40  60  90 117 155 201 245 311 381
#     4   9  19  40  65  91 121 151 203 257 308 372
#     4  10  21  39  61  82 120 161 205 251 305 362
#     4   9  19  39  64  85 122 164 196 249 313 376
#     4  10  20  40  58  88 122 158 210 252 302 366
#     4  10  22  38  58  84 124 161 207 256 299 361
#     4  12  23  40  60  91 125 165 214 258 303 363
#
# _framework density 20.497692000000001
#
# number of rings (size 3 to 8) (size 9 to 14) (size 15 to 20)
#    0.000    2.250    1.250    3.375    0.000    2.000 
#    9.000    3.750    0.000    0.000    0.000    0.000 
#    0.000    0.000    0.000    0.000    0.000    0.000 
#
# Total GULP energy -198211.895899 kJ/mol
# GULP energy per Si atom -12388.243494 kJ/mol
# Density = 2.045104 g / cm^3
# Si number density = 20.497692 Si / 1000 Ang^3
#
#
#
# Elastic Constant Matrix: (Units=GPa)
#
#
# Indices 1 2 3 4 5 6 
#
# 1 86.1736 30.1471 42.1012 -12.6593 8.8762 -10.4158
# 2 30.1471 127.6270 49.8248 -8.2869 5.9853 -20.9640
# 3 42.1012 49.8248 115.3114 9.2261 23.4730 -16.9168
# 4 -12.6593 -8.2869 9.2261 36.2875 -4.5234 8.7661
# 5 8.8762 5.9853 23.4730 -4.5234 26.4515 -9.9739
# 6 -10.4158 -20.9640 -16.9168 8.7661 -9.9739 30.2032
#
#
#
# Elastic Compliance Matrix: (Units=1/GPa)
#
#
# Indices 1 2 3 4 5 6 
#
# 1 0.015891 -0.000926 -0.006355 0.007219 0.001648 -0.000273
# 2 -0.000926 0.010670 -0.004607 0.002574 0.004389 0.005208
# 3 -0.006355 -0.004607 0.016644 -0.009678 -0.012231 0.002703
# 4 0.007219 0.002574 -0.009678 0.036327 0.008439 -0.008901
# 5 0.001648 0.004389 -0.012231 0.008439 0.053013 0.011821
# 6 -0.000273 0.005208 0.002703 -0.008901 0.011821 0.044631
#
#
# Mechanical properties :
#
#
# Convention : Reuss Voigt Hill
#
# Bulk Modulus (GPa) = 51.47364 63.69537 57.58451
# Shear Modulus (GPa) = 24.10473 32.39101 28.24787
#
# Velocity S-wave (km/s) = 3.43297 3.97952 3.71630
# Velocity P-wave (km/s) = 6.39376 7.22892 6.82413
#
# Compressibility (1/GPa) = 0.01942742
#
# Stress axis : x y z
#
# Youngs Moduli (GPa) = 62.92827 93.72456 60.08233
#
# Poissons Ratio (x) = 0.08680 0.38182
# Poissons Ratio (y) = 0.05828 0.27682
# Poissons Ratio (z) = 0.39991 0.43183
#
# Static dielectric constant tensor:
#      x y z
#    x 3.693910 -0.169740 0.256160 
#    y -0.169740 3.713960 -0.032320 
#    z 0.256160 -0.032320 3.934440 
# 
# 
# High freq. dielectric constant tensor:
#      x y z
#    x 1.784200 -0.010690 0.012460 
#    y -0.010690 1.800110 0.001230 
#    z 0.012460 0.001230 1.807140 
# 
# From -- ./inp_files/613350.got.cif
#   From: 2010.06.25/outbox.cif.g09.slc.cpg/sg2_307_cif.got.tgz:613350.got - 2010.06.27 13:26:56.
