data_PCOD8006589
_publ_section_title
;
Structure prediction by ZEFSAII (Michael W. Deem and Ramdas Pophale) SiO2 
 PCOD8006589
Probable space group: P -1
;
_chemical_formula_sum "Si O2"
_cell_formula_units_Z 16
_cell_length_a 16.751390
_cell_length_b 7.665828
_cell_length_c 10.932739
_cell_angle_alpha 107.926433
_cell_angle_beta 44.126094
_cell_angle_gamma 75.347828
_cell_volume 649.836603
_symmetry_space_group_name_H-M "P -1"
_symmetry_group_IT_number 2
_symmetry_cell_setting 'triclinic'
loop_
_space_group_symop_operation_xyz
x,y,z
-x,-y,-z
loop_
_atom_site_type_symbol
_atom_site_label
_atom_site_fract_x
_atom_site_fract_y
_atom_site_fract_z
Si Si1 0.818335 0.028278 0.386572
Si Si2 0.359974 0.466579 0.612196
Si Si3 0.040897 0.660452 0.514902
Si Si4 0.938262 0.937601 0.932838
Si Si5 0.310899 0.197840 0.243782
Si Si6 0.521801 0.524952 0.271454
Si Si7 0.196747 0.923355 0.301793
Si Si8 0.137943 0.438096 0.739035
O O1 0.906524 0.723561 0.215531
O O2 0.924436 0.057739 0.203390
O O3 0.633716 0.227135 0.583234
O O4 0.814581 0.106230 0.548344
O O5 0.489766 0.361148 0.336171
O O6 0.441517 0.372624 0.636776
O O7 0.258263 0.394090 0.697067
O O8 0.242253 0.777465 0.791558
O O9 0.935276 0.844681 0.785924
O O10 0.236309 0.434315 0.281287
O O11 0.000000 0.500000 0.500000
O O12 0.991457 0.855254 0.500715
O O13 0.972617 0.746421 0.960176
O O14 0.239378 0.331190 0.481100
O O15 0.265879 0.044898 0.224226
O O16 0.500000 0.000000 0.000000
O O17 0.677307 0.350028 0.969945
#
# Coordination Sequence:
#
# PCOD8006589 Si02
#       8
#     2   2   2   2   2   2   2   2
#     4  11  25  41  69  98 131 172 224 280 329 388
#     4  11  23  42  70  93 133 181 218 271 329 397
#     4   9  19  37  62  92 132 167 212 268 321 393
#     4  11  22  44  68  96 130 175 224 268 331 394
#     4   9  18  33  62  95 128 164 213 270 319 386
#     4  11  23  42  66  97 131 178 221 270 336 388
#     4  10  20  40  61  92 134 168 216 271 329 392
#     4  10  22  41  65  96 130 172 225 265 329 392
#
# _framework density 24.621573999999999
#
# number of rings (size 3 to 8) (size 9 to 14) (size 15 to 20)
#    0.000    1.750    2.500    2.250    1.750    1.500 
#    0.000    0.000    0.000    0.000    0.000    0.000 
#    0.000    0.000    0.000    0.000    0.000    0.000 
#
# Total GULP energy -198291.374032 kJ/mol
# GULP energy per Si atom -12393.210877 kJ/mol
# Density = 2.456553 g / cm^3
# Si number density = 24.621574 Si / 1000 Ang^3
#
#
#
# Elastic Constant Matrix: (Units=GPa)
#
#
# Indices 1 2 3 4 5 6 
#
# 1 100.8343 45.0635 11.6067 5.6530 6.3500 -33.9284
# 2 45.0635 129.5484 55.4657 -2.8444 -9.5518 -21.5002
# 3 11.6067 55.4657 77.7308 13.6784 -7.5191 -13.1567
# 4 5.6530 -2.8444 13.6784 32.4384 -3.4060 -6.4317
# 5 6.3500 -9.5518 -7.5191 -3.4060 40.0895 13.9531
# 6 -33.9284 -21.5002 -13.1567 -6.4317 13.9531 45.5052
#
#
#
# Elastic Compliance Matrix: (Units=1/GPa)
#
#
# Indices 1 2 3 4 5 6 
#
# 1 0.017450 -0.006224 0.003880 -0.003474 -0.008439 0.013288
# 2 -0.006224 0.014694 -0.010604 0.007040 0.003376 -0.000804
# 3 0.003880 -0.010604 0.022118 -0.010419 -0.000956 0.003098
# 4 -0.003474 0.007040 -0.010419 0.037152 0.002681 0.002153
# 5 -0.008439 0.003376 -0.000956 0.002681 0.032166 -0.014458
# 6 0.013288 -0.000804 0.003098 0.002153 -0.014458 0.037136
#
#
# Mechanical properties :
#
#
# Convention : Reuss Voigt Hill
#
# Bulk Modulus (GPa) = 35.25541 59.15392 47.20467
# Shear Modulus (GPa) = 25.50143 36.67179 31.08661
#
# Velocity S-wave (km/s) = 3.22178 3.86348 3.55713
# Velocity P-wave (km/s) = 5.30940 6.63170 6.00705
#
# Compressibility (1/GPa) = 0.02836444
#
# Stress axis : x y z
#
# Youngs Moduli (GPa) = 57.30775 68.05277 45.21283
#
# Poissons Ratio (x) = 0.42358 -0.17542
# Poissons Ratio (y) = 0.35670 0.47945
# Poissons Ratio (z) = -0.22235 0.72165
#
# Static dielectric constant tensor:
#      x y z
#    x 5.352200 -0.529780 0.307990 
#    y -0.529780 4.762440 0.394320 
#    z 0.307990 0.394320 5.223290 
# 
# 
# High freq. dielectric constant tensor:
#      x y z
#    x 2.005680 -0.014090 0.013810 
#    y -0.014090 1.972980 0.003620 
#    z 0.013810 0.003620 1.984060 
# 
# From -- ./inp_files/462292.got.cif
#   From: 2010.06.25/outbox.cif.g09.slc.cpg/sg2_232_cif.got.tgz:462292.got - 2010.06.27 13:26:56.
