data_PCOD8006728
_publ_section_title
;
Structure prediction by ZEFSAII (Michael W. Deem and Ramdas Pophale) SiO2 
 PCOD8006728
Probable space group: P -1
;
_chemical_formula_sum "Si O2"
_cell_formula_units_Z 14
_cell_length_a 11.311625
_cell_length_b 9.057831
_cell_length_c 12.219022
_cell_angle_alpha 57.951513
_cell_angle_beta 141.285292
_cell_angle_gamma 128.753721
_cell_volume 608.343369
_symmetry_space_group_name_H-M "P -1"
_symmetry_group_IT_number 2
_symmetry_cell_setting 'triclinic'
loop_
_space_group_symop_operation_xyz
x,y,z
-x,-y,-z
loop_
_atom_site_type_symbol
_atom_site_label
_atom_site_fract_x
_atom_site_fract_y
_atom_site_fract_z
Si Si1 0.223371 0.507620 0.356552
Si Si2 0.255223 0.930172 0.855682
Si Si3 0.058649 0.303286 0.917160
Si Si4 0.280661 0.139383 0.591636
Si Si5 0.708072 0.396753 0.880672
Si Si6 0.594127 0.876400 0.543703
Si Si7 0.058240 0.003356 0.886828
O O1 0.171704 0.282618 0.422608
O O2 0.201609 0.541745 0.198659
O O3 0.446683 0.649208 0.512758
O O4 0.055208 0.570394 0.267411
O O5 0.158827 0.963713 0.656300
O O6 0.167399 0.713217 0.921645
O O7 0.178401 0.042067 0.844756
O O8 0.500000 0.000000 0.000000
O O9 0.137397 0.214928 0.909495
O O10 0.255050 0.423008 0.086938
O O11 0.889514 0.134044 0.936401
O O12 0.468433 0.268359 0.753088
O O13 0.352190 0.052048 0.572415
O O14 0.500000 0.000000 0.500000
O O15 0.809842 0.904802 0.741175
#
# Coordination Sequence:
#
# PCOD8006728 Si02
#       7
#     2   2   2   2   2   2   2
#     4  11  20  39  62  96 121 160 207 259 301 361
#     4  10  23  43  63  88 125 166 208 247 304 375
#     4  11  22  36  66  95 122 154 213 262 302 362
#     4  10  23  39  64  89 126 165 204 252 307 364
#     4  10  20  40  63  92 118 163 207 254 300 364
#     4  11  22  40  62  94 126 158 204 257 312 355
#     4  11  23  40  62  93 125 164 202 255 314 358
#
# _framework density 23.01332
#
# number of rings (size 3 to 8) (size 9 to 14) (size 15 to 20)
#    0.000    1.429    2.857    3.857    2.000    0.571 
#    0.000    5.000    0.000    0.000    0.000    0.000 
#    0.000    0.000    0.000    0.000    0.000    0.000 
#
# Total GULP energy -173436.368833 kJ/mol
# GULP energy per Si atom -12388.312060 kJ/mol
# Density = 2.296094 g / cm^3
# Si number density = 23.013320 Si / 1000 Ang^3
#
#
#
# Elastic Constant Matrix: (Units=GPa)
#
#
# Indices 1 2 3 4 5 6 
#
# 1 132.7835 54.8452 38.8572 -17.4216 -16.9577 -28.2666
# 2 54.8452 119.8401 45.7972 -1.1012 -17.4977 -23.7258
# 3 38.8572 45.7972 105.6086 -25.0246 -11.7171 -9.1468
# 4 -17.4216 -1.1012 -25.0246 44.2085 2.1120 -8.7227
# 5 -16.9577 -17.4977 -11.7171 2.1120 37.8344 -0.7597
# 6 -28.2666 -23.7258 -9.1468 -8.7227 -0.7597 36.2179
#
#
#
# Elastic Compliance Matrix: (Units=1/GPa)
#
#
# Indices 1 2 3 4 5 6 
#
# 1 0.012045 -0.002950 -0.000577 0.005911 0.003703 0.008824
# 2 -0.002950 0.012666 -0.004250 -0.002554 0.003450 0.004379
# 3 -0.000577 -0.004250 0.013737 0.007788 0.001638 0.002145
# 4 0.005911 -0.002554 0.007788 0.031664 0.002365 0.012582
# 5 0.003703 0.003450 0.001638 0.002365 0.030197 0.006767
# 6 0.008824 0.004379 0.002145 0.012582 0.006767 0.041080
#
#
# Mechanical properties :
#
#
# Convention : Reuss Voigt Hill
#
# Bulk Modulus (GPa) = 43.68012 70.80349 57.24180
# Shear Modulus (GPa) = 30.38127 38.23433 34.30780
#
# Velocity S-wave (km/s) = 3.63734 4.08045 3.86525
# Velocity P-wave (km/s) = 6.05491 7.28239 6.69683
#
# Compressibility (1/GPa) = 0.02289371
#
# Stress axis : x y z
#
# Youngs Moduli (GPa) = 83.02066 78.95165 72.79484
#
# Poissons Ratio (x) = 0.23292 0.04199
# Poissons Ratio (y) = 0.24493 0.30940
# Poissons Ratio (z) = 0.04789 0.33557
#
# Static dielectric constant tensor:
#      x y z
#    x 3.961370 -0.062780 -0.188750 
#    y -0.062780 4.461360 -0.209120 
#    z -0.188750 -0.209120 4.591800 
# 
# 
# High freq. dielectric constant tensor:
#      x y z
#    x 1.883320 -0.007360 0.007670 
#    y -0.007360 1.909980 0.003690 
#    z 0.007670 0.003690 1.929220 
# 
# From -- ./inp_files/190210.got.cif
#   From: 2010.06.25/outbox.cif.g09.slc.cpg/sg2_96_cif.got.tgz:190210.got - 2010.06.27 13:26:56.
