data_PCOD8006046
_publ_section_title
;
Structure prediction by ZEFSAII (Michael W. Deem and Ramdas Pophale) SiO2 
 PCOD8006046
Probable space group: P -1
;
_chemical_formula_sum "Si O2"
_cell_formula_units_Z 16
_cell_length_a 5.056569
_cell_length_b 24.939478
_cell_length_c 5.960722
_cell_angle_alpha 92.909746
_cell_angle_beta 84.849554
_cell_angle_gamma 62.902148
_cell_volume 662.909647
_symmetry_space_group_name_H-M "P -1"
_symmetry_group_IT_number 2
_symmetry_cell_setting 'triclinic'
loop_
_space_group_symop_operation_xyz
x,y,z
-x,-y,-z
loop_
_atom_site_type_symbol
_atom_site_label
_atom_site_fract_x
_atom_site_fract_y
_atom_site_fract_z
Si Si1 0.764378 0.629012 0.852837
Si Si2 0.723176 0.903282 0.850730
Si Si3 0.138363 0.681067 0.094466
Si Si4 0.204844 0.596358 0.438165
Si Si5 0.144527 0.878597 0.431645
Si Si6 0.739634 0.521410 0.701635
Si Si7 0.787973 0.821780 0.198216
Si Si8 0.190510 0.012825 0.807841
O O1 0.801161 0.561024 0.897492
O O2 0.872081 0.627329 0.585329
O O3 0.410998 0.675742 0.916205
O O4 0.952453 0.648478 0.006514
O O5 0.041222 0.878390 0.695645
O O6 0.458348 0.945892 0.704248
O O7 0.692290 0.847337 0.955155
O O8 0.681399 0.945736 0.077255
O O9 0.259905 0.647278 0.316606
O O10 0.915855 0.750523 0.166633
O O11 0.427318 0.568932 0.624227
O O12 0.264106 0.541346 0.242720
O O13 0.502928 0.848204 0.391497
O O14 0.037610 0.839234 0.276228
O O15 0.004267 0.949333 0.381488
O O16 0.000000 0.500000 0.500000
O O17 0.000000 0.000000 0.000000
#
# Coordination Sequence:
#
# PCOD8006046 Si02
#       8
#     2   2   2   2   2   2   2   2
#     4  11  24  44  66 100 126 172 220 266 330 394
#     4  10  23  40  65  94 133 169 207 271 322 379
#     4  12  27  42  70  93 130 178 224 267 327 384
#     4  10  23  44  66  98 137 167 210 278 325 396
#     4  11  24  42  68  92 128 176 214 259 336 369
#     4   9  20  43  67  98 137 161 212 275 328 394
#     4  11  26  45  60  96 128 167 229 267 302 389
#     4  10  20  39  64  99 132 160 213 270 314 391
#
# _framework density 24.136021
#
# number of rings (size 3 to 8) (size 9 to 14) (size 15 to 20)
#    0.000    1.500    2.500    1.125    5.250    3.500 
#    0.000    0.000    0.000    0.000    0.000    0.000 
#    0.000    0.000    0.000    0.000    0.000    0.000 
#
# Total GULP energy -198272.819168 kJ/mol
# GULP energy per Si atom -12392.051198 kJ/mol
# Density = 2.408109 g / cm^3
# Si number density = 24.136021 Si / 1000 Ang^3
#
#
#
# Elastic Constant Matrix: (Units=GPa)
#
#
# Indices 1 2 3 4 5 6 
#
# 1 95.5983 29.7938 9.8511 4.6606 -23.0165 -5.7933
# 2 29.7938 159.9665 46.9134 -7.6567 -16.2009 -4.1810
# 3 9.8511 46.9134 63.8625 3.5098 -27.6746 -3.1185
# 4 4.6606 -7.6567 3.5098 29.0643 -0.7079 -7.3848
# 5 -23.0165 -16.2009 -27.6746 -0.7079 39.7978 11.5485
# 6 -5.7933 -4.1810 -3.1185 -7.3848 11.5485 34.4416
#
#
#
# Elastic Compliance Matrix: (Units=1/GPa)
#
#
# Indices 1 2 3 4 5 6 
#
# 1 0.013504 -0.003110 0.004823 -0.003816 0.010403 -0.001976
# 2 -0.003110 0.009059 -0.008206 0.004337 -0.004389 0.002235
# 3 0.004823 -0.008206 0.030898 -0.007811 0.022736 -0.006686
# 4 -0.003816 0.004337 -0.007811 0.039548 -0.008188 0.010403
# 5 0.010403 -0.004389 0.022736 -0.008188 0.049385 -0.015039
# 6 -0.001976 0.002235 -0.006686 0.010403 -0.015039 0.035642
#
#
# Mechanical properties :
#
#
# Convention : Reuss Voigt Hill
#
# Bulk Modulus (GPa) = 24.70704 54.72713 39.71709
# Shear Modulus (GPa) = 24.44841 36.18534 30.31687
#
# Velocity S-wave (km/s) = 3.18613 3.87618 3.54797
# Velocity P-wave (km/s) = 4.87791 6.53887 5.76848
#
# Compressibility (1/GPa) = 0.04047429
#
# Stress axis : x y z
#
# Youngs Moduli (GPa) = 74.05398 110.39209 32.36467
#
# Poissons Ratio (x) = 0.34334 -0.15610
# Poissons Ratio (y) = 0.23032 0.26558
# Poissons Ratio (z) = -0.35716 0.90585
#
# Static dielectric constant tensor:
#      x y z
#    x 5.094210 0.111760 -0.197430 
#    y 0.111760 4.816750 0.236100 
#    z -0.197430 0.236100 4.099960 
# 
# 
# High freq. dielectric constant tensor:
#      x y z
#    x 1.966450 0.005930 -0.015890 
#    y 0.005930 1.952380 0.013760 
#    z -0.015890 0.013760 1.936820 
# 
# From -- ./inp_files/13995.got.cif
#   From: 2010.06.25/outbox.cif.g09.slc.cpg/sg2_7_cif.got.tgz:13995.got - 2010.06.27 13:26:56.
