data_PCOD8006880
_publ_section_title
;
Structure prediction by ZEFSAII (Michael W. Deem and Ramdas Pophale) SiO2 
 PCOD8006880
Probable space group: P -1
;
_chemical_formula_sum "Si O2"
_cell_formula_units_Z 10
_cell_length_a 9.300719
_cell_length_b 15.741300
_cell_length_c 7.322457
_cell_angle_alpha 47.128350
_cell_angle_beta 129.145572
_cell_angle_gamma 152.017810
_cell_volume 367.189163
_symmetry_space_group_name_H-M "P -1"
_symmetry_group_IT_number 2
_symmetry_cell_setting 'triclinic'
loop_
_space_group_symop_operation_xyz
x,y,z
-x,-y,-z
loop_
_atom_site_type_symbol
_atom_site_label
_atom_site_fract_x
_atom_site_fract_y
_atom_site_fract_z
Si Si1 0.697799 0.930285 0.374274
Si Si2 0.068884 0.716598 0.066350
Si Si3 0.384776 0.701930 0.816743
Si Si4 0.303456 0.241026 0.678024
Si Si5 0.085546 0.338171 0.563250
O O1 0.373140 0.788760 0.215560
O O2 0.627065 0.846852 0.639930
O O3 0.862631 0.915244 0.392000
O O4 0.881898 0.143852 0.220064
O O5 0.796874 0.507747 0.062743
O O6 0.983192 0.715442 0.201713
O O7 0.433517 0.218100 0.966412
O O8 0.150514 0.690515 0.675441
O O9 0.053996 0.200211 0.634224
O O10 0.567471 0.445419 0.491624
#
# Coordination Sequence:
#
# PCOD8006880 Si02
#       5
#     2   2   2   2   2
#     4  10  21  41  62  93 127 160 209 258 303 373
#     4  10  20  40  65  88 129 164 200 262 310 358
#     4  11  21  43  67  88 123 170 204 252 314 366
#     4  11  22  39  67  93 122 165 210 251 310 373
#     4  10  21  40  63  94 125 162 204 261 306 365
#
# _framework density 27.233920999999999
#
# number of rings (size 3 to 8) (size 9 to 14) (size 15 to 20)
#    0.000    1.600    4.000    1.800    0.000    1.600 
#    3.600    4.000    0.000    2.400    0.000    0.000 
#    0.000    0.000    0.000    0.000    0.000    0.000 
#
# Total GULP energy -124115.800671 kJ/mol
# GULP energy per Si atom -12411.580067 kJ/mol
# Density = 2.717193 g / cm^3
# Si number density = 27.233921 Si / 1000 Ang^3
#
#
#
# Elastic Constant Matrix: (Units=GPa)
#
#
# Indices 1 2 3 4 5 6 
#
# 1 175.7938 61.4513 36.0986 4.2982 -7.6575 -3.3979
# 2 61.4513 124.9711 62.6981 11.8193 -9.6116 -20.9192
# 3 36.0986 62.6981 132.2510 -15.2826 -18.6152 -17.8609
# 4 4.2982 11.8193 -15.2826 36.1390 5.0680 -12.5091
# 5 -7.6575 -9.6116 -18.6152 5.0680 26.5313 7.2533
# 6 -3.3979 -20.9192 -17.8609 -12.5091 7.2533 43.5888
#
#
#
# Elastic Compliance Matrix: (Units=1/GPa)
#
#
# Indices 1 2 3 4 5 6 
#
# 1 0.006976 -0.003319 -0.000475 -0.000645 0.001039 -0.001602
# 2 -0.003319 0.013483 -0.005820 -0.005802 0.000378 0.002099
# 3 -0.000475 -0.005820 0.012458 0.008047 0.003882 0.003938
# 4 -0.000645 -0.005802 0.008047 0.038516 -0.007488 0.012762
# 5 0.001039 0.000378 0.003882 -0.007488 0.044382 -0.007682
# 6 -0.001602 0.002099 0.003938 0.012762 -0.007682 0.030379
#
#
# Mechanical properties :
#
#
# Convention : Reuss Voigt Hill
#
# Bulk Modulus (GPa) = 73.05208 83.72353 78.38780
# Shear Modulus (GPa) = 29.41412 39.43636 34.42524
#
# Velocity S-wave (km/s) = 3.28998 3.80947 3.55922
# Velocity P-wave (km/s) = 6.42761 7.08227 6.76286
#
# Compressibility (1/GPa) = 0.01368886
#
# Stress axis : x y z
#
# Youngs Moduli (GPa) = 143.33938 74.16718 80.26678
#
# Poissons Ratio (x) = 0.24618 0.03816
# Poissons Ratio (y) = 0.47577 0.46715
# Poissons Ratio (z) = 0.06814 0.43165
#
# Static dielectric constant tensor:
#      x y z
#    x 5.447560 0.288740 0.076210 
#    y 0.288740 4.948460 0.002040 
#    z 0.076210 0.002040 4.920750 
# 
# 
# High freq. dielectric constant tensor:
#      x y z
#    x 2.122480 0.009260 -0.001780 
#    y 0.009260 2.117590 0.011250 
#    z -0.001780 0.011250 2.109360 
# 
# From -- ./inp_files/148340.got.cif
#   From: 2010.06.25/outbox.cif.g09.slc.cpg/sg2_75_cif.got.tgz:148340.got - 2010.06.27 13:26:56.
