data_PCOD8006176
_publ_section_title
;
Structure prediction by ZEFSAII (Michael W. Deem and Ramdas Pophale) SiO2 
 PCOD8006176
Probable space group: P -1
;
_chemical_formula_sum "Si O2"
_cell_formula_units_Z 14
_cell_length_a 6.977307
_cell_length_b 9.454412
_cell_length_c 9.993994
_cell_angle_alpha 86.693404
_cell_angle_beta 109.367337
_cell_angle_gamma 115.432166
_cell_volume 558.904187
_symmetry_space_group_name_H-M "P -1"
_symmetry_group_IT_number 2
_symmetry_cell_setting 'triclinic'
loop_
_space_group_symop_operation_xyz
x,y,z
-x,-y,-z
loop_
_atom_site_type_symbol
_atom_site_label
_atom_site_fract_x
_atom_site_fract_y
_atom_site_fract_z
Si Si1 0.304148 0.908027 0.799456
Si Si2 0.680402 0.544797 0.801421
Si Si3 0.843663 0.281749 0.979673
Si Si4 0.370578 0.213613 0.677663
Si Si5 0.526598 0.710790 0.946123
Si Si6 0.826955 0.839113 0.646109
Si Si7 0.024986 0.157365 0.811029
O O1 0.445050 0.094009 0.787319
O O2 0.231297 0.881468 0.942838
O O3 0.215899 0.172296 0.963682
O O4 0.074819 0.852618 0.662542
O O5 0.584850 0.381064 0.708747
O O6 0.518989 0.553526 0.884380
O O7 0.681887 0.673777 0.690020
O O8 0.933056 0.582205 0.907780
O O9 0.639686 0.338382 0.955279
O O10 0.886088 0.248049 0.836860
O O11 0.297593 0.145029 0.516668
O O12 0.161954 0.232412 0.701328
O O13 0.439111 0.802549 0.812759
O O14 0.853896 0.977637 0.748941
#
# Coordination Sequence:
#
# PCOD8006176 Si02
#       7
#     2   2   2   2   2   2   2
#     4   8  18  38  63  88 120 147 206 247 290 345
#     4  10  21  41  64  85 122 162 195 240 317 349
#     4   8  19  39  65  90 118 155 197 243 304 362
#     4  11  22  37  63  89 121 164 197 248 289 353
#     4   9  20  40  67  92 115 156 198 252 299 361
#     4  10  21  39  62  84 121 166 203 233 297 363
#     4  10  20  39  66  89 119 159 199 245 303 350
#
# _framework density 25.049018
#
# number of rings (size 3 to 8) (size 9 to 14) (size 15 to 20)
#    0.857    1.714    0.000    2.143    0.000   13.714 
#    5.143    4.286   12.571    0.857    0.000    0.000 
#    0.000    0.000    0.000    0.000    0.000    0.000 
#
# Total GULP energy -173474.617895 kJ/mol
# GULP energy per Si atom -12391.044135 kJ/mol
# Density = 2.499201 g / cm^3
# Si number density = 25.049018 Si / 1000 Ang^3
#
#
#
# Elastic Constant Matrix: (Units=GPa)
#
#
# Indices 1 2 3 4 5 6 
#
# 1 135.7154 30.4786 40.7393 12.7644 -19.6415 -17.0725
# 2 30.4786 92.2818 26.1384 22.8599 -1.5715 9.1794
# 3 40.7393 26.1384 111.3016 16.4982 8.2997 -9.7714
# 4 12.7644 22.8599 16.4982 37.1055 0.3715 -7.0464
# 5 -19.6415 -1.5715 8.2997 0.3715 21.6392 -6.4709
# 6 -17.0725 9.1794 -9.7714 -7.0464 -6.4709 24.5568
#
#
#
# Elastic Compliance Matrix: (Units=1/GPa)
#
#
# Indices 1 2 3 4 5 6 
#
# 1 0.014583 -0.005721 -0.004501 0.003469 0.019454 0.016608
# 2 -0.005721 0.017295 -0.001126 -0.011191 -0.008174 -0.016256
# 3 -0.004501 -0.001126 0.011938 -0.003216 -0.009071 -0.001271
# 4 0.003469 -0.011191 -0.003216 0.037469 0.008392 0.018278
# 5 0.019454 -0.008174 -0.009071 0.008392 0.077302 0.035749
# 6 0.016608 -0.016256 -0.001271 0.018278 0.035749 0.072504
#
#
# Mechanical properties :
#
#
# Convention : Reuss Voigt Hill
#
# Bulk Modulus (GPa) = 47.35032 59.33460 53.34246
# Shear Modulus (GPa) = 19.16976 32.78980 25.97978
#
# Velocity S-wave (km/s) = 2.76939 3.62197 3.22399
# Velocity P-wave (km/s) = 5.40094 6.42109 5.93298
#
# Compressibility (1/GPa) = 0.02111918
#
# Stress axis : x y z
#
# Youngs Moduli (GPa) = 68.57389 57.81969 83.76551
#
# Poissons Ratio (x) = 0.33081 0.37702
# Poissons Ratio (y) = 0.39234 0.09433
# Poissons Ratio (z) = 0.30864 0.06511
#
# Static dielectric constant tensor:
#      x y z
#    x 4.650780 0.112350 -0.023030 
#    y 0.112350 4.598350 -0.126140 
#    z -0.023030 -0.126140 4.324530 
# 
# 
# High freq. dielectric constant tensor:
#      x y z
#    x 1.996550 0.007180 0.004830 
#    y 0.007180 2.017620 -0.001850 
#    z 0.004830 -0.001850 1.966810 
# 
# From -- ./inp_files/188556.got.cif
#   From: 2010.06.25/outbox.cif.g09.slc.cpg/sg2_95_cif.got.tgz:188556.got - 2010.06.27 13:26:56.
