data_PCOD8006672
_publ_section_title
;
Structure prediction by ZEFSAII (Michael W. Deem and Ramdas Pophale) SiO2 
 PCOD8006672
Probable space group: P -1
;
_chemical_formula_sum "Si O2"
_cell_formula_units_Z 16
_cell_length_a 9.323563
_cell_length_b 8.680156
_cell_length_c 28.559516
_cell_angle_alpha 136.479197
_cell_angle_beta 27.929647
_cell_angle_gamma 130.476520
_cell_volume 745.235606
_symmetry_space_group_name_H-M "P -1"
_symmetry_group_IT_number 2
_symmetry_cell_setting 'triclinic'
loop_
_space_group_symop_operation_xyz
x,y,z
-x,-y,-z
loop_
_atom_site_type_symbol
_atom_site_label
_atom_site_fract_x
_atom_site_fract_y
_atom_site_fract_z
Si Si1 0.983928 0.491693 0.557943
Si Si2 0.714863 0.152511 0.624260
Si Si3 0.602482 0.274127 0.348763
Si Si4 0.241651 0.443093 0.233604
Si Si5 0.216617 0.663392 0.117244
Si Si6 0.633450 0.859675 0.785335
Si Si7 0.141674 0.718550 0.825894
Si Si8 0.471776 0.226487 0.032104
O O1 0.298607 0.418172 0.475431
O O2 0.000000 0.500000 0.500000
O O3 0.708695 0.320547 0.618071
O O4 0.904111 0.738902 0.652486
O O5 0.730425 0.304042 0.700127
O O6 0.430220 0.978113 0.675663
O O7 0.000000 0.000000 0.500000
O O8 0.655854 0.270618 0.276862
O O9 0.880366 0.388402 0.321721
O O10 0.404894 0.264051 0.180729
O O11 0.398247 0.427259 0.133614
O O12 0.910120 0.537721 0.196698
O O13 0.268234 0.882305 0.181994
O O14 0.500000 0.500000 0.000000
O O15 0.209498 0.727422 0.077871
O O16 0.315728 0.852770 0.846467
O O17 0.807803 0.816027 0.933466
O O18 0.500000 0.000000 0.000000
#
# Coordination Sequence:
#
# PCOD8006672 Si02
#       8
#     2   2   2   2   2   2   2   2
#     4  10  20  40  62  95 130 161 205 256 306 374
#     4   9  21  38  65  90 126 165 207 252 307 366
#     4  10  21  42  65  91 130 169 205 254 310 370
#     4  10  22  40  67  94 125 165 212 255 310 374
#     4  10  23  42  64  90 126 164 210 261 316 367
#     4  11  22  40  66  92 128 163 211 257 312 369
#     4  10  23  40  66  92 125 167 208 254 320 370
#     4  10  20  43  64  89 126 160 209 265 309 368
#
# _framework density 21.469719000000001
#
# number of rings (size 3 to 8) (size 9 to 14) (size 15 to 20)
#    0.000    2.000    2.500    0.000    0.000   11.500 
#    0.000    3.750    0.000    0.000    0.000    0.000 
#    0.000    0.000    0.000    0.000    0.000    0.000 
#
# Total GULP energy -198230.389798 kJ/mol
# GULP energy per Si atom -12389.399362 kJ/mol
# Density = 2.142085 g / cm^3
# Si number density = 21.469719 Si / 1000 Ang^3
#
#
#
# Elastic Constant Matrix: (Units=GPa)
#
#
# Indices 1 2 3 4 5 6 
#
# 1 105.3426 32.2444 30.2191 -4.1782 10.7904 -3.5236
# 2 32.2444 131.4570 48.3433 8.8043 21.5763 -8.8170
# 3 30.2191 48.3433 78.4424 10.2943 15.1170 -5.5016
# 4 -4.1782 8.8043 10.2943 37.7008 -3.5972 9.7629
# 5 10.7904 21.5763 15.1170 -3.5972 38.7518 -5.6928
# 6 -3.5236 -8.8170 -5.5016 9.7629 -5.6928 34.9949
#
#
#
# Elastic Compliance Matrix: (Units=1/GPa)
#
#
# Indices 1 2 3 4 5 6 
#
# 1 0.011153 -0.001512 -0.003632 0.002694 -0.000699 -0.000694
# 2 -0.001512 0.010609 -0.004877 -0.002107 -0.003519 0.001769
# 3 -0.003632 -0.004877 0.018727 -0.005310 -0.003745 0.002222
# 4 0.002694 -0.002107 -0.005310 0.031544 0.004066 -0.009233
# 5 -0.000699 -0.003519 -0.003745 0.004066 0.030124 0.002220
# 6 -0.000694 0.001769 0.002222 -0.009233 0.002220 0.032238
#
#
# Mechanical properties :
#
#
# Convention : Reuss Voigt Hill
#
# Bulk Modulus (GPa) = 48.90733 59.65060 54.27897
# Shear Modulus (GPa) = 31.00724 35.91852 33.46288
#
# Velocity S-wave (km/s) = 3.80443 4.09465 3.95220
# Velocity P-wave (km/s) = 6.49056 7.08511 6.79434
#
# Compressibility (1/GPa) = 0.02044683
#
# Stress axis : x y z
#
# Youngs Moduli (GPa) = 89.66323 94.26149 53.39770
#
# Poissons Ratio (x) = 0.14255 0.19395
# Poissons Ratio (y) = 0.13559 0.26040
# Poissons Ratio (z) = 0.32567 0.45968
#
# Static dielectric constant tensor:
#      x y z
#    x 3.812020 -0.160250 -0.208990 
#    y -0.160250 4.101340 0.218450 
#    z -0.208990 0.218450 3.417550 
# 
# 
# High freq. dielectric constant tensor:
#      x y z
#    x 1.841430 -0.019800 0.010860 
#    y -0.019800 1.836520 0.003820 
#    z 0.010860 0.003820 1.849460 
# 
# From -- ./inp_files/622391.got.cif
#   From: 2010.06.25/outbox.cif.g09.slc.cpg/sg2_312_cif.got.tgz:622391.got - 2010.06.27 13:26:56.
