data_PCOD8006395
_publ_section_title
;
Structure prediction by ZEFSAII (Michael W. Deem and Ramdas Pophale) SiO2 
 PCOD8006395
Probable space group: P -1
;
_chemical_formula_sum "Si O2"
_cell_formula_units_Z 14
_cell_length_a 12.996940
_cell_length_b 16.052323
_cell_length_c 14.238220
_cell_angle_alpha 148.205142
_cell_angle_beta 29.568654
_cell_angle_gamma 155.010302
_cell_volume 591.607995
_symmetry_space_group_name_H-M "P -1"
_symmetry_group_IT_number 2
_symmetry_cell_setting 'triclinic'
loop_
_space_group_symop_operation_xyz
x,y,z
-x,-y,-z
loop_
_atom_site_type_symbol
_atom_site_label
_atom_site_fract_x
_atom_site_fract_y
_atom_site_fract_z
Si Si1 0.043784 0.766133 0.694567
Si Si2 0.147812 0.134452 0.898505
Si Si3 0.802709 0.981520 0.764202
Si Si4 0.301473 0.019563 0.360762
Si Si5 0.178881 0.381027 0.963651
Si Si6 0.804207 0.379649 0.405320
Si Si7 0.458040 0.188335 0.004595
O O1 0.219065 0.732542 0.586974
O O2 0.890943 0.600000 0.573210
O O3 0.817222 0.748831 0.921111
O O4 0.235864 0.994994 0.712129
O O5 0.308341 0.294074 0.836748
O O6 0.826430 0.987914 0.988085
O O7 0.999496 0.929331 0.536782
O O8 0.646852 0.957366 0.770421
O O9 0.585539 0.811791 0.849287
O O10 0.965151 0.213086 0.896034
O O11 0.344196 0.865077 0.220610
O O12 0.514136 0.244854 0.455002
O O13 0.414199 0.590377 0.925537
O O14 0.030107 0.417373 0.193210
#
# Coordination Sequence:
#
# PCOD8006395 Si02
#       7
#     2   2   2   2   2   2   2
#     4   9  18  37  69  95 134 166 221 271 320 389
#     4   9  19  40  65  96 132 170 218 269 320 390
#     4  10  24  44  66  97 132 172 218 270 322 392
#     4  11  22  44  68  96 135 168 219 271 325 385
#     4  10  22  40  65  98 130 172 217 263 330 387
#     4  10  20  39  69 100 130 172 219 270 326 389
#     4  11  22  42  69  94 133 178 207 271 330 387
#
# _framework density 23.664318000000002
#
# number of rings (size 3 to 8) (size 9 to 14) (size 15 to 20)
#    0.000    2.000    4.286    0.429    2.000    2.857 
#    0.000    8.571    6.286    0.000    0.000    0.000 
#    0.000    0.000    0.000    0.000    0.000    0.000 
#
# Total GULP energy -173584.753195 kJ/mol
# GULP energy per Si atom -12398.910942 kJ/mol
# Density = 2.361046 g / cm^3
# Si number density = 23.664318 Si / 1000 Ang^3
#
#
#
# Elastic Constant Matrix: (Units=GPa)
#
#
# Indices 1 2 3 4 5 6 
#
# 1 104.1236 49.6492 45.3573 18.6689 14.8617 -11.4384
# 2 49.6492 115.4910 39.8653 19.2261 11.8578 -37.4626
# 3 45.3573 39.8653 81.2450 30.7466 15.3056 -8.4874
# 4 18.6689 19.2261 30.7466 33.4705 6.6508 0.9439
# 5 14.8617 11.8578 15.3056 6.6508 41.2001 5.7280
# 6 -11.4384 -37.4626 -8.4874 0.9439 5.7280 38.4257
#
#
#
# Elastic Compliance Matrix: (Units=1/GPa)
#
#
# Indices 1 2 3 4 5 6 
#
# 1 0.014247 -0.004342 -0.005649 0.000097 -0.001668 -0.000993
# 2 -0.004342 0.017893 -0.001496 -0.006085 -0.004356 0.016621
# 3 -0.005649 -0.001496 0.023752 -0.017096 -0.004030 0.003127
# 4 0.000097 -0.006085 -0.017096 0.048999 0.001707 -0.011138
# 5 -0.001668 -0.004356 -0.004030 0.001707 0.028734 -0.009959
# 6 -0.000993 0.016621 0.003127 -0.011138 -0.009959 0.044382
#
#
# Mechanical properties :
#
#
# Convention : Reuss Voigt Hill
#
# Bulk Modulus (GPa) = 30.37825 63.40036 46.88931
# Shear Modulus (GPa) = 23.59010 33.68510 28.63760
#
# Velocity S-wave (km/s) = 3.16074 3.77696 3.48251
# Velocity P-wave (km/s) = 5.11717 6.77276 6.00232
#
# Compressibility (1/GPa) = 0.03291829
#
# Stress axis : x y z
#
# Youngs Moduli (GPa) = 70.19138 55.88678 42.10121
#
# Poissons Ratio (x) = 0.24264 0.23784
# Poissons Ratio (y) = 0.30474 0.06299
# Poissons Ratio (z) = 0.39654 0.08361
#
# Static dielectric constant tensor:
#      x y z
#    x 4.556770 -0.264380 0.155110 
#    y -0.264380 3.988590 0.242900 
#    z 0.155110 0.242900 4.299390 
# 
# 
# High freq. dielectric constant tensor:
#      x y z
#    x 1.947330 -0.008710 0.007490 
#    y -0.008710 1.904330 0.014120 
#    z 0.007490 0.014120 1.946150 
# 
# From -- ./inp_files/534916.got.cif
#   From: 2010.06.25/outbox.cif.g09.slc.cpg/sg2_268_cif.got.tgz:534916.got - 2010.06.27 13:26:56.
