data_PCOD8006137
_publ_section_title
;
Structure prediction by ZEFSAII (Michael W. Deem and Ramdas Pophale) SiO2 
 PCOD8006137
Probable space group: P -1
;
_chemical_formula_sum "Si O2"
_cell_formula_units_Z 14
_cell_length_a 8.142487
_cell_length_b 13.559451
_cell_length_c 23.154823
_cell_angle_alpha 23.315261
_cell_angle_beta 41.157166
_cell_angle_gamma 52.692961
_cell_volume 629.156814
_symmetry_space_group_name_H-M "P -1"
_symmetry_group_IT_number 2
_symmetry_cell_setting 'triclinic'
loop_
_space_group_symop_operation_xyz
x,y,z
-x,-y,-z
loop_
_atom_site_type_symbol
_atom_site_label
_atom_site_fract_x
_atom_site_fract_y
_atom_site_fract_z
Si Si1 0.865112 0.266855 0.293670
Si Si2 0.219908 0.910516 0.049144
Si Si3 0.722245 0.320690 0.727445
Si Si4 0.119682 0.755881 0.033122
Si Si5 0.653549 0.714167 0.915242
Si Si6 0.945324 0.887226 0.327548
Si Si7 0.419954 0.799324 0.715079
O O1 0.730658 0.310349 0.246000
O O2 0.890151 0.508162 0.200384
O O3 0.157930 0.269178 0.198438
O O4 0.706354 0.000131 0.513381
O O5 0.321921 0.749734 0.155848
O O6 0.149873 0.729254 0.108547
O O7 0.463708 0.185163 0.829292
O O8 0.960617 0.983774 0.097387
O O9 0.786543 0.633226 0.543577
O O10 0.966808 0.224834 0.693828
O O11 0.402873 0.774878 0.921128
O O12 0.557544 0.434995 0.124818
O O13 0.790686 0.941577 0.802123
O O14 0.750609 0.057842 0.278830
#
# Coordination Sequence:
#
# PCOD8006137 Si02
#       7
#     2   2   2   2   2   2   2
#     4  10  22  41  63  93 126 167 207 265 308 372
#     4  10  23  40  64  94 119 175 209 260 312 373
#     4  10  21  40  69  89 121 166 216 267 304 360
#     4  11  23  39  61  92 139 160 209 254 321 381
#     4  11  23  41  64  96 129 167 205 262 313 386
#     4  10  20  39  65  96 122 154 219 268 303 368
#     4  10  23  40  68  96 121 166 217 259 312 372
#
# _framework density 22.252005
#
# number of rings (size 3 to 8) (size 9 to 14) (size 15 to 20)
#    0.000    1.714    1.429    3.000    4.000    4.000 
#    0.000    2.143    3.143    0.000    0.000    0.000 
#    0.000    0.000    0.000    0.000    0.000    0.000 
#
# Total GULP energy -173545.894512 kJ/mol
# GULP energy per Si atom -12396.135322 kJ/mol
# Density = 2.220136 g / cm^3
# Si number density = 22.252005 Si / 1000 Ang^3
#
#
#
# Elastic Constant Matrix: (Units=GPa)
#
#
# Indices 1 2 3 4 5 6 
#
# 1 58.1404 23.3877 16.4529 -4.5787 -9.3848 -1.6999
# 2 23.3877 82.7972 23.2523 -4.5493 -14.8634 -10.1969
# 3 16.4529 23.2523 97.1213 -0.8349 -8.7579 -1.4084
# 4 -4.5787 -4.5493 -0.8349 33.9798 1.3693 -11.0608
# 5 -9.3848 -14.8634 -8.7579 1.3693 15.7794 -3.0576
# 6 -1.6999 -10.1969 -1.4084 -11.0608 -3.0576 35.3065
#
#
#
# Elastic Compliance Matrix: (Units=1/GPa)
#
#
# Indices 1 2 3 4 5 6 
#
# 1 0.020684 -0.003602 -0.001889 0.002365 0.007909 0.001306
# 2 -0.003602 0.017265 -0.002129 0.003500 0.013999 0.007037
# 3 -0.001889 -0.002129 0.011411 -0.000423 0.003221 -0.000104
# 4 0.002365 0.003500 -0.000423 0.033986 0.003862 0.012089
# 5 0.007909 0.013999 0.003221 0.003862 0.085264 0.013146
# 6 0.001306 0.007037 -0.000104 0.012089 0.013146 0.035340
#
#
# Mechanical properties :
#
#
# Convention : Reuss Voigt Hill
#
# Bulk Modulus (GPa) = 29.30736 40.47162 34.88949
# Shear Modulus (GPa) = 21.68599 28.67753 25.18176
#
# Velocity S-wave (km/s) = 3.12519 3.59383 3.36767
# Velocity P-wave (km/s) = 5.12071 5.95383 5.55292
#
# Compressibility (1/GPa) = 0.03412112
#
# Stress axis : x y z
#
# Youngs Moduli (GPa) = 48.34615 57.92118 87.63114
#
# Poissons Ratio (x) = 0.20860 0.16556
# Poissons Ratio (y) = 0.17412 0.18655
# Poissons Ratio (z) = 0.09134 0.12331
#
# Static dielectric constant tensor:
#      x y z
#    x 3.747410 -0.024750 -0.271340 
#    y -0.024750 4.161070 0.022370 
#    z -0.271340 0.022370 3.987590 
# 
# 
# High freq. dielectric constant tensor:
#      x y z
#    x 1.857030 -0.001930 -0.019820 
#    y -0.001930 1.895700 -0.003700 
#    z -0.019820 -0.003700 1.865520 
# 
# From -- ./inp_files/320648.got.cif
#   From: 2010.06.25/outbox.cif.g09.slc.cpg/sg2_161_cif.got.tgz:320648.got - 2010.06.27 13:26:56.
