data_PCOD8006966
_publ_section_title
;
Structure prediction by ZEFSAII (Michael W. Deem and Ramdas Pophale) SiO2 
 PCOD8006966
Probable space group: P -1
;
_chemical_formula_sum "Si O2"
_cell_formula_units_Z 16
_cell_length_a 18.505068
_cell_length_b 15.360990
_cell_length_c 11.492654
_cell_angle_alpha 151.235365
_cell_angle_beta 44.263811
_cell_angle_gamma 151.593100
_cell_volume 726.033726
_symmetry_space_group_name_H-M "P -1"
_symmetry_group_IT_number 2
_symmetry_cell_setting 'triclinic'
loop_
_space_group_symop_operation_xyz
x,y,z
-x,-y,-z
loop_
_atom_site_type_symbol
_atom_site_label
_atom_site_fract_x
_atom_site_fract_y
_atom_site_fract_z
Si Si1 0.829469 0.793024 0.902540
Si Si2 0.163489 0.746349 0.166250
Si Si3 0.649212 0.172441 0.611107
Si Si4 0.134526 0.935900 0.051138
Si Si5 0.787911 0.537550 0.079531
Si Si6 0.869127 0.460412 0.489679
Si Si7 0.791776 0.035043 0.384961
Si Si8 0.682684 0.759979 0.580541
O O1 0.779935 0.521588 0.609626
O O2 0.818616 0.901956 0.929938
O O3 0.733942 0.760644 0.084312
O O4 0.000000 0.000000 0.000000
O O5 0.151055 0.868849 0.434601
O O6 0.280436 0.997315 0.235815
O O7 0.229118 0.637519 0.004759
O O8 0.000000 0.500000 0.000000
O O9 0.809334 0.376456 0.592371
O O10 0.648584 0.982666 0.460895
O O11 0.500000 0.000000 0.500000
O O12 0.659467 0.341306 0.895383
O O13 0.957245 0.737175 0.060542
O O14 0.247256 0.165288 0.285673
O O15 0.175295 0.776432 0.808307
O O16 0.762268 0.703863 0.350123
O O17 0.056368 0.723869 0.588213
O O18 0.500000 0.500000 0.500000
#
# Coordination Sequence:
#
# PCOD8006966 Si02
#       8
#     2   2   2   2   2   2   2   2
#     4  10  23  34  67 106 132 168 220 283 345 396
#     4  11  23  45  74 102 132 181 242 290 338 412
#     4  11  23  40  66 100 146 183 220 280 356 413
#     4  12  23  45  71 101 140 177 238 283 338 415
#     4  11  25  44  74 101 135 185 239 285 340 418
#     4  11  21  40  68  97 137 176 222 281 344 402
#     4  10  20  40  66 101 132 173 232 285 332 414
#     4  12  30  47  71 101 143 188 230 292 352 411
#
# _framework density 22.037544
#
# number of rings (size 3 to 8) (size 9 to 14) (size 15 to 20)
#    0.000    1.000    5.000    2.250    7.000    1.500 
#    4.500    0.625    0.000    0.000    0.000    0.000 
#    0.000    0.000    0.000    0.000    0.000    0.000 
#
# Total GULP energy -198231.920758 kJ/mol
# GULP energy per Si atom -12389.495047 kJ/mol
# Density = 2.198739 g / cm^3
# Si number density = 22.037544 Si / 1000 Ang^3
#
#
#
# Elastic Constant Matrix: (Units=GPa)
#
#
# Indices 1 2 3 4 5 6 
#
# 1 123.9902 30.9740 69.7076 -1.7025 24.1136 -2.7966
# 2 30.9740 58.1948 30.7314 -1.0230 2.0981 -5.8757
# 3 69.7076 30.7314 147.1186 -25.4529 0.2614 4.7660
# 4 -1.7025 -1.0230 -25.4529 38.3783 0.9974 -0.8815
# 5 24.1136 2.0981 0.2614 0.9974 45.3876 -0.8516
# 6 -2.7966 -5.8757 4.7660 -0.8815 -0.8516 24.4606
#
#
#
# Elastic Compliance Matrix: (Units=1/GPa)
#
#
# Indices 1 2 3 4 5 6 
#
# 1 0.014036 -0.003654 -0.006549 -0.003595 -0.007141 0.001625
# 2 -0.003654 0.021263 -0.003160 -0.001599 0.001111 0.005287
# 3 -0.006549 -0.003160 0.011943 0.007380 0.003330 -0.003453
# 4 -0.003595 -0.001599 0.007380 0.030692 0.001247 -0.001084
# 5 -0.007141 0.001111 0.003330 0.001247 0.025723 -0.000258
# 6 0.001625 0.005287 -0.003453 -0.001084 -0.000258 0.042963
#
#
# Mechanical properties :
#
#
# Convention : Reuss Voigt Hill
#
# Bulk Modulus (GPa) = 48.74307 65.79219 57.26763
# Shear Modulus (GPa) = 27.74931 34.83801 31.29366
#
# Velocity S-wave (km/s) = 3.55235 3.98030 3.77240
# Velocity P-wave (km/s) = 6.24434 7.14445 6.70950
#
# Compressibility (1/GPa) = 0.02051574
#
# Stress axis : x y z
#
# Youngs Moduli (GPa) = 71.24561 47.03055 83.72878
#
# Poissons Ratio (x) = 0.17184 0.54836
# Poissons Ratio (y) = 0.26031 0.26459
# Poissons Ratio (z) = 0.46661 0.14862
#
# Static dielectric constant tensor:
#      x y z
#    x 4.311780 -0.209410 -0.407030 
#    y -0.209410 3.758470 -0.318500 
#    z -0.407030 -0.318500 4.889750 
# 
# 
# High freq. dielectric constant tensor:
#      x y z
#    x 1.872520 -0.013650 -0.008340 
#    y -0.013650 1.835810 -0.020360 
#    z -0.008340 -0.020360 1.882360 
# 
# From -- ./inp_files/466154.got.cif
#   From: 2010.06.25/outbox.cif.g09.slc.cpg/sg2_234_cif.got.tgz:466154.got - 2010.06.27 13:26:56.
