data_PCOD8006174
_publ_section_title
;
Structure prediction by ZEFSAII (Michael W. Deem and Ramdas Pophale) SiO2 
 PCOD8006174
Probable space group: P -1
;
_chemical_formula_sum "Si O2"
_cell_formula_units_Z 16
_cell_length_a 8.876580
_cell_length_b 19.577759
_cell_length_c 8.722579
_cell_angle_alpha 127.739387
_cell_angle_beta 80.748073
_cell_angle_gamma 59.589880
_cell_volume 748.267335
_symmetry_space_group_name_H-M "P -1"
_symmetry_group_IT_number 2
_symmetry_cell_setting 'triclinic'
loop_
_space_group_symop_operation_xyz
x,y,z
-x,-y,-z
loop_
_atom_site_type_symbol
_atom_site_label
_atom_site_fract_x
_atom_site_fract_y
_atom_site_fract_z
Si Si1 0.405807 0.938847 0.772922
Si Si2 0.135166 0.821206 0.871637
Si Si3 0.516623 0.906466 0.052328
Si Si4 0.657714 0.604792 0.980199
Si Si5 0.262851 0.864947 0.206956
Si Si6 0.930039 0.481649 0.328695
Si Si7 0.919122 0.352730 0.382668
Si Si8 0.453348 0.302954 0.555806
O O1 0.577559 0.781869 0.493038
O O2 0.511811 0.980246 0.736413
O O3 0.372811 0.960537 0.991499
O O4 0.144753 0.033371 0.876103
O O5 0.180090 0.699725 0.679769
O O6 0.265910 0.806633 0.683474
O O7 0.256278 0.804203 0.981225
O O8 0.401387 0.893579 0.180101
O O9 0.798930 0.763487 0.777898
O O10 0.405722 0.748675 0.151993
O O11 0.625495 0.598601 0.158383
O O12 0.761089 0.474564 0.700620
O O13 0.846007 0.602155 0.935863
O O14 0.000000 0.000000 0.500000
O O15 0.886956 0.402575 0.281995
O O16 0.692314 0.619522 0.471529
O O17 0.000000 0.500000 0.500000
#
# Coordination Sequence:
#
# PCOD8006174 Si02
#       8
#     2   2   2   2   2   2   2   2
#     4  10  21  39  65  95 124 170 218 260 318 386
#     4  11  24  41  67  91 134 170 213 269 324 392
#     4  10  21  41  69  91 126 171 216 264 314 390
#     4  11  24  39  65  95 132 166 218 269 313 391
#     4  12  25  43  66  96 130 172 212 267 332 382
#     4  10  20  39  66  88 126 170 215 262 311 385
#     4  10  22  44  67  97 122 177 220 257 325 382
#     4  12  23  38  64  99 131 170 214 268 325 376
#
# _framework density 21.382732000000001
#
# number of rings (size 3 to 8) (size 9 to 14) (size 15 to 20)
#    0.000    1.250    2.500    4.500    1.750    2.500 
#    2.250    1.875    2.750    0.000    0.000    0.000 
#    0.000    0.000    0.000    0.000    0.000    0.000 
#
# Total GULP energy -198328.381518 kJ/mol
# GULP energy per Si atom -12395.523845 kJ/mol
# Density = 2.133406 g / cm^3
# Si number density = 21.382732 Si / 1000 Ang^3
#
#
#
# Elastic Constant Matrix: (Units=GPa)
#
#
# Indices 1 2 3 4 5 6 
#
# 1 104.2969 43.9646 42.4306 2.1177 6.4891 9.5016
# 2 43.9646 107.5607 28.5013 10.0219 12.4470 1.4127
# 3 42.4306 28.5013 100.1454 -0.7642 4.3826 7.6668
# 4 2.1177 10.0219 -0.7642 39.4771 2.7673 2.1629
# 5 6.4891 12.4470 4.3826 2.7673 27.0655 8.7948
# 6 9.5016 1.4127 7.6668 2.1629 8.7948 27.1269
#
#
#
# Elastic Compliance Matrix: (Units=1/GPa)
#
#
# Indices 1 2 3 4 5 6 
#
# 1 0.013440 -0.004454 -0.004179 0.000480 0.000600 -0.003527
# 2 -0.004454 0.012370 -0.001681 -0.002754 -0.005131 0.003274
# 3 -0.004179 -0.001681 0.012390 0.000983 0.000366 -0.002147
# 4 0.000480 -0.002754 0.000983 0.026208 -0.001017 -0.002062
# 5 0.000600 -0.005131 0.000366 -0.001017 0.043812 -0.014170
# 6 -0.003527 0.003274 -0.002147 -0.002062 -0.014170 0.043294
#
#
# Mechanical properties :
#
#
# Convention : Reuss Voigt Hill
#
# Bulk Modulus (GPa) = 56.90556 60.19954 58.55255
# Shear Modulus (GPa) = 28.08984 31.87434 29.98209
#
# Velocity S-wave (km/s) = 3.62839 3.86509 3.74861
# Velocity P-wave (km/s) = 6.65013 6.93780 6.79549
#
# Compressibility (1/GPa) = 0.01757297
#
# Stress axis : x y z
#
# Youngs Moduli (GPa) = 74.40474 80.83924 80.70739
#
# Poissons Ratio (x) = 0.36005 0.33731
# Poissons Ratio (y) = 0.33139 0.13564
# Poissons Ratio (z) = 0.31097 0.13586
#
# Static dielectric constant tensor:
#      x y z
#    x 4.076030 0.226760 -0.032730 
#    y 0.226760 4.107280 0.091560 
#    z -0.032730 0.091560 3.678910 
# 
# 
# High freq. dielectric constant tensor:
#      x y z
#    x 1.839980 0.000210 -0.003900 
#    y 0.000210 1.847090 0.012480 
#    z -0.003900 0.012480 1.823950 
# 
# From -- ./inp_files/224050.got.cif
#   From: 2010.06.25/outbox.cif.g09.slc.cpg/sg2_113_cif.got.tgz:224050.got - 2010.06.27 13:26:56.
