data_PCOD8006198
_publ_section_title
;
Structure prediction by ZEFSAII (Michael W. Deem and Ramdas Pophale) SiO2 
 PCOD8006198
Probable space group: P -1
;
_chemical_formula_sum "Si O2"
_cell_formula_units_Z 14
_cell_length_a 14.230151
_cell_length_b 5.596114
_cell_length_c 14.524873
_cell_angle_alpha 104.592641
_cell_angle_beta 150.492047
_cell_angle_gamma 79.448162
_cell_volume 549.744973
_symmetry_space_group_name_H-M "P -1"
_symmetry_group_IT_number 2
_symmetry_cell_setting 'triclinic'
loop_
_space_group_symop_operation_xyz
x,y,z
-x,-y,-z
loop_
_atom_site_type_symbol
_atom_site_label
_atom_site_fract_x
_atom_site_fract_y
_atom_site_fract_z
Si Si1 0.688688 0.246392 0.426165
Si Si2 0.048847 0.358743 0.375685
Si Si3 0.286165 0.348393 0.107801
Si Si4 0.684549 0.590005 0.062427
Si Si5 0.333730 0.219878 0.742829
Si Si6 0.736670 0.951813 0.603634
Si Si7 0.281695 0.899329 0.196173
O O1 0.853394 0.362123 0.510931
O O2 0.514792 0.411014 0.321087
O O3 0.791495 0.177266 0.602429
O O4 0.581814 0.019208 0.253644
O O5 0.122962 0.225263 0.516818
O O6 0.820732 0.369577 0.184189
O O7 0.136286 0.265074 0.344471
O O8 0.197047 0.613704 0.078533
O O9 0.215785 0.107420 0.086796
O O10 0.239453 0.279321 0.954295
O O11 0.686270 0.793500 0.165025
O O12 0.471765 0.460292 0.854836
O O13 0.800126 0.017912 0.767617
O O14 0.509563 0.894729 0.393786
#
# Coordination Sequence:
#
# PCOD8006198 Si02
#       7
#     2   2   2   2   2   2   2
#     4  10  20  39  66  90 137 163 222 272 333 381
#     4  11  21  42  64  98 127 171 218 280 321 402
#     4  11  21  41  61  99 128 179 219 275 322 401
#     4  11  23  42  68  91 132 174 223 263 346 382
#     4  10  23  45  62  96 129 175 215 279 322 410
#     4   9  20  36  62  96 125 175 214 270 328 394
#     4  10  21  37  69  92 134 175 225 266 332 392
#
# _framework density 25.466352000000001
#
# number of rings (size 3 to 8) (size 9 to 14) (size 15 to 20)
#    0.000    1.714    2.857    2.143    2.000    2.857 
#   12.857    1.429    0.000    0.000    0.000    0.000 
#    0.000    0.000    0.000    0.000    0.000    0.000 
#
# Total GULP energy -173454.539494 kJ/mol
# GULP energy per Si atom -12389.609964 kJ/mol
# Density = 2.540839 g / cm^3
# Si number density = 25.466352 Si / 1000 Ang^3
#
#
#
# Elastic Constant Matrix: (Units=GPa)
#
#
# Indices 1 2 3 4 5 6 
#
# 1 121.9713 45.9640 36.5258 14.0678 -53.6869 -15.4929
# 2 45.9640 118.8488 18.9509 -0.4559 -30.5316 6.0516
# 3 36.5258 18.9509 59.6794 -16.1072 -23.9378 -5.2437
# 4 14.0678 -0.4559 -16.1072 17.4273 -9.2716 2.0632
# 5 -53.6869 -30.5316 -23.9378 -9.2716 54.6538 0.0425
# 6 -15.4929 6.0516 -5.2437 2.0632 0.0425 24.0807
#
#
#
# Elastic Compliance Matrix: (Units=1/GPa)
#
#
# Indices 1 2 3 4 5 6 
#
# 1 0.026229 -0.006163 -0.020039 -0.038149 0.007060 0.017316
# 2 -0.006163 0.011672 0.005082 0.013449 0.004979 -0.006953
# 3 -0.020039 0.005082 0.058320 0.083393 0.022852 -0.008655
# 4 -0.038149 0.013449 0.083393 0.189273 0.038693 -0.026049
# 5 0.007060 0.004979 0.022852 0.038693 0.044583 0.004873
# 6 0.017316 -0.006953 -0.008655 -0.026049 0.004873 0.054754
#
#
# Mechanical properties :
#
#
# Convention : Reuss Voigt Hill
#
# Bulk Modulus (GPa) = 18.52522 55.93124 37.22823
# Shear Modulus (GPa) = 11.23431 32.50295 21.86863
#
# Velocity S-wave (km/s) = 2.10262 3.57642 2.93358
# Velocity P-wave (km/s) = 3.63110 6.25019 5.11125
#
# Compressibility (1/GPa) = 0.05398046
#
# Stress axis : x y z
#
# Youngs Moduli (GPa) = 38.12530 85.67533 17.14680
#
# Poissons Ratio (x) = 0.52802 0.34360
# Poissons Ratio (y) = 0.23497 -0.08713
# Poissons Ratio (z) = 0.76399 -0.43537
#
# Static dielectric constant tensor:
#      x y z
#    x 4.519990 -0.090230 -0.253130 
#    y -0.090230 4.542960 -0.167990 
#    z -0.253130 -0.167990 4.271130 
# 
# 
# High freq. dielectric constant tensor:
#      x y z
#    x 2.009490 -0.008500 -0.013350 
#    y -0.008500 2.009700 -0.014040 
#    z -0.013350 -0.014040 2.002440 
# 
# From -- ./inp_files/106973.got.cif
#   From: 2010.06.25/outbox.cif.g09.slc.cpg/sg2_54_cif.got.tgz:106973.got - 2010.06.27 13:26:56.
