data_PCOD8006387
_publ_section_title
;
Structure prediction by ZEFSAII (Michael W. Deem and Ramdas Pophale) SiO2 
 PCOD8006387
Probable space group: P -1
;
_chemical_formula_sum "Si O2"
_cell_formula_units_Z 14
_cell_length_a 9.173384
_cell_length_b 12.317408
_cell_length_c 17.676294
_cell_angle_alpha 27.917832
_cell_angle_beta 66.778539
_cell_angle_gamma 49.390457
_cell_volume 611.146330
_symmetry_space_group_name_H-M "P -1"
_symmetry_group_IT_number 2
_symmetry_cell_setting 'triclinic'
loop_
_space_group_symop_operation_xyz
x,y,z
-x,-y,-z
loop_
_atom_site_type_symbol
_atom_site_label
_atom_site_fract_x
_atom_site_fract_y
_atom_site_fract_z
Si Si1 0.611235 0.177192 0.846899
Si Si2 0.009897 0.325717 0.470829
Si Si3 0.060150 0.795386 0.188394
Si Si4 0.511495 0.760630 0.332317
Si Si5 0.762468 0.224748 0.116281
Si Si6 0.857950 0.481787 0.246712
Si Si7 0.140719 0.354898 0.135005
O O1 0.726070 0.310551 0.747450
O O2 0.599577 0.074882 0.828023
O O3 0.361272 0.453361 0.762921
O O4 0.766525 0.833292 0.071293
O O5 0.122953 0.464087 0.363109
O O6 0.762562 0.593806 0.391550
O O7 0.994193 0.249908 0.434415
O O8 0.158010 0.989930 0.692712
O O9 0.849147 0.009551 0.155890
O O10 0.000000 0.000000 0.000000
O O11 0.500000 0.500000 0.500000
O O12 0.383698 0.009221 0.275687
O O13 0.500000 0.500000 0.000000
O O14 0.854308 0.391088 0.990610
O O15 0.026377 0.303909 0.251305
O O16 0.000000 0.500000 0.000000
#
# Coordination Sequence:
#
# PCOD8006387 Si02
#       7
#     2   2   2   2   2   2   2
#     4  10  20  39  68  98 135 173 223 268 334 402
#     4  11  24  45  68  96 139 179 228 272 335 412
#     4  12  22  42  69 101 133 183 221 270 334 409
#     4  11  23  42  70 101 131 176 225 277 341 401
#     4  12  27  45  65 100 135 177 224 283 339 397
#     4  10  21  41  69  99 133 175 225 276 330 393
#     4  12  22  42  70 101 137 174 222 283 334 391
#
# _framework density 22.907771
#
# number of rings (size 3 to 8) (size 9 to 14) (size 15 to 20)
#    0.000    0.857    4.286    3.000    0.000    2.286 
#    0.000   12.143    0.000    0.000    0.000    0.000 
#    0.000    0.000    0.000    0.000    0.000    0.000 
#
# Total GULP energy -173619.217548 kJ/mol
# GULP energy per Si atom -12401.372682 kJ/mol
# Density = 2.285563 g / cm^3
# Si number density = 22.907771 Si / 1000 Ang^3
#
#
#
# Elastic Constant Matrix: (Units=GPa)
#
#
# Indices 1 2 3 4 5 6 
#
# 1 110.0252 28.0771 26.7663 -4.8783 6.2612 -23.5251
# 2 28.0771 152.1763 47.0220 15.3299 21.0318 -21.0644
# 3 26.7663 47.0220 105.4215 12.7153 13.5106 -2.8130
# 4 -4.8783 15.3299 12.7153 28.4516 2.3601 0.6742
# 5 6.2612 21.0318 13.5106 2.3601 41.5105 0.2464
# 6 -23.5251 -21.0644 -2.8130 0.6742 0.2464 31.7598
#
#
#
# Elastic Compliance Matrix: (Units=1/GPa)
#
#
# Indices 1 2 3 4 5 6 
#
# 1 0.011852 -0.000367 -0.002924 0.003416 -0.000893 0.008210
# 2 -0.000367 0.009175 -0.002980 -0.003522 -0.003456 0.005650
# 3 -0.002924 -0.002980 0.012204 -0.004132 -0.001768 -0.002960
# 4 0.003416 -0.003522 -0.004132 0.039470 0.000376 -0.001012
# 5 -0.000893 -0.003456 -0.001768 0.000376 0.026550 -0.003324
# 6 0.008210 0.005650 -0.002960 -0.001012 -0.003324 0.041101
#
#
# Mechanical properties :
#
#
# Convention : Reuss Voigt Hill
#
# Bulk Modulus (GPa) = 48.34082 63.48377 55.91230
# Shear Modulus (GPa) = 31.29111 38.06154 34.67633
#
# Velocity S-wave (km/s) = 3.69990 4.08059 3.89490
# Velocity P-wave (km/s) = 6.27698 7.06927 6.68487
#
# Compressibility (1/GPa) = 0.02068645
#
# Stress axis : x y z
#
# Youngs Moduli (GPa) = 84.37625 108.99596 81.94338
#
# Poissons Ratio (x) = 0.04006 0.23958
# Poissons Ratio (y) = 0.03101 0.24423
# Poissons Ratio (z) = 0.24669 0.32486
#
# Static dielectric constant tensor:
#      x y z
#    x 4.349040 0.270020 0.067390 
#    y 0.270020 5.320520 -0.038170 
#    z 0.067390 -0.038170 4.090200 
# 
# 
# High freq. dielectric constant tensor:
#      x y z
#    x 1.908370 -0.012320 0.000170 
#    y -0.012320 1.905490 0.017490 
#    z 0.000170 0.017490 1.898730 
# 
# From -- ./inp_files/156683.got.cif
#   From: 2010.06.25/outbox.cif.g09.slc.cpg/sg2_79_cif.got.tgz:156683.got - 2010.06.27 13:26:56.
