data_PCOD8006523
_publ_section_title
;
Structure prediction by ZEFSAII (Michael W. Deem and Ramdas Pophale) SiO2 
 PCOD8006523
Probable space group: P -1
;
_chemical_formula_sum "Si O2"
_cell_formula_units_Z 16
_cell_length_a 21.824821
_cell_length_b 9.724600
_cell_length_c 11.552787
_cell_angle_alpha 80.046858
_cell_angle_beta 139.785052
_cell_angle_gamma 131.708394
_cell_volume 849.214043
_symmetry_space_group_name_H-M "P -1"
_symmetry_group_IT_number 2
_symmetry_cell_setting 'triclinic'
loop_
_space_group_symop_operation_xyz
x,y,z
-x,-y,-z
loop_
_atom_site_type_symbol
_atom_site_label
_atom_site_fract_x
_atom_site_fract_y
_atom_site_fract_z
Si Si1 0.804046 0.250556 0.214068
Si Si2 0.931375 0.921375 0.282995
Si Si3 0.567424 0.791530 0.518136
Si Si4 0.373021 0.672566 0.064195
Si Si5 0.272871 0.290080 0.598660
Si Si6 0.457478 0.231573 0.927708
Si Si7 0.402510 0.448911 0.528334
Si Si8 0.235270 0.002218 0.011053
O O1 0.734993 0.320525 0.090671
O O2 0.000000 0.500000 0.500000
O O3 0.689073 0.026621 0.172866
O O4 0.808500 0.180219 0.107373
O O5 0.075941 0.028721 0.394716
O O6 0.752457 0.615591 0.058078
O O7 0.912315 0.059847 0.195882
O O8 0.000000 0.000000 0.500000
O O9 0.400333 0.537382 0.393636
O O10 0.626027 0.745986 0.518732
O O11 0.731521 0.021393 0.807829
O O12 0.505323 0.843495 0.341124
O O13 0.482668 0.794333 0.086792
O O14 0.376713 0.273275 0.755418
O O15 0.263829 0.323553 0.444575
O O16 0.372418 0.528944 0.783499
O O17 0.590803 0.703761 0.824859
#
# Coordination Sequence:
#
# PCOD8006523 Si02
#       8
#     2   2   2   2   2   2   2   2
#     4  12  26  40  59  90 124 153 196 251 308 357
#     4  12  21  34  60  95 122 157 190 252 306 344
#     4   9  18  37  66  82 115 158 208 237 293 348
#     4  12  22  39  61  87 120 163 200 237 299 364
#     4  11  20  32  64  93 119 148 205 244 298 348
#     4  11  21  38  57  90 119 157 195 249 296 358
#     4   9  16  36  62  88 112 150 199 250 283 348
#     4  10  20  40  60  82 120 156 199 240 297 342
#
# _framework density 18.840949999999999
#
# number of rings (size 3 to 8) (size 9 to 14) (size 15 to 20)
#    0.750    0.500    5.000    2.625    0.000    0.500 
#    0.000    2.500    0.000    0.750    0.000    0.000 
#    0.000    0.000    0.000    0.000    0.000    0.000 
#
# Total GULP energy -198293.927214 kJ/mol
# GULP energy per Si atom -12393.370451 kJ/mol
# Density = 1.879807 g / cm^3
# Si number density = 18.840950 Si / 1000 Ang^3
#
#
#
# Elastic Constant Matrix: (Units=GPa)
#
#
# Indices 1 2 3 4 5 6 
#
# 1 116.6266 28.1278 48.0149 -10.0998 -12.5881 0.1391
# 2 28.1278 55.5496 30.2805 -11.3413 -6.8052 -4.3676
# 3 48.0149 30.2805 97.7693 -12.0231 -15.5441 -3.1845
# 4 -10.0998 -11.3413 -12.0231 32.9984 3.2753 3.5922
# 5 -12.5881 -6.8052 -15.5441 3.2753 29.9032 -1.1983
# 6 0.1391 -4.3676 -3.1845 3.5922 -1.1983 37.0939
#
#
#
# Elastic Compliance Matrix: (Units=1/GPa)
#
#
# Indices 1 2 3 4 5 6 
#
# 1 0.011332 -0.003111 -0.004258 0.000762 0.001734 -0.000792
# 2 -0.003111 0.023567 -0.004927 0.005044 0.001016 0.001908
# 3 -0.004258 -0.004927 0.014832 0.001875 0.004618 0.000677
# 4 0.000762 0.005044 0.001875 0.033359 -0.001311 -0.002521
# 5 0.001734 0.001016 0.004618 -0.001311 0.037020 0.001832
# 6 -0.000792 0.001908 0.000677 -0.002521 0.001832 0.027548
#
#
# Mechanical properties :
#
#
# Convention : Reuss Voigt Hill
#
# Bulk Modulus (GPa) = 39.77951 53.64354 46.71152
# Shear Modulus (GPa) = 27.68083 30.90059 29.29071
#
# Velocity S-wave (km/s) = 3.83715 4.05418 3.94716
# Velocity P-wave (km/s) = 6.38677 7.10273 6.75424
#
# Compressibility (1/GPa) = 0.02513857
#
# Stress axis : x y z
#
# Youngs Moduli (GPa) = 88.24749 42.43132 67.42101
#
# Poissons Ratio (x) = 0.13201 0.28708
# Poissons Ratio (y) = 0.27456 0.33220
# Poissons Ratio (z) = 0.37576 0.20907
#
# Static dielectric constant tensor:
#      x y z
#    x 3.066440 -0.011600 0.341620 
#    y -0.011600 3.227790 -0.031450 
#    z 0.341620 -0.031450 2.840490 
# 
# 
# High freq. dielectric constant tensor:
#      x y z
#    x 1.742510 0.006910 -0.009460 
#    y 0.006910 1.705290 -0.012480 
#    z -0.009460 -0.012480 1.720750 
# 
# From -- ./inp_files/469391.got.cif
#   From: 2010.06.25/outbox.cif.g09.slc.cpg/sg2_235_cif.got.tgz:469391.got - 2010.06.27 13:26:56.
