data_PCOD8006244
_publ_section_title
;
Structure prediction by ZEFSAII (Michael W. Deem and Ramdas Pophale) SiO2 
 PCOD8006244
Probable space group: P -1
;
_chemical_formula_sum "Si O2"
_cell_formula_units_Z 16
_cell_length_a 7.194622
_cell_length_b 15.369044
_cell_length_c 18.333012
_cell_angle_alpha 145.965081
_cell_angle_beta 123.866442
_cell_angle_gamma 40.009917
_cell_volume 712.352341
_symmetry_space_group_name_H-M "P -1"
_symmetry_group_IT_number 2
_symmetry_cell_setting 'triclinic'
loop_
_space_group_symop_operation_xyz
x,y,z
-x,-y,-z
loop_
_atom_site_type_symbol
_atom_site_label
_atom_site_fract_x
_atom_site_fract_y
_atom_site_fract_z
Si Si1 0.130492 0.088457 0.267508
Si Si2 0.687372 0.732008 0.387584
Si Si3 0.943974 0.843991 0.110533
Si Si4 0.214335 0.645341 0.887003
Si Si5 0.860674 0.404404 0.876700
Si Si6 0.269379 0.131134 0.176312
Si Si7 0.789764 0.473781 0.544967
Si Si8 0.684726 0.875717 0.334964
O O1 0.154809 0.071541 0.174205
O O2 0.975323 0.324747 0.413530
O O3 0.458575 0.930944 0.261287
O O4 0.949467 0.023888 0.214618
O O5 0.688736 0.549295 0.272294
O O6 0.659551 0.765761 0.318680
O O7 0.001331 0.662477 0.434165
O O8 0.406762 0.919733 0.504203
O O9 0.096404 0.744592 0.153574
O O10 0.608482 0.936523 0.099413
O O11 0.116131 0.665314 0.963109
O O12 0.517357 0.606410 0.927154
O O13 0.929732 0.835989 0.912446
O O14 0.999219 0.272265 0.739754
O O15 0.000000 0.500000 0.000000
O O16 0.263326 0.317761 0.326272
O O17 0.500000 0.500000 0.500000
#
# Coordination Sequence:
#
# PCOD8006244 Si02
#       8
#     2   2   2   2   2   2   2   2
#     4  11  22  41  68  98 133 174 224 274 325 398
#     4   9  21  40  64  94 134 169 217 278 331 382
#     4  12  24  44  70  94 135 179 221 269 337 392
#     4  11  25  43  63  97 137 172 218 282 324 390
#     4  12  25  44  69  99 131 177 227 271 334 397
#     4  11  24  44  66 100 132 177 222 269 333 394
#     4  10  20  39  66  97 134 174 214 270 334 391
#     4  10  20  40  66  96 130 170 220 277 324 395
#
# _framework density 22.460795999999998
#
# number of rings (size 3 to 8) (size 9 to 14) (size 15 to 20)
#    0.000    1.250    2.500    3.375    0.000    2.000 
#    2.250    0.000    0.000    0.000    0.000    0.000 
#    0.000    0.000    0.000    0.000    0.000    0.000 
#
# Total GULP energy -198252.064150 kJ/mol
# GULP energy per Si atom -12390.754009 kJ/mol
# Density = 2.240967 g / cm^3
# Si number density = 22.460796 Si / 1000 Ang^3
#
#
#
# Elastic Constant Matrix: (Units=GPa)
#
#
# Indices 1 2 3 4 5 6 
#
# 1 90.2748 25.7567 35.9261 -6.6951 -13.9280 -5.1791
# 2 25.7567 68.5849 19.4171 -5.0380 -12.7267 -13.6119
# 3 35.9261 19.4171 104.6216 -4.6705 -20.4277 -4.5167
# 4 -6.6951 -5.0380 -4.6705 29.3699 1.7826 -7.0787
# 5 -13.9280 -12.7267 -20.4277 1.7826 43.6256 -3.1063
# 6 -5.1791 -13.6119 -4.5167 -7.0787 -3.1063 42.2386
#
#
#
# Elastic Compliance Matrix: (Units=1/GPa)
#
#
# Indices 1 2 3 4 5 6 
#
# 1 0.014030 -0.003645 -0.003704 0.002032 0.001642 0.000611
# 2 -0.003645 0.018479 -0.000954 0.003454 0.004087 0.006285
# 3 -0.003704 -0.000954 0.011896 0.000864 0.004143 0.000960
# 4 0.002032 0.003454 0.000864 0.037041 0.001098 0.007743
# 5 0.001642 0.004087 0.004143 0.001098 0.026827 0.004118
# 6 0.000611 0.006285 0.000960 0.007743 0.004118 0.027479
#
#
# Mechanical properties :
#
#
# Convention : Reuss Voigt Hill
#
# Bulk Modulus (GPa) = 35.97277 47.29790 41.63533
# Shear Modulus (GPa) = 30.93586 35.20558 33.07072
#
# Velocity S-wave (km/s) = 3.71526 3.96336 3.84132
# Velocity P-wave (km/s) = 5.86982 6.48445 6.18477
#
# Compressibility (1/GPa) = 0.02779881
#
# Stress axis : x y z
#
# Youngs Moduli (GPa) = 71.27419 54.11516 84.06181
#
# Poissons Ratio (x) = 0.19727 0.31133
# Poissons Ratio (y) = 0.25982 0.08023
# Poissons Ratio (z) = 0.26397 0.05165
#
# Static dielectric constant tensor:
#      x y z
#    x 3.777180 -0.096040 -0.130640 
#    y -0.096040 4.420660 0.071460 
#    z -0.130640 0.071460 4.167680 
# 
# 
# High freq. dielectric constant tensor:
#      x y z
#    x 1.864050 -0.007530 -0.008030 
#    y -0.007530 1.894560 0.004160 
#    z -0.008030 0.004160 1.899700 
# 
# From -- ./inp_files/550122.got.cif
#   From: 2010.06.25/outbox.cif.g09.slc.cpg/sg2_276_cif.got.tgz:550122.got - 2010.06.27 13:26:56.
