data_PCOD8006987
_publ_section_title
;
Structure prediction by ZEFSAII (Michael W. Deem and Ramdas Pophale) SiO2 
 PCOD8006987
Probable space group: P -1
;
_chemical_formula_sum "Si O2"
_cell_formula_units_Z 16
_cell_length_a 14.734759
_cell_length_b 14.728725
_cell_length_c 9.254937
_cell_angle_alpha 94.379011
_cell_angle_beta 50.573694
_cell_angle_gamma 136.685719
_cell_volume 729.732456
_symmetry_space_group_name_H-M "P -1"
_symmetry_group_IT_number 2
_symmetry_cell_setting 'triclinic'
loop_
_space_group_symop_operation_xyz
x,y,z
-x,-y,-z
loop_
_atom_site_type_symbol
_atom_site_label
_atom_site_fract_x
_atom_site_fract_y
_atom_site_fract_z
Si Si1 0.514670 0.256177 0.796600
Si Si2 0.945248 0.183269 0.267059
Si Si3 0.651390 0.514005 0.317045
Si Si4 0.253755 0.731296 0.108545
Si Si5 0.240442 0.100421 0.770242
Si Si6 0.046071 0.325022 0.696309
Si Si7 0.861658 0.322463 0.464461
Si Si8 0.235838 0.984627 0.281649
O O1 0.303016 0.125515 0.876074
O O2 0.715718 0.473385 0.607465
O O3 0.639876 0.242083 0.643803
O O4 0.385130 0.170913 0.077928
O O5 0.823232 0.200305 0.407671
O O6 0.945996 0.124749 0.410162
O O7 0.227965 0.391498 0.951908
O O8 0.796826 0.022398 0.281325
O O9 0.500000 0.500000 0.500000
O O10 0.470285 0.303683 0.478027
O O11 0.873349 0.656264 0.226783
O O12 0.128032 0.687831 0.375332
O O13 0.165352 0.741238 0.074683
O O14 0.131664 0.549413 0.175435
O O15 0.550838 0.934012 0.851118
O O16 0.000000 0.000000 0.000000
O O17 0.923789 0.162231 0.706883
#
# Coordination Sequence:
#
# PCOD8006987 Si02
#       8
#     2   2   2   2   2   2   2   2
#     4   9  22  41  65  93 130 176 204 253 320 388
#     4  12  25  39  64 102 126 162 217 266 318 370
#     4  11  25  47  68  83 127 176 215 267 319 377
#     4   9  18  37  61  94 137 172 192 249 327 389
#     4  11  24  47  69  86 123 178 221 259 319 377
#     4  10  20  40  66  90 124 177 210 242 324 383
#     4   9  19  37  62  96 136 164 203 257 321 380
#     4  11  22  35  66  98 131 162 207 261 311 382
#
# _framework density 21.925843
#
# number of rings (size 3 to 8) (size 9 to 14) (size 15 to 20)
#    0.000    1.750    2.500    1.875    3.500    0.500 
#    2.250    3.125    0.000    0.000    0.000    0.000 
#    0.000    0.000    0.000    0.000    0.000    0.000 
#
# Total GULP energy -198259.164541 kJ/mol
# GULP energy per Si atom -12391.197784 kJ/mol
# Density = 2.187594 g / cm^3
# Si number density = 21.925843 Si / 1000 Ang^3
#
#
#
# Elastic Constant Matrix: (Units=GPa)
#
#
# Indices 1 2 3 4 5 6 
#
# 1 91.9721 34.4843 39.2848 2.6285 -4.1884 7.6742
# 2 34.4843 83.6425 24.9330 -16.5729 -8.3014 4.7911
# 3 39.2848 24.9330 117.4766 -7.4633 29.1940 5.0714
# 4 2.6285 -16.5729 -7.4633 23.4830 -1.4048 -3.8444
# 5 -4.1884 -8.3014 29.1940 -1.4048 38.2188 -6.5700
# 6 7.6742 4.7911 5.0714 -3.8444 -6.5700 28.8661
#
#
#
# Elastic Compliance Matrix: (Units=1/GPa)
#
#
# Indices 1 2 3 4 5 6 
#
# 1 0.016092 -0.006059 -0.005465 -0.007988 0.003901 -0.002489
# 2 -0.006059 0.018438 -0.002682 0.013584 0.006277 0.002259
# 3 -0.005465 -0.002682 0.014301 0.001985 -0.012585 -0.003215
# 4 -0.007988 0.013584 0.001985 0.055201 0.003923 0.007765
# 5 0.003901 0.006277 -0.012585 0.003923 0.039367 0.009615
# 6 -0.002489 0.002259 -0.003215 0.007765 0.009615 0.038716
#
#
# Mechanical properties :
#
#
# Convention : Reuss Voigt Hill
#
# Bulk Modulus (GPa) = 48.96818 54.49948 51.73383
# Shear Modulus (GPa) = 23.00615 31.07287 27.03951
#
# Velocity S-wave (km/s) = 3.24276 3.76863 3.51554
# Velocity P-wave (km/s) = 6.03346 6.62171 6.33442
#
# Compressibility (1/GPa) = 0.02042142
#
# Stress axis : x y z
#
# Youngs Moduli (GPa) = 62.14155 54.23622 69.92296
#
# Poissons Ratio (x) = 0.32859 0.38212
# Poissons Ratio (y) = 0.37649 0.18751
# Poissons Ratio (z) = 0.33959 0.14544
#
# Static dielectric constant tensor:
#      x y z
#    x 4.049450 0.002050 0.341550 
#    y 0.002050 3.869090 -0.401540 
#    z 0.341550 -0.401540 4.239130 
# 
# 
# High freq. dielectric constant tensor:
#      x y z
#    x 1.858270 0.000050 0.020950 
#    y 0.000050 1.849610 -0.038510 
#    z 0.020950 -0.038510 1.853940 
# 
# From -- ./inp_files/315399.got.cif
#   From: 2010.06.25/outbox.cif.g09.slc.cpg/sg2_158_cif.got.tgz:315399.got - 2010.06.27 13:26:56.
