data_PCOD8006031
_publ_section_title
;
Structure prediction by ZEFSAII (Michael W. Deem and Ramdas Pophale) SiO2 
 PCOD8006031
Probable space group: P -1
;
_chemical_formula_sum "Si O2"
_cell_formula_units_Z 16
_cell_length_a 9.116127
_cell_length_b 14.019424
_cell_length_c 12.610528
_cell_angle_alpha 74.294231
_cell_angle_beta 141.111624
_cell_angle_gamma 127.154389
_cell_volume 739.615567
_symmetry_space_group_name_H-M "P -1"
_symmetry_group_IT_number 2
_symmetry_cell_setting 'triclinic'
loop_
_space_group_symop_operation_xyz
x,y,z
-x,-y,-z
loop_
_atom_site_type_symbol
_atom_site_label
_atom_site_fract_x
_atom_site_fract_y
_atom_site_fract_z
Si Si1 0.667896 0.537262 0.193558
Si Si2 0.438888 0.052415 0.550581
Si Si3 0.457834 0.665954 0.126509
Si Si4 0.320427 0.673839 0.448444
Si Si5 0.764007 0.944661 0.166415
Si Si6 0.374022 0.941007 0.114016
Si Si7 0.228802 0.532415 0.239636
Si Si8 0.240321 0.332032 0.188382
O O1 0.714953 0.660372 0.231055
O O2 0.447158 0.411445 0.179848
O O3 0.001753 0.578739 0.362161
O O4 0.500000 0.500000 0.000000
O O5 0.651385 0.208920 0.620153
O O6 0.517146 0.015759 0.715543
O O7 0.500000 0.000000 0.500000
O O8 0.086285 0.987477 0.368967
O O9 0.513969 0.787915 0.070532
O O10 0.449001 0.662421 0.250779
O O11 0.125071 0.529476 0.947966
O O12 0.331719 0.585419 0.399430
O O13 0.619543 0.732587 0.669567
O O14 0.667473 0.993906 0.190470
O O15 0.760382 0.994197 0.032684
O O16 0.111784 0.784011 0.007952
O O17 0.255400 0.424249 0.255879
#
# Coordination Sequence:
#
# PCOD8006031 Si02
#       8
#     2   2   2   2   2   2   2   2
#     4  11  22  38  63  93 128 175 214 265 334 396
#     4  12  27  46  68  99 141 185 228 273 338 403
#     4  10  20  39  64  96 128 168 223 270 331 399
#     4  12  23  43  65  99 134 175 221 273 336 404
#     4  11  23  45  70 102 131 178 235 274 339 397
#     4  11  24  45  71  98 136 179 227 289 329 398
#     4  10  21  38  69  98 129 168 215 280 340 393
#     4  11  23  43  65 100 136 167 222 279 339 397
#
# _framework density 21.632860000000001
#
# number of rings (size 3 to 8) (size 9 to 14) (size 15 to 20)
#    0.000    1.000    3.750    3.375    1.750    0.500 
#    2.250    1.250    0.000    0.000    0.000    0.000 
#    0.000    0.000    0.000    0.000    0.000    0.000 
#
# Total GULP energy -198351.877192 kJ/mol
# GULP energy per Si atom -12396.992325 kJ/mol
# Density = 2.158362 g / cm^3
# Si number density = 21.632860 Si / 1000 Ang^3
#
#
#
# Elastic Constant Matrix: (Units=GPa)
#
#
# Indices 1 2 3 4 5 6 
#
# 1 127.1387 40.9542 65.4630 -0.5224 -8.1433 7.9560
# 2 40.9542 105.2339 25.0500 -10.7682 -9.1953 3.1586
# 3 65.4630 25.0500 116.0252 -12.1941 2.2751 4.0335
# 4 -0.5224 -10.7682 -12.1941 32.5598 5.8237 0.6848
# 5 -8.1433 -9.1953 2.2751 5.8237 32.0653 3.2101
# 6 7.9560 3.1586 4.0335 0.6848 3.2101 24.2971
#
#
#
# Elastic Compliance Matrix: (Units=1/GPa)
#
#
# Indices 1 2 3 4 5 6 
#
# 1 0.012982 -0.003381 -0.007003 -0.004163 0.003885 -0.003045
# 2 -0.003381 0.011395 -0.000218 0.003308 0.001892 -0.000681
# 3 -0.007003 -0.000218 0.013248 0.005450 -0.003818 0.000473
# 4 -0.004163 0.003308 0.005450 0.035007 -0.006848 -0.000054
# 5 0.003885 0.001892 -0.003818 -0.006848 0.034759 -0.005284
# 6 -0.003045 -0.000681 0.000473 -0.000054 -0.005284 0.042864
#
#
# Mechanical properties :
#
#
# Convention : Reuss Voigt Hill
#
# Bulk Modulus (GPa) = 60.89572 67.92579 64.41076
# Shear Modulus (GPa) = 28.25924 32.24647 30.25285
#
# Velocity S-wave (km/s) = 3.61821 3.86505 3.74367
# Velocity P-wave (km/s) = 6.75767 7.16838 6.96605
#
# Compressibility (1/GPa) = 0.01642151
#
# Stress axis : x y z
#
# Youngs Moduli (GPa) = 77.02709 87.76126 75.48108
#
# Poissons Ratio (x) = 0.29668 0.52859
# Poissons Ratio (y) = 0.26039 0.01649
# Poissons Ratio (z) = 0.53941 0.01917
#
# Static dielectric constant tensor:
#      x y z
#    x 4.102050 0.182880 0.102860 
#    y 0.182880 4.015310 -0.131440 
#    z 0.102860 -0.131440 3.784430 
# 
# 
# High freq. dielectric constant tensor:
#      x y z
#    x 1.855120 0.009820 0.013560 
#    y 0.009820 1.848070 -0.008260 
#    z 0.013560 -0.008260 1.843340 
# 
# From -- ./inp_files/278166.got.cif
#   From: 2010.06.25/outbox.cif.g09.slc.cpg/sg2_140_cif.got.tgz:278166.got - 2010.06.27 13:26:56.
