data_PCOD8006436
_publ_section_title
;
Structure prediction by ZEFSAII (Michael W. Deem and Ramdas Pophale) SiO2 
 PCOD8006436
Probable space group: P -1
;
_chemical_formula_sum "Si O2"
_cell_formula_units_Z 16
_cell_length_a 12.016234
_cell_length_b 14.395967
_cell_length_c 8.143220
_cell_angle_alpha 61.714955
_cell_angle_beta 98.131128
_cell_angle_gamma 138.504873
_cell_volume 764.882627
_symmetry_space_group_name_H-M "P -1"
_symmetry_group_IT_number 2
_symmetry_cell_setting 'triclinic'
loop_
_space_group_symop_operation_xyz
x,y,z
-x,-y,-z
loop_
_atom_site_type_symbol
_atom_site_label
_atom_site_fract_x
_atom_site_fract_y
_atom_site_fract_z
Si Si1 0.612616 0.558964 0.815306
Si Si2 0.925335 0.562675 0.438303
Si Si3 0.766088 0.384193 0.881831
Si Si4 0.410688 0.209488 0.946811
Si Si5 0.969916 0.614228 0.049682
Si Si6 0.931928 0.124730 0.671300
Si Si7 0.030729 0.862091 0.700190
Si Si8 0.753043 0.798489 0.381786
O O1 0.548952 0.399362 0.876977
O O2 0.594979 0.629248 0.601401
O O3 0.817490 0.715245 0.780477
O O4 0.500000 0.500000 0.000000
O O5 0.794250 0.472801 0.644290
O O6 0.849205 0.526855 0.266399
O O7 0.000000 0.500000 0.500000
O O8 0.068504 0.762855 0.329704
O O9 0.547152 0.208473 0.985605
O O10 0.865938 0.346487 0.926573
O O11 0.841557 0.499304 0.963140
O O12 0.342785 0.191922 0.768624
O O13 0.236954 0.067398 0.141835
O O14 0.074604 0.802101 0.890356
O O15 0.897922 0.121477 0.475842
O O16 0.119546 0.197512 0.680500
O O17 0.114372 0.035398 0.617430
#
# Coordination Sequence:
#
# PCOD8006436 Si02
#       8
#     2   2   2   2   2   2   2   2
#     4  11  22  38  60  92 125 163 214 262 309 380
#     4  10  21  40  68  95 121 170 215 254 315 386
#     4  10  21  42  63  94 124 163 213 271 301 383
#     4  12  23  40  61  94 128 158 216 270 315 363
#     4  10  20  39  70  87 124 166 213 249 332 365
#     4  11  22  41  63  90 133 170 210 259 315 388
#     4  11  21  42  64  90 126 178 211 253 320 391
#     4  11  24  40  62  90 130 175 207 253 327 381
#
# _framework density 20.918240000000001
#
# number of rings (size 3 to 8) (size 9 to 14) (size 15 to 20)
#    0.000    1.250    2.500    5.250    0.000    2.000 
#    2.250    6.250    0.000    0.000    0.000    0.000 
#    0.000    0.000    0.000    0.000    0.000    0.000 
#
# Total GULP energy -198216.010161 kJ/mol
# GULP energy per Si atom -12388.500635 kJ/mol
# Density = 2.087063 g / cm^3
# Si number density = 20.918240 Si / 1000 Ang^3
#
#
#
# Elastic Constant Matrix: (Units=GPa)
#
#
# Indices 1 2 3 4 5 6 
#
# 1 69.1587 49.0250 48.1875 4.9144 -0.5404 0.5342
# 2 49.0250 78.0908 37.8670 3.4308 -6.9700 -3.2072
# 3 48.1875 37.8670 168.9790 15.2360 -14.0591 11.5751
# 4 4.9144 3.4308 15.2360 40.2935 -3.4401 2.7996
# 5 -0.5404 -6.9700 -14.0591 -3.4401 33.6510 -2.1112
# 6 0.5342 -3.2072 11.5751 2.7996 -2.1112 36.6489
#
#
#
# Elastic Compliance Matrix: (Units=1/GPa)
#
#
# Indices 1 2 3 4 5 6 
#
# 1 0.029914 -0.016760 -0.005110 -0.000698 -0.005231 -0.000537
# 2 -0.016760 0.024059 -0.000439 0.000376 0.004741 0.002733
# 3 -0.005110 -0.000439 0.008039 -0.001984 0.002846 -0.002187
# 4 -0.000698 0.000376 -0.001984 0.025859 0.001806 -0.001202
# 5 -0.005231 0.004741 0.002846 0.001806 0.032070 0.001302
# 6 -0.000537 0.002733 -0.002187 -0.001202 0.001302 0.028391
#
#
# Mechanical properties :
#
#
# Convention : Reuss Voigt Hill
#
# Bulk Modulus (GPa) = 57.49116 65.15416 61.32266
# Shear Modulus (GPa) = 25.15762 34.19528 29.67645
#
# Velocity S-wave (km/s) = 3.47171 4.04754 3.77063
# Velocity P-wave (km/s) = 6.60407 7.28410 6.95241
#
# Compressibility (1/GPa) = 0.01739398
#
# Stress axis : x y z
#
# Youngs Moduli (GPa) = 33.42941 41.56444 124.39402
#
# Poissons Ratio (x) = 0.69662 0.63567
# Poissons Ratio (y) = 0.56028 0.05457
# Poissons Ratio (z) = 0.17083 0.01823
#
# Static dielectric constant tensor:
#      x y z
#    x 3.686280 -0.131940 -0.173270 
#    y -0.131940 3.706410 0.284630 
#    z -0.173270 0.284630 4.401890 
# 
# 
# High freq. dielectric constant tensor:
#      x y z
#    x 1.812110 -0.015250 0.008350 
#    y -0.015250 1.807090 0.011510 
#    z 0.008350 0.011510 1.841450 
# 
# From -- ./inp_files/272177.got.cif
#   From: 2010.06.25/outbox.cif.g09.slc.cpg/sg2_137_cif.got.tgz:272177.got - 2010.06.27 13:26:56.
