data_PCOD8006300
_publ_section_title
;
Structure prediction by ZEFSAII (Michael W. Deem and Ramdas Pophale) SiO2 
 PCOD8006300
Probable space group: P -1
;
_chemical_formula_sum "Si O2"
_cell_formula_units_Z 16
_cell_length_a 8.838689
_cell_length_b 10.586857
_cell_length_c 10.025429
_cell_angle_alpha 85.308196
_cell_angle_beta 92.188396
_cell_angle_gamma 50.573845
_cell_volume 717.249004
_symmetry_space_group_name_H-M "P -1"
_symmetry_group_IT_number 2
_symmetry_cell_setting 'triclinic'
loop_
_space_group_symop_operation_xyz
x,y,z
-x,-y,-z
loop_
_atom_site_type_symbol
_atom_site_label
_atom_site_fract_x
_atom_site_fract_y
_atom_site_fract_z
Si Si1 0.741636 0.221756 0.376162
Si Si2 0.397950 0.214394 0.357574
Si Si3 0.782304 0.373795 0.122643
Si Si4 0.801858 0.165075 0.923458
Si Si5 0.146533 0.323776 0.090743
Si Si6 0.957153 0.155893 0.652387
Si Si7 0.592581 0.745199 0.111862
Si Si8 0.705647 0.830550 0.363038
O O1 0.532353 0.265196 0.378894
O O2 0.725781 0.347900 0.266001
O O3 0.800239 0.243160 0.520448
O O4 0.905641 0.040425 0.337871
O O5 0.234945 0.332251 0.230152
O O6 0.286379 0.242479 0.488081
O O7 0.526549 0.025554 0.331302
O O8 0.670181 0.565489 0.089784
O O9 0.020504 0.265520 0.125935
O O10 0.713585 0.316717 0.008149
O O11 0.835825 0.215036 0.779516
O O12 0.644699 0.134574 0.906712
O O13 0.000000 0.000000 0.000000
O O14 0.326879 0.200226 0.003782
O O15 0.000000 0.500000 0.000000
O O16 0.085465 0.214365 0.649219
O O17 0.673605 0.741655 0.258290
#
# Coordination Sequence:
#
# PCOD8006300 Si02
#       8
#     2   2   2   2   2   2   2   2
#     4  10  20  39  67  94 129 167 209 268 324 369
#     4  10  21  39  67  96 129 165 218 271 315 381
#     4  11  23  43  63  92 129 171 211 262 326 376
#     4  12  24  39  64  95 126 168 212 263 319 377
#     4  10  23  41  63  93 131 176 209 262 322 381
#     4  10  21  39  64  98 127 160 219 267 313 382
#     4  11  25  43  63  94 133 169 216 262 321 391
#     4  10  22  40  65  97 128 169 214 269 323 373
#
# _framework density 22.307456999999999
#
# number of rings (size 3 to 8) (size 9 to 14) (size 15 to 20)
#    0.000    1.500    1.250    3.375    3.500    3.500 
#    0.000   10.625    0.000    0.000    0.000    0.000 
#    0.000    0.000    0.000    0.000    0.000    0.000 
#
# Total GULP energy -198460.823470 kJ/mol
# GULP energy per Si atom -12403.801467 kJ/mol
# Density = 2.225668 g / cm^3
# Si number density = 22.307457 Si / 1000 Ang^3
#
#
#
# Elastic Constant Matrix: (Units=GPa)
#
#
# Indices 1 2 3 4 5 6 
#
# 1 171.0431 17.3221 72.4411 -2.4767 -3.6938 -18.9653
# 2 17.3221 35.8140 25.6261 3.8618 5.1758 -0.4536
# 3 72.4411 25.6261 179.7095 3.2387 4.6828 -10.0252
# 4 -2.4767 3.8618 3.2387 27.2547 -0.2000 3.6358
# 5 -3.6938 5.1758 4.6828 -0.2000 53.7907 3.7620
# 6 -18.9653 -0.4536 -10.0252 3.6358 3.7620 27.5565
#
#
#
# Elastic Compliance Matrix: (Units=1/GPa)
#
#
# Indices 1 2 3 4 5 6 
#
# 1 0.007621 -0.001951 -0.002597 0.000738 0.000654 0.004082
# 2 -0.001951 0.032398 -0.003753 -0.004178 -0.002854 -0.001233
# 3 -0.002597 -0.003753 0.007225 -0.000692 -0.000515 0.000941
# 4 0.000738 -0.004178 -0.000692 0.038104 0.001003 -0.004977
# 5 0.000654 -0.002854 -0.000515 0.001003 0.019135 -0.002528
# 6 0.004082 -0.001233 0.000941 -0.004977 -0.002528 0.040422
#
#
# Mechanical properties :
#
#
# Convention : Reuss Voigt Hill
#
# Bulk Modulus (GPa) = 32.63271 68.59391 50.61331
# Shear Modulus (GPa) = 29.11722 39.79885 34.45804
#
# Velocity S-wave (km/s) = 3.61677 4.22845 3.93451
# Velocity P-wave (km/s) = 5.66584 7.39296 6.58626
#
# Compressibility (1/GPa) = 0.03064410
#
# Stress axis : x y z
#
# Youngs Moduli (GPa) = 131.21407 30.86608 138.41331
#
# Poissons Ratio (x) = 0.06021 0.35940
# Poissons Ratio (y) = 0.25594 0.51943
# Poissons Ratio (z) = 0.34071 0.11583
#
# Static dielectric constant tensor:
#      x y z
#    x 4.669860 -0.180070 -0.168380 
#    y -0.180070 3.644430 0.051870 
#    z -0.168380 0.051870 4.147950 
# 
# 
# High freq. dielectric constant tensor:
#      x y z
#    x 1.903280 -0.007300 -0.002430 
#    y -0.007300 1.846960 0.002640 
#    z -0.002430 0.002640 1.892080 
# 
# From -- ./inp_files/184408.got.cif
#   From: 2010.06.25/outbox.cif.g09.slc.cpg/sg2_93_cif.got.tgz:184408.got - 2010.06.27 13:26:56.
