data_PCOD8006783
_publ_section_title
;
Structure prediction by ZEFSAII (Michael W. Deem and Ramdas Pophale) SiO2 
 PCOD8006783
Probable space group: P -1
;
_chemical_formula_sum "Si O2"
_cell_formula_units_Z 16
_cell_length_a 12.653648
_cell_length_b 9.604595
_cell_length_c 19.883492
_cell_angle_alpha 37.133692
_cell_angle_beta 135.725884
_cell_angle_gamma 107.138786
_cell_volume 769.290334
_symmetry_space_group_name_H-M "P -1"
_symmetry_group_IT_number 2
_symmetry_cell_setting 'triclinic'
loop_
_space_group_symop_operation_xyz
x,y,z
-x,-y,-z
loop_
_atom_site_type_symbol
_atom_site_label
_atom_site_fract_x
_atom_site_fract_y
_atom_site_fract_z
Si Si1 0.165643 0.768154 0.110042
Si Si2 0.535447 0.804045 0.794280
Si Si3 0.016930 0.813698 0.257887
Si Si4 0.191172 0.242552 0.367018
Si Si5 0.083535 0.833719 0.791694
Si Si6 0.947661 0.431584 0.304797
Si Si7 0.481643 0.355709 0.611596
Si Si8 0.737039 0.227966 0.240966
O O1 0.227994 0.436965 0.266532
O O2 0.370796 0.704766 0.239585
O O3 0.000000 0.000000 0.000000
O O4 0.080726 0.904213 0.945257
O O5 0.483999 0.660592 0.886017
O O6 0.391382 0.958252 0.605093
O O7 0.552520 0.030696 0.750388
O O8 0.750555 0.517246 0.973483
O O9 0.255381 0.571531 0.451361
O O10 0.920487 0.655898 0.262015
O O11 0.962201 0.932754 0.262740
O O12 0.120319 0.101624 0.342255
O O13 0.013358 0.490576 0.242564
O O14 0.168784 0.885963 0.746203
O O15 0.750591 0.472315 0.185848
O O16 0.132290 0.078344 0.537600
O O17 0.500000 0.500000 0.500000
#
# Coordination Sequence:
#
# PCOD8006783 Si02
#       8
#     2   2   2   2   2   2   2   2
#     4  12  21  38  67  93 122 165 214 256 301 370
#     4  11  21  42  67  94 122 166 219 247 303 387
#     4  12  25  42  61 100 128 159 208 265 313 362
#     4  10  20  40  64  88 125 167 205 253 307 376
#     4  11  26  39  63  95 132 162 203 263 321 358
#     4   9  17  38  65  90 119 163 211 255 304 369
#     4  12  22  40  69  94 118 166 214 254 303 376
#     4   9  19  39  67  90 118 171 211 250 305 376
#
# _framework density 20.798389
#
# number of rings (size 3 to 8) (size 9 to 14) (size 15 to 20)
#    0.000    1.250    6.250    1.875    1.750    2.000 
#    0.000    1.875    0.000    0.000    0.000    0.000 
#    0.000    0.000    0.000    0.000    0.000    0.000 
#
# Total GULP energy -198368.896166 kJ/mol
# GULP energy per Si atom -12398.056010 kJ/mol
# Density = 2.075105 g / cm^3
# Si number density = 20.798389 Si / 1000 Ang^3
#
#
#
# Elastic Constant Matrix: (Units=GPa)
#
#
# Indices 1 2 3 4 5 6 
#
# 1 69.9117 51.6726 17.1331 -6.8929 -2.9973 14.4422
# 2 51.6726 161.8949 25.6894 -2.4753 1.7648 6.4781
# 3 17.1331 25.6894 56.1011 0.1045 1.6755 5.2429
# 4 -6.8929 -2.4753 0.1045 30.7839 2.7724 0.4976
# 5 -2.9973 1.7648 1.6755 2.7724 23.3814 -2.4969
# 6 14.4422 6.4781 5.2429 0.4976 -2.4969 31.8829
#
#
#
# Elastic Compliance Matrix: (Units=1/GPa)
#
#
# Indices 1 2 3 4 5 6 
#
# 1 0.021739 -0.006070 -0.003183 0.004330 0.002106 -0.007993
# 2 -0.006070 0.008394 -0.002080 -0.000604 -0.001051 0.001313
# 3 -0.003183 -0.002080 0.019947 -0.000765 -0.001754 -0.001541
# 4 0.004330 -0.000604 -0.000765 0.033775 -0.003619 -0.002523
# 5 0.002106 -0.001051 -0.001754 -0.003619 0.043999 0.003050
# 6 -0.007993 0.001313 -0.001541 -0.002523 0.003050 0.035250
#
#
# Mechanical properties :
#
#
# Convention : Reuss Voigt Hill
#
# Bulk Modulus (GPa) = 36.47905 52.98865 44.73385
# Shear Modulus (GPa) = 25.65295 30.10381 27.87838
#
# Velocity S-wave (km/s) = 3.51580 3.80861 3.66513
# Velocity P-wave (km/s) = 5.83598 6.69875 6.28219
#
# Compressibility (1/GPa) = 0.02741299
#
# Stress axis : x y z
#
# Youngs Moduli (GPa) = 46.00057 119.13185 50.13164
#
# Poissons Ratio (x) = 0.72316 0.15958
# Poissons Ratio (y) = 0.27924 0.10428
# Poissons Ratio (z) = 0.14643 0.24781
#
# Static dielectric constant tensor:
#      x y z
#    x 3.843800 0.368670 -0.087980 
#    y 0.368670 3.731230 0.240360 
#    z -0.087980 0.240360 4.025450 
# 
# 
# High freq. dielectric constant tensor:
#      x y z
#    x 1.797770 0.029710 -0.013770 
#    y 0.029710 1.803960 0.014560 
#    z -0.013770 0.014560 1.833120 
# 
# From -- ./inp_files/562909.got.cif
#   From: 2010.06.25/outbox.cif.g09.slc.cpg/sg2_282_cif.got.tgz:562909.got - 2010.06.27 13:26:56.
