data_PCOD8006560
_publ_section_title
;
Structure prediction by ZEFSAII (Michael W. Deem and Ramdas Pophale) SiO2 
 PCOD8006560
Probable space group: P -1
;
_chemical_formula_sum "Si O2"
_cell_formula_units_Z 14
_cell_length_a 5.330528
_cell_length_b 22.294237
_cell_length_c 4.979839
_cell_angle_alpha 104.684696
_cell_angle_beta 89.843336
_cell_angle_gamma 78.455010
_cell_volume 559.997678
_symmetry_space_group_name_H-M "P -1"
_symmetry_group_IT_number 2
_symmetry_cell_setting 'triclinic'
loop_
_space_group_symop_operation_xyz
x,y,z
-x,-y,-z
loop_
_atom_site_type_symbol
_atom_site_label
_atom_site_fract_x
_atom_site_fract_y
_atom_site_fract_z
Si Si1 0.449990 0.328331 0.638941
Si Si2 0.474684 0.811044 0.697739
Si Si3 0.761004 0.009198 0.704419
Si Si4 0.350874 0.568934 0.502633
Si Si5 0.100404 0.626487 0.084104
Si Si6 0.997504 0.100635 0.115733
Si Si7 0.642465 0.873931 0.276935
O O1 0.467255 0.264324 0.399380
O O2 0.443087 0.385726 0.489983
O O3 0.707921 0.324135 0.815169
O O4 0.195738 0.340125 0.837239
O O5 0.177025 0.840693 0.654124
O O6 0.664917 0.838519 0.525460
O O7 0.505557 0.832195 0.028744
O O8 0.499311 0.050267 0.616504
O O9 0.809775 0.051995 0.006181
O O10 0.000000 0.000000 0.500000
O O11 0.763221 0.937552 0.742727
O O12 0.500000 0.500000 0.500000
O O13 0.187250 0.568137 0.228607
O O14 0.138995 0.598062 0.756110
O O15 0.084674 0.125117 0.858287
#
# Coordination Sequence:
#
# PCOD8006560 Si02
#       7
#     2   2   2   2   2   2   2
#     4  10  27  44  70 100 143 182 232 280 340 403
#     4  11  26  41  62  92 127 166 221 267 327 399
#     4  10  20  40  61  87 126 155 214 268 333 395
#     4  10  24  45  73 106 141 183 229 282 337 401
#     4  10  25  42  71 101 140 182 226 281 336 400
#     4  10  23  40  61  90 123 164 209 274 326 402
#     4  11  25  40  64  92 120 170 214 267 339 394
#
# _framework density 25.000101000000001
#
# number of rings (size 3 to 8) (size 9 to 14) (size 15 to 20)
#    0.857    0.857    1.429    0.857    8.000    2.857 
#    0.000    0.000    0.000    0.000    0.000    0.000 
#    0.000    0.000    0.000    0.000    0.000    0.000 
#
# Total GULP energy -173488.462634 kJ/mol
# GULP energy per Si atom -12392.033045 kJ/mol
# Density = 2.494320 g / cm^3
# Si number density = 25.000101 Si / 1000 Ang^3
#
#
#
# Elastic Constant Matrix: (Units=GPa)
#
#
# Indices 1 2 3 4 5 6 
#
# 1 85.5990 25.7634 17.0525 6.6959 -32.2391 0.7128
# 2 25.7634 119.9594 20.2871 24.0465 -11.9643 25.7718
# 3 17.0525 20.2871 101.1598 5.9059 -30.8220 9.2380
# 4 6.6959 24.0465 5.9059 43.4545 -8.1981 0.0823
# 5 -32.2391 -11.9643 -30.8220 -8.1981 43.6447 -0.1425
# 6 0.7128 25.7718 9.2380 0.0823 -0.1425 27.4396
#
#
#
# Elastic Compliance Matrix: (Units=1/GPa)
#
#
# Indices 1 2 3 4 5 6 
#
# 1 0.017230 -0.003456 0.001481 0.001527 0.013121 0.002363
# 2 -0.003456 0.013019 -0.000817 -0.006700 -0.000858 -0.011848
# 3 0.001481 -0.000817 0.013247 0.000370 0.010283 -0.003679
# 4 0.001527 -0.006700 0.000370 0.027310 0.004702 0.006071
# 5 0.013121 -0.000858 0.010283 0.004702 0.040505 -0.002801
# 6 0.002363 -0.011848 -0.003679 0.006071 -0.002801 0.048716
#
#
# Mechanical properties :
#
#
# Convention : Reuss Voigt Hill
#
# Bulk Modulus (GPa) = 26.37609 48.10267 37.23938
# Shear Modulus (GPa) = 28.05080 39.14876 33.59978
#
# Velocity S-wave (km/s) = 3.35330 3.96149 3.67002
# Velocity P-wave (km/s) = 5.05630 6.34093 5.73470
#
# Compressibility (1/GPa) = 0.03791312
#
# Stress axis : x y z
#
# Youngs Moduli (GPa) = 58.03843 76.80810 75.48996
#
# Poissons Ratio (x) = 0.26547 -0.11183
# Poissons Ratio (y) = 0.20059 0.06165
# Poissons Ratio (z) = -0.08597 0.06273
#
# Static dielectric constant tensor:
#      x y z
#    x 4.512480 -0.021390 0.044870 
#    y -0.021390 4.353720 0.001830 
#    z 0.044870 0.001830 4.549300 
# 
# 
# High freq. dielectric constant tensor:
#      x y z
#    x 1.997440 0.001710 -0.000010 
#    y 0.001710 1.974830 0.000910 
#    z -0.000010 0.000910 2.009930 
# 
# From -- ./inp_files/12424.got.cif
#   From: 2010.06.25/outbox.cif.g09.slc.cpg/sg2_7_cif.got.tgz:12424.got - 2010.06.27 13:26:56.
