data_PCOD8006270
_publ_section_title
;
Structure prediction by ZEFSAII (Michael W. Deem and Ramdas Pophale) SiO2 
 PCOD8006270
Probable space group: P -1
;
_chemical_formula_sum "Si O2"
_cell_formula_units_Z 14
_cell_length_a 11.075353
_cell_length_b 9.968717
_cell_length_c 9.532077
_cell_angle_alpha 137.880872
_cell_angle_beta 96.456252
_cell_angle_gamma 77.632381
_cell_volume 687.710214
_symmetry_space_group_name_H-M "P -1"
_symmetry_group_IT_number 2
_symmetry_cell_setting 'triclinic'
loop_
_space_group_symop_operation_xyz
x,y,z
-x,-y,-z
loop_
_atom_site_type_symbol
_atom_site_label
_atom_site_fract_x
_atom_site_fract_y
_atom_site_fract_z
Si Si1 0.790897 0.603260 0.301953
Si Si2 0.413600 0.307685 0.167193
Si Si3 0.781898 0.808700 0.750094
Si Si4 0.700484 0.254275 0.163698
Si Si5 0.742233 0.829767 0.193466
Si Si6 0.071329 0.432481 0.182997
Si Si7 0.751136 0.286420 0.511329
O O1 0.801886 0.752416 0.547319
O O2 0.708692 0.438820 0.204109
O O3 0.722224 0.734729 0.267476
O O4 0.926060 0.487993 0.181888
O O5 0.344287 0.248599 0.250970
O O6 0.558340 0.239537 0.157805
O O7 0.372289 0.552443 0.331383
O O8 0.373518 0.188476 0.935353
O O9 0.898687 0.689396 0.761362
O O10 0.775845 0.049022 0.945938
O O11 0.763174 0.284281 0.343084
O O12 0.746034 0.066141 0.401135
O O13 0.869788 0.714376 0.050127
O O14 0.129244 0.637184 0.351798
#
# Coordination Sequence:
#
# PCOD8006270 Si02
#       7
#     2   2   2   2   2   2   2
#     4  12  25  38  60  93 125 151 197 255 294 338
#     4  10  22  40  65  88 118 156 207 237 287 374
#     4  10  22  37  62  93 116 152 209 243 285 356
#     4  12  22  38  66  90 118 160 197 244 300 343
#     4  10  23  42  61  88 121 160 195 242 303 352
#     4  10  22  42  61  88 121 156 204 240 288 370
#     4  10  20  39  67  84 114 164 199 237 298 349
#
# _framework density 20.357413999999999
#
# number of rings (size 3 to 8) (size 9 to 14) (size 15 to 20)
#    0.000    1.714    5.714    1.714    0.000    5.143 
#    0.000    1.429    0.000    0.000    0.000    0.000 
#    0.000    0.000    0.000    0.000    0.000    0.000 
#
# Total GULP energy -173638.773866 kJ/mol
# GULP energy per Si atom -12402.769562 kJ/mol
# Density = 2.031108 g / cm^3
# Si number density = 20.357414 Si / 1000 Ang^3
#
#
#
# Elastic Constant Matrix: (Units=GPa)
#
#
# Indices 1 2 3 4 5 6 
#
# 1 39.7139 -0.3411 -11.5246 6.6230 1.9265 -6.4768
# 2 -0.3411 105.2623 26.9370 4.6633 -1.7740 15.0396
# 3 -11.5246 26.9370 78.7541 22.1222 1.0755 1.2133
# 4 6.6230 4.6633 22.1222 40.4423 3.1599 2.2514
# 5 1.9265 -1.7740 1.0755 3.1599 10.2291 3.3203
# 6 -6.4768 15.0396 1.2133 2.2514 3.3203 15.3026
#
#
#
# Elastic Compliance Matrix: (Units=1/GPa)
#
#
# Indices 1 2 3 4 5 6 
#
# 1 0.034095 -0.005427 0.009616 -0.010524 -0.012687 0.023304
# 2 -0.005427 0.013562 -0.006114 0.002957 0.008778 -0.017481
# 3 0.009616 -0.006114 0.019380 -0.011714 -0.004973 0.011345
# 4 -0.010524 0.002957 -0.011714 0.033354 -0.003116 -0.010663
# 5 -0.012687 0.008778 -0.004973 -0.003116 0.115563 -0.038219
# 6 0.023304 -0.017481 0.011345 -0.010663 -0.038219 0.101354
#
#
# Mechanical properties :
#
#
# Convention : Reuss Voigt Hill
#
# Bulk Modulus (GPa) = 15.82638 28.20810 22.01724
# Shear Modulus (GPa) = 14.61051 27.10538 20.85795
#
# Velocity S-wave (km/s) = 2.68190 3.65290 3.20439
# Velocity P-wave (km/s) = 4.16908 5.62833 4.95274
#
# Compressibility (1/GPa) = 0.06318566
#
# Stress axis : x y z
#
# Youngs Moduli (GPa) = 29.32984 73.73762 51.60052
#
# Poissons Ratio (x) = 0.40021 -0.49620
# Poissons Ratio (y) = 0.15919 0.31548
# Poissons Ratio (z) = -0.28204 0.45083
#
# Static dielectric constant tensor:
#      x y z
#    x 3.418790 -0.028430 0.004450 
#    y -0.028430 3.642760 0.183100 
#    z 0.004450 0.183100 3.868000 
# 
# 
# High freq. dielectric constant tensor:
#      x y z
#    x 1.774470 -0.002940 0.002730 
#    y -0.002940 1.788100 0.013440 
#    z 0.002730 0.013440 1.808360 
# 
# From -- ./inp_files/201305.got.cif
#   From: 2010.06.25/outbox.cif.g09.slc.cpg/sg2_101_cif.got.tgz:201305.got - 2010.06.27 13:26:56.
