data_PCOD8006889
_publ_section_title
;
Structure prediction by ZEFSAII (Michael W. Deem and Ramdas Pophale) SiO2 
 PCOD8006889
Probable space group: P -1
;
_chemical_formula_sum "Si O2"
_cell_formula_units_Z 16
_cell_length_a 10.910883
_cell_length_b 14.393329
_cell_length_c 10.604923
_cell_angle_alpha 43.049725
_cell_angle_beta 63.366394
_cell_angle_gamma 42.379564
_cell_volume 750.989617
_symmetry_space_group_name_H-M "P -1"
_symmetry_group_IT_number 2
_symmetry_cell_setting 'triclinic'
loop_
_space_group_symop_operation_xyz
x,y,z
-x,-y,-z
loop_
_atom_site_type_symbol
_atom_site_label
_atom_site_fract_x
_atom_site_fract_y
_atom_site_fract_z
Si Si1 0.192135 0.390407 0.945240
Si Si2 0.286658 0.996113 0.621916
Si Si3 0.301587 0.275823 0.264773
Si Si4 0.244265 0.755978 0.259516
Si Si5 0.895681 0.881471 0.160278
Si Si6 0.333483 0.582930 0.652907
Si Si7 0.877640 0.147517 0.302702
Si Si8 0.022399 0.309240 0.930287
O O1 0.222438 0.517107 0.743579
O O2 0.194536 0.271821 0.955490
O O3 0.346827 0.269776 0.101661
O O4 0.000000 0.500000 0.000000
O O5 0.210341 0.186045 0.406515
O O6 0.261225 0.031981 0.747980
O O7 0.502995 0.840466 0.639098
O O8 0.184171 0.929407 0.688306
O O9 0.163615 0.477116 0.189099
O O10 0.256305 0.733525 0.428510
O O11 0.446495 0.585668 0.281504
O O12 0.094137 0.758879 0.260218
O O13 0.171852 0.953163 0.063999
O O14 0.917925 0.740964 0.193402
O O15 0.293118 0.668854 0.725799
O O16 0.986349 0.187210 0.132328
O O17 0.000000 0.000000 0.500000
#
# Coordination Sequence:
#
# PCOD8006889 Si02
#       8
#     2   2   2   2   2   2   2   2
#     4  10  20  40  65  90 124 166 213 271 318 380
#     4  11  25  41  67  93 137 170 214 276 324 384
#     4  10  23  44  62  98 129 169 219 268 332 385
#     4  10  24  41  63  95 136 171 211 276 333 383
#     4  11  23  43  63  93 136 173 213 270 331 390
#     4  11  22  42  66  95 132 171 223 270 327 389
#     4  12  23  38  69  98 123 171 224 273 316 388
#     4  11  24  39  67  96 126 171 223 257 331 393
#
# _framework density 21.305221
#
# number of rings (size 3 to 8) (size 9 to 14) (size 15 to 20)
#    0.000    1.250    2.500    4.500    7.000    1.000 
#    0.000    3.750    0.000    0.000    0.000    0.000 
#    0.000    0.000    0.000    0.000    0.000    0.000 
#
# Total GULP energy -198308.535622 kJ/mol
# GULP energy per Si atom -12394.283476 kJ/mol
# Density = 2.125673 g / cm^3
# Si number density = 21.305221 Si / 1000 Ang^3
#
#
#
# Elastic Constant Matrix: (Units=GPa)
#
#
# Indices 1 2 3 4 5 6 
#
# 1 67.9974 36.5801 31.5990 -10.9168 -1.0080 16.7694
# 2 36.5801 103.6953 30.3187 7.9187 3.6939 27.3518
# 3 31.5990 30.3187 94.9229 -2.6801 -6.9578 2.9864
# 4 -10.9168 7.9187 -2.6801 28.8302 0.0631 4.9863
# 5 -1.0080 3.6939 -6.9578 0.0631 35.9937 -0.6438
# 6 16.7694 27.3518 2.9864 4.9863 -0.6438 44.4755
#
#
#
# Elastic Compliance Matrix: (Units=1/GPa)
#
#
# Indices 1 2 3 4 5 6 
#
# 1 0.023829 -0.006039 -0.005486 0.011237 0.000097 -0.006161
# 2 -0.006039 0.014679 -0.002817 -0.005542 -0.002317 -0.005973
# 3 -0.005486 -0.002817 0.013352 -0.000589 0.002771 0.003010
# 4 0.011237 -0.005542 -0.000589 0.041344 0.000600 -0.005416
# 5 0.000097 -0.002317 0.002771 0.000600 0.028586 0.001549
# 6 -0.006161 -0.005973 0.003010 -0.005416 0.001549 0.028908
#
#
# Mechanical properties :
#
#
# Convention : Reuss Voigt Hill
#
# Bulk Modulus (GPa) = 43.14304 51.51236 47.32770
# Shear Modulus (GPa) = 26.72282 33.06773 29.89527
#
# Velocity S-wave (km/s) = 3.54543 3.94394 3.74998
# Velocity P-wave (km/s) = 6.08720 6.70599 6.40407
#
# Compressibility (1/GPa) = 0.02317871
#
# Stress axis : x y z
#
# Youngs Moduli (GPa) = 41.96533 68.12554 74.89279
#
# Poissons Ratio (x) = 0.41139 0.41083
# Poissons Ratio (y) = 0.25341 0.21095
# Poissons Ratio (z) = 0.23020 0.19188
#
# Static dielectric constant tensor:
#      x y z
#    x 4.053090 0.148660 0.154390 
#    y 0.148660 3.966290 0.058900 
#    z 0.154390 0.058900 4.093710 
# 
# 
# High freq. dielectric constant tensor:
#      x y z
#    x 1.829060 0.001460 0.004640 
#    y 0.001460 1.835520 0.001020 
#    z 0.004640 0.001020 1.847170 
# 
# From -- ./inp_files/433708.got.cif
#   From: 2010.06.25/outbox.cif.g09.slc.cpg/sg2_217_cif.got.tgz:433708.got - 2010.06.27 13:26:56.
