data_PCOD8006592
_publ_section_title
;
Structure prediction by ZEFSAII (Michael W. Deem and Ramdas Pophale) SiO2 
 PCOD8006592
Probable space group: P -1
;
_chemical_formula_sum "Si O2"
_cell_formula_units_Z 16
_cell_length_a 11.277191
_cell_length_b 9.569020
_cell_length_c 12.210339
_cell_angle_alpha 118.363834
_cell_angle_beta 42.154857
_cell_angle_gamma 99.813248
_cell_volume 740.385894
_symmetry_space_group_name_H-M "P -1"
_symmetry_group_IT_number 2
_symmetry_cell_setting 'triclinic'
loop_
_space_group_symop_operation_xyz
x,y,z
-x,-y,-z
loop_
_atom_site_type_symbol
_atom_site_label
_atom_site_fract_x
_atom_site_fract_y
_atom_site_fract_z
Si Si1 0.380253 0.241042 0.425568
Si Si2 0.078169 0.817715 0.114532
Si Si3 0.700226 0.134730 0.317100
Si Si4 0.436820 0.846574 0.949795
Si Si5 0.295435 0.938987 0.469000
Si Si6 0.661536 0.332105 0.840166
Si Si7 0.946776 0.796836 0.955738
Si Si8 0.046179 0.565832 0.202450
O O1 0.538678 0.272748 0.410302
O O2 0.177099 0.370156 0.630220
O O3 0.401098 0.050490 0.374936
O O4 0.415889 0.261350 0.279763
O O5 0.244200 0.899164 0.034171
O O6 0.128990 0.632865 0.064651
O O7 0.917278 0.948010 0.340947
O O8 0.029857 0.787981 0.015206
O O9 0.624766 0.108307 0.479934
O O10 0.883461 0.194220 0.235778
O O11 0.767332 0.961292 0.135815
O O12 0.406963 0.752335 0.042626
O O13 0.500000 0.000000 0.000000
O O14 0.316247 0.773066 0.324734
O O15 0.860990 0.364568 0.733645
O O16 0.500000 0.500000 0.000000
O O17 0.883950 0.634960 0.913140
#
# Coordination Sequence:
#
# PCOD8006592 Si02
#       8
#     2   2   2   2   2   2   2   2
#     4  11  22  41  66 102 121 167 222 262 321 382
#     4   9  20  40  64  93 124 169 216 263 316 379
#     4  10  22  39  67  95 129 168 213 266 319 382
#     4  11  22  39  69  93 125 172 215 271 310 386
#     4  10  22  41  65  91 129 171 213 264 314 387
#     4  11  26  46  62  95 133 173 215 264 333 388
#     4  10  20  40  61  96 129 168 212 260 326 380
#     4  10  24  39  66  93 129 167 210 272 323 380
#
# _framework density 21.610353
#
# number of rings (size 3 to 8) (size 9 to 14) (size 15 to 20)
#    0.000    1.750    2.500    0.750    3.500    3.000 
#    4.500    1.250    0.000    0.000    0.000    0.000 
#    0.000    0.000    0.000    0.000    0.000    0.000 
#
# Total GULP energy -198268.227610 kJ/mol
# GULP energy per Si atom -12391.764226 kJ/mol
# Density = 2.156117 g / cm^3
# Si number density = 21.610353 Si / 1000 Ang^3
#
#
#
# Elastic Constant Matrix: (Units=GPa)
#
#
# Indices 1 2 3 4 5 6 
#
# 1 75.4854 19.7647 29.0989 -3.1115 -5.8433 8.8642
# 2 19.7647 89.2616 35.6574 6.3708 5.3553 14.6958
# 3 29.0989 35.6574 77.7190 -9.7621 9.7504 1.5934
# 4 -3.1115 6.3708 -9.7621 29.9534 -0.8959 -1.3494
# 5 -5.8433 5.3553 9.7504 -0.8959 33.4472 -0.8547
# 6 8.8642 14.6958 1.5934 -1.3494 -0.8547 28.7792
#
#
#
# Elastic Compliance Matrix: (Units=1/GPa)
#
#
# Indices 1 2 3 4 5 6 
#
# 1 0.016818 -0.000660 -0.006548 -0.000298 0.004834 -0.004351
# 2 -0.000660 0.016278 -0.007762 -0.006446 -0.000836 -0.008006
# 3 -0.006548 -0.007762 0.020436 0.007693 -0.005524 0.005046
# 4 -0.000298 -0.006446 0.007693 0.037440 -0.000139 0.004709
# 5 0.004834 -0.000836 -0.005524 -0.000139 0.032488 0.000202
# 6 -0.004351 -0.008006 0.005046 0.004709 0.000202 0.040123
#
#
# Mechanical properties :
#
#
# Convention : Reuss Voigt Hill
#
# Bulk Modulus (GPa) = 42.39040 45.72311 44.05676
# Shear Modulus (GPa) = 24.82777 28.96562 26.89670
#
# Velocity S-wave (km/s) = 3.39320 3.66506 3.53175
# Velocity P-wave (km/s) = 5.91693 6.25413 6.08787
#
# Compressibility (1/GPa) = 0.02359025
#
# Stress axis : x y z
#
# Youngs Moduli (GPa) = 59.46152 61.43175 48.93427
#
# Poissons Ratio (x) = 0.04057 0.32044
# Poissons Ratio (y) = 0.03927 0.37982
# Poissons Ratio (z) = 0.38938 0.47682
#
# Static dielectric constant tensor:
#      x y z
#    x 3.969500 0.026010 -0.108480 
#    y 0.026010 4.279250 -0.381280 
#    z -0.108480 -0.381280 3.955750 
# 
# 
# High freq. dielectric constant tensor:
#      x y z
#    x 1.853880 0.001700 -0.006780 
#    y 0.001700 1.849300 -0.019580 
#    z -0.006780 -0.019580 1.834930 
# 
# From -- ./inp_files/419675.got.cif
#   From: 2010.06.25/outbox.cif.g09.slc.cpg/sg2_210_cif.got.tgz:419675.got - 2010.06.27 13:26:56.
