data_PCOD8006080
_publ_section_title
;
Structure prediction by ZEFSAII (Michael W. Deem and Ramdas Pophale) SiO2 
 PCOD8006080
Probable space group: P -1
;
_chemical_formula_sum "Si O2"
_cell_formula_units_Z 16
_cell_length_a 9.561020
_cell_length_b 8.455251
_cell_length_c 12.371036
_cell_angle_alpha 76.331601
_cell_angle_beta 89.833166
_cell_angle_gamma 133.001157
_cell_volume 691.486332
_symmetry_space_group_name_H-M "P -1"
_symmetry_group_IT_number 2
_symmetry_cell_setting 'triclinic'
loop_
_space_group_symop_operation_xyz
x,y,z
-x,-y,-z
loop_
_atom_site_type_symbol
_atom_site_label
_atom_site_fract_x
_atom_site_fract_y
_atom_site_fract_z
Si Si1 0.090894 0.846310 0.465233
Si Si2 0.188856 0.204230 0.668394
Si Si3 0.390050 0.078501 0.779601
Si Si4 0.383893 0.068234 0.014621
Si Si5 0.475679 0.724212 0.581099
Si Si6 0.632348 0.303306 0.170587
Si Si7 0.025963 0.177032 0.896421
Si Si8 0.232573 0.653374 0.396456
O O1 0.145481 0.765304 0.380163
O O2 0.961628 0.893671 0.415056
O O3 0.945321 0.620652 0.578638
O O4 0.291128 0.079053 0.482930
O O5 0.262181 0.078470 0.695316
O O6 0.390527 0.472385 0.612105
O O7 0.059962 0.149112 0.779455
O O8 0.617168 0.245986 0.717992
O O9 0.293229 0.820549 0.829923
O O10 0.386472 0.166633 0.883020
O O11 0.480553 0.237881 0.088974
O O12 0.161749 0.859036 0.086844
O O13 0.500000 0.000000 0.000000
O O14 0.457212 0.769651 0.696908
O O15 0.347677 0.730337 0.499175
O O16 0.800085 0.568273 0.105845
O O17 0.000000 0.000000 0.000000
#
# Coordination Sequence:
#
# PCOD8006080 Si02
#       8
#     2   2   2   2   2   2   2   2
#     4  10  20  39  65  91 118 167 218 251 307 382
#     4  10  23  40  61  92 132 164 206 267 316 368
#     4  11  22  43  60  95 136 166 202 272 322 364
#     4  10  23  42  63  93 129 164 211 259 313 374
#     4  10  20  41  66  93 122 166 222 256 312 378
#     4  10  23  41  70  90 126 173 211 259 317 379
#     4  11  22  43  66  94 125 167 217 257 311 383
#     4  10  22  38  68  93 125 165 215 266 307 373
#
# _framework density 23.138563999999999
#
# number of rings (size 3 to 8) (size 9 to 14) (size 15 to 20)
#    0.000    1.750    2.500    1.125    1.750    4.500 
#    2.250    5.000    0.000    0.000    0.000    0.000 
#    0.000    0.000    0.000    0.000    0.000    0.000 
#
# Total GULP energy -198289.840927 kJ/mol
# GULP energy per Si atom -12393.115058 kJ/mol
# Density = 2.308590 g / cm^3
# Si number density = 23.138564 Si / 1000 Ang^3
#
#
#
# Elastic Constant Matrix: (Units=GPa)
#
#
# Indices 1 2 3 4 5 6 
#
# 1 89.9116 13.2394 7.2575 -17.9252 6.6020 11.1295
# 2 13.2394 103.7566 39.6864 -14.1221 4.8161 20.6209
# 3 7.2575 39.6864 72.9049 -6.9514 -6.5470 2.1863
# 4 -17.9252 -14.1221 -6.9514 40.3460 3.5097 -0.6092
# 5 6.6020 4.8161 -6.5470 3.5097 42.0274 -10.9135
# 6 11.1295 20.6209 2.1863 -0.6092 -10.9135 27.0204
#
#
#
# Elastic Compliance Matrix: (Units=1/GPa)
#
#
# Indices 1 2 3 4 5 6 
#
# 1 0.013944 0.002092 -0.002104 0.006925 -0.005762 -0.009340
# 2 0.002092 0.017563 -0.009477 0.005946 -0.008696 -0.016876
# 3 -0.002104 -0.009477 0.019297 -0.001391 0.006958 0.009316
# 4 0.006925 0.005946 -0.001391 0.030166 -0.006947 -0.009403
# 5 -0.005762 -0.008696 0.006958 -0.006947 0.032970 0.021607
# 6 -0.009340 -0.016876 0.009316 -0.009403 0.021607 0.061497
#
#
# Mechanical properties :
#
#
# Convention : Reuss Voigt Hill
#
# Bulk Modulus (GPa) = 31.42027 42.99330 37.20678
# Shear Modulus (GPa) = 24.38753 35.63810 30.01281
#
# Velocity S-wave (km/s) = 3.25002 3.92880 3.60542
# Velocity P-wave (km/s) = 5.26234 6.26113 5.78334
#
# Compressibility (1/GPa) = 0.03182659
#
# Stress axis : x y z
#
# Youngs Moduli (GPa) = 71.71732 56.93865 51.82053
#
# Poissons Ratio (x) = -0.11910 0.10902
# Poissons Ratio (y) = -0.15001 0.49108
# Poissons Ratio (z) = 0.15087 0.53959
#
# Static dielectric constant tensor:
#      x y z
#    x 4.388150 0.287130 0.119680 
#    y 0.287130 4.121110 0.052260 
#    z 0.119680 0.052260 4.655260 
# 
# 
# High freq. dielectric constant tensor:
#      x y z
#    x 1.920380 0.010390 -0.004140 
#    y 0.010390 1.899290 -0.001680 
#    z -0.004140 -0.001680 1.921790 
# 
# From -- ./inp_files/492537.got.cif
#   From: 2010.06.25/outbox.cif.g09.slc.cpg/sg2_247_cif.got.tgz:492537.got - 2010.06.27 13:26:56.
