data_PCOD8006718
_publ_section_title
;
Structure prediction by ZEFSAII (Michael W. Deem and Ramdas Pophale) SiO2 
 PCOD8006718
Probable space group: P -1
;
_chemical_formula_sum "Si O2"
_cell_formula_units_Z 14
_cell_length_a 8.859134
_cell_length_b 9.064887
_cell_length_c 19.730627
_cell_angle_alpha 113.819062
_cell_angle_beta 34.432638
_cell_angle_gamma 89.037912
_cell_volume 603.688693
_symmetry_space_group_name_H-M "P -1"
_symmetry_group_IT_number 2
_symmetry_cell_setting 'triclinic'
loop_
_space_group_symop_operation_xyz
x,y,z
-x,-y,-z
loop_
_atom_site_type_symbol
_atom_site_label
_atom_site_fract_x
_atom_site_fract_y
_atom_site_fract_z
Si Si1 0.394203 0.174055 0.147666
Si Si2 0.241641 0.728086 0.265667
Si Si3 0.559169 0.994596 0.761687
Si Si4 0.782669 0.246904 0.333301
Si Si5 0.855665 0.906241 0.313275
Si Si6 0.084487 0.759398 0.056447
Si Si7 0.823099 0.668169 0.498966
O O1 0.516449 0.001019 0.129555
O O2 0.180003 0.171859 0.163511
O O3 0.114191 0.409913 0.332526
O O4 0.736201 0.133030 0.984186
O O5 0.194519 0.717435 0.200393
O O6 0.901519 0.784511 0.440153
O O7 0.244431 0.918072 0.312083
O O8 0.608744 0.499957 0.115440
O O9 0.818758 0.744792 0.590389
O O10 0.172804 0.150357 0.895889
O O11 0.500000 0.500000 0.500000
O O12 0.599700 0.216527 0.334970
O O13 0.834153 0.109774 0.353532
O O14 0.890277 0.806740 0.208881
O O15 0.500000 0.000000 0.500000
#
# Coordination Sequence:
#
# PCOD8006718 Si02
#       7
#     2   2   2   2   2   2   2
#     4  10  23  40  63  90 126 160 202 248 305 360
#     4  11  23  40  61  92 125 161 203 251 301 357
#     4  12  21  40  62  89 123 167 207 241 297 364
#     4  10  20  40  63  91 121 154 202 256 301 352
#     4  12  22  43  67  89 118 158 207 255 303 359
#     4  11  25  42  59  89 129 162 197 253 303 356
#     4  10  21  40  64  92 124 158 204 256 297 353
#
# _framework density 23.190761999999999
#
# number of rings (size 3 to 8) (size 9 to 14) (size 15 to 20)
#    0.000    1.143    4.286    2.143    0.000    0.571 
#    0.000    0.000    0.000    0.000    0.000    0.000 
#    0.000    0.000    0.000    0.000    0.000    0.000 
#
# Total GULP energy -173508.916190 kJ/mol
# GULP energy per Si atom -12393.494014 kJ/mol
# Density = 2.313798 g / cm^3
# Si number density = 23.190762 Si / 1000 Ang^3
#
#
#
# Elastic Constant Matrix: (Units=GPa)
#
#
# Indices 1 2 3 4 5 6 
#
# 1 99.6988 16.6126 14.5151 -13.6480 -16.4624 -0.8831
# 2 16.6126 75.0440 4.2047 -16.5911 -11.5387 5.6998
# 3 14.5151 4.2047 83.3057 -20.4547 -20.2427 2.5876
# 4 -13.6480 -16.5911 -20.4547 34.1886 -2.2216 -4.8970
# 5 -16.4624 -11.5387 -20.2427 -2.2216 31.6558 -1.5887
# 6 -0.8831 5.6998 2.5876 -4.8970 -1.5887 40.8101
#
#
#
# Elastic Compliance Matrix: (Units=1/GPa)
#
#
# Indices 1 2 3 4 5 6 
#
# 1 0.011949 -0.000380 0.001112 0.005899 0.007263 0.001232
# 2 -0.000380 0.017205 0.004322 0.011268 0.009580 -0.000960
# 3 0.001112 0.004322 0.018991 0.014991 0.015381 0.000614
# 4 0.005899 0.011268 0.014991 0.047958 0.020336 0.004150
# 5 0.007263 0.009580 0.015381 0.020336 0.050234 0.002240
# 6 0.001232 -0.000960 0.000614 0.004150 0.002240 0.025211
#
#
# Mechanical properties :
#
#
# Convention : Reuss Voigt Hill
#
# Bulk Modulus (GPa) = 17.16610 36.52370 26.84490
# Shear Modulus (GPa) = 27.64617 36.17865 31.91241
#
# Velocity S-wave (km/s) = 3.45645 3.95403 3.71358
# Velocity P-wave (km/s) = 4.83194 6.05221 5.47617
#
# Compressibility (1/GPa) = 0.05825433
#
# Stress axis : x y z
#
# Youngs Moduli (GPa) = 83.68654 58.12358 52.65551
#
# Poissons Ratio (x) = 0.02210 -0.05856
# Poissons Ratio (y) = 0.03181 -0.22760
# Poissons Ratio (z) = -0.09308 -0.25123
#
# Static dielectric constant tensor:
#      x y z
#    x 4.293190 0.132260 -0.366700 
#    y 0.132260 4.477280 -0.001060 
#    z -0.366700 -0.001060 4.099420 
# 
# 
# High freq. dielectric constant tensor:
#      x y z
#    x 1.914590 0.006360 -0.018800 
#    y 0.006360 1.926900 0.007630 
#    z -0.018800 0.007630 1.919420 
# 
# From -- ./inp_files/154069.got.cif
#   From: 2010.06.25/outbox.cif.g09.slc.cpg/sg2_78_cif.got.tgz:154069.got - 2010.06.27 13:26:56.
