data_PCOD8006905
_publ_section_title
;
Structure prediction by ZEFSAII (Michael W. Deem and Ramdas Pophale) SiO2 
 PCOD8006905
Probable space group: P -1
;
_chemical_formula_sum "Si O2"
_cell_formula_units_Z 16
_cell_length_a 8.884728
_cell_length_b 15.598670
_cell_length_c 11.055714
_cell_angle_alpha 110.361155
_cell_angle_beta 132.140074
_cell_angle_gamma 39.819439
_cell_volume 680.845265
_symmetry_space_group_name_H-M "P -1"
_symmetry_group_IT_number 2
_symmetry_cell_setting 'triclinic'
loop_
_space_group_symop_operation_xyz
x,y,z
-x,-y,-z
loop_
_atom_site_type_symbol
_atom_site_label
_atom_site_fract_x
_atom_site_fract_y
_atom_site_fract_z
Si Si1 0.264948 0.153593 0.568761
Si Si2 0.436330 0.843574 0.865269
Si Si3 0.665402 0.574776 0.818202
Si Si4 0.226465 0.635883 0.785906
Si Si5 0.326618 0.931809 0.600378
Si Si6 0.090464 0.344788 0.764284
Si Si7 0.473962 0.365642 0.846438
Si Si8 0.275145 0.872345 0.302742
O O1 0.039819 0.286122 0.606034
O O2 0.600609 0.090183 0.702351
O O3 0.087641 0.216201 0.374811
O O4 0.310083 0.037113 0.584426
O O5 0.410589 0.745773 0.760566
O O6 0.529571 0.865566 0.801680
O O7 0.714420 0.767057 0.073062
O O8 0.103558 0.987595 0.817331
O O9 0.543874 0.543922 0.834111
O O10 0.738853 0.499021 0.692823
O O11 0.000000 0.500000 0.000000
O O12 0.216610 0.529116 0.741194
O O13 0.252901 0.676649 0.950249
O O14 0.449431 0.823744 0.504273
O O15 0.000000 0.000000 0.500000
O O16 0.293753 0.359366 0.834281
O O17 0.635667 0.256964 0.767800
#
# Coordination Sequence:
#
# PCOD8006905 Si02
#       8
#     2   2   2   2   2   2   2   2
#     4  11  25  42  65 100 130 165 218 268 325 378
#     4  10  21  42  67  90 134 174 207 269 310 382
#     4  10  20  40  65  91 124 170 217 255 320 375
#     4  11  22  42  65  98 132 165 210 277 317 375
#     4  10  22  40  63  91 132 169 210 259 323 378
#     4  10  23  44  67  97 127 170 222 260 317 389
#     4  10  23  41  69  97 127 168 216 259 332 384
#     4  10  23  44  64  96 130 170 216 258 326 389
#
# _framework density 23.5002
#
# number of rings (size 3 to 8) (size 9 to 14) (size 15 to 20)
#    0.000    1.750    2.500    1.875    0.000    9.000 
#    4.500    0.000    0.000    0.000    0.000    0.000 
#    0.000    0.000    0.000    0.000    0.000    0.000 
#
# Total GULP energy -198278.387699 kJ/mol
# GULP energy per Si atom -12392.399231 kJ/mol
# Density = 2.344671 g / cm^3
# Si number density = 23.500200 Si / 1000 Ang^3
#
#
#
# Elastic Constant Matrix: (Units=GPa)
#
#
# Indices 1 2 3 4 5 6 
#
# 1 80.0140 56.7464 35.1566 4.9228 -20.6411 3.7848
# 2 56.7464 139.1443 34.7172 29.8516 -14.8041 -2.1045
# 3 35.1566 34.7172 55.2215 9.4847 -19.6424 16.0143
# 4 4.9228 29.8516 9.4847 41.0425 -1.8835 -10.7080
# 5 -20.6411 -14.8041 -19.6424 -1.8835 33.1217 -6.0234
# 6 3.7848 -2.1045 16.0143 -10.7080 -6.0234 48.4120
#
#
#
# Elastic Compliance Matrix: (Units=1/GPa)
#
#
# Indices 1 2 3 4 5 6 
#
# 1 0.023328 -0.007682 -0.009805 0.006184 0.006228 0.003228
# 2 -0.007682 0.012334 -0.001808 -0.007685 -0.000795 -0.000064
# 3 -0.009805 -0.001808 0.033744 -0.007644 0.010688 -0.010835
# 4 0.006184 -0.007685 -0.007644 0.033302 -0.000583 0.009004
# 5 0.006228 -0.000795 0.010688 -0.000583 0.040170 0.000812
# 6 0.003228 -0.000064 -0.010835 0.009004 0.000812 0.026078
#
#
# Mechanical properties :
#
#
# Convention : Reuss Voigt Hill
#
# Bulk Modulus (GPa) = 32.44994 58.62447 45.53720
# Shear Modulus (GPa) = 22.95500 34.36589 28.66045
#
# Velocity S-wave (km/s) = 3.12877 3.82824 3.49604
# Velocity P-wave (km/s) = 5.18562 6.67391 5.97627
#
# Compressibility (1/GPa) = 0.03081670
#
# Stress axis : x y z
#
# Youngs Moduli (GPa) = 42.86757 81.07668 29.63457
#
# Poissons Ratio (x) = 0.62287 0.29055
# Poissons Ratio (y) = 0.32933 0.05357
# Poissons Ratio (z) = 0.42030 0.14656
#
# Static dielectric constant tensor:
#      x y z
#    x 4.705090 -0.263940 -0.495640 
#    y -0.263940 4.732280 0.300880 
#    z -0.495640 0.300880 4.251620 
# 
# 
# High freq. dielectric constant tensor:
#      x y z
#    x 1.939520 -0.009210 -0.014030 
#    y -0.009210 1.931970 0.015780 
#    z -0.014030 0.015780 1.912160 
# 
# From -- ./inp_files/399335.got.cif
#   From: 2010.06.25/outbox.cif.g09.slc.cpg/sg2_200_cif.got.tgz:399335.got - 2010.06.27 13:26:56.
