data_PCOD8006774
_publ_section_title
;
Structure prediction by ZEFSAII (Michael W. Deem and Ramdas Pophale) SiO2 
 PCOD8006774
Probable space group: P -1
;
_chemical_formula_sum "Si O2"
_cell_formula_units_Z 16
_cell_length_a 9.420631
_cell_length_b 10.078199
_cell_length_c 14.862548
_cell_angle_alpha 116.177428
_cell_angle_beta 44.740410
_cell_angle_gamma 122.941897
_cell_volume 829.961880
_symmetry_space_group_name_H-M "P -1"
_symmetry_group_IT_number 2
_symmetry_cell_setting 'triclinic'
loop_
_space_group_symop_operation_xyz
x,y,z
-x,-y,-z
loop_
_atom_site_type_symbol
_atom_site_label
_atom_site_fract_x
_atom_site_fract_y
_atom_site_fract_z
Si Si1 0.248274 0.525283 0.386268
Si Si2 0.933535 0.140415 0.110060
Si Si3 0.118494 0.245396 0.246930
Si Si4 0.440845 0.056696 0.316062
Si Si5 0.434625 0.097324 0.132679
Si Si6 0.162913 0.623278 0.897606
Si Si7 0.504673 0.590993 0.615496
Si Si8 0.675451 0.133621 0.519987
O O1 0.264205 0.430713 0.259164
O O2 0.320961 0.438355 0.407778
O O3 0.392677 0.714117 0.379657
O O4 0.000000 0.500000 0.500000
O O5 0.685004 0.070155 0.233191
O O6 0.963450 0.274104 0.060646
O O7 0.089379 0.225499 0.147510
O O8 0.000000 0.000000 0.000000
O O9 0.225363 0.125687 0.200370
O O10 0.891246 0.196578 0.384603
O O11 0.382789 0.000194 0.221743
O O12 0.412277 0.223853 0.390427
O O13 0.286109 0.936250 0.422027
O O14 0.631583 0.263731 0.105674
O O15 0.500000 0.000000 0.000000
O O16 0.263214 0.536484 0.752425
O O17 0.000000 0.500000 0.000000
O O18 0.500000 0.500000 0.500000
O O19 0.500000 0.000000 0.500000
#
# Coordination Sequence:
#
# PCOD8006774 Si02
#       8
#     2   2   2   2   2   2   2   2
#     4  10  22  37  60  90 125 161 194 257 319 357
#     4  10  21  39  66  86 121 170 209 241 317 372
#     4  11  20  41  63  90 126 165 196 259 317 362
#     4  10  21  40  59  93 122 160 209 257 299 380
#     4  10  21  43  63  83 127 165 202 252 320 363
#     4  10  23  43  63  93 123 157 217 254 296 382
#     4  10  20  40  64  86 127 166 200 245 322 374
#     4  11  22  38  63  95 125 154 215 252 301 378
#
# _framework density 19.277995000000001
#
# number of rings (size 3 to 8) (size 9 to 14) (size 15 to 20)
#    0.000    2.000    3.750    2.250    5.250    1.500 
#    9.000    0.625    0.000    0.000    0.000    0.000 
#    0.000    0.000    0.000    0.000    0.000    0.000 
#
# Total GULP energy -198306.869405 kJ/mol
# GULP energy per Si atom -12394.179338 kJ/mol
# Density = 1.923412 g / cm^3
# Si number density = 19.277995 Si / 1000 Ang^3
#
#
#
# Elastic Constant Matrix: (Units=GPa)
#
#
# Indices 1 2 3 4 5 6 
#
# 1 124.7725 45.2837 43.0369 22.6923 12.3940 -12.3554
# 2 45.2837 115.6487 61.8182 12.4558 10.7681 -12.3807
# 3 43.0369 61.8182 109.0103 24.2523 23.8403 -4.3143
# 4 22.6923 12.4558 24.2523 44.1240 2.3433 3.8418
# 5 12.3940 10.7681 23.8403 2.3433 35.4256 7.8313
# 6 -12.3554 -12.3807 -4.3143 3.8418 7.8313 32.9409
#
#
#
# Elastic Compliance Matrix: (Units=1/GPa)
#
#
# Indices 1 2 3 4 5 6 
#
# 1 0.010797 -0.002451 -0.001062 -0.004487 -0.002953 0.004215
# 2 -0.002451 0.013446 -0.006911 0.000969 0.000705 0.002949
# 3 -0.001062 -0.006911 0.017034 -0.006573 -0.009032 0.002149
# 4 -0.004487 0.000969 -0.006573 0.028619 0.005305 -0.006779
# 5 -0.002953 0.000705 -0.009032 0.005305 0.037320 -0.011517
# 6 0.004215 0.002949 0.002149 -0.006779 -0.011517 0.036857
#
#
# Mechanical properties :
#
#
# Convention : Reuss Voigt Hill
#
# Bulk Modulus (GPa) = 48.94491 72.18990 60.56740
# Shear Modulus (GPa) = 29.11545 35.78428 32.44986
#
# Velocity S-wave (km/s) = 3.89047 4.31307 4.10721
# Velocity P-wave (km/s) = 6.75463 7.89503 7.34699
#
# Compressibility (1/GPa) = 0.02043114
#
# Stress axis : x y z
#
# Youngs Moduli (GPa) = 92.61728 74.37112 58.70510
#
# Poissons Ratio (x) = 0.18225 0.06235
# Poissons Ratio (y) = 0.22697 0.40569
# Poissons Ratio (z) = 0.09836 0.51395
#
# Static dielectric constant tensor:
#      x y z
#    x 3.702550 -0.046700 0.202210 
#    y -0.046700 3.718470 0.367420 
#    z 0.202210 0.367420 3.633350 
# 
# 
# High freq. dielectric constant tensor:
#      x y z
#    x 1.762030 -0.012420 0.007640 
#    y -0.012420 1.738430 0.025260 
#    z 0.007640 0.025260 1.748530 
# 
# From -- ./inp_files/495405.got.cif
#   From: 2010.06.25/outbox.cif.g09.slc.cpg/sg2_248_cif.got.tgz:495405.got - 2010.06.27 13:26:56.
