data_PCOD8006143
_publ_section_title
;
Structure prediction by ZEFSAII (Michael W. Deem and Ramdas Pophale) SiO2 
 PCOD8006143
Probable space group: P -1
;
_chemical_formula_sum "Si O2"
_cell_formula_units_Z 14
_cell_length_a 9.624669
_cell_length_b 12.870658
_cell_length_c 8.951349
_cell_angle_alpha 120.999261
_cell_angle_beta 44.390196
_cell_angle_gamma 99.457810
_cell_volume 625.354497
_symmetry_space_group_name_H-M "P -1"
_symmetry_group_IT_number 2
_symmetry_cell_setting 'triclinic'
loop_
_space_group_symop_operation_xyz
x,y,z
-x,-y,-z
loop_
_atom_site_type_symbol
_atom_site_label
_atom_site_fract_x
_atom_site_fract_y
_atom_site_fract_z
Si Si1 0.436958 0.263534 0.027670
Si Si2 0.656532 0.652209 0.158201
Si Si3 0.390055 0.574161 0.786632
Si Si4 0.136924 0.954292 0.562161
Si Si5 0.243869 0.869691 0.743011
Si Si6 0.002957 0.234685 0.917347
Si Si7 0.702029 0.949272 0.913574
O O1 0.338581 0.353906 0.029581
O O2 0.662915 0.153299 0.739928
O O3 0.454581 0.356699 0.215197
O O4 0.275019 0.193241 0.152166
O O5 0.653069 0.518135 0.124976
O O6 0.452838 0.767576 0.444332
O O7 0.860869 0.677616 0.080909
O O8 0.500000 0.500000 0.500000
O O9 0.169232 0.684405 0.007540
O O10 0.115114 0.946746 0.755327
O O11 0.918194 0.942750 0.655583
O O12 0.142376 0.097992 0.633388
O O13 0.111322 0.792528 0.867865
O O14 0.326309 0.957480 0.854009
O O15 0.500000 0.000000 0.000000
#
# Coordination Sequence:
#
# PCOD8006143 Si02
#       7
#     2   2   2   2   2   2   2
#     4  11  24  44  66  96 129 164 214 266 310 381
#     4  11  23  42  69  92 123 175 219 253 310 377
#     4  12  26  46  63  88 133 174 213 264 314 368
#     4  10  22  40  66  99 127 161 205 262 326 375
#     4  10  20  39  65  96 133 160 202 263 319 385
#     4  11  21  40  68  94 129 164 211 260 319 377
#     4  11  22  36  63 100 133 162 200 259 327 375
#
# _framework density 22.387301999999998
#
# number of rings (size 3 to 8) (size 9 to 14) (size 15 to 20)
#    0.000    1.143    1.429    6.857    0.000    5.714 
#    2.571    0.714    0.000    0.000    0.000    0.000 
#    0.000    0.000    0.000    0.000    0.000    0.000 
#
# Total GULP energy -173643.572550 kJ/mol
# GULP energy per Si atom -12403.112325 kJ/mol
# Density = 2.233635 g / cm^3
# Si number density = 22.387302 Si / 1000 Ang^3
#
#
#
# Elastic Constant Matrix: (Units=GPa)
#
#
# Indices 1 2 3 4 5 6 
#
# 1 21.1151 44.3818 -1.9385 1.5500 -16.5217 -6.9280
# 2 44.3818 79.4877 20.8044 26.2152 -1.2602 5.4088
# 3 -1.9385 20.8044 31.0909 3.0382 13.6651 5.2068
# 4 1.5500 26.2152 3.0382 18.9205 4.3570 -9.8653
# 5 -16.5217 -1.2602 13.6651 4.3570 29.0840 0.8151
# 6 -6.9280 5.4088 5.2068 -9.8653 0.8151 44.7218
#
#
#
# Elastic Compliance Matrix: (Units=1/GPa)
#
#
# Indices 1 2 3 4 5 6 
#
# 1 -0.017063 0.032351 -0.018938 -0.050531 0.008616 -0.015655
# 2 0.032351 -0.007988 -0.002615 0.008890 0.017706 0.007921
# 3 -0.018938 -0.002615 0.048667 0.001273 -0.033721 -0.007388
# 4 -0.050531 0.008890 0.001273 0.055014 -0.037265 0.003764
# 5 0.008616 0.017706 -0.033721 -0.037265 0.061646 -0.006225
# 6 -0.015655 0.007921 -0.007388 0.003764 -0.006225 0.020781
#
#
# Mechanical properties :
#
#
# Convention : Reuss Voigt Hill
#
# Bulk Modulus (GPa) = 22.11874 28.68766 25.40320
# Shear Modulus (GPa) = 32.35551 23.10833 27.73192
#
# Velocity S-wave (km/s) = 3.80578 3.21628 3.52338
# Velocity P-wave (km/s) = 5.40495 5.16088 5.28433
#
# Compressibility (1/GPa) = 0.04521052
#
# Stress axis : x y z
#
# Youngs Moduli (GPa) = -58.60734 -125.18487 20.54776
#
# Poissons Ratio (x) = 4.04983 0.38914
# Poissons Ratio (y) = 1.89599 0.05374
# Poissons Ratio (z) = -1.10993 -0.32738
#
# Static dielectric constant tensor:
#      x y z
#    x 4.104140 -0.160980 0.076670 
#    y -0.160980 4.302080 -0.062080 
#    z 0.076670 -0.062080 3.803020 
# 
# 
# High freq. dielectric constant tensor:
#      x y z
#    x 1.899490 -0.005100 -0.001080 
#    y -0.005100 1.893130 -0.002340 
#    z -0.001080 -0.002340 1.871590 
# 
# From -- ./inp_files/177139.got.cif
#   From: 2010.06.25/outbox.cif.g09.slc.cpg/sg2_89_cif.got.tgz:177139.got - 2010.06.27 13:26:56.
