data_PCOD8006396
_publ_section_title
;
Structure prediction by ZEFSAII (Michael W. Deem and Ramdas Pophale) SiO2 
 PCOD8006396
Probable space group: P -1
;
_chemical_formula_sum "Si O2"
_cell_formula_units_Z 12
_cell_length_a 19.628719
_cell_length_b 15.946655
_cell_length_c 14.107358
_cell_angle_alpha 28.984501
_cell_angle_beta 161.437874
_cell_angle_gamma 160.179921
_cell_volume 470.623407
_symmetry_space_group_name_H-M "P -1"
_symmetry_group_IT_number 2
_symmetry_cell_setting 'triclinic'
loop_
_space_group_symop_operation_xyz
x,y,z
-x,-y,-z
loop_
_atom_site_type_symbol
_atom_site_label
_atom_site_fract_x
_atom_site_fract_y
_atom_site_fract_z
Si Si1 0.285823 0.747246 0.411041
Si Si2 0.373977 0.581047 0.191396
Si Si3 0.365812 0.099101 0.473442
Si Si4 0.631437 0.612425 0.321682
Si Si5 0.183603 0.456673 0.731391
Si Si6 0.784085 0.250671 0.025947
O O1 0.417760 0.772682 0.459426
O O2 0.252415 0.551682 0.620798
O O3 0.500000 0.000000 0.500000
O O4 0.965608 0.659591 0.058624
O O5 0.500000 0.500000 0.500000
O O6 0.597264 0.731071 0.245393
O O7 0.356803 0.747872 0.064990
O O8 0.406356 0.319418 0.346539
O O9 0.495263 0.039905 0.783099
O O10 0.017506 0.838572 0.244755
O O11 0.996910 0.782262 0.623183
O O12 0.506227 0.615486 0.054571
O O13 0.000000 0.500000 0.500000
O O14 0.000000 0.500000 0.000000
#
# Coordination Sequence:
#
# PCOD8006396 Si02
#       6
#     2   2   2   2   2   2
#     4  12  24  43  69  98 135 179 226 280 338 401
#     4  12  20  40  72 101 129 181 231 272 345 402
#     4  11  22  45  70  98 140 178 225 286 338 400
#     4  11  22  42  72  99 140 179 224 283 339 404
#     4  12  25  42  69 103 136 180 232 277 340 413
#     4  10  20  39  69 100 134 180 226 278 338 405
#
# _framework density 25.498094999999999
#
# number of rings (size 3 to 8) (size 9 to 14) (size 15 to 20)
#    0.000    0.667   10.000    0.500    0.000    0.667 
#    0.000    3.333    0.000    0.000    0.000    0.000 
#    0.000    0.000    0.000    0.000    0.000    0.000 
#
# Total GULP energy -148777.438463 kJ/mol
# GULP energy per Si atom -12398.119872 kJ/mol
# Density = 2.544006 g / cm^3
# Si number density = 25.498095 Si / 1000 Ang^3
#
#
#
# Elastic Constant Matrix: (Units=GPa)
#
#
# Indices 1 2 3 4 5 6 
#
# 1 187.6891 16.5372 75.5214 7.4016 0.4748 3.1390
# 2 16.5372 47.4248 4.3587 -10.1200 -1.3790 -5.1236
# 3 75.5214 4.3587 182.2807 6.3214 -28.2793 13.6431
# 4 7.4016 -10.1200 6.3214 23.0480 -1.6151 -5.0636
# 5 0.4748 -1.3790 -28.2793 -1.6151 50.9533 1.6407
# 6 3.1390 -5.1236 13.6431 -5.0636 1.6407 23.0666
#
#
#
# Elastic Compliance Matrix: (Units=1/GPa)
#
#
# Indices 1 2 3 4 5 6 
#
# 1 0.006887 -0.002823 -0.002953 -0.002840 -0.001859 -0.000309
# 2 -0.002823 0.026378 -0.000628 0.014861 0.000546 0.009838
# 3 -0.002953 -0.000628 0.007893 -0.002328 0.004486 -0.005236
# 4 -0.002840 0.014861 -0.002328 0.055259 0.000335 0.017171
# 5 -0.001859 0.000546 0.004486 0.000335 0.022280 -0.003790
# 6 -0.000309 0.009838 -0.005236 0.017171 -0.003790 0.052716
#
#
# Mechanical properties :
#
#
# Convention : Reuss Voigt Hill
#
# Bulk Modulus (GPa) = 35.27358 67.80322 51.53840
# Shear Modulus (GPa) = 25.81690 40.81207 33.31448
#
# Velocity S-wave (km/s) = 3.18544 4.00508 3.61854
# Velocity P-wave (km/s) = 5.23385 6.93086 6.14125
#
# Compressibility (1/GPa) = 0.02834983
#
# Stress axis : x y z
#
# Youngs Moduli (GPa) = 145.20896 37.91008 126.69487
#
# Poissons Ratio (x) = 0.10704 0.37407
# Poissons Ratio (y) = 0.40999 0.07956
# Poissons Ratio (z) = 0.42874 0.02381
#
# Static dielectric constant tensor:
#      x y z
#    x 4.614210 0.087240 -0.586090 
#    y 0.087240 4.293030 0.241640 
#    z -0.586090 0.241640 5.121870 
# 
# 
# High freq. dielectric constant tensor:
#      x y z
#    x 2.035960 -0.008410 -0.016280 
#    y -0.008410 1.987290 0.009300 
#    z -0.016280 0.009300 2.036910 
# 
# From -- ./inp_files/541488.got.cif
#   From: 2010.06.25/outbox.cif.g09.slc.cpg/sg2_271_cif.got.tgz:541488.got - 2010.06.27 13:26:56.
