data_PCOD8006951
_publ_section_title
;
Structure prediction by ZEFSAII (Michael W. Deem and Ramdas Pophale) SiO2 
 PCOD8006951
Probable space group: P -1
;
_chemical_formula_sum "Si O2"
_cell_formula_units_Z 16
_cell_length_a 9.481263
_cell_length_b 14.675822
_cell_length_c 8.539815
_cell_angle_alpha 139.534561
_cell_angle_beta 71.415647
_cell_angle_gamma 106.668168
_cell_volume 729.062002
_symmetry_space_group_name_H-M "P -1"
_symmetry_group_IT_number 2
_symmetry_cell_setting 'triclinic'
loop_
_space_group_symop_operation_xyz
x,y,z
-x,-y,-z
loop_
_atom_site_type_symbol
_atom_site_label
_atom_site_fract_x
_atom_site_fract_y
_atom_site_fract_z
Si Si1 0.556203 0.640191 0.572801
Si Si2 0.904631 0.676891 0.456556
Si Si3 0.648047 0.154843 0.574189
Si Si4 0.586434 0.858889 0.101278
Si Si5 0.960780 0.081691 0.464859
Si Si6 0.617657 0.422721 0.753982
Si Si7 0.064260 0.450826 0.250011
Si Si8 0.075976 0.181678 0.044318
O O1 0.500000 0.500000 0.500000
O O2 0.730316 0.635812 0.468066
O O3 0.466892 0.648336 0.455865
O O4 0.523753 0.781241 0.864862
O O5 0.971152 0.767239 0.700244
O O6 0.942323 0.770896 0.410244
O O7 0.986122 0.529233 0.236378
O O8 0.516550 0.191107 0.783079
O O9 0.786890 0.109738 0.568588
O O10 0.692900 0.296546 0.650593
O O11 0.593165 0.029092 0.308777
O O12 0.746189 0.805408 0.009994
O O13 0.000000 0.000000 0.500000
O O14 0.992665 0.976056 0.171041
O O15 0.756050 0.527625 0.790594
O O16 0.500000 0.500000 0.000000
O O17 0.024180 0.282101 0.051137
O O18 0.000000 0.500000 0.500000
#
# Coordination Sequence:
#
# PCOD8006951 Si02
#       8
#     2   2   2   2   2   2   2   2
#     4  11  23  42  66  98 132 168 221 276 333 393
#     4  10  21  41  65  92 129 168 220 267 323 395
#     4  10  21  41  64  93 129 175 217 268 326 399
#     4   9  20  40  65  90 133 167 217 266 331 389
#     4  11  23  41  59  92 133 170 216 266 325 386
#     4  12  24  41  69  96 133 173 221 272 335 391
#     4  10  20  40  65  96 125 171 221 265 332 395
#     4   9  19  38  65  87 124 173 210 266 327 385
#
# _framework density 21.946006000000001
#
# number of rings (size 3 to 8) (size 9 to 14) (size 15 to 20)
#    0.000    1.750    1.250    4.125    0.000    4.500 
#    9.000    1.250    0.000    0.000    0.000    0.000 
#    0.000    0.000    0.000    0.000    0.000    0.000 
#
# Total GULP energy -198321.405987 kJ/mol
# GULP energy per Si atom -12395.087874 kJ/mol
# Density = 2.189606 g / cm^3
# Si number density = 21.946006 Si / 1000 Ang^3
#
#
#
# Elastic Constant Matrix: (Units=GPa)
#
#
# Indices 1 2 3 4 5 6 
#
# 1 69.9731 30.4520 22.5079 -0.1352 -1.5600 -6.9648
# 2 30.4520 125.2030 15.3593 14.5635 -6.3699 -9.2074
# 3 22.5079 15.3593 70.6215 -1.3163 -8.6568 -5.0914
# 4 -0.1352 14.5635 -1.3163 30.4529 -0.1009 -4.2816
# 5 -1.5600 -6.3699 -8.6568 -0.1009 27.5829 -0.9626
# 6 -6.9648 -9.2074 -5.0914 -4.2816 -0.9626 46.3649
#
#
#
# Elastic Compliance Matrix: (Units=1/GPa)
#
#
# Indices 1 2 3 4 5 6 
#
# 1 0.017650 -0.003887 -0.004801 0.001937 -0.001347 0.001503
# 2 -0.003887 0.009702 -0.000668 -0.004555 0.001825 0.000887
# 3 -0.004801 -0.000668 0.016531 0.001194 0.004808 0.001171
# 4 0.001937 -0.004555 0.001194 0.035467 -0.000341 0.002785
# 5 -0.001347 0.001825 0.004808 -0.000341 0.038158 0.001449
# 6 0.001503 0.000887 0.001171 0.002785 0.001449 0.022386
#
#
# Mechanical properties :
#
#
# Convention : Reuss Voigt Hill
#
# Bulk Modulus (GPa) = 39.72723 44.71509 42.22116
# Shear Modulus (GPa) = 29.94046 34.04537 31.99292
#
# Velocity S-wave (km/s) = 3.69762 3.94296 3.82226
# Velocity P-wave (km/s) = 6.03087 6.41471 6.22575
#
# Compressibility (1/GPa) = 0.02517165
#
# Stress axis : x y z
#
# Youngs Moduli (GPa) = 56.65576 103.06669 60.49096
#
# Poissons Ratio (x) = 0.40065 0.29039
# Poissons Ratio (y) = 0.22024 0.04044
# Poissons Ratio (z) = 0.27198 0.06890
#
# Static dielectric constant tensor:
#      x y z
#    x 3.889820 -0.132960 -0.122710 
#    y -0.132960 4.123730 0.199280 
#    z -0.122710 0.199280 4.227560 
# 
# 
# High freq. dielectric constant tensor:
#      x y z
#    x 1.851750 0.005180 -0.015560 
#    y 0.005180 1.869940 0.013260 
#    z -0.015560 0.013260 1.864640 
# 
# From -- ./inp_files/209226.got.cif
#   From: 2010.06.25/outbox.cif.g09.slc.cpg/sg2_105_cif.got.tgz:209226.got - 2010.06.27 13:26:56.
