data_PCOD8006794
_publ_section_title
;
Structure prediction by ZEFSAII (Michael W. Deem and Ramdas Pophale) SiO2 
 PCOD8006794
Probable space group: P -1
;
_chemical_formula_sum "Si O2"
_cell_formula_units_Z 16
_cell_length_a 8.339707
_cell_length_b 7.850279
_cell_length_c 12.830483
_cell_angle_alpha 94.691514
_cell_angle_beta 81.092006
_cell_angle_gamma 59.716033
_cell_volume 703.924452
_symmetry_space_group_name_H-M "P -1"
_symmetry_group_IT_number 2
_symmetry_cell_setting 'triclinic'
loop_
_space_group_symop_operation_xyz
x,y,z
-x,-y,-z
loop_
_atom_site_type_symbol
_atom_site_label
_atom_site_fract_x
_atom_site_fract_y
_atom_site_fract_z
Si Si1 0.075124 0.036755 0.758162
Si Si2 0.316803 0.882657 0.007326
Si Si3 0.940791 0.567820 0.207299
Si Si4 0.370641 0.342374 0.192409
Si Si5 0.534690 0.165186 0.386363
Si Si6 0.348398 0.738540 0.213202
Si Si7 0.419724 0.246853 0.623250
Si Si8 0.075829 0.756394 0.921091
O O1 0.075567 0.227360 0.821471
O O2 0.873872 0.117699 0.725542
O O3 0.238270 0.931571 0.649313
O O4 0.117359 0.867830 0.829461
O O5 0.395952 0.838355 0.116063
O O6 0.484537 0.840905 0.907460
O O7 0.216746 0.748481 0.996810
O O8 0.147848 0.114135 0.019792
O O9 0.807099 0.623648 0.325606
O O10 0.869226 0.469955 0.122871
O O11 0.155098 0.393925 0.206832
O O12 0.426887 0.299499 0.304785
O O13 0.390901 0.524083 0.160878
O O14 0.457679 0.299029 0.505963
O O15 0.488054 0.990841 0.388205
O O16 0.476049 0.698204 0.298524
#
# Coordination Sequence:
#
# PCOD8006794 Si02
#       8
#     2   2   2   2   2   2   2   2
#     4   9  20  41  63  92 126 158 205 257 304 370
#     4  10  21  38  63  91 127 162 202 254 304 366
#     4  10  23  40  62  91 128 162 206 255 305 367
#     4  11  22  39  63  94 123 159 209 252 302 369
#     4  10  22  41  66  88 124 159 205 261 306 365
#     4  10  22  40  62  90 127 160 203 252 310 365
#     4  10  23  43  62  89 123 165 202 257 314 358
#     4  10  20  40  64  90 125 168 199 251 314 361
#
# _framework density 22.729711999999999
#
# number of rings (size 3 to 8) (size 9 to 14) (size 15 to 20)
#    0.000    2.000    1.250    1.125    3.500    2.000 
#    0.000   10.625    0.000    0.000    0.000    0.000 
#    0.000    0.000    0.000    0.000    0.000    0.000 
#
# Total GULP energy -198338.929837 kJ/mol
# GULP energy per Si atom -12396.183115 kJ/mol
# Density = 2.267798 g / cm^3
# Si number density = 22.729712 Si / 1000 Ang^3
#
#
#
# Elastic Constant Matrix: (Units=GPa)
#
#
# Indices 1 2 3 4 5 6 
#
# 1 74.1133 22.9893 30.0925 10.2460 -8.2198 -0.5983
# 2 22.9893 52.7194 21.6182 5.4301 -11.0997 -2.8497
# 3 30.0925 21.6182 107.8105 3.4716 -6.2554 -5.5766
# 4 10.2460 5.4301 3.4716 31.6147 -2.3003 -2.7754
# 5 -8.2198 -11.0997 -6.2554 -2.3003 28.2201 3.0795
# 6 -0.5983 -2.8497 -5.5766 -2.7754 3.0795 21.7160
#
#
#
# Elastic Compliance Matrix: (Units=1/GPa)
#
#
# Indices 1 2 3 4 5 6 
#
# 1 0.017442 -0.005343 -0.003642 -0.004363 0.002034 -0.002002
# 2 -0.005343 0.024166 -0.002839 -0.001496 0.007078 0.001100
# 3 -0.003642 -0.002839 0.010967 0.000680 0.000045 0.002424
# 4 -0.004363 -0.001496 0.000680 0.033627 0.000588 0.004072
# 5 0.002034 0.007078 0.000045 0.000588 0.039362 -0.004510
# 6 -0.002002 0.001100 0.002424 0.004072 -0.004510 0.047921
#
#
# Mechanical properties :
#
#
# Convention : Reuss Voigt Hill
#
# Bulk Modulus (GPa) = 34.56888 42.67147 38.62017
# Shear Modulus (GPa) = 24.18090 26.97305 25.57698
#
# Velocity S-wave (km/s) = 3.26520 3.44857 3.35814
# Velocity P-wave (km/s) = 5.42744 5.88821 5.66251
#
# Compressibility (1/GPa) = 0.02892776
#
# Stress axis : x y z
#
# Youngs Moduli (GPa) = 57.33442 41.38066 91.17916
#
# Poissons Ratio (x) = 0.22109 0.33208
# Poissons Ratio (y) = 0.30633 0.25883
# Poissons Ratio (z) = 0.20881 0.11747
#
# Static dielectric constant tensor:
#      x y z
#    x 4.205580 -0.150470 -0.131750 
#    y -0.150470 3.991300 0.153110 
#    z -0.131750 0.153110 4.045750 
# 
# 
# High freq. dielectric constant tensor:
#      x y z
#    x 1.898310 -0.008100 -0.013160 
#    y -0.008100 1.891350 0.009460 
#    z -0.013160 0.009460 1.880180 
# 
# From -- ./inp_files/217651.got.cif
#   From: 2010.06.25/outbox.cif.g09.slc.cpg/sg2_109_cif.got.tgz:217651.got - 2010.06.27 13:26:56.
