data_PCOD8006819
_publ_section_title
;
Structure prediction by ZEFSAII (Michael W. Deem and Ramdas Pophale) SiO2 
 PCOD8006819
Probable space group: P -1
;
_chemical_formula_sum "Si O2"
_cell_formula_units_Z 14
_cell_length_a 10.931077
_cell_length_b 11.021229
_cell_length_c 19.810485
_cell_angle_alpha 44.349682
_cell_angle_beta 150.483450
_cell_angle_gamma 116.510793
_cell_volume 706.643094
_symmetry_space_group_name_H-M "P -1"
_symmetry_group_IT_number 2
_symmetry_cell_setting 'triclinic'
loop_
_space_group_symop_operation_xyz
x,y,z
-x,-y,-z
loop_
_atom_site_type_symbol
_atom_site_label
_atom_site_fract_x
_atom_site_fract_y
_atom_site_fract_z
Si Si1 0.511765 0.498670 0.613427
Si Si2 0.058961 0.382867 0.260557
Si Si3 0.659221 0.634395 0.282687
Si Si4 0.030818 0.191055 0.447784
Si Si5 0.480459 0.605038 0.061354
Si Si6 0.943510 0.285039 0.799497
Si Si7 0.525243 0.999289 0.148412
O O1 0.479588 0.425744 0.699367
O O2 0.704666 0.307384 0.731031
O O3 0.200427 0.632762 0.375809
O O4 0.670472 0.630561 0.645549
O O5 0.177304 0.201381 0.444060
O O6 0.915383 0.586293 0.156234
O O7 0.826137 0.381267 0.099651
O O8 0.531624 0.602521 0.166123
O O9 0.000000 0.500000 0.500000
O O10 0.567634 0.868807 0.153443
O O11 0.724164 0.397334 0.227317
O O12 0.232696 0.157501 0.621740
O O13 0.000000 0.000000 0.500000
O O14 0.458808 0.802935 0.938962
O O15 0.213550 0.061562 0.006618
#
# Coordination Sequence:
#
# PCOD8006819 Si02
#       7
#     2   2   2   2   2   2   2
#     4   9  21  42  65  94 130 167 211 273 312 384
#     4  10  20  40  64  93 130 163 205 275 322 360
#     4  12  25  42  65  92 129 179 217 255 319 390
#     4  12  22  38  67 100 127 163 212 271 323 372
#     4  12  23  41  62  96 136 165 214 265 313 391
#     4   9  19  40  66  92 126 161 208 272 318 354
#     4  12  23  40  69  95 127 170 218 264 318 376
#
# _framework density 19.811979999999998
#
# number of rings (size 3 to 8) (size 9 to 14) (size 15 to 20)
#    0.857    0.286    4.286    3.429    0.000    1.143 
#    0.000    0.000    0.000    2.571    0.000    0.000 
#    0.000    0.000    0.000    0.000    0.000    0.000 
#
# Total GULP energy -173474.564135 kJ/mol
# GULP energy per Si atom -12391.040295 kJ/mol
# Density = 1.976689 g / cm^3
# Si number density = 19.811980 Si / 1000 Ang^3
#
#
#
# Elastic Constant Matrix: (Units=GPa)
#
#
# Indices 1 2 3 4 5 6 
#
# 1 86.9270 36.8863 42.4221 0.5891 -8.5023 7.7089
# 2 36.8863 115.0629 51.7821 6.7500 1.9107 -0.6609
# 3 42.4221 51.7821 87.3093 6.4683 -8.2645 -2.9272
# 4 0.5891 6.7500 6.4683 40.7765 -7.9613 -6.2585
# 5 -8.5023 1.9107 -8.2645 -7.9613 33.3566 -0.4872
# 6 7.7089 -0.6609 -2.9272 -6.2585 -0.4872 22.5638
#
#
#
# Elastic Compliance Matrix: (Units=1/GPa)
#
#
# Indices 1 2 3 4 5 6 
#
# 1 0.016613 -0.002486 -0.006600 0.000803 0.002841 -0.006321
# 2 -0.002486 0.012532 -0.006421 -0.001699 -0.003350 -0.000160
# 3 -0.006600 -0.006421 0.018971 -0.000517 0.003328 0.004456
# 4 0.000803 -0.001699 -0.000517 0.027330 0.006804 0.007336
# 5 0.002841 -0.003350 0.003328 0.006804 0.033372 0.001971
# 6 -0.006321 -0.000160 0.004456 0.007336 0.001971 0.049129
#
#
# Mechanical properties :
#
#
# Convention : Reuss Voigt Hill
#
# Bulk Modulus (GPa) = 58.47380 61.27557 59.87468
# Shear Modulus (GPa) = 25.68551 29.88663 27.78607
#
# Velocity S-wave (km/s) = 3.60455 3.88817 3.74904
# Velocity P-wave (km/s) = 6.84851 7.15212 7.00196
#
# Compressibility (1/GPa) = 0.01710168
#
# Stress axis : x y z
#
# Youngs Moduli (GPa) = 60.19515 79.79549 52.71096
#
# Poissons Ratio (x) = 0.19838 0.34788
# Poissons Ratio (y) = 0.14965 0.33847
# Poissons Ratio (z) = 0.39728 0.51239
#
# Static dielectric constant tensor:
#      x y z
#    x 3.501090 0.007830 -0.028830 
#    y 0.007830 3.630240 0.079930 
#    z -0.028830 0.079930 3.658230 
# 
# 
# High freq. dielectric constant tensor:
#      x y z
#    x 1.762230 0.007200 -0.005950 
#    y 0.007200 1.771320 0.007970 
#    z -0.005950 0.007970 1.773680 
# 
# From -- ./inp_files/594923.got.cif
#   From: 2010.06.25/outbox.cif.g09.slc.cpg/sg2_298_cif.got.tgz:594923.got - 2010.06.27 13:26:56.
