data_PCOD8006994
_publ_section_title
;
Structure prediction by ZEFSAII (Michael W. Deem and Ramdas Pophale) SiO2 
 PCOD8006994
Probable space group: P -1
;
_chemical_formula_sum "Si O2"
_cell_formula_units_Z 14
_cell_length_a 8.428935
_cell_length_b 16.744541
_cell_length_c 9.430091
_cell_angle_alpha 53.095208
_cell_angle_beta 32.111506
_cell_angle_gamma 64.220670
_cell_volume 557.162202
_symmetry_space_group_name_H-M "P -1"
_symmetry_group_IT_number 2
_symmetry_cell_setting 'triclinic'
loop_
_space_group_symop_operation_xyz
x,y,z
-x,-y,-z
loop_
_atom_site_type_symbol
_atom_site_label
_atom_site_fract_x
_atom_site_fract_y
_atom_site_fract_z
Si Si1 0.417825 0.728713 0.142949
Si Si2 0.724957 0.054772 0.487207
Si Si3 0.094510 0.948166 0.122587
Si Si4 0.319841 0.622616 0.823533
Si Si5 0.684474 0.498624 0.505046
Si Si6 0.458464 0.205949 0.322263
Si Si7 0.878059 0.227974 0.402885
O O1 0.243290 0.612852 0.401870
O O2 0.280654 0.792722 0.300871
O O3 0.365781 0.777862 0.978023
O O4 0.770395 0.724939 0.904697
O O5 0.611991 0.124313 0.377429
O O6 0.837885 0.120398 0.469169
O O7 0.003415 0.007392 0.266955
O O8 0.460133 0.960332 0.831127
O O9 0.900354 0.833713 0.392806
O O10 0.000000 0.000000 0.000000
O O11 0.491311 0.532025 0.745755
O O12 0.513464 0.688756 0.727671
O O13 0.293793 0.692894 0.631926
O O14 0.993566 0.577986 0.179909
O O15 0.500000 0.500000 0.500000
#
# Coordination Sequence:
#
# PCOD8006994 Si02
#       7
#     2   2   2   2   2   2   2
#     4  12  25  39  62  92 130 158 196 266 308 350
#     4  10  22  41  69  89 118 166 213 243 291 375
#     4  10  20  40  66  91 121 163 204 249 298 368
#     4  11  23  41  66  88 118 166 210 249 288 380
#     4  12  22  40  67  90 119 161 214 244 302 361
#     4  10  25  41  62  95 127 156 202 256 315 347
#     4  11  22  41  62  92 121 164 210 245 302 364
#
# _framework density 25.127334000000001
#
# number of rings (size 3 to 8) (size 9 to 14) (size 15 to 20)
#    0.000    1.143    2.857    3.857    0.000   12.571 
#    0.000    4.286    0.000    0.000    0.000    0.000 
#    0.000    0.000    0.000    0.000    0.000    0.000 
#
# Total GULP energy -173674.631044 kJ/mol
# GULP energy per Si atom -12405.330789 kJ/mol
# Density = 2.507014 g / cm^3
# Si number density = 25.127334 Si / 1000 Ang^3
#
#
#
# Elastic Constant Matrix: (Units=GPa)
#
#
# Indices 1 2 3 4 5 6 
#
# 1 72.7494 44.4627 38.9464 -2.3052 22.4419 21.9485
# 2 44.4627 118.9863 40.2462 7.8353 1.7790 42.0963
# 3 38.9464 40.2462 136.6875 6.8970 12.9678 18.7524
# 4 -2.3052 7.8353 6.8970 55.6033 5.5031 0.9802
# 5 22.4419 1.7790 12.9678 5.5031 32.6225 3.8195
# 6 21.9485 42.0963 18.7524 0.9802 3.8195 35.3757
#
#
#
# Elastic Compliance Matrix: (Units=1/GPa)
#
#
# Indices 1 2 3 4 5 6 
#
# 1 0.026701 -0.007293 -0.003488 0.004307 -0.016802 -0.004343
# 2 -0.007293 0.017377 -0.001340 -0.002993 0.006994 -0.016115
# 3 -0.003488 -0.001340 0.008950 -0.000969 -0.000820 -0.000871
# 4 0.004307 -0.002993 -0.000969 0.019256 -0.005838 0.001500
# 5 -0.016802 0.006994 -0.000820 -0.005838 0.043374 -0.001985
# 6 -0.004343 -0.016115 -0.000871 0.001500 -0.001985 0.050773
#
#
# Mechanical properties :
#
#
# Convention : Reuss Voigt Hill
#
# Bulk Modulus (GPa) = 34.73989 63.97042 49.35515
# Shear Modulus (GPa) = 24.96645 38.37149 31.66897
#
# Velocity S-wave (km/s) = 3.15556 3.91203 3.55398
# Velocity P-wave (km/s) = 5.20886 6.77636 6.04365
#
# Compressibility (1/GPa) = 0.02878536
#
# Stress axis : x y z
#
# Youngs Moduli (GPa) = 37.45240 57.54828 111.72657
#
# Poissons Ratio (x) = 0.41973 0.38967
# Poissons Ratio (y) = 0.27316 0.14971
# Poissons Ratio (z) = 0.13062 0.07711
#
# Static dielectric constant tensor:
#      x y z
#    x 4.548530 0.252090 0.022300 
#    y 0.252090 4.671050 -0.184190 
#    z 0.022300 -0.184190 4.946760 
# 
# 
# High freq. dielectric constant tensor:
#      x y z
#    x 1.998620 0.009560 0.007210 
#    y 0.009560 2.010890 -0.002220 
#    z 0.007210 -0.002220 2.017160 
# 
# From -- ./inp_files/216931.got.cif
#   From: 2010.06.25/outbox.cif.g09.slc.cpg/sg2_109_cif.got.tgz:216931.got - 2010.06.27 13:26:56.
