data_PCOD8006478
_publ_section_title
;
Structure prediction by ZEFSAII (Michael W. Deem and Ramdas Pophale) SiO2 
 PCOD8006478
Probable space group: P -1
;
_chemical_formula_sum "Si O2"
_cell_formula_units_Z 14
_cell_length_a 13.437292
_cell_length_b 5.086691
_cell_length_c 11.766424
_cell_angle_alpha 50.724816
_cell_angle_beta 79.016758
_cell_angle_gamma 87.345544
_cell_volume 608.250499
_symmetry_space_group_name_H-M "P -1"
_symmetry_group_IT_number 2
_symmetry_cell_setting 'triclinic'
loop_
_space_group_symop_operation_xyz
x,y,z
-x,-y,-z
loop_
_atom_site_type_symbol
_atom_site_label
_atom_site_fract_x
_atom_site_fract_y
_atom_site_fract_z
Si Si1 0.893081 0.034109 0.655126
Si Si2 0.537240 0.190208 0.207133
Si Si3 0.005877 0.464704 0.692230
Si Si4 0.314824 0.153338 0.582602
Si Si5 0.212250 0.446036 0.741171
Si Si6 0.361652 0.103958 0.948690
Si Si7 0.670003 0.159698 0.728660
O O1 0.930184 0.298162 0.477279
O O2 0.772912 0.029229 0.695247
O O3 0.949805 0.135579 0.733355
O O4 0.919217 0.656701 0.720415
O O5 0.550516 0.593872 0.121129
O O6 0.580456 0.982745 0.359455
O O7 0.598815 0.127548 0.095753
O O8 0.418947 0.073323 0.251958
O O9 0.089633 0.359746 0.793681
O O10 0.255775 0.303632 0.656828
O O11 0.340673 0.443951 0.403693
O O12 0.240509 0.852988 0.624849
O O13 0.259641 0.272268 0.887538
O O14 0.335196 0.869641 0.126696
#
# Coordination Sequence:
#
# PCOD8006478 Si02
#       7
#     2   2   2   2   2   2   2
#     4  10  23  33  60  90 114 151 200 248 294 345
#     4  10  23  43  60  86 126 166 192 238 304 361
#     4  10  20  40  56  85 120 155 191 244 308 349
#     4  10  22  36  63  92 116 156 204 243 294 349
#     4  10  20  41  62  84 122 163 193 239 305 361
#     4  10  24  41  62  88 122 165 196 235 307 362
#     4  12  23  40  62  95 121 153 207 255 283 349
#
# _framework density 23.016833999999999
#
# number of rings (size 3 to 8) (size 9 to 14) (size 15 to 20)
#    0.000    1.714    1.429    2.143    4.000    4.571 
#    0.000    5.714    0.000    0.000    0.000    0.000 
#    0.000    0.000    0.000    0.000    0.000    0.000 
#
# Total GULP energy -173676.100122 kJ/mol
# GULP energy per Si atom -12405.435723 kJ/mol
# Density = 2.296445 g / cm^3
# Si number density = 23.016834 Si / 1000 Ang^3
#
#
#
# Elastic Constant Matrix: (Units=GPa)
#
#
# Indices 1 2 3 4 5 6 
#
# 1 136.9673 3.9099 25.4524 16.1717 1.3358 14.2673
# 2 3.9099 96.1787 20.2647 14.9806 -0.3764 21.9007
# 3 25.4524 20.2647 116.3505 -0.2538 17.5513 4.9270
# 4 16.1717 14.9806 -0.2538 11.4893 -2.3043 1.8955
# 5 1.3358 -0.3764 17.5513 -2.3043 23.9533 9.5793
# 6 14.2673 21.9007 4.9270 1.8955 9.5793 22.0191
#
#
#
# Elastic Compliance Matrix: (Units=1/GPa)
#
#
# Indices 1 2 3 4 5 6 
#
# 1 0.012158 0.007529 -0.004355 -0.023216 0.006482 -0.015213
# 2 0.007529 0.023602 -0.006598 -0.033903 0.013444 -0.029808
# 3 -0.004355 -0.006598 0.012076 0.010761 -0.012077 0.011010
# 4 -0.023216 -0.033903 0.010761 0.157044 -0.006232 0.035548
# 5 0.006482 0.013444 -0.012077 -0.006232 0.067286 -0.043606
# 6 -0.015213 -0.029808 0.011010 0.035548 -0.043606 0.098367
#
#
# Mechanical properties :
#
#
# Convention : Reuss Voigt Hill
#
# Bulk Modulus (GPa) = 24.39723 49.86118 37.12920
# Shear Modulus (GPa) = 12.78631 31.48363 22.13497
#
# Velocity S-wave (km/s) = 2.35950 3.70246 3.10447
# Velocity P-wave (km/s) = 4.24803 6.32357 5.38671
#
# Compressibility (1/GPa) = 0.04098827
#
# Stress axis : x y z
#
# Youngs Moduli (GPa) = 82.25020 42.36896 82.81189
#
# Poissons Ratio (x) = -0.31900 0.36066
# Poissons Ratio (y) = -0.61927 0.54636
# Poissons Ratio (z) = 0.35822 0.27953
#
# Static dielectric constant tensor:
#      x y z
#    x 4.428130 0.039580 0.387180 
#    y 0.039580 4.169700 0.017710 
#    z 0.387180 0.017710 4.003700 
# 
# 
# High freq. dielectric constant tensor:
#      x y z
#    x 1.924280 0.002580 0.019830 
#    y 0.002580 1.920710 0.006130 
#    z 0.019830 0.006130 1.881200 
# 
# From -- ./inp_files/409749.got.cif
#   From: 2010.06.25/outbox.cif.g09.slc.cpg/sg2_205_cif.got.tgz:409749.got - 2010.06.27 13:26:56.
