data_PCOD8006294
_publ_section_title
;
Structure prediction by ZEFSAII (Michael W. Deem and Ramdas Pophale) SiO2 
 PCOD8006294
Probable space group: P -1
;
_chemical_formula_sum "Si O2"
_cell_formula_units_Z 16
_cell_length_a 10.354318
_cell_length_b 8.722870
_cell_length_c 17.281747
_cell_angle_alpha 150.486986
_cell_angle_beta 63.468513
_cell_angle_gamma 110.280152
_cell_volume 684.796726
_symmetry_space_group_name_H-M "P -1"
_symmetry_group_IT_number 2
_symmetry_cell_setting 'triclinic'
loop_
_space_group_symop_operation_xyz
x,y,z
-x,-y,-z
loop_
_atom_site_type_symbol
_atom_site_label
_atom_site_fract_x
_atom_site_fract_y
_atom_site_fract_z
Si Si1 0.560528 0.639455 0.254340
Si Si2 0.697628 0.920224 0.485748
Si Si3 0.354157 0.949310 0.723961
Si Si4 0.763986 0.101622 0.981463
Si Si5 0.338519 0.253368 0.410225
Si Si6 0.857284 0.841843 0.993343
Si Si7 0.903947 0.826796 0.677747
Si Si8 0.953123 0.671824 0.218817
O O1 0.601598 0.729831 0.370222
O O2 0.387394 0.730664 0.328803
O O3 0.652306 0.811939 0.241214
O O4 0.605272 0.265713 0.070286
O O5 0.709277 0.741717 0.485394
O O6 0.859184 0.916980 0.407725
O O7 0.350434 0.609090 0.537103
O O8 0.506440 0.953551 0.732030
O O9 0.217223 0.019973 0.847732
O O10 0.829466 0.849194 0.791152
O O11 0.864285 0.390285 0.089758
O O12 0.747905 0.905995 0.978853
O O13 0.218346 0.115779 0.329728
O O14 0.905754 0.475874 0.835529
O O15 0.000000 0.000000 0.000000
O O16 0.000000 0.500000 0.500000
O O17 0.001238 0.118079 0.772341
#
# Coordination Sequence:
#
# PCOD8006294 Si02
#       8
#     2   2   2   2   2   2   2   2
#     4   9  18  36  69  96 124 159 225 263 307 386
#     4   9  19  37  62 100 120 170 209 270 313 378
#     4  10  20  39  67  94 121 179 212 264 322 378
#     4  10  22  42  64  94 126 173 219 262 316 381
#     4  10  23  40  60  91 138 167 217 262 320 388
#     4  10  21  38  69  95 127 165 224 264 308 393
#     4  12  28  41  61  98 138 169 213 273 321 382
#     4  10  22  41  67  90 127 174 216 261 322 388
#
# _framework density 23.364595999999999
#
# number of rings (size 3 to 8) (size 9 to 14) (size 15 to 20)
#    0.000    2.000    0.000    3.375    8.750    1.500 
#    0.000    6.250    0.000    0.000    0.000    0.000 
#    0.000    0.000    0.000    0.000    0.000    0.000 
#
# Total GULP energy -198300.026603 kJ/mol
# GULP energy per Si atom -12393.751663 kJ/mol
# Density = 2.331142 g / cm^3
# Si number density = 23.364596 Si / 1000 Ang^3
#
#
#
# Elastic Constant Matrix: (Units=GPa)
#
#
# Indices 1 2 3 4 5 6 
#
# 1 61.0388 12.1641 27.6243 -1.8327 -12.5954 -10.9440
# 2 12.1641 83.3578 35.2712 -15.3453 -4.2102 -23.6295
# 3 27.6243 35.2712 124.9240 -9.6318 -36.0691 -13.8546
# 4 -1.8327 -15.3453 -9.6318 42.9546 -4.5676 -8.1454
# 5 -12.5954 -4.2102 -36.0691 -4.5676 39.4018 0.4039
# 6 -10.9440 -23.6295 -13.8546 -8.1454 0.4039 32.2038
#
#
#
# Elastic Compliance Matrix: (Units=1/GPa)
#
#
# Indices 1 2 3 4 5 6 
#
# 1 0.019455 0.000652 -0.002321 0.002259 0.004359 0.006609
# 2 0.000652 0.019255 -0.003067 0.009167 0.000364 0.015344
# 3 -0.002321 -0.003067 0.013411 0.003714 0.011602 0.003524
# 4 0.002259 0.009167 0.003714 0.031619 0.008593 0.016982
# 5 0.004359 0.000364 0.011602 0.008593 0.038342 0.008432
# 6 0.006609 0.015344 0.003524 0.016982 0.008432 0.050263
#
#
# Mechanical properties :
#
#
# Convention : Reuss Voigt Hill
#
# Bulk Modulus (GPa) = 23.44654 46.60442 35.02548
# Shear Modulus (GPa) = 25.50606 35.86279 30.68442
#
# Velocity S-wave (km/s) = 3.30760 3.92206 3.62786
# Velocity P-wave (km/s) = 4.96426 6.36396 5.70718
#
# Compressibility (1/GPa) = 0.04265021
#
# Stress axis : x y z
#
# Youngs Moduli (GPa) = 51.39946 51.93537 74.56589
#
# Poissons Ratio (x) = -0.03388 0.17305
# Poissons Ratio (y) = -0.03353 0.22870
# Poissons Ratio (z) = 0.11928 0.15929
#
# Static dielectric constant tensor:
#      x y z
#    x 4.422490 -0.358220 -0.781920 
#    y -0.358220 4.275400 0.055080 
#    z -0.781920 0.055080 4.350810 
# 
# 
# High freq. dielectric constant tensor:
#      x y z
#    x 1.907680 -0.022350 -0.042540 
#    y -0.022350 1.928730 -0.007330 
#    z -0.042540 -0.007330 1.915290 
# 
# From -- ./inp_files/402147.got.cif
#   From: 2010.06.25/outbox.cif.g09.slc.cpg/sg2_202_cif.got.tgz:402147.got - 2010.06.27 13:26:56.
