data_PCOD8006224
_publ_section_title
;
Structure prediction by ZEFSAII (Michael W. Deem and Ramdas Pophale) SiO2 
 PCOD8006224
Probable space group: P -1
;
_chemical_formula_sum "Si O2"
_cell_formula_units_Z 14
_cell_length_a 8.765513
_cell_length_b 13.151840
_cell_length_c 19.304435
_cell_angle_alpha 148.617389
_cell_angle_beta 38.050568
_cell_angle_gamma 148.691125
_cell_volume 588.197903
_symmetry_space_group_name_H-M "P -1"
_symmetry_group_IT_number 2
_symmetry_cell_setting 'triclinic'
loop_
_space_group_symop_operation_xyz
x,y,z
-x,-y,-z
loop_
_atom_site_type_symbol
_atom_site_label
_atom_site_fract_x
_atom_site_fract_y
_atom_site_fract_z
Si Si1 0.809027 0.930554 0.314216
Si Si2 0.754491 0.577208 0.737733
Si Si3 0.365744 0.764132 0.192932
Si Si4 0.704462 0.232191 0.433338
Si Si5 0.225492 0.009965 0.087400
Si Si6 0.809946 0.680880 0.924613
Si Si7 0.893633 0.849665 0.381288
O O1 0.519981 0.667755 0.277568
O O2 0.985943 0.010698 0.372046
O O3 0.001047 0.911102 0.175017
O O4 0.730969 0.116414 0.427227
O O5 0.938110 0.734235 0.831452
O O6 0.976906 0.552029 0.591081
O O7 0.649955 0.718671 0.814332
O O8 0.305761 0.589569 0.175687
O O9 0.050973 0.707259 0.240747
O O10 0.570322 0.030123 0.304592
O O11 0.539810 0.719496 0.045897
O O12 0.477233 0.313949 0.577667
O O13 0.067808 0.850597 0.984189
O O14 0.500000 0.000000 0.000000
O O15 0.000000 0.000000 0.500000
#
# Coordination Sequence:
#
# PCOD8006224 Si02
#       7
#     2   2   2   2   2   2   2
#     4  11  22  43  66  94 129 169 211 270 324 369
#     4  11  23  39  70  94 129 173 210 258 329 380
#     4  10  20  39  66  94 126 172 217 254 322 377
#     4  10  21  44  63  97 125 168 222 258 318 382
#     4  11  26  39  62 102 131 165 215 263 316 392
#     4  11  20  41  65  93 135 169 207 260 320 387
#     4  10  24  40  69  92 127 173 217 267 319 376
#
# _framework density 23.801514000000001
#
# number of rings (size 3 to 8) (size 9 to 14) (size 15 to 20)
#    0.000    1.429    4.286    1.714    4.000    2.286 
#    0.000    0.714    0.000    0.000    0.000    0.000 
#    0.000    0.000    0.000    0.000    0.000    0.000 
#
# Total GULP energy -173540.499666 kJ/mol
# GULP energy per Si atom -12395.749976 kJ/mol
# Density = 2.374734 g / cm^3
# Si number density = 23.801514 Si / 1000 Ang^3
#
#
#
# Elastic Constant Matrix: (Units=GPa)
#
#
# Indices 1 2 3 4 5 6 
#
# 1 165.1739 63.1831 100.2781 -28.2431 -16.8154 -10.5531
# 2 63.1831 154.9315 61.5088 -11.9737 -12.1540 -8.5637
# 3 100.2781 61.5088 153.1029 -20.0585 -13.8459 -13.4453
# 4 -28.2431 -11.9737 -20.0585 32.3168 -1.5099 4.2524
# 5 -16.8154 -12.1540 -13.8459 -1.5099 56.8137 -13.2246
# 6 -10.5531 -8.5637 -13.4453 4.2524 -13.2246 31.9652
#
#
#
# Elastic Compliance Matrix: (Units=1/GPa)
#
#
# Indices 1 2 3 4 5 6 
#
# 1 0.011494 -0.001724 -0.005818 0.005764 0.001987 0.000941
# 2 -0.001724 0.008071 -0.001887 0.000203 0.001042 0.001203
# 3 -0.005818 -0.001887 0.011629 0.001119 0.001414 0.002901
# 4 0.005764 0.000203 0.001119 0.037059 0.002683 -0.001392
# 5 0.001987 0.001042 0.001414 0.002683 0.021137 0.009918
# 6 0.000941 0.001203 0.002901 -0.001392 0.009918 0.037426
#
#
# Mechanical properties :
#
#
# Convention : Reuss Voigt Hill
#
# Bulk Modulus (GPa) = 81.06127 102.57202 91.81665
# Shear Modulus (GPa) = 33.38108 40.76835 37.07472
#
# Velocity S-wave (km/s) = 3.74903 4.14315 3.95100
# Velocity P-wave (km/s) = 7.27127 8.12870 7.71191
#
# Compressibility (1/GPa) = 0.01233635
#
# Stress axis : x y z
#
# Youngs Moduli (GPa) = 87.00216 123.90783 85.98968
#
# Poissons Ratio (x) = 0.21364 0.50029
# Poissons Ratio (y) = 0.15001 0.16222
# Poissons Ratio (z) = 0.50618 0.23376
#
# Static dielectric constant tensor:
#      x y z
#    x 5.158530 -0.001450 0.117230 
#    y -0.001450 4.318090 -0.109220 
#    z 0.117230 -0.109220 4.924420 
# 
# 
# High freq. dielectric constant tensor:
#      x y z
#    x 1.950980 -0.002730 0.018290 
#    y -0.002730 1.940490 -0.002340 
#    z 0.018290 -0.002340 1.972460 
# 
# From -- ./inp_files/404445.got.cif
#   From: 2010.06.25/outbox.cif.g09.slc.cpg/sg2_203_cif.got.tgz:404445.got - 2010.06.27 13:26:56.
