data_PCOD8006786
_publ_section_title
;
Structure prediction by ZEFSAII (Michael W. Deem and Ramdas Pophale) SiO2 
 PCOD8006786
Probable space group: P -1
;
_chemical_formula_sum "Si O2"
_cell_formula_units_Z 12
_cell_length_a 9.351400
_cell_length_b 8.404701
_cell_length_c 16.709292
_cell_angle_alpha 121.815771
_cell_angle_beta 150.753820
_cell_angle_gamma 65.503034
_cell_volume 541.953019
_symmetry_space_group_name_H-M "P -1"
_symmetry_group_IT_number 2
_symmetry_cell_setting 'triclinic'
loop_
_space_group_symop_operation_xyz
x,y,z
-x,-y,-z
loop_
_atom_site_type_symbol
_atom_site_label
_atom_site_fract_x
_atom_site_fract_y
_atom_site_fract_z
Si Si1 0.606190 0.591252 0.182283
Si Si2 0.859825 0.114297 0.543946
Si Si3 0.666894 0.515560 0.362515
Si Si4 0.366211 0.904724 0.740251
Si Si5 0.590087 0.681664 0.539792
Si Si6 0.763705 0.249266 0.081792
O O1 0.532543 0.613078 0.245977
O O2 0.659603 0.371591 0.137615
O O3 0.900077 0.717536 0.327376
O O4 0.312661 0.637046 0.005334
O O5 0.640469 0.045056 0.345054
O O6 0.665303 0.180969 0.538914
O O7 0.032746 0.941846 0.615757
O O8 0.531696 0.300297 0.253254
O O9 0.616256 0.637976 0.447679
O O10 0.000000 0.500000 0.500000
O O11 0.594360 0.041340 0.939461
O O12 0.500000 0.500000 0.500000
O O13 0.895144 0.777810 0.750643
#
# Coordination Sequence:
#
# PCOD8006786 Si02
#       6
#     2   2   2   2   2   2
#     4  10  20  40  64  89 119 165 202 240 303 371
#     4  10  20  40  64  89 119 165 202 240 303 371
#     4  12  21  40  66  90 119 164 205 244 301 366
#     4  10  21  36  65  90 121 159 204 246 299 362
#     4  12  21  40  66  90 119 164 205 244 301 366
#     4  10  21  36  65  90 121 159 204 246 299 362
#
# _framework density 22.142140000000001
#
# number of rings (size 3 to 8) (size 9 to 14) (size 15 to 20)
#    0.000    1.333    6.667    0.000    0.000    1.333 
#    0.000    1.667    0.000    2.000    0.000    0.000 
#    0.000    0.000    0.000    0.000    0.000    0.000 
#
# Total GULP energy -148716.105696 kJ/mol
# GULP energy per Si atom -12393.008808 kJ/mol
# Density = 2.209174 g / cm^3
# Si number density = 22.142140 Si / 1000 Ang^3
#
#
#
# Elastic Constant Matrix: (Units=GPa)
#
#
# Indices 1 2 3 4 5 6 
#
# 1 155.8333 27.2439 49.5316 -21.2628 -13.5687 -24.9590
# 2 27.2439 46.6373 19.7138 -17.0663 4.8289 -22.8769
# 3 49.5316 19.7138 104.6685 -0.0671 -13.8511 -9.6102
# 4 -21.2628 -17.0663 -0.0671 29.5853 -2.2751 -5.3725
# 5 -13.5687 4.8289 -13.8511 -2.2751 23.4543 -3.8549
# 6 -24.9590 -22.8769 -9.6102 -5.3725 -3.8549 37.3240
#
#
#
# Elastic Compliance Matrix: (Units=1/GPa)
#
#
# Indices 1 2 3 4 5 6 
#
# 1 0.011420 0.006594 -0.004604 0.014884 0.006155 0.013271
# 2 0.006594 0.064940 -0.011342 0.050670 -0.003411 0.048234
# 3 -0.004604 -0.011342 0.013928 -0.010731 0.005639 -0.007406
# 4 0.014884 0.050670 -0.010731 0.083634 0.008361 0.051149
# 5 0.006155 -0.003411 0.005639 0.008361 0.052704 0.010124
# 6 0.013271 0.048234 -0.007406 0.051149 0.010124 0.071732
#
#
# Mechanical properties :
#
#
# Convention : Reuss Voigt Hill
#
# Bulk Modulus (GPa) = 13.96944 55.56861 34.76903
# Shear Modulus (GPa) = 14.66611 32.11606 23.39109
#
# Velocity S-wave (km/s) = 2.57643 3.81261 3.25377
# Velocity P-wave (km/s) = 3.89530 6.67324 5.46377
#
# Compressibility (1/GPa) = 0.07158482
#
# Stress axis : x y z
#
# Youngs Moduli (GPa) = 87.56624 15.39893 71.79798
#
# Poissons Ratio (x) = -0.10154 0.33052
# Poissons Ratio (y) = -0.57740 0.81431
# Poissons Ratio (z) = 0.40311 0.17465
#
# Static dielectric constant tensor:
#      x y z
#    x 5.211310 -0.185280 -0.656260 
#    y -0.185280 4.409550 0.000040 
#    z -0.656260 0.000040 4.196560 
# 
# 
# High freq. dielectric constant tensor:
#      x y z
#    x 1.849560 -0.015120 -0.027560 
#    y -0.015120 1.867210 0.009160 
#    z -0.027560 0.009160 1.866260 
# 
# From -- ./inp_files/557532.got.cif
#   From: 2010.06.25/outbox.cif.g09.slc.cpg/sg2_279_cif.got.tgz:557532.got - 2010.06.27 13:26:56.
