data_PCOD8006393
_publ_section_title
;
Structure prediction by ZEFSAII (Michael W. Deem and Ramdas Pophale) SiO2 
 PCOD8006393
Probable space group: P -1
;
_chemical_formula_sum "Si O2"
_cell_formula_units_Z 16
_cell_length_a 9.499807
_cell_length_b 8.373904
_cell_length_c 12.641023
_cell_angle_alpha 122.360208
_cell_angle_beta 117.440260
_cell_angle_gamma 57.199629
_cell_volume 693.013814
_symmetry_space_group_name_H-M "P -1"
_symmetry_group_IT_number 2
_symmetry_cell_setting 'triclinic'
loop_
_space_group_symop_operation_xyz
x,y,z
-x,-y,-z
loop_
_atom_site_type_symbol
_atom_site_label
_atom_site_fract_x
_atom_site_fract_y
_atom_site_fract_z
Si Si1 0.737589 0.588835 0.231738
Si Si2 0.565819 0.699580 0.435475
Si Si3 0.361689 0.758105 0.876131
Si Si4 0.082141 0.892857 0.649609
Si Si5 0.414183 0.393858 0.280083
Si Si6 0.063528 0.673978 0.359062
Si Si7 0.441700 0.953791 0.164193
Si Si8 0.735013 0.964829 0.663189
O O1 0.679504 0.648979 0.352306
O O2 0.710837 0.378582 0.124573
O O3 0.624913 0.765456 0.174704
O O4 0.936674 0.553709 0.279532
O O5 0.535983 0.506714 0.408141
O O6 0.674267 0.773376 0.581757
O O7 0.376762 0.877768 0.410259
O O8 0.246008 0.852410 0.765982
O O9 0.550383 0.620344 0.840985
O O10 0.369958 0.938751 0.017306
O O11 0.120791 0.713889 0.510831
O O12 0.933359 0.890209 0.676183
O O13 0.035869 0.109111 0.654383
O O14 0.217336 0.532669 0.287205
O O15 0.470761 0.164015 0.262638
O O16 0.306297 0.937449 0.199124
#
# Coordination Sequence:
#
# PCOD8006393 Si02
#       8
#     2   2   2   2   2   2   2   2
#     4  10  22  44  70  95 130 177 228 280 332 394
#     4   9  19  39  67  98 130 169 222 275 341 382
#     4  11  26  46  68  96 136 184 226 272 329 402
#     4  11  24  43  70 100 144 169 217 285 340 397
#     4  11  24  43  66 101 134 173 226 278 331 400
#     4  11  24  43  70 105 133 171 221 283 350 388
#     4  11  25  44  70  94 138 185 227 265 333 404
#     4  10  20  39  68  99 134 174 217 279 326 401
#
# _framework density 23.087562999999999
#
# number of rings (size 3 to 8) (size 9 to 14) (size 15 to 20)
#    0.000    1.500    2.500    1.500    1.750    5.000 
#    0.000    1.250    0.000    0.000    0.000    0.000 
#    0.000    0.000    0.000    0.000    0.000    0.000 
#
# Total GULP energy -198351.172472 kJ/mol
# GULP energy per Si atom -12396.948280 kJ/mol
# Density = 2.303501 g / cm^3
# Si number density = 23.087563 Si / 1000 Ang^3
#
#
#
# Elastic Constant Matrix: (Units=GPa)
#
#
# Indices 1 2 3 4 5 6 
#
# 1 141.0327 29.1577 48.2733 3.8222 -8.0014 -4.3714
# 2 29.1577 54.5353 19.9020 -0.5455 5.2671 11.0960
# 3 48.2733 19.9020 103.9048 -11.8929 -8.4136 -7.0763
# 4 3.8222 -0.5455 -11.8929 25.6654 -2.1645 0.2745
# 5 -8.0014 5.2671 -8.4136 -2.1645 22.7396 6.6890
# 6 -4.3714 11.0960 -7.0763 0.2745 6.6890 38.1097
#
#
#
# Elastic Compliance Matrix: (Units=1/GPa)
#
#
# Indices 1 2 3 4 5 6 
#
# 1 0.009471 -0.004236 -0.003662 -0.003017 0.002302 0.001257
# 2 -0.004236 0.024019 -0.003759 -0.001072 -0.006478 -0.007032
# 3 -0.003662 -0.003759 0.013372 0.007018 0.004517 0.002314
# 4 -0.003017 -0.001072 0.007018 0.043141 0.005913 -0.000079
# 5 0.002302 -0.006478 0.004517 0.005913 0.050248 -0.005873
# 6 0.001257 -0.007032 0.002314 -0.000079 -0.005873 0.029893
#
#
# Mechanical properties :
#
#
# Convention : Reuss Voigt Hill
#
# Bulk Modulus (GPa) = 42.46500 54.90434 48.68467
# Shear Modulus (GPa) = 24.83759 30.77891 27.80825
#
# Velocity S-wave (km/s) = 3.28350 3.65518 3.47431
# Velocity P-wave (km/s) = 5.72783 6.45339 6.10141
#
# Compressibility (1/GPa) = 0.02354880
#
# Stress axis : x y z
#
# Youngs Moduli (GPa) = 105.58473 41.63382 74.78165
#
# Poissons Ratio (x) = 0.17634 0.27386
# Poissons Ratio (y) = 0.44722 0.28110
# Poissons Ratio (z) = 0.38667 0.15650
#
# Static dielectric constant tensor:
#      x y z
#    x 4.334820 0.135790 -0.113930 
#    y 0.135790 4.181810 0.274150 
#    z -0.113930 0.274150 4.026480 
# 
# 
# High freq. dielectric constant tensor:
#      x y z
#    x 1.926960 0.013280 -0.010480 
#    y 0.013280 1.910990 0.012640 
#    z -0.010480 0.012640 1.890280 
# 
# From -- ./inp_files/383315.got.cif
#   From: 2010.06.25/outbox.cif.g09.slc.cpg/sg2_192_cif.got.tgz:383315.got - 2010.06.27 13:26:56.
