data_PCOD8006910
_publ_section_title
;
Structure prediction by ZEFSAII (Michael W. Deem and Ramdas Pophale) SiO2 
 PCOD8006910
Probable space group: P -1
;
_chemical_formula_sum "Si O2"
_cell_formula_units_Z 16
_cell_length_a 16.297380
_cell_length_b 9.620659
_cell_length_c 8.636380
_cell_angle_alpha 130.289781
_cell_angle_beta 85.514572
_cell_angle_gamma 62.861761
_cell_volume 767.823451
_symmetry_space_group_name_H-M "P -1"
_symmetry_group_IT_number 2
_symmetry_cell_setting 'triclinic'
loop_
_space_group_symop_operation_xyz
x,y,z
-x,-y,-z
loop_
_atom_site_type_symbol
_atom_site_label
_atom_site_fract_x
_atom_site_fract_y
_atom_site_fract_z
Si Si1 0.525625 0.237859 0.440152
Si Si2 0.914794 0.281242 0.685427
Si Si3 0.163942 0.382679 0.780589
Si Si4 0.227878 0.038838 0.781423
Si Si5 0.358763 0.183024 0.385431
Si Si6 0.494395 0.670259 0.849575
Si Si7 0.278660 0.552704 0.388063
Si Si8 0.976053 0.539559 0.711550
O O1 0.459632 0.148866 0.423359
O O2 0.485666 0.462458 0.724126
O O3 0.496046 0.322534 0.329785
O O4 0.657536 0.016660 0.271062
O O5 0.817544 0.377005 0.652967
O O6 0.991249 0.318798 0.621644
O O7 0.859364 0.421959 0.955154
O O8 0.000000 0.000000 0.500000
O O9 0.169967 0.181362 0.729723
O O10 0.278499 0.252803 0.586550
O O11 0.065491 0.533604 0.779618
O O12 0.246189 0.799542 0.632979
O O13 0.149453 0.210561 0.059468
O O14 0.295829 0.388629 0.409849
O O15 0.397487 0.929727 0.128454
O O16 0.610459 0.584194 0.830282
O O17 0.000000 0.500000 0.500000
#
# Coordination Sequence:
#
# PCOD8006910 Si02
#       8
#     2   2   2   2   2   2   2   2
#     4   9  19  38  62  94 123 170 206 255 314 366
#     4  11  23  42  65  87 125 165 207 257 319 376
#     4  11  25  41  58  94 129 162 202 261 321 371
#     4  10  22  41  65  87 129 162 203 260 317 374
#     4  11  23  39  64  96 131 160 217 259 301 381
#     4   9  20  36  62  93 130 160 213 259 305 368
#     4  10  20  40  65  92 115 169 212 252 306 371
#     4  11  24  41  64  90 118 163 211 259 310 369
#
# _framework density 20.838123
#
# number of rings (size 3 to 8) (size 9 to 14) (size 15 to 20)
#    0.000    1.750    0.000    6.000    8.750    1.500 
#    4.500    3.750    0.000    0.000    0.000    0.000 
#    0.000    0.000    0.000    0.000    0.000    0.000 
#
# Total GULP energy -198312.400746 kJ/mol
# GULP energy per Si atom -12394.525047 kJ/mol
# Density = 2.079069 g / cm^3
# Si number density = 20.838123 Si / 1000 Ang^3
#
#
#
# Elastic Constant Matrix: (Units=GPa)
#
#
# Indices 1 2 3 4 5 6 
#
# 1 103.8369 19.2950 59.6931 -9.2549 -8.0363 -9.2523
# 2 19.2950 62.2320 70.0931 4.5950 -8.3638 -4.8263
# 3 59.6931 70.0931 171.2961 5.0166 -16.8917 17.1770
# 4 -9.2549 4.5950 5.0166 35.9283 2.1572 -0.5694
# 5 -8.0363 -8.3638 -16.8917 2.1572 22.3449 1.0757
# 6 -9.2523 -4.8263 17.1770 -0.5694 1.0757 32.4754
#
#
#
# Elastic Compliance Matrix: (Units=1/GPa)
#
#
# Indices 1 2 3 4 5 6 
#
# 1 0.014690 0.005255 -0.008341 0.004423 0.000063 0.009453
# 2 0.005255 0.036555 -0.018341 -0.000556 0.000962 0.016589
# 3 -0.008341 -0.018341 0.018333 -0.002900 0.004997 -0.015015
# 4 0.004423 -0.000556 -0.002900 0.029732 -0.003842 0.003360
# 5 0.000063 0.000962 0.004997 -0.003842 0.049486 -0.004188
# 6 0.009453 0.016589 -0.015015 0.003360 -0.004188 0.044091
#
#
# Mechanical properties :
#
#
# Convention : Reuss Voigt Hill
#
# Bulk Modulus (GPa) = 37.42090 70.61414 54.01752
# Shear Modulus (GPa) = 20.43738 30.70197 25.56968
#
# Velocity S-wave (km/s) = 3.13512 3.84260 3.50675
# Velocity P-wave (km/s) = 5.57693 7.32448 6.50961
#
# Compressibility (1/GPa) = 0.02672304
#
# Stress axis : x y z
#
# Youngs Moduli (GPa) = 68.07220 27.35603 54.54668
#
# Poissons Ratio (x) = -0.14374 0.45495
# Poissons Ratio (y) = -0.35769 1.00047
# Poissons Ratio (z) = 0.56776 0.50175
#
# Static dielectric constant tensor:
#      x y z
#    x 3.864980 -0.173460 -0.021660 
#    y -0.173460 3.717500 0.230330 
#    z -0.021660 0.230330 3.737860 
# 
# 
# High freq. dielectric constant tensor:
#      x y z
#    x 1.828580 -0.011120 0.000990 
#    y -0.011120 1.804640 0.016650 
#    z 0.000990 0.016650 1.814650 
# 
# From -- ./inp_files/299669.got.cif
#   From: 2010.06.25/outbox.cif.g09.slc.cpg/sg2_150_cif.got.tgz:299669.got - 2010.06.27 13:26:56.
