data_PCOD8006906
_publ_section_title
;
Structure prediction by ZEFSAII (Michael W. Deem and Ramdas Pophale) SiO2 
 PCOD8006906
Probable space group: P -1
;
_chemical_formula_sum "Si O2"
_cell_formula_units_Z 16
_cell_length_a 13.473278
_cell_length_b 18.453530
_cell_length_c 7.824903
_cell_angle_alpha 124.409402
_cell_angle_beta 123.952900
_cell_angle_gamma 22.368042
_cell_volume 606.807979
_symmetry_space_group_name_H-M "P -1"
_symmetry_group_IT_number 2
_symmetry_cell_setting 'triclinic'
loop_
_space_group_symop_operation_xyz
x,y,z
-x,-y,-z
loop_
_atom_site_type_symbol
_atom_site_label
_atom_site_fract_x
_atom_site_fract_y
_atom_site_fract_z
Si Si1 0.446966 0.932356 0.330866
Si Si2 0.233095 0.267294 0.947778
Si Si3 0.308881 0.786956 0.523537
Si Si4 0.595780 0.046081 0.305054
Si Si5 0.336518 0.789218 0.178668
Si Si6 0.070234 0.812502 0.790516
Si Si7 0.834127 0.298809 0.622418
Si Si8 0.344038 0.395690 0.084742
O O1 0.641218 0.766297 0.146852
O O2 0.485684 0.862843 0.464215
O O3 0.500000 0.000000 0.500000
O O4 0.147009 0.106698 0.213544
O O5 0.918042 0.486349 0.946981
O O6 0.324595 0.107609 0.802323
O O7 0.359112 0.220492 0.181618
O O8 0.448745 0.720779 0.389132
O O9 0.357192 0.652430 0.430720
O O10 0.441641 0.756368 0.761914
O O11 0.000000 0.000000 0.500000
O O12 0.859323 0.922745 0.329132
O O13 0.059211 0.020489 0.213390
O O14 0.529771 0.711040 0.121441
O O15 0.283100 0.719478 0.995747
O O16 0.195784 0.671242 0.572916
O O17 0.744125 0.446942 0.821095
#
# Coordination Sequence:
#
# PCOD8006906 Si02
#       8
#     2   2   2   2   2   2   2   2
#     4   9  18  34  60  90 118 159 212 258 302 365
#     4   9  18  35  57  86 120 157 195 258 311 362
#     4  12  23  40  65  89 124 175 212 245 321 395
#     4   8  17  33  58  87 115 153 205 252 308 360
#     4  11  23  39  61  93 129 171 204 254 325 382
#     4  10  20  41  64  90 129 164 212 264 310 376
#     4  10  20  40  65  91 125 164 208 272 308 361
#     4  11  24  42  61  94 137 155 209 275 314 362
#
# _framework density 26.367486
#
# number of rings (size 3 to 8) (size 9 to 14) (size 15 to 20)
#    0.000    2.000    2.500    1.875    1.750    1.500 
#    0.000    3.125    0.000    2.250    0.000    0.000 
#    0.000    0.000    0.000    0.000    0.000    0.000 
#
# Total GULP energy -198350.805399 kJ/mol
# GULP energy per Si atom -12396.925337 kJ/mol
# Density = 2.630747 g / cm^3
# Si number density = 26.367486 Si / 1000 Ang^3
#
#
#
# Elastic Constant Matrix: (Units=GPa)
#
#
# Indices 1 2 3 4 5 6 
#
# 1 163.7927 31.6090 41.7737 -0.9506 -20.7784 -36.9059
# 2 31.6090 118.1192 58.7865 -16.2211 -23.1006 -28.4192
# 3 41.7737 58.7865 159.3027 -10.1109 -41.8902 -15.4928
# 4 -0.9506 -16.2211 -10.1109 40.2268 -6.1022 9.3615
# 5 -20.7784 -23.1006 -41.8902 -6.1022 49.0008 4.2559
# 6 -36.9059 -28.4192 -15.4928 9.3615 4.2559 24.0397
#
#
#
# Elastic Compliance Matrix: (Units=1/GPa)
#
#
# Indices 1 2 3 4 5 6 
#
# 1 0.010567 0.002497 -0.001406 -0.003172 0.002404 0.019078
# 2 0.002497 0.014651 -0.003211 0.001613 0.003878 0.017769
# 3 -0.001406 -0.003211 0.009509 0.002502 0.006501 -0.001952
# 4 -0.003172 0.001613 0.002502 0.030404 0.006588 -0.014357
# 5 0.002404 0.003878 0.006501 0.006588 0.029223 0.004725
# 6 0.019078 0.017769 -0.001952 -0.014357 0.004725 0.095389
#
#
# Mechanical properties :
#
#
# Convention : Reuss Voigt Hill
#
# Bulk Modulus (GPa) = 32.80120 78.39478 55.59799
# Shear Modulus (GPa) = 24.49219 43.25649 33.87434
#
# Velocity S-wave (km/s) = 3.05106 4.05473 3.58816
# Velocity P-wave (km/s) = 4.98788 7.19147 6.18855
#
# Compressibility (1/GPa) = 0.03048669
#
# Stress axis : x y z
#
# Youngs Moduli (GPa) = 94.63164 68.25396 105.15833
#
# Poissons Ratio (x) = -0.17040 0.14787
# Poissons Ratio (y) = -0.23626 0.33767
# Poissons Ratio (z) = 0.13307 0.21916
#
# Static dielectric constant tensor:
#      x y z
#    x 5.340410 -0.247460 0.330140 
#    y -0.247460 4.473330 0.131710 
#    z 0.330140 0.131710 5.227800 
# 
# 
# High freq. dielectric constant tensor:
#      x y z
#    x 2.085090 -0.008170 0.027570 
#    y -0.008170 2.032050 0.024250 
#    z 0.027570 0.024250 2.077110 
# 
# From -- ./inp_files/319066.got.cif
#   From: 2010.06.25/outbox.cif.g09.slc.cpg/sg2_160_cif.got.tgz:319066.got - 2010.06.27 13:26:56.
