data_PCOD8006596
_publ_section_title
;
Structure prediction by ZEFSAII (Michael W. Deem and Ramdas Pophale) SiO2 
 PCOD8006596
Probable space group: P -1
;
_chemical_formula_sum "Si O2"
_cell_formula_units_Z 16
_cell_length_a 12.711220
_cell_length_b 4.955468
_cell_length_c 11.768929
_cell_angle_alpha 106.830392
_cell_angle_beta 107.655874
_cell_angle_gamma 77.416684
_cell_volume 669.239585
_symmetry_space_group_name_H-M "P -1"
_symmetry_group_IT_number 2
_symmetry_cell_setting 'triclinic'
loop_
_space_group_symop_operation_xyz
x,y,z
-x,-y,-z
loop_
_atom_site_type_symbol
_atom_site_label
_atom_site_fract_x
_atom_site_fract_y
_atom_site_fract_z
Si Si1 0.650090 0.901963 0.327903
Si Si2 0.169964 0.149703 0.140590
Si Si3 0.981317 0.703777 0.691270
Si Si4 0.681178 0.413513 0.832425
Si Si5 0.471651 0.483849 0.620855
Si Si6 0.101294 0.180957 0.554813
Si Si7 0.855339 0.934535 0.125824
Si Si8 0.289650 0.501151 0.898390
O O1 0.615938 0.738600 0.410398
O O2 0.776686 0.976743 0.390547
O O3 0.635085 0.694238 0.191250
O O4 0.573952 0.198338 0.314737
O O5 0.274832 0.308916 0.168136
O O6 0.083869 0.336701 0.218864
O O7 0.219581 0.850769 0.178111
O O8 0.105136 0.100162 0.996602
O O9 0.077690 0.440990 0.666876
O O10 0.042489 0.986747 0.754777
O O11 0.892502 0.717786 0.561318
O O12 0.578270 0.357498 0.714743
O O13 0.643113 0.464462 0.958115
O O14 0.500000 0.500000 0.500000
O O15 0.000000 0.000000 0.500000
O O16 0.750280 0.188225 0.130254
O O17 0.820346 0.642136 0.123903
#
# Coordination Sequence:
#
# PCOD8006596 Si02
#       8
#     2   2   2   2   2   2   2   2
#     4  12  26  46  72  97 131 182 219 278 348 380
#     4  10  23  39  71  97 136 179 214 276 335 395
#     4  11  24  39  65  96 136 178 223 267 330 405
#     4  10  24  45  65 102 133 172 227 278 332 387
#     4  12  29  46  71  97 133 174 230 283 332 406
#     4  11  27  42  65 100 135 180 226 275 323 405
#     4  10  20  40  62 103 137 172 217 269 329 398
#     4  10  21  41  70  95 137 169 219 278 329 406
#
# _framework density 23.907729
#
# number of rings (size 3 to 8) (size 9 to 14) (size 15 to 20)
#    0.000    1.250    1.250    3.000    8.750    1.000 
#    0.000    3.750    0.000    0.000    0.000    0.000 
#    0.000    0.000    0.000    0.000    0.000    0.000 
#
# Total GULP energy -198418.926923 kJ/mol
# GULP energy per Si atom -12401.182933 kJ/mol
# Density = 2.385331 g / cm^3
# Si number density = 23.907729 Si / 1000 Ang^3
#
#
#
# Elastic Constant Matrix: (Units=GPa)
#
#
# Indices 1 2 3 4 5 6 
#
# 1 70.0389 4.8411 38.0880 7.3327 -2.2123 2.2390
# 2 4.8411 60.9548 17.1135 4.0884 -4.1835 5.6112
# 3 38.0880 17.1135 140.5455 0.1705 -1.8467 -19.5022
# 4 7.3327 4.0884 0.1705 31.9683 -3.4295 -0.0658
# 5 -2.2123 -4.1835 -1.8467 -3.4295 36.8381 6.8789
# 6 2.2390 5.6112 -19.5022 -0.0658 6.8789 33.1215
#
#
#
# Elastic Compliance Matrix: (Units=1/GPa)
#
#
# Indices 1 2 3 4 5 6 
#
# 1 0.017912 0.000998 -0.005648 -0.004059 0.001465 -0.005018
# 2 0.000998 0.018086 -0.003211 -0.002237 0.002791 -0.005606
# 3 -0.005648 -0.003211 0.010003 0.001518 -0.001388 0.007107
# 4 -0.004059 -0.002237 0.001518 0.032752 0.002420 0.001110
# 5 0.001465 0.002791 -0.001388 0.002420 0.029093 -0.007427
# 6 -0.005018 -0.005606 0.007107 0.001110 -0.007427 0.037210
#
#
# Mechanical properties :
#
#
# Convention : Reuss Voigt Hill
#
# Bulk Modulus (GPa) = 33.02731 43.51383 38.27057
# Shear Modulus (GPa) = 29.26202 34.48537 31.87369
#
# Velocity S-wave (km/s) = 3.50230 3.80206 3.65526
# Velocity P-wave (km/s) = 5.49539 6.12491 5.81867
#
# Compressibility (1/GPa) = 0.03027797
#
# Stress axis : x y z
#
# Youngs Moduli (GPa) = 55.82934 55.29261 99.97273
#
# Poissons Ratio (x) = -0.05517 0.56461
# Poissons Ratio (y) = -0.05570 0.32103
# Poissons Ratio (z) = 0.31531 0.17755
#
# Static dielectric constant tensor:
#      x y z
#    x 4.001500 0.142670 -0.178910 
#    y 0.142670 4.188460 0.039090 
#    z -0.178910 0.039090 4.607770 
# 
# 
# High freq. dielectric constant tensor:
#      x y z
#    x 1.926280 0.010500 -0.009770 
#    y 0.010500 1.949500 0.000150 
#    z -0.009770 0.000150 1.966100 
# 
# From -- ./inp_files/411115.got.cif
#   From: 2010.06.25/outbox.cif.g09.slc.cpg/sg2_206_cif.got.tgz:411115.got - 2010.06.27 13:26:56.
