data_PCOD8006077
_publ_section_title
;
Structure prediction by ZEFSAII (Michael W. Deem and Ramdas Pophale) SiO2 
 PCOD8006077
Probable space group: P -1
;
_chemical_formula_sum "Si O2"
_cell_formula_units_Z 16
_cell_length_a 8.346418
_cell_length_b 8.146752
_cell_length_c 18.064776
_cell_angle_alpha 99.437155
_cell_angle_beta 121.668502
_cell_angle_gamma 118.230844
_cell_volume 769.349313
_symmetry_space_group_name_H-M "P -1"
_symmetry_group_IT_number 2
_symmetry_cell_setting 'triclinic'
loop_
_space_group_symop_operation_xyz
x,y,z
-x,-y,-z
loop_
_atom_site_type_symbol
_atom_site_label
_atom_site_fract_x
_atom_site_fract_y
_atom_site_fract_z
Si Si1 0.373360 0.306902 0.515098
Si Si2 0.198568 0.752421 0.042111
Si Si3 0.978261 0.832139 0.316412
Si Si4 0.550605 0.060652 0.269162
Si Si5 0.921796 0.702050 0.834971
Si Si6 0.626358 0.483012 0.327396
Si Si7 0.303563 0.742689 0.316161
Si Si8 0.267779 0.042399 0.817848
O O1 0.500000 0.500000 0.500000
O O2 0.288695 0.370958 0.567865
O O3 0.570402 0.282241 0.587442
O O4 0.129238 0.074185 0.406364
O O5 0.286714 0.911263 0.147034
O O6 0.445148 0.804188 0.070872
O O7 0.000000 0.500000 0.000000
O O8 0.078847 0.806080 0.956727
O O9 0.167535 0.825993 0.318198
O O10 0.831103 0.637521 0.325932
O O11 0.779560 0.796752 0.208578
O O12 0.518177 0.926098 0.323637
O O13 0.763421 0.102795 0.270810
O O14 0.630506 0.290037 0.331075
O O15 0.647586 0.619838 0.774215
O O16 0.897292 0.493963 0.791341
O O17 0.064985 0.884454 0.819365
#
# Coordination Sequence:
#
# PCOD8006077 Si02
#       8
#     2   2   2   2   2   2   2   2
#     4  11  24  43  66  91 122 163 204 256 311 371
#     4  10  20  39  65  89 127 164 210 247 314 361
#     4  12  23  42  63  93 125 166 208 251 308 371
#     4  10  22  40  63  90 128 161 205 253 311 359
#     4  11  20  40  63  90 128 168 203 261 303 363
#     4  11  24  40  62  93 126 164 207 255 309 362
#     4  11  22  40  66  90 125 160 206 253 312 363
#     4  10  22  38  63  91 126 164 207 254 310 358
#
# _framework density 20.796797000000002
#
# number of rings (size 3 to 8) (size 9 to 14) (size 15 to 20)
#    0.750    0.500    1.250    7.125    0.000    0.500 
#    0.000    2.500    0.000    0.000    0.000    0.000 
#    0.000    0.000    0.000    0.000    0.000    0.000 
#
# Total GULP energy -198402.931492 kJ/mol
# GULP energy per Si atom -12400.183218 kJ/mol
# Density = 2.074946 g / cm^3
# Si number density = 20.796797 Si / 1000 Ang^3
#
#
#
# Elastic Constant Matrix: (Units=GPa)
#
#
# Indices 1 2 3 4 5 6 
#
# 1 64.2067 13.1725 6.6381 -6.3967 -1.8558 -0.8072
# 2 13.1725 123.4200 22.2732 -8.7162 -1.6457 3.9584
# 3 6.6381 22.2732 52.2864 -9.9648 8.7058 -1.7645
# 4 -6.3967 -8.7162 -9.9648 40.1715 0.1666 0.3476
# 5 -1.8558 -1.6457 8.7058 0.1666 22.4178 2.0214
# 6 -0.8072 3.9584 -1.7645 0.3476 2.0214 38.2688
#
#
#
# Elastic Compliance Matrix: (Units=1/GPa)
#
#
# Indices 1 2 3 4 5 6 
#
# 1 0.016240 -0.001329 -0.001408 0.001939 0.001752 0.000305
# 2 -0.001329 0.009085 -0.003963 0.000778 0.002205 -0.001274
# 3 -0.001408 -0.003963 0.023600 0.004794 -0.009783 0.001942
# 4 0.001939 0.000778 0.004794 0.026567 -0.001845 0.000038
# 5 0.001752 0.002205 -0.009783 -0.001845 0.049017 -0.003215
# 6 0.000305 -0.001274 0.001942 0.000038 -0.003215 0.026528
#
#
# Mechanical properties :
#
#
# Convention : Reuss Voigt Hill
#
# Bulk Modulus (GPa) = 28.14795 36.00898 32.07847
# Shear Modulus (GPa) = 28.36407 33.36023 30.86215
#
# Velocity S-wave (km/s) = 3.69706 4.00947 3.85643
# Velocity P-wave (km/s) = 5.63813 6.22790 5.94034
#
# Compressibility (1/GPa) = 0.03552656
#
# Stress axis : x y z
#
# Youngs Moduli (GPa) = 61.57469 110.07561 42.37210
#
# Poissons Ratio (x) = 0.14627 0.05965
# Poissons Ratio (y) = 0.08182 0.16792
# Poissons Ratio (z) = 0.08668 0.43623
#
# Static dielectric constant tensor:
#      x y z
#    x 3.610370 0.020410 -0.025810 
#    y 0.020410 3.775860 -0.040740 
#    z -0.025810 -0.040740 4.050720 
# 
# 
# High freq. dielectric constant tensor:
#      x y z
#    x 1.807190 0.004240 0.004810 
#    y 0.004240 1.828940 -0.008440 
#    z 0.004810 -0.008440 1.807220 
# 
# From -- ./inp_files/556248.got.cif
#   From: 2010.06.25/outbox.cif.g09.slc.cpg/sg2_279_cif.got.tgz:556248.got - 2010.06.27 13:26:56.
