data_PCOD8006975
_publ_section_title
;
Structure prediction by ZEFSAII (Michael W. Deem and Ramdas Pophale) SiO2 
 PCOD8006975
Probable space group: P -1
;
_chemical_formula_sum "Si O2"
_cell_formula_units_Z 14
_cell_length_a 8.098762
_cell_length_b 24.870189
_cell_length_c 25.235776
_cell_angle_alpha 11.665101
_cell_angle_beta 44.429434
_cell_angle_gamma 43.883355
_cell_volume 711.175061
_symmetry_space_group_name_H-M "P -1"
_symmetry_group_IT_number 2
_symmetry_cell_setting 'triclinic'
loop_
_space_group_symop_operation_xyz
x,y,z
-x,-y,-z
loop_
_atom_site_type_symbol
_atom_site_label
_atom_site_fract_x
_atom_site_fract_y
_atom_site_fract_z
Si Si1 0.842308 0.150432 0.540179
Si Si2 0.609538 0.757402 0.246173
Si Si3 0.640558 0.535435 0.021960
Si Si4 0.613698 0.943911 0.470968
Si Si5 0.107297 0.409985 0.979402
Si Si6 0.113134 0.796100 0.125885
Si Si7 0.590898 0.769364 0.362906
O O1 0.660053 0.240186 0.542418
O O2 0.103608 0.104574 0.548866
O O3 0.788934 0.881153 0.784694
O O4 0.810321 0.377785 0.283894
O O5 0.500000 0.500000 0.500000
O O6 0.540462 0.813518 0.269317
O O7 0.899847 0.726556 0.203715
O O8 0.500000 0.000000 0.000000
O O9 0.470544 0.317841 0.281307
O O10 0.818070 0.454282 0.009279
O O11 0.791202 0.554248 0.021171
O O12 0.474410 0.813825 0.781616
O O13 0.500000 0.000000 0.500000
O O14 0.240664 0.515064 0.392098
O O15 0.297565 0.975354 0.883763
O O16 0.000000 0.000000 0.000000
#
# Coordination Sequence:
#
# PCOD8006975 Si02
#       7
#     2   2   2   2   2   2   2
#     4  12  24  39  61  87 124 160 204 251 311 358
#     4  11  21  38  66  95 118 151 197 243 292 351
#     4  11  22  38  60  86 115 149 216 262 293 351
#     4  12  21  38  61  89 116 164 206 255 305 359
#     4  11  22  39  60  85 114 159 202 259 304 354
#     4  10  20  40  66  88 118 160 202 234 284 368
#     4  11  23  41  60  91 125 162 199 246 298 364
#
# _framework density 19.685728999999998
#
# number of rings (size 3 to 8) (size 9 to 14) (size 15 to 20)
#    0.000    0.857    2.857    7.286    0.000    2.286 
#    0.000    8.571    0.000    0.000    0.000    0.000 
#    0.000    0.000    0.000    0.000    0.000    0.000 
#
# Total GULP energy -173582.061142 kJ/mol
# GULP energy per Si atom -12398.718653 kJ/mol
# Density = 1.964092 g / cm^3
# Si number density = 19.685729 Si / 1000 Ang^3
#
#
#
# Elastic Constant Matrix: (Units=GPa)
#
#
# Indices 1 2 3 4 5 6 
#
# 1 115.7279 52.7026 69.2270 1.5393 3.5343 -14.5130
# 2 52.7026 115.3510 46.4809 10.4693 9.6905 -13.0299
# 3 69.2270 46.4809 189.9985 -6.9876 13.6269 -4.3878
# 4 1.5393 10.4693 -6.9876 27.6365 4.0197 -1.9892
# 5 3.5343 9.6905 13.6269 4.0197 44.5544 -0.5708
# 6 -14.5130 -13.0299 -4.3878 -1.9892 -0.5708 24.8530
#
#
#
# Elastic Compliance Matrix: (Units=1/GPa)
#
#
# Indices 1 2 3 4 5 6 
#
# 1 0.013402 -0.004102 -0.003838 0.000044 0.001063 0.005026
# 2 -0.004102 0.011986 -0.001415 -0.004228 -0.001425 0.003268
# 3 -0.003838 -0.001415 0.007206 0.002732 -0.001858 -0.001535
# 4 0.000044 -0.004228 0.002732 0.039069 -0.003427 0.001340
# 5 0.001063 -0.001425 -0.001858 -0.003427 0.023545 -0.000188
# 6 0.005026 0.003268 -0.001535 0.001340 -0.000188 0.044717
#
#
# Mechanical properties :
#
#
# Convention : Reuss Voigt Hill
#
# Bulk Modulus (GPa) = 72.03065 84.21094 78.12079
# Shear Modulus (GPa) = 30.62503 36.25322 33.43912
#
# Velocity S-wave (km/s) = 3.94851 4.29604 4.12594
# Velocity P-wave (km/s) = 7.58006 8.21453 7.90367
#
# Compressibility (1/GPa) = 0.01388298
#
# Stress axis : x y z
#
# Youngs Moduli (GPa) = 74.61347 83.42770 138.76970
#
# Poissons Ratio (x) = 0.34226 0.53263
# Poissons Ratio (y) = 0.30610 0.19641
# Poissons Ratio (z) = 0.28638 0.11808
#
# Static dielectric constant tensor:
#      x y z
#    x 3.753850 -0.301760 -0.261630 
#    y -0.301760 3.558520 0.207130 
#    z -0.261630 0.207130 3.996240 
# 
# 
# High freq. dielectric constant tensor:
#      x y z
#    x 1.771340 -0.016330 -0.003830 
#    y -0.016330 1.745310 0.001130 
#    z -0.003830 0.001130 1.797040 
# 
# From -- ./inp_files/56148.got.cif
#   From: 2010.06.25/outbox.cif.g09.slc.cpg/sg2_29_cif.got.tgz:56148.got - 2010.06.27 13:26:56.
