data_PCOD8006054
_publ_section_title
;
Structure prediction by ZEFSAII (Michael W. Deem and Ramdas Pophale) SiO2 
 PCOD8006054
Probable space group: P -1
;
_chemical_formula_sum "Si O2"
_cell_formula_units_Z 16
_cell_length_a 19.099690
_cell_length_b 11.107356
_cell_length_c 9.314605
_cell_angle_alpha 122.335491
_cell_angle_beta 43.481182
_cell_angle_gamma 146.433164
_cell_volume 739.093134
_symmetry_space_group_name_H-M "P -1"
_symmetry_group_IT_number 2
_symmetry_cell_setting 'triclinic'
loop_
_space_group_symop_operation_xyz
x,y,z
-x,-y,-z
loop_
_atom_site_type_symbol
_atom_site_label
_atom_site_fract_x
_atom_site_fract_y
_atom_site_fract_z
Si Si1 0.064413 0.976761 0.080381
Si Si2 0.683464 0.743298 0.764227
Si Si3 0.126123 0.337260 0.576322
Si Si4 0.399289 0.270680 0.816368
Si Si5 0.593630 0.214864 0.408173
Si Si6 0.110132 0.811418 0.397777
Si Si7 0.086816 0.306704 0.150022
Si Si8 0.342410 0.796321 0.016170
O O1 0.012760 0.872559 0.248954
O O2 0.072632 0.156032 0.179990
O O3 0.945785 0.777069 0.017145
O O4 0.240266 0.118005 0.864821
O O5 0.767830 0.683895 0.647122
O O6 0.513547 0.530653 0.808678
O O7 0.782920 0.933270 0.618666
O O8 0.653200 0.810376 0.991088
O O9 0.233546 0.568326 0.645684
O O10 0.042964 0.336804 0.572826
O O11 0.489152 0.242636 0.585778
O O12 0.500000 0.000000 0.500000
O O13 0.605933 0.174718 0.203479
O O14 0.213757 0.783868 0.196114
O O15 0.045967 0.731626 0.606702
O O16 0.258208 0.565889 0.061296
O O17 0.500000 0.000000 0.000000
#
# Coordination Sequence:
#
# PCOD8006054 Si02
#       8
#     2   2   2   2   2   2   2   2
#     4  11  22  43  71 102 131 177 223 294 331 402
#     4  10  20  39  65 110 129 164 218 283 346 395
#     4  11  22  43  73 102 135 165 235 292 329 396
#     4  10  22  37  68  96 138 166 219 280 338 389
#     4  11  26  46  66  99 135 181 224 279 336 400
#     4  12  24  42  71  97 133 184 222 278 342 393
#     4  11  26  45  67  99 138 179 229 272 349 404
#     4  12  30  48  64  96 144 187 230 269 334 417
#
# _framework density 21.648150999999999
#
# number of rings (size 3 to 8) (size 9 to 14) (size 15 to 20)
#    0.000    1.000    3.750    2.250    5.250    1.500 
#    0.000    1.250    0.000    0.000    0.000    0.000 
#    0.000    0.000    0.000    0.000    0.000    0.000 
#
# Total GULP energy -198367.096340 kJ/mol
# GULP energy per Si atom -12397.943521 kJ/mol
# Density = 2.159888 g / cm^3
# Si number density = 21.648151 Si / 1000 Ang^3
#
#
#
# Elastic Constant Matrix: (Units=GPa)
#
#
# Indices 1 2 3 4 5 6 
#
# 1 61.0034 35.7296 28.5771 1.0281 -9.3102 6.1837
# 2 35.7296 151.7581 40.5726 -11.2444 1.3768 12.9082
# 3 28.5771 40.5726 136.7379 -2.2704 1.8315 -3.9591
# 4 1.0281 -11.2444 -2.2704 35.9740 -0.9753 -2.6866
# 5 -9.3102 1.3768 1.8315 -0.9753 32.1380 -11.1388
# 6 6.1837 12.9082 -3.9591 -2.6866 -11.1388 26.9926
#
#
#
# Elastic Compliance Matrix: (Units=1/GPa)
#
#
# Indices 1 2 3 4 5 6 
#
# 1 0.021583 -0.004300 -0.003382 -0.002083 0.006210 -0.001029
# 2 -0.004300 0.008630 -0.001711 0.002304 -0.002969 -0.004389
# 3 -0.003382 -0.001711 0.008617 0.000295 -0.000453 0.002699
# 4 -0.002083 0.002304 0.000295 0.028831 0.001107 0.002745
# 5 0.006210 -0.002969 -0.000453 0.001107 0.038642 0.015987
# 6 -0.001029 -0.004389 0.002699 0.002745 0.015987 0.046648
#
#
# Mechanical properties :
#
#
# Convention : Reuss Voigt Hill
#
# Bulk Modulus (GPa) = 49.89320 62.13978 56.01649
# Shear Modulus (GPa) = 28.02375 35.32890 31.67633
#
# Velocity S-wave (km/s) = 3.60183 4.04413 3.82937
# Velocity P-wave (km/s) = 6.35570 7.11150 6.74420
#
# Compressibility (1/GPa) = 0.02004281
#
# Stress axis : x y z
#
# Youngs Moduli (GPa) = 46.33344 115.87041 116.05046
#
# Poissons Ratio (x) = 0.49828 0.39250
# Poissons Ratio (y) = 0.19925 0.19857
# Poissons Ratio (z) = 0.15671 0.19826
#
# Static dielectric constant tensor:
#      x y z
#    x 3.630350 0.066160 -0.142920 
#    y 0.066160 4.078610 -0.192250 
#    z -0.142920 -0.192250 3.914170 
# 
# 
# High freq. dielectric constant tensor:
#      x y z
#    x 1.822850 0.008520 -0.002590 
#    y 0.008520 1.868920 -0.008800 
#    z -0.002590 -0.008800 1.867540 
# 
# From -- ./inp_files/208286.got.cif
#   From: 2010.06.25/outbox.cif.g09.slc.cpg/sg2_105_cif.got.tgz:208286.got - 2010.06.27 13:26:56.
