data_PCOD8006842
_publ_section_title
;
Structure prediction by ZEFSAII (Michael W. Deem and Ramdas Pophale) SiO2 
 PCOD8006842
Probable space group: P -1
;
_chemical_formula_sum "Si O2"
_cell_formula_units_Z 16
_cell_length_a 18.455775
_cell_length_b 9.735026
_cell_length_c 12.086222
_cell_angle_alpha 127.545816
_cell_angle_beta 53.201023
_cell_angle_gamma 151.638312
_cell_volume 806.438871
_symmetry_space_group_name_H-M "P -1"
_symmetry_group_IT_number 2
_symmetry_cell_setting 'triclinic'
loop_
_space_group_symop_operation_xyz
x,y,z
-x,-y,-z
loop_
_atom_site_type_symbol
_atom_site_label
_atom_site_fract_x
_atom_site_fract_y
_atom_site_fract_z
Si Si1 0.125482 0.192580 0.628011
Si Si2 0.411950 0.868728 0.398782
Si Si3 0.582874 0.451492 0.923682
Si Si4 0.099048 0.409151 0.573312
Si Si5 0.094681 0.637613 0.145934
Si Si6 0.438781 0.095460 0.103052
Si Si7 0.090541 0.910827 0.096215
Si Si8 0.549315 0.383664 0.373962
O O1 0.176554 0.427986 0.615205
O O2 0.268645 0.346324 0.641638
O O3 0.998524 0.061268 0.764579
O O4 0.054239 0.926649 0.491920
O O5 0.434087 0.718769 0.242163
O O6 0.230418 0.627367 0.467088
O O7 0.500000 0.000000 0.500000
O O8 0.466288 0.111151 0.391733
O O9 0.760221 0.775199 0.943948
O O10 0.500000 0.500000 0.000000
O O11 0.498743 0.261286 0.015930
O O12 0.033053 0.492568 0.713293
O O13 0.136416 0.852078 0.124653
O O14 0.252823 0.821384 0.148854
O O15 0.018443 0.352640 0.020657
O O16 0.513973 0.308869 0.241315
O O17 0.500000 0.000000 0.000000
O O18 0.500000 0.500000 0.500000
#
# Coordination Sequence:
#
# PCOD8006842 Si02
#       8
#     2   2   2   2   2   2   2   2
#     4  10  20  40  64  97 131 176 216 277 342 397
#     4  12  26  44  69 104 136 174 234 284 332 395
#     4  12  26  43  71 103 135 176 234 282 330 402
#     4  10  21  39  69  96 135 165 228 290 327 388
#     4  10  22  38  66  99 129 175 224 275 340 397
#     4  12  25  46  66  98 147 184 217 276 349 414
#     4  10  21  39  66  98 128 168 232 284 325 388
#     4  12  27  44  68 100 142 185 221 272 351 416
#
# _framework density 19.840312999999998
#
# number of rings (size 3 to 8) (size 9 to 14) (size 15 to 20)
#    0.000    1.000    5.000    1.500    3.500    0.000 
#    0.000    7.500    0.000    0.000    0.000    0.000 
#    0.000    0.000    0.000    0.000    0.000    0.000 
#
# Total GULP energy -198380.743395 kJ/mol
# GULP energy per Si atom -12398.796462 kJ/mol
# Density = 1.979516 g / cm^3
# Si number density = 19.840313 Si / 1000 Ang^3
#
#
#
# Elastic Constant Matrix: (Units=GPa)
#
#
# Indices 1 2 3 4 5 6 
#
# 1 106.5414 31.4276 44.4414 3.8237 -2.3328 18.8911
# 2 31.4276 75.7927 20.9032 -8.2849 1.3347 5.7814
# 3 44.4414 20.9032 119.1949 3.4533 10.5292 1.4517
# 4 3.8237 -8.2849 3.4533 35.9418 1.5662 1.2626
# 5 -2.3328 1.3347 10.5292 1.5662 29.0534 5.3470
# 6 18.8911 5.7814 1.4517 1.2626 5.3470 37.0335
#
#
#
# Elastic Compliance Matrix: (Units=1/GPa)
#
#
# Indices 1 2 3 4 5 6 
#
# 1 0.013997 -0.004273 -0.004717 -0.001972 0.004398 -0.006856
# 2 -0.004273 0.015804 -0.001228 0.004260 -0.000804 -0.000269
# 3 -0.004717 -0.001228 0.010766 -0.000711 -0.004716 0.002881
# 4 -0.001972 0.004260 -0.000711 0.029166 -0.001596 -0.000395
# 5 0.004398 -0.000804 -0.004716 -0.001596 0.037959 -0.007359
# 6 -0.006856 -0.000269 0.002881 -0.000395 -0.007359 0.031505
#
#
# Mechanical properties :
#
#
# Convention : Reuss Voigt Hill
#
# Bulk Modulus (GPa) = 49.67263 55.00817 52.34040
# Shear Modulus (GPa) = 30.05844 34.05620 32.05732
#
# Velocity S-wave (km/s) = 3.89655 4.14758 4.02402
# Velocity P-wave (km/s) = 6.73310 7.12195 6.93025
#
# Compressibility (1/GPa) = 0.02013181
#
# Stress axis : x y z
#
# Youngs Moduli (GPa) = 71.44532 63.27312 92.88689
#
# Poissons Ratio (x) = 0.27035 0.43816
# Poissons Ratio (y) = 0.30527 0.11403
# Poissons Ratio (z) = 0.33702 0.07768
#
# Static dielectric constant tensor:
#      x y z
#    x 3.575330 0.132310 -0.038790 
#    y 0.132310 3.583760 0.028040 
#    z -0.038790 0.028040 3.819860 
# 
# 
# High freq. dielectric constant tensor:
#      x y z
#    x 1.763980 0.015060 -0.009420 
#    y 0.015060 1.777980 0.001140 
#    z -0.009420 0.001140 1.795430 
# 
# From -- ./inp_files/206336.got.cif
#   From: 2010.06.25/outbox.cif.g09.slc.cpg/sg2_104_cif.got.tgz:206336.got - 2010.06.27 13:26:56.
