data_PCOD8006276
_publ_section_title
;
Structure prediction by ZEFSAII (Michael W. Deem and Ramdas Pophale) SiO2 
 PCOD8006276
Probable space group: P -1
;
_chemical_formula_sum "Si O2"
_cell_formula_units_Z 10
_cell_length_a 6.923539
_cell_length_b 7.129435
_cell_length_c 14.543722
_cell_angle_alpha 132.701538
_cell_angle_beta 53.574107
_cell_angle_gamma 124.985649
_cell_volume 406.432734
_symmetry_space_group_name_H-M "P -1"
_symmetry_group_IT_number 2
_symmetry_cell_setting 'triclinic'
loop_
_space_group_symop_operation_xyz
x,y,z
-x,-y,-z
loop_
_atom_site_type_symbol
_atom_site_label
_atom_site_fract_x
_atom_site_fract_y
_atom_site_fract_z
Si Si1 0.188914 0.148620 0.918655
Si Si2 0.861573 0.925104 0.418859
Si Si3 0.050066 0.329591 0.286036
Si Si4 0.326690 0.604297 0.457299
Si Si5 0.757827 0.332242 0.836169
O O1 0.473815 0.137461 0.851149
O O2 0.200135 0.462293 0.020568
O O3 0.079504 0.986437 0.802782
O O4 0.000000 0.000000 0.000000
O O5 0.618901 0.670511 0.416768
O O6 0.050406 0.842882 0.267520
O O7 0.762961 0.157538 0.483703
O O8 0.000000 0.000000 0.500000
O O9 0.246356 0.358437 0.325462
O O10 0.192565 0.493742 0.213806
O O11 0.829679 0.460343 0.424563
#
# Coordination Sequence:
#
# PCOD8006276 Si02
#       5
#     2   2   2   2   2
#     4   9  20  39  65  88 119 162 207 255 299 353
#     4  11  21  39  63  92 124 165 200 246 305 367
#     4  10  20  40  60  90 127 160 195 256 300 356
#     4  10  23  38  60  96 130 154 198 254 305 357
#     4  10  20  39  67  88 118 169 206 242 307 363
#
# _framework density 24.604319
#
# number of rings (size 3 to 8) (size 9 to 14) (size 15 to 20)
#    0.000    2.000    2.000    1.200    2.800    0.800 
#   14.400    2.000    0.000    0.000    0.000    0.000 
#    0.000    0.000    0.000    0.000    0.000    0.000 
#
# Total GULP energy -123886.663629 kJ/mol
# GULP energy per Si atom -12388.666363 kJ/mol
# Density = 2.454832 g / cm^3
# Si number density = 24.604319 Si / 1000 Ang^3
#
#
#
# Elastic Constant Matrix: (Units=GPa)
#
#
# Indices 1 2 3 4 5 6 
#
# 1 125.6550 56.8311 65.8639 12.1151 -2.9615 52.0546
# 2 56.8311 107.7463 41.2376 -2.4145 4.0640 55.6124
# 3 65.8639 41.2376 133.8641 16.8812 11.0112 35.5346
# 4 12.1151 -2.4145 16.8812 51.4299 21.4396 2.5152
# 5 -2.9615 4.0640 11.0112 21.4396 45.4034 1.5968
# 6 52.0546 55.6124 35.5346 2.5152 1.5968 58.8396
#
#
#
# Elastic Compliance Matrix: (Units=1/GPa)
#
#
# Indices 1 2 3 4 5 6 
#
# 1 0.015366 -0.002017 -0.004460 -0.003596 0.004277 -0.008957
# 2 -0.002017 0.018965 -0.000917 0.003577 -0.002745 -0.015665
# 3 -0.004460 -0.000917 0.010723 -0.001604 -0.001998 -0.001541
# 4 -0.003596 0.003577 -0.001604 0.026215 -0.012544 -0.000011
# 5 0.004277 -0.002745 -0.001998 -0.012544 0.028966 -0.000233
# 6 -0.008957 -0.015665 -0.001541 -0.000011 -0.000233 0.040663
#
#
# Mechanical properties :
#
#
# Convention : Reuss Voigt Hill
#
# Bulk Modulus (GPa) = 33.03979 77.23672 55.13825
# Shear Modulus (GPa) = 30.16167 44.69010 37.42589
#
# Velocity S-wave (km/s) = 3.50504 4.26649 3.90437
# Velocity P-wave (km/s) = 5.46242 7.46527 6.54096
#
# Compressibility (1/GPa) = 0.03026653
#
# Stress axis : x y z
#
# Youngs Moduli (GPa) = 65.07737 52.72912 93.26041
#
# Poissons Ratio (x) = 0.10635 0.41594
# Poissons Ratio (y) = 0.13125 0.08550
# Poissons Ratio (z) = 0.29024 0.04834
#
# Static dielectric constant tensor:
#      x y z
#    x 4.240810 0.683070 0.156960 
#    y 0.683070 4.920310 0.237580 
#    z 0.156960 0.237580 5.319670 
# 
# 
# High freq. dielectric constant tensor:
#      x y z
#    x 1.949720 0.036490 0.009250 
#    y 0.036490 1.991430 0.002560 
#    z 0.009250 0.002560 1.989430 
# 
# From -- ./inp_files/39548.got.cif
#   From: 2010.06.25/outbox.cif.g09.slc.cpg/sg2_20_cif.got.tgz:39548.got - 2010.06.27 13:26:56.
