data_PCOD8006323
_publ_section_title
;
Structure prediction by ZEFSAII (Michael W. Deem and Ramdas Pophale) SiO2 
 PCOD8006323
Probable space group: P -1
;
_chemical_formula_sum "Si O2"
_cell_formula_units_Z 12
_cell_length_a 5.294058
_cell_length_b 12.762800
_cell_length_c 9.146103
_cell_angle_alpha 84.023405
_cell_angle_beta 121.836259
_cell_angle_gamma 117.892229
_cell_volume 455.565529
_symmetry_space_group_name_H-M "P -1"
_symmetry_group_IT_number 2
_symmetry_cell_setting 'triclinic'
loop_
_space_group_symop_operation_xyz
x,y,z
-x,-y,-z
loop_
_atom_site_type_symbol
_atom_site_label
_atom_site_fract_x
_atom_site_fract_y
_atom_site_fract_z
Si Si1 0.623226 0.951428 0.338363
Si Si2 0.260916 0.450046 0.075973
Si Si3 0.319892 0.111832 0.155305
Si Si4 0.697334 0.639210 0.377408
Si Si5 0.407369 0.767880 0.068856
Si Si6 0.454180 0.749528 0.528124
O O1 0.554701 0.902898 0.158174
O O2 0.393111 0.837196 0.387069
O O3 0.549834 0.061800 0.309434
O O4 0.000000 0.000000 0.500000
O O5 0.493223 0.497039 0.287460
O O6 0.500000 0.500000 0.000000
O O7 0.000000 0.500000 0.000000
O O8 0.004399 0.305560 0.016382
O O9 0.258522 0.177101 0.268632
O O10 0.523120 0.217185 0.085018
O O11 0.000000 0.000000 0.000000
O O12 0.619463 0.708689 0.213069
O O13 0.566422 0.664578 0.486794
O O14 0.089402 0.672826 0.506107
#
# Coordination Sequence:
#
# PCOD8006323 Si02
#       6
#     2   2   2   2   2   2
#     4  11  22  41  65  92 130 181 224 264 326 407
#     4  10  20  39  67  97 127 167 220 275 330 397
#     4  12  24  39  62 100 138 175 221 282 332 385
#     4  10  21  42  66  92 125 173 222 267 327 405
#     4  10  22  38  64  98 128 168 222 281 329 384
#     4  11  23  41  64  91 129 176 219 265 328 402
#
# _framework density 26.340889000000001
#
# number of rings (size 3 to 8) (size 9 to 14) (size 15 to 20)
#    0.000    1.333    0.000    8.000    0.000    2.667 
#    0.000    1.667    0.000    0.000    0.000    1.167 
#    0.000    0.000    0.000    0.000    0.000    0.000 
#
# Total GULP energy -148721.512737 kJ/mol
# GULP energy per Si atom -12393.459395 kJ/mol
# Density = 2.628094 g / cm^3
# Si number density = 26.340889 Si / 1000 Ang^3
#
#
#
# Elastic Constant Matrix: (Units=GPa)
#
#
# Indices 1 2 3 4 5 6 
#
# 1 154.6872 26.0563 60.8119 20.8492 -18.6929 20.8176
# 2 26.0563 61.2252 43.2540 29.0386 -3.6283 23.4835
# 3 60.8119 43.2540 155.2469 45.3308 -31.9371 0.4333
# 4 20.8492 29.0386 45.3308 60.9152 -2.9120 -3.3747
# 5 -18.6929 -3.6283 -31.9371 -2.9120 52.4596 7.4189
# 6 20.8176 23.4835 0.4333 -3.3747 7.4189 27.6987
#
#
#
# Elastic Compliance Matrix: (Units=1/GPa)
#
#
# Indices 1 2 3 4 5 6 
#
# 1 0.009580 0.005370 -0.003389 -0.003881 0.003355 -0.013072
# 2 0.005370 0.050312 -0.008160 -0.022269 0.006401 -0.050991
# 3 -0.003389 -0.008160 0.011766 -0.003077 0.004117 0.007804
# 4 -0.003881 -0.022269 -0.003077 0.031846 -0.006929 0.027580
# 5 0.003355 0.006401 0.004117 -0.006929 0.025022 -0.015559
# 6 -0.013072 -0.050991 0.007804 0.027580 -0.015559 0.096564
#
#
# Mechanical properties :
#
#
# Convention : Reuss Voigt Hill
#
# Bulk Modulus (GPa) = 16.86329 70.15594 43.50962
# Shear Modulus (GPa) = 19.43909 44.28384 31.86146
#
# Velocity S-wave (km/s) = 2.71953 4.10467 3.48168
# Velocity P-wave (km/s) = 4.03447 7.01114 5.71984
#
# Compressibility (1/GPa) = 0.05930042
#
# Stress axis : x y z
#
# Youngs Moduli (GPa) = 104.38377 19.87614 84.99222
#
# Poissons Ratio (x) = -0.10674 0.28804
# Poissons Ratio (y) = -0.56058 0.69352
# Poissons Ratio (z) = 0.35376 0.16219
#
# Static dielectric constant tensor:
#      x y z
#    x 4.540480 -0.107940 -0.270200 
#    y -0.107940 5.575350 0.566470 
#    z -0.270200 0.566470 5.028610 
# 
# 
# High freq. dielectric constant tensor:
#      x y z
#    x 2.046360 0.001360 -0.011670 
#    y 0.001360 2.050700 0.022050 
#    z -0.011670 0.022050 2.071560 
# 
# From -- ./inp_files/33989.got.cif
#   From: 2010.06.25/outbox.cif.g09.slc.cpg/sg2_17_cif.got.tgz:33989.got - 2010.06.27 13:26:56.
