data_PCOD8006562
_publ_section_title
;
Structure prediction by ZEFSAII (Michael W. Deem and Ramdas Pophale) SiO2 
 PCOD8006562
Probable space group: P -1
;
_chemical_formula_sum "Si O2"
_cell_formula_units_Z 16
_cell_length_a 8.818947
_cell_length_b 21.222566
_cell_length_c 15.132684
_cell_angle_alpha 29.042437
_cell_angle_beta 141.652831
_cell_angle_gamma 142.801010
_cell_volume 793.124973
_symmetry_space_group_name_H-M "P -1"
_symmetry_group_IT_number 2
_symmetry_cell_setting 'triclinic'
loop_
_space_group_symop_operation_xyz
x,y,z
-x,-y,-z
loop_
_atom_site_type_symbol
_atom_site_label
_atom_site_fract_x
_atom_site_fract_y
_atom_site_fract_z
Si Si1 0.799696 0.536720 0.178508
Si Si2 0.582552 0.389498 0.618925
Si Si3 0.250293 0.891647 0.217800
Si Si4 0.876832 0.875743 0.220717
Si Si5 0.731328 0.982251 0.442452
Si Si6 0.516889 0.297261 0.216899
Si Si7 0.233791 0.873501 0.548038
Si Si8 0.286553 0.611996 0.508609
O O1 0.708057 0.442253 0.166616
O O2 0.626521 0.441247 0.296363
O O3 0.111891 0.584626 0.266762
O O4 0.730345 0.676178 0.971932
O O5 0.500000 0.500000 0.500000
O O6 0.414481 0.239452 0.766192
O O7 0.526006 0.390053 0.486244
O O8 0.524667 0.994631 0.260102
O O9 0.283961 0.766606 0.331298
O O10 0.041530 0.829793 0.277834
O O11 0.143884 0.977567 0.994923
O O12 0.014181 0.887769 0.364095
O O13 0.593054 0.830305 0.609059
O O14 0.828340 0.112919 0.394570
O O15 0.000000 0.000000 0.500000
O O16 0.706072 0.266269 0.269051
O O17 0.500000 0.000000 0.500000
O O18 0.000000 0.500000 0.500000
#
# Coordination Sequence:
#
# PCOD8006562 Si02
#       8
#     2   2   2   2   2   2   2   2
#     4  10  21  40  64  94 119 171 208 261 318 376
#     4  11  24  40  63  93 129 163 214 265 316 375
#     4  11  23  43  63  95 130 167 209 261 326 379
#     4  11  23  40  67  94 129 168 212 264 317 385
#     4  11  24  40  65  91 133 164 208 267 316 375
#     4  10  20  40  67  85 128 164 214 250 317 387
#     4  10  20  40  61  88 120 172 203 250 318 376
#     4  10  21  40  62  86 124 164 203 256 316 372
#
# _framework density 20.173365
#
# number of rings (size 3 to 8) (size 9 to 14) (size 15 to 20)
#    0.000    1.500    3.750    2.250    3.500    4.500 
#    2.250    0.000    0.000    3.750    0.000    0.000 
#    0.000    0.000    0.000    0.000    0.000    0.000 
#
# Total GULP energy -198293.456452 kJ/mol
# GULP energy per Si atom -12393.341028 kJ/mol
# Density = 2.012745 g / cm^3
# Si number density = 20.173365 Si / 1000 Ang^3
#
#
#
# Elastic Constant Matrix: (Units=GPa)
#
#
# Indices 1 2 3 4 5 6 
#
# 1 140.5473 51.3355 37.0318 4.4520 13.1347 -14.5231
# 2 51.3355 91.1818 45.3756 5.8236 5.9090 -12.9666
# 3 37.0318 45.3756 101.1265 9.4944 24.7037 -11.0089
# 4 4.4520 5.8236 9.4944 27.9515 5.6946 3.6403
# 5 13.1347 5.9090 24.7037 5.6946 18.4876 -6.2075
# 6 -14.5231 -12.9666 -11.0089 3.6403 -6.2075 43.4794
#
#
#
# Elastic Compliance Matrix: (Units=1/GPa)
#
#
# Indices 1 2 3 4 5 6 
#
# 1 0.009450 -0.004896 0.000019 0.000397 -0.004975 0.000957
# 2 -0.004896 0.017741 -0.008151 -0.002758 0.010674 0.003346
# 3 0.000019 -0.008151 0.019122 0.000063 -0.023286 -0.000913
# 4 0.000397 -0.002758 0.000063 0.039849 -0.013766 -0.005975
# 5 -0.004975 0.010674 -0.023286 -0.013766 0.092942 0.010047
# 6 0.000957 0.003346 -0.000913 -0.005975 0.010047 0.026021
#
#
# Mechanical properties :
#
#
# Convention : Reuss Voigt Hill
#
# Bulk Modulus (GPa) = 49.37167 66.70462 58.03814
# Shear Modulus (GPa) = 21.01424 31.25789 26.13606
#
# Velocity S-wave (km/s) = 3.23101 3.94059 3.60331
# Velocity P-wave (km/s) = 6.20049 7.33770 6.79293
#
# Compressibility (1/GPa) = 0.02025453
#
# Stress axis : x y z
#
# Youngs Moduli (GPa) = 105.82239 56.36817 52.29480
#
# Poissons Ratio (x) = 0.27600 -0.00098
# Poissons Ratio (y) = 0.51815 0.42628
# Poissons Ratio (z) = -0.00198 0.45948
#
# Static dielectric constant tensor:
#      x y z
#    x 5.567310 -0.794390 -0.154600 
#    y -0.794390 4.049440 0.033610 
#    z -0.154600 0.033610 3.993730 
# 
# 
# High freq. dielectric constant tensor:
#      x y z
#    x 1.791280 -0.011650 0.006540 
#    y -0.011650 1.794040 0.004240 
#    z 0.006540 0.004240 1.776970 
# 
# From -- ./inp_files/507891.got.cif
#   From: 2010.06.25/outbox.cif.g09.slc.cpg/sg2_254_cif.got.tgz:507891.got - 2010.06.27 13:26:56.
