data_PCOD8006152
_publ_section_title
;
Structure prediction by ZEFSAII (Michael W. Deem and Ramdas Pophale) SiO2 
 PCOD8006152
Probable space group: P -1
;
_chemical_formula_sum "Si O2"
_cell_formula_units_Z 16
_cell_length_a 13.617064
_cell_length_b 8.205227
_cell_length_c 8.610084
_cell_angle_alpha 90.556484
_cell_angle_beta 60.285398
_cell_angle_gamma 63.931998
_cell_volume 717.891114
_symmetry_space_group_name_H-M "P -1"
_symmetry_group_IT_number 2
_symmetry_cell_setting 'triclinic'
loop_
_space_group_symop_operation_xyz
x,y,z
-x,-y,-z
loop_
_atom_site_type_symbol
_atom_site_label
_atom_site_fract_x
_atom_site_fract_y
_atom_site_fract_z
Si Si1 0.829452 0.006247 0.537855
Si Si2 0.217199 0.412323 0.290911
Si Si3 0.970418 0.695688 0.675355
Si Si4 0.349356 0.128500 0.431399
Si Si5 0.532359 0.743705 0.419344
Si Si6 0.654405 0.351018 0.891773
Si Si7 0.079183 0.851325 0.806417
Si Si8 0.345353 0.673622 0.764843
O O1 0.706048 0.192469 0.715475
O O2 0.913354 0.059059 0.361209
O O3 0.927877 0.866187 0.588309
O O4 0.775888 0.899967 0.469120
O O5 0.147522 0.349405 0.215083
O O6 0.342358 0.231241 0.273703
O O7 0.264465 0.541467 0.176436
O O8 0.107674 0.516998 0.510877
O O9 0.998914 0.746988 0.824609
O O10 0.349808 0.259272 0.573663
O O11 0.479339 0.919015 0.342126
O O12 0.420084 0.770680 0.630243
O O13 0.570495 0.555032 0.291958
O O14 0.500000 0.500000 0.000000
O O15 0.688056 0.248046 0.032498
O O16 0.223192 0.711126 0.756308
O O17 0.000000 0.000000 0.000000
#
# Coordination Sequence:
#
# PCOD8006152 Si02
#       8
#     2   2   2   2   2   2   2   2
#     4  11  23  43  67  94 131 169 222 268 321 385
#     4  10  22  41  68  95 130 170 223 260 326 382
#     4  10  22  43  69  90 129 175 218 271 322 373
#     4  10  20  39  65  98 123 178 203 265 327 386
#     4  10  21  41  66  92 135 167 211 264 330 380
#     4  12  25  42  68 101 129 173 218 265 325 390
#     4  12  24  40  65  97 127 171 217 269 324 380
#     4  11  24  41  66  97 129 169 219 264 322 386
#
# _framework density 22.287503999999998
#
# number of rings (size 3 to 8) (size 9 to 14) (size 15 to 20)
#    0.000    1.250    2.500    3.375    3.500    0.000 
#    2.250   14.375    0.000    0.000    0.000    0.000 
#    0.000    0.000    0.000    0.000    0.000    0.000 
#
# Total GULP energy -198350.850438 kJ/mol
# GULP energy per Si atom -12396.928152 kJ/mol
# Density = 2.223678 g / cm^3
# Si number density = 22.287504 Si / 1000 Ang^3
#
#
#
# Elastic Constant Matrix: (Units=GPa)
#
#
# Indices 1 2 3 4 5 6 
#
# 1 159.8085 28.2380 34.6887 0.4924 15.9880 2.6521
# 2 28.2380 88.3645 25.0718 1.2195 -2.6554 -1.1993
# 3 34.6887 25.0718 90.7673 4.5673 6.3984 9.8549
# 4 0.4924 1.2195 4.5673 22.6718 2.5201 5.5777
# 5 15.9880 -2.6554 6.3984 2.5201 26.0876 4.4670
# 6 2.6521 -1.1993 9.8549 5.5777 4.4670 29.1706
#
#
#
# Elastic Compliance Matrix: (Units=1/GPa)
#
#
# Indices 1 2 3 4 5 6 
#
# 1 0.007488 -0.001932 -0.002106 0.000737 -0.004424 0.000488
# 2 -0.001932 0.012959 -0.003181 -0.000715 0.003105 0.001444
# 3 -0.002106 -0.003181 0.013302 -0.001325 -0.001491 -0.003951
# 4 0.000737 -0.000715 -0.001325 0.046755 -0.003333 -0.008078
# 5 -0.004424 0.003105 -0.001491 -0.003333 0.042886 -0.004896
# 6 0.000488 0.001444 -0.003951 -0.008078 -0.004896 0.037926
#
#
# Mechanical properties :
#
#
# Convention : Reuss Voigt Hill
#
# Bulk Modulus (GPa) = 51.78473 57.21526 54.49999
# Shear Modulus (GPa) = 27.44370 32.31546 29.87958
#
# Velocity S-wave (km/s) = 3.51287 3.81193 3.66545
# Velocity P-wave (km/s) = 6.30388 6.71578 6.51309
#
# Compressibility (1/GPa) = 0.01931071
#
# Stress axis : x y z
#
# Youngs Moduli (GPa) = 133.54169 77.16366 75.17861
#
# Poissons Ratio (x) = 0.14907 0.15836
# Poissons Ratio (y) = 0.25798 0.23915
# Poissons Ratio (z) = 0.28129 0.24547
#
# Static dielectric constant tensor:
#      x y z
#    x 8.352540 -0.540630 -1.521090 
#    y -0.540630 4.259240 0.249420 
#    z -1.521090 0.249420 4.265790 
# 
# 
# High freq. dielectric constant tensor:
#      x y z
#    x 1.908130 0.001130 0.008960 
#    y 0.001130 1.884790 0.001920 
#    z 0.008960 0.001920 1.832110 
# 
# From -- ./inp_files/298504.got.cif
#   From: 2010.06.25/outbox.cif.g09.slc.cpg/sg2_150_cif.got.tgz:298504.got - 2010.06.27 13:26:56.
