data_PCOD8006371
_publ_section_title
;
Structure prediction by ZEFSAII (Michael W. Deem and Ramdas Pophale) SiO2 
 PCOD8006371
Probable space group: P -1
;
_chemical_formula_sum "Si O2"
_cell_formula_units_Z 14
_cell_length_a 16.559217
_cell_length_b 11.186763
_cell_length_c 8.246839
_cell_angle_alpha 56.970895
_cell_angle_beta 82.892223
_cell_angle_gamma 37.274998
_cell_volume 614.367143
_symmetry_space_group_name_H-M "P -1"
_symmetry_group_IT_number 2
_symmetry_cell_setting 'triclinic'
loop_
_space_group_symop_operation_xyz
x,y,z
-x,-y,-z
loop_
_atom_site_type_symbol
_atom_site_label
_atom_site_fract_x
_atom_site_fract_y
_atom_site_fract_z
Si Si1 0.315183 0.252989 0.919054
Si Si2 0.285804 0.970241 0.125528
Si Si3 0.028988 0.149021 0.934781
Si Si4 0.327319 0.323214 0.232600
Si Si5 0.792668 0.203655 0.165137
Si Si6 0.877102 0.195072 0.559391
Si Si7 0.626086 0.342982 0.379123
O O1 0.196541 0.533192 0.631038
O O2 0.295345 0.310488 0.071737
O O3 0.500000 0.000000 0.000000
O O4 0.262103 0.172946 0.955104
O O5 0.430684 0.684516 0.183699
O O6 0.340683 0.853061 0.385390
O O7 0.111541 0.159916 0.991865
O O8 0.828506 0.480327 0.757528
O O9 0.089496 0.053517 0.805175
O O10 0.090201 0.908220 0.185285
O O11 0.500000 0.000000 0.500000
O O12 0.338578 0.479033 0.107207
O O13 0.686002 0.241804 0.251941
O O14 0.924166 0.091304 0.338346
O O15 0.742764 0.292362 0.449977
#
# Coordination Sequence:
#
# PCOD8006371 Si02
#       7
#     2   2   2   2   2   2   2
#     4  12  24  40  70  99 127 169 220 280 322 386
#     4  10  23  41  64  98 135 167 218 270 334 378
#     4  10  25  43  67  95 136 178 212 270 325 390
#     4  11  25  41  67 103 134 169 218 275 329 379
#     4  11  22  42  70  95 127 179 221 265 318 399
#     4  10  20  39  68  96 123 167 227 262 314 388
#     4  10  20  40  67  95 126 175 220 267 317 397
#
# _framework density 22.787678
#
# number of rings (size 3 to 8) (size 9 to 14) (size 15 to 20)
#    0.000    1.429    2.857    2.143    8.000    1.143 
#    0.000    2.143    0.000    0.000    0.000    0.000 
#    0.000    0.000    0.000    0.000    0.000    0.000 
#
# Total GULP energy -173506.727634 kJ/mol
# GULP energy per Si atom -12393.337688 kJ/mol
# Density = 2.273581 g / cm^3
# Si number density = 22.787678 Si / 1000 Ang^3
#
#
#
# Elastic Constant Matrix: (Units=GPa)
#
#
# Indices 1 2 3 4 5 6 
#
# 1 64.7261 24.2955 49.7287 -5.3886 -21.3167 -15.0330
# 2 24.2955 139.1636 46.8181 -4.7234 -3.5804 -30.6052
# 3 49.7287 46.8181 141.4508 -25.6999 -10.1445 -14.7842
# 4 -5.3886 -4.7234 -25.6999 28.3660 -3.0583 -2.5863
# 5 -21.3167 -3.5804 -10.1445 -3.0583 39.7056 -0.2812
# 6 -15.0330 -30.6052 -14.7842 -2.5863 -0.2812 36.3962
#
#
#
# Elastic Compliance Matrix: (Units=1/GPa)
#
#
# Indices 1 2 3 4 5 6 
#
# 1 0.027760 -0.000003 -0.007904 0.000273 0.012964 0.008372
# 2 -0.000003 0.009555 -0.002379 0.000114 0.000311 0.007078
# 3 -0.007904 -0.002379 0.012309 0.009225 -0.000600 0.000386
# 4 0.000273 0.000114 0.009225 0.044989 0.006030 0.007200
# 5 0.012964 0.000311 -0.000600 0.006030 0.032528 0.006053
# 6 0.008372 0.007078 0.000386 0.007200 0.006053 0.037600
#
#
# Mechanical properties :
#
#
# Convention : Reuss Voigt Hill
#
# Bulk Modulus (GPa) = 34.42020 65.22503 49.82261
# Shear Modulus (GPa) = 25.64137 35.86010 30.75074
#
# Velocity S-wave (km/s) = 3.35808 3.97124 3.67747
# Velocity P-wave (km/s) = 5.49301 7.05073 6.32005
#
# Compressibility (1/GPa) = 0.02905271
#
# Stress axis : x y z
#
# Youngs Moduli (GPa) = 36.02248 104.65725 81.24114
#
# Poissons Ratio (x) = 0.00035 0.64213
# Poissons Ratio (y) = 0.00012 0.19324
# Poissons Ratio (z) = 0.28472 0.24894
#
# Static dielectric constant tensor:
#      x y z
#    x 4.116860 -0.318980 -0.095700 
#    y -0.318980 4.388430 0.179360 
#    z -0.095700 0.179360 4.450460 
# 
# 
# High freq. dielectric constant tensor:
#      x y z
#    x 1.889900 -0.026150 0.005700 
#    y -0.026150 1.911070 0.010520 
#    z 0.005700 0.010520 1.897360 
# 
# From -- ./inp_files/238125.got.cif
#   From: 2010.06.25/outbox.cif.g09.slc.cpg/sg2_120_cif.got.tgz:238125.got - 2010.06.27 13:26:56.
