data_PCOD8006457
_publ_section_title
;
Structure prediction by ZEFSAII (Michael W. Deem and Ramdas Pophale) SiO2 
 PCOD8006457
Probable space group: P -1
;
_chemical_formula_sum "Si O2"
_cell_formula_units_Z 16
_cell_length_a 9.202394
_cell_length_b 9.665583
_cell_length_c 11.628847
_cell_angle_alpha 84.879750
_cell_angle_beta 90.208004
_cell_angle_gamma 135.046576
_cell_volume 725.272685
_symmetry_space_group_name_H-M "P -1"
_symmetry_group_IT_number 2
_symmetry_cell_setting 'triclinic'
loop_
_space_group_symop_operation_xyz
x,y,z
-x,-y,-z
loop_
_atom_site_type_symbol
_atom_site_label
_atom_site_fract_x
_atom_site_fract_y
_atom_site_fract_z
Si Si1 0.935340 0.086672 0.784999
Si Si2 0.991541 0.181149 0.181055
Si Si3 0.982430 0.379930 0.350598
Si Si4 0.627154 0.453492 0.967448
Si Si5 0.338215 0.013732 0.990978
Si Si6 0.337129 0.757137 0.443905
Si Si7 0.784594 0.477733 0.204435
Si Si8 0.408749 0.103759 0.362004
O O1 0.132775 0.320834 0.758065
O O2 0.820865 0.004676 0.666448
O O3 0.017269 0.989950 0.821615
O O4 0.777489 0.037159 0.884735
O O5 0.948903 0.204034 0.309500
O O6 0.218261 0.394866 0.142250
O O7 0.827335 0.135140 0.096134
O O8 0.218318 0.563001 0.381399
O O9 0.822614 0.287564 0.460178
O O10 0.944531 0.466220 0.242151
O O11 0.464432 0.233797 0.933788
O O12 0.500000 0.500000 0.000000
O O13 0.763012 0.477795 0.067982
O O14 0.500000 0.000000 0.000000
O O15 0.527126 0.816733 0.511356
O O16 0.422604 0.944886 0.355752
O O17 0.559416 0.289342 0.264879
#
# Coordination Sequence:
#
# PCOD8006457 Si02
#       8
#     2   2   2   2   2   2   2   2
#     4  12  23  42  65  95 134 176 208 264 329 384
#     4  12  26  43  64  95 144 173 212 268 323 385
#     4  10  22  41  66  96 121 172 218 270 326 381
#     4  12  23  41  63  94 137 181 212 256 321 391
#     4  12  26  40  65  96 132 178 222 257 313 387
#     4   9  20  41  69  92 125 160 220 283 325 373
#     4  11  21  37  68  91 126 169 223 253 319 386
#     4  10  20  39  71  91 121 170 213 270 326 384
#
# _framework density 22.060666000000001
#
# number of rings (size 3 to 8) (size 9 to 14) (size 15 to 20)
#    0.000    1.000    5.000    1.875    3.500    1.000 
#    2.250    1.250    0.000    0.000    0.000    0.000 
#    0.000    0.000    0.000    0.000    0.000    0.000 
#
# Total GULP energy -198358.227220 kJ/mol
# GULP energy per Si atom -12397.389201 kJ/mol
# Density = 2.201045 g / cm^3
# Si number density = 22.060666 Si / 1000 Ang^3
#
#
#
# Elastic Constant Matrix: (Units=GPa)
#
#
# Indices 1 2 3 4 5 6 
#
# 1 77.3147 22.7682 30.6756 13.2872 0.7864 -5.8990
# 2 22.7682 144.4595 31.3836 0.3840 -7.9989 2.3123
# 3 30.6756 31.3836 65.3494 10.8777 6.7821 -0.2255
# 4 13.2872 0.3840 10.8777 41.1040 3.0235 8.4946
# 5 0.7864 -7.9989 6.7821 3.0235 29.7304 11.2131
# 6 -5.8990 2.3123 -0.2255 8.4946 11.2131 38.2425
#
#
#
# Elastic Compliance Matrix: (Units=1/GPa)
#
#
# Indices 1 2 3 4 5 6 
#
# 1 0.016981 -0.001315 -0.006551 -0.004496 -0.000260 0.003735
# 2 -0.001315 0.008245 -0.004011 0.001582 0.003838 -0.002202
# 3 -0.006551 -0.004011 0.021535 -0.003491 -0.006200 0.001952
# 4 -0.004496 0.001582 -0.003491 0.028133 0.001284 -0.007435
# 5 -0.000260 0.003838 -0.006200 0.001284 0.040682 -0.012522
# 6 0.003735 -0.002202 0.001952 -0.007435 -0.012522 0.032193
#
#
# Mechanical properties :
#
#
# Convention : Reuss Voigt Hill
#
# Bulk Modulus (GPa) = 43.46795 50.75316 47.11056
# Shear Modulus (GPa) = 27.90295 35.30179 31.60237
#
# Velocity S-wave (km/s) = 3.56030 4.00461 3.78897
# Velocity P-wave (km/s) = 6.05372 6.66623 6.36735
#
# Compressibility (1/GPa) = 0.02300545
#
# Stress axis : x y z
#
# Youngs Moduli (GPa) = 58.88907 121.29089 46.43568
#
# Poissons Ratio (x) = 0.15955 0.30420
# Poissons Ratio (y) = 0.07746 0.18626
# Poissons Ratio (z) = 0.38579 0.48653
#
# Static dielectric constant tensor:
#      x y z
#    x 3.831660 0.208120 0.302680 
#    y 0.208120 4.324060 0.056810 
#    z 0.302680 0.056810 3.930620 
# 
# 
# High freq. dielectric constant tensor:
#      x y z
#    x 1.844060 0.017930 0.029760 
#    y 0.017930 1.895840 -0.000820 
#    z 0.029760 -0.000820 1.849030 
# 
# From -- ./inp_files/206542.got.cif
#   From: 2010.06.25/outbox.cif.g09.slc.cpg/sg2_104_cif.got.tgz:206542.got - 2010.06.27 13:26:56.
