data_PCOD8006243
_publ_section_title
;
Structure prediction by ZEFSAII (Michael W. Deem and Ramdas Pophale) SiO2 
 PCOD8006243
Probable space group: P -1
;
_chemical_formula_sum "Si O2"
_cell_formula_units_Z 16
_cell_length_a 12.072168
_cell_length_b 15.220442
_cell_length_c 14.920236
_cell_angle_alpha 139.742434
_cell_angle_beta 30.988830
_cell_angle_gamma 118.074562
_cell_volume 760.709499
_symmetry_space_group_name_H-M "P -1"
_symmetry_group_IT_number 2
_symmetry_cell_setting 'triclinic'
loop_
_space_group_symop_operation_xyz
x,y,z
-x,-y,-z
loop_
_atom_site_type_symbol
_atom_site_label
_atom_site_fract_x
_atom_site_fract_y
_atom_site_fract_z
Si Si1 0.291999 0.187961 0.807349
Si Si2 0.103904 0.815627 0.805295
Si Si3 0.783041 0.285910 0.721134
Si Si4 0.985822 0.694200 0.091253
Si Si5 0.391212 0.650605 0.298999
Si Si6 0.656984 0.877725 0.715558
Si Si7 0.402771 0.332948 0.535233
Si Si8 0.175780 0.004680 0.455402
O O1 0.094331 0.263206 0.921890
O O2 0.427720 0.285153 0.800466
O O3 0.500000 0.000000 0.500000
O O4 0.129162 0.203482 0.020508
O O5 0.224636 0.719370 0.556067
O O6 0.311262 0.747241 0.688157
O O7 0.000000 0.000000 0.000000
O O8 0.802907 0.302282 0.613241
O O9 0.699834 0.158116 0.697859
O O10 0.047282 0.232805 0.545188
O O11 0.564634 0.458499 0.047104
O O12 0.769123 0.685416 0.287152
O O13 0.001540 0.837862 0.236324
O O14 0.267184 0.526449 0.766045
O O15 0.575692 0.754483 0.643774
O O16 0.612911 0.983319 0.738022
O O17 0.500000 0.000000 0.000000
O O18 0.000000 0.000000 0.500000
#
# Coordination Sequence:
#
# PCOD8006243 Si02
#       8
#     2   2   2   2   2   2   2   2
#     4  12  23  42  68  99 135 176 222 275 342 402
#     4  12  26  41  69 103 132 177 225 279 340 404
#     4  10  23  45  66  91 130 183 223 267 344 393
#     4  10  20  39  66  97 131 175 218 282 336 393
#     4  11  24  46  68  94 136 175 224 284 324 404
#     4  10  22  39  65  97 134 175 217 275 330 405
#     4  10  22  40  67  99 136 172 223 281 335 395
#     4   9  20  36  62  88 122 174 219 255 327 398
#
# _framework density 21.032996000000001
#
# number of rings (size 3 to 8) (size 9 to 14) (size 15 to 20)
#    0.000    1.500    2.500    1.500    7.000    2.500 
#    4.500    1.250    0.000    0.000    0.000    0.000 
#    0.000    0.000    0.000    0.000    0.000    0.000 
#
# Total GULP energy -198360.419274 kJ/mol
# GULP energy per Si atom -12397.526205 kJ/mol
# Density = 2.098512 g / cm^3
# Si number density = 21.032996 Si / 1000 Ang^3
#
#
#
# Elastic Constant Matrix: (Units=GPa)
#
#
# Indices 1 2 3 4 5 6 
#
# 1 79.2867 23.1840 57.2785 5.0805 15.5857 -12.2869
# 2 23.1840 101.9593 70.3046 21.0418 10.5610 -4.2942
# 3 57.2785 70.3046 139.1065 18.2538 19.8082 -10.3110
# 4 5.0805 21.0418 18.2538 47.4579 -2.2651 0.4142
# 5 15.5857 10.5610 19.8082 -2.2651 46.0920 6.3033
# 6 -12.2869 -4.2942 -10.3110 0.4142 6.3033 31.9325
#
#
#
# Elastic Compliance Matrix: (Units=1/GPa)
#
#
# Indices 1 2 3 4 5 6 
#
# 1 0.019608 0.001673 -0.007809 -0.000106 -0.004502 0.006138
# 2 0.001673 0.015953 -0.008014 -0.004224 -0.001048 0.000463
# 3 -0.007809 -0.008014 0.015066 -0.001524 -0.002243 0.001245
# 4 -0.000106 -0.004224 -0.001524 0.023707 0.003100 -0.002020
# 5 -0.004502 -0.001048 -0.002243 0.003100 0.025627 -0.007696
# 6 0.006138 0.000463 0.001245 -0.002020 -0.007696 0.035687
#
#
# Mechanical properties :
#
#
# Convention : Reuss Voigt Hill
#
# Bulk Modulus (GPa) = 44.78949 69.09852 56.94400
# Shear Modulus (GPa) = 29.17316 36.40219 32.78768
#
# Velocity S-wave (km/s) = 3.72831 4.16470 3.95253
# Velocity P-wave (km/s) = 6.31465 7.48666 6.92549
#
# Compressibility (1/GPa) = 0.02232667
#
# Stress axis : x y z
#
# Youngs Moduli (GPa) = 50.99998 62.68448 66.37460
#
# Poissons Ratio (x) = -0.10487 0.51834
# Poissons Ratio (y) = -0.08532 0.53190
# Poissons Ratio (z) = 0.39828 0.50233
#
# Static dielectric constant tensor:
#      x y z
#    x 3.935470 -0.204900 0.172800 
#    y -0.204900 4.317920 0.610240 
#    z 0.172800 0.610240 3.158790 
# 
# 
# High freq. dielectric constant tensor:
#      x y z
#    x 1.836260 -0.008360 0.007970 
#    y -0.008360 1.825680 0.018250 
#    z 0.007970 0.018250 1.819110 
# 
# From -- ./inp_files/522466.got.cif
#   From: 2010.06.25/outbox.cif.g09.slc.cpg/sg2_262_cif.got.tgz:522466.got - 2010.06.27 13:26:56.
