data_PCOD8006961
_publ_section_title
;
Structure prediction by ZEFSAII (Michael W. Deem and Ramdas Pophale) SiO2 
 PCOD8006961
Probable space group: P -1
;
_chemical_formula_sum "Si O2"
_cell_formula_units_Z 16
_cell_length_a 8.967132
_cell_length_b 11.648719
_cell_length_c 15.935825
_cell_angle_alpha 109.853821
_cell_angle_beta 110.527813
_cell_angle_gamma 27.741651
_cell_volume 724.002903
_symmetry_space_group_name_H-M "P -1"
_symmetry_group_IT_number 2
_symmetry_cell_setting 'triclinic'
loop_
_space_group_symop_operation_xyz
x,y,z
-x,-y,-z
loop_
_atom_site_type_symbol
_atom_site_label
_atom_site_fract_x
_atom_site_fract_y
_atom_site_fract_z
Si Si1 0.976462 0.562024 0.736808
Si Si2 0.672184 0.543504 0.597492
Si Si3 0.043727 0.113624 0.041173
Si Si4 0.237510 0.777072 0.429400
Si Si5 0.599525 0.882543 0.164474
Si Si6 0.284147 0.596197 0.782139
Si Si7 0.975798 0.210851 0.865154
Si Si8 0.103452 0.915347 0.709118
O O1 0.865769 0.541514 0.637334
O O2 0.166815 0.348699 0.785980
O O3 0.238877 0.481344 0.730081
O O4 0.663234 0.847942 0.779808
O O5 0.588110 0.566028 0.489102
O O6 0.862236 0.300040 0.612109
O O7 0.365798 0.762454 0.651827
O O8 0.832136 0.306131 0.122021
O O9 0.414163 0.904518 0.078177
O O10 0.926582 0.249989 0.964649
O O11 0.000000 0.000000 0.000000
O O12 0.000000 0.000000 0.500000
O O13 0.229591 0.835141 0.346767
O O14 0.842969 0.789280 0.127799
O O15 0.638735 0.416220 0.801562
O O16 0.082345 0.796162 0.717506
O O17 0.176625 0.958084 0.811838
#
# Coordination Sequence:
#
# PCOD8006961 Si02
#       8
#     2   2   2   2   2   2   2   2
#     4  11  24  43  67  98 136 179 218 279 341 394
#     4  10  20  40  65  99 129 170 220 274 330 397
#     4  11  23  44  63  95 134 181 223 280 340 388
#     4   9  20  36  66  99 130 163 218 276 329 396
#     4  11  25  43  67  98 132 176 234 282 327 396
#     4  11  25  40  64  94 135 181 222 273 338 402
#     4  12  23  41  66  94 130 180 230 279 328 396
#     4  11  20  38  64  94 128 172 221 269 330 399
#
# _framework density 22.099357999999999
#
# number of rings (size 3 to 8) (size 9 to 14) (size 15 to 20)
#    0.000    1.250    2.500    3.750    3.500    1.000 
#    0.000    4.375    0.000   10.500    0.000    0.000 
#    0.000    0.000    0.000    0.000    0.000    0.000 
#
# Total GULP energy -198214.737250 kJ/mol
# GULP energy per Si atom -12388.421078 kJ/mol
# Density = 2.204906 g / cm^3
# Si number density = 22.099358 Si / 1000 Ang^3
#
#
#
# Elastic Constant Matrix: (Units=GPa)
#
#
# Indices 1 2 3 4 5 6 
#
# 1 170.2842 43.2661 48.0899 -13.7796 31.4718 4.1021
# 2 43.2661 90.7347 22.5059 -13.8143 3.1137 16.0522
# 3 48.0899 22.5059 99.6072 -12.4929 12.0599 7.5050
# 4 -13.7796 -13.8143 -12.4929 26.9105 4.3086 -6.0902
# 5 31.4718 3.1137 12.0599 4.3086 41.6215 0.6944
# 6 4.1021 16.0522 7.5050 -6.0902 0.6944 37.5745
#
#
#
# Elastic Compliance Matrix: (Units=1/GPa)
#
#
# Indices 1 2 3 4 5 6 
#
# 1 0.008673 -0.003121 -0.002504 0.002959 -0.005930 0.001476
# 2 -0.003121 0.014174 -0.000989 0.003906 0.001264 -0.004907
# 3 -0.002504 -0.000989 0.012295 0.003993 -0.001990 -0.001076
# 4 0.002959 0.003906 0.003993 0.044934 -0.008416 0.004649
# 5 -0.005930 0.001264 -0.001990 -0.008416 0.029887 -0.001411
# 6 0.001476 -0.004907 -0.001076 0.004649 -0.001411 0.029544
#
#
# Mechanical properties :
#
#
# Convention : Reuss Voigt Hill
#
# Bulk Modulus (GPa) = 45.63540 65.37222 55.50381
# Shear Modulus (GPa) = 31.24236 37.67225 34.45731
#
# Velocity S-wave (km/s) = 3.76403 4.13325 3.95295
# Velocity P-wave (km/s) = 6.29170 7.24042 6.78267
#
# Compressibility (1/GPa) = 0.02191282
#
# Stress axis : x y z
#
# Youngs Moduli (GPa) = 115.30539 70.54977 81.33617
#
# Poissons Ratio (x) = 0.22022 0.20366
# Poissons Ratio (y) = 0.35992 0.08044
# Poissons Ratio (z) = 0.28872 0.06978
#
# Static dielectric constant tensor:
#      x y z
#    x 4.389890 0.071150 0.490040 
#    y 0.071150 4.318720 -0.362870 
#    z 0.490040 -0.362870 4.905340 
# 
# 
# High freq. dielectric constant tensor:
#      x y z
#    x 1.866370 0.015130 0.008740 
#    y 0.015130 1.869000 -0.005290 
#    z 0.008740 -0.005290 1.875550 
# 
# From -- ./inp_files/47784.got.cif
#   From: 2010.06.25/outbox.cif.g09.slc.cpg/sg2_24_cif.got.tgz:47784.got - 2010.06.27 13:26:56.
