data_PCOD8006381
_publ_section_title
;
Structure prediction by ZEFSAII (Michael W. Deem and Ramdas Pophale) SiO2 
 PCOD8006381
Probable space group: P -1
;
_chemical_formula_sum "Si O2"
_cell_formula_units_Z 14
_cell_length_a 15.927838
_cell_length_b 7.474402
_cell_length_c 18.746745
_cell_angle_alpha 134.030462
_cell_angle_beta 157.416253
_cell_angle_gamma 43.527358
_cell_volume 587.511087
_symmetry_space_group_name_H-M "P -1"
_symmetry_group_IT_number 2
_symmetry_cell_setting 'triclinic'
loop_
_space_group_symop_operation_xyz
x,y,z
-x,-y,-z
loop_
_atom_site_type_symbol
_atom_site_label
_atom_site_fract_x
_atom_site_fract_y
_atom_site_fract_z
Si Si1 0.736765 0.169742 0.343046
Si Si2 0.292068 0.046567 0.960674
Si Si3 0.235041 0.564116 0.701728
Si Si4 0.638763 0.096519 0.873842
Si Si5 0.571017 0.877965 0.621342
Si Si6 0.896413 0.379462 0.050515
Si Si7 0.532472 0.384767 0.656024
O O1 0.692468 0.385533 0.306855
O O2 0.658474 0.335860 0.400547
O O3 0.565748 0.995551 0.148096
O O4 0.000000 0.000000 0.500000
O O5 0.227903 0.074681 0.002840
O O6 0.213457 0.811225 0.803028
O O7 0.148063 0.313922 0.881808
O O8 0.430851 0.308152 0.810071
O O9 0.000000 0.500000 0.500000
O O10 0.540312 0.913327 0.692756
O O11 0.792052 0.239477 0.990709
O O12 0.457700 0.671112 0.437873
O O13 0.841286 0.780815 0.791358
O O14 0.451887 0.156997 0.567986
O O15 0.777834 0.376049 0.879088
#
# Coordination Sequence:
#
# PCOD8006381 Si02
#       7
#     2   2   2   2   2   2   2
#     4  11  23  42  69 100 137 178 227 282 345 404
#     4  11  25  44  68  98 138 174 227 286 338 407
#     4  12  25  44  65 100 134 178 229 280 342 408
#     4  11  22  44  65  96 134 176 224 279 337 410
#     4  10  20  39  68  97 135 179 222 277 342 404
#     4  10  22  43  69  98 135 176 226 276 347 402
#     4   9  19  38  63  98 130 174 223 269 332 407
#
# _framework density 23.829335
#
# number of rings (size 3 to 8) (size 9 to 14) (size 15 to 20)
#    0.000    1.429    4.286    3.429    2.000    1.714 
#    2.571    2.857    0.000    0.000    0.000    0.000 
#    0.000    0.000    0.000    0.000    0.000    0.000 
#
# Total GULP energy -173510.224469 kJ/mol
# GULP energy per Si atom -12393.587462 kJ/mol
# Density = 2.377510 g / cm^3
# Si number density = 23.829335 Si / 1000 Ang^3
#
#
#
# Elastic Constant Matrix: (Units=GPa)
#
#
# Indices 1 2 3 4 5 6 
#
# 1 84.8016 16.7693 30.1283 15.7982 -6.8342 4.1634
# 2 16.7693 106.2242 43.7720 5.9197 2.6652 -14.8873
# 3 30.1283 43.7720 109.8200 23.8288 6.9119 -8.9016
# 4 15.7982 5.9197 23.8288 46.4368 -12.3552 -6.2185
# 5 -6.8342 2.6652 6.9119 -12.3552 31.9696 7.0502
# 6 4.1634 -14.8873 -8.9016 -6.2185 7.0502 30.4395
#
#
#
# Elastic Compliance Matrix: (Units=1/GPa)
#
#
# Indices 1 2 3 4 5 6 
#
# 1 0.014385 -0.001533 -0.003471 -0.002516 0.004129 -0.005203
# 2 -0.001533 0.012107 -0.004254 0.001627 -0.000990 0.005449
# 3 -0.003471 -0.004254 0.013849 -0.006787 -0.006574 0.002580
# 4 -0.002516 0.001627 -0.006787 0.029046 0.011484 0.002429
# 5 0.004129 -0.000990 -0.006574 0.011484 0.040300 -0.009959
# 6 -0.005203 0.005449 0.002580 0.002429 -0.009959 0.039786
#
#
# Mechanical properties :
#
#
# Convention : Reuss Voigt Hill
#
# Bulk Modulus (GPa) = 45.81985 53.57611 49.69798
# Shear Modulus (GPa) = 28.52808 35.78093 32.15451
#
# Velocity S-wave (km/s) = 3.46379 3.87919 3.67736
# Velocity P-wave (km/s) = 5.93862 6.52658 6.23953
#
# Compressibility (1/GPa) = 0.02182460
#
# Stress axis : x y z
#
# Youngs Moduli (GPa) = 69.51465 82.59788 72.20640
#
# Poissons Ratio (x) = 0.12664 0.25064
# Poissons Ratio (y) = 0.10658 0.30717
# Poissons Ratio (z) = 0.24130 0.35138
#
# Static dielectric constant tensor:
#      x y z
#    x 4.256390 -0.047660 -0.224960 
#    y -0.047660 4.614690 0.110560 
#    z -0.224960 0.110560 4.310520 
# 
# 
# High freq. dielectric constant tensor:
#      x y z
#    x 1.928300 -0.000600 -0.014340 
#    y -0.000600 1.960030 0.007300 
#    z -0.014340 0.007300 1.930370 
# 
# From -- ./inp_files/338172.got.cif
#   From: 2010.06.25/outbox.cif.g09.slc.cpg/sg2_170_cif.got.tgz:338172.got - 2010.06.27 13:26:56.
