data_PCOD8006706
_publ_section_title
;
Structure prediction by ZEFSAII (Michael W. Deem and Ramdas Pophale) SiO2 
 PCOD8006706
Probable space group: P -1
;
_chemical_formula_sum "Si O2"
_cell_formula_units_Z 16
_cell_length_a 9.584066
_cell_length_b 9.257837
_cell_length_c 14.714008
_cell_angle_alpha 130.803524
_cell_angle_beta 99.920488
_cell_angle_gamma 112.064435
_cell_volume 735.757770
_symmetry_space_group_name_H-M "P -1"
_symmetry_group_IT_number 2
_symmetry_cell_setting 'triclinic'
loop_
_space_group_symop_operation_xyz
x,y,z
-x,-y,-z
loop_
_atom_site_type_symbol
_atom_site_label
_atom_site_fract_x
_atom_site_fract_y
_atom_site_fract_z
Si Si1 0.865512 0.532788 0.099838
Si Si2 0.903582 0.107740 0.566968
Si Si3 0.100443 0.368673 0.529710
Si Si4 0.877624 0.195656 0.269760
Si Si5 0.493900 0.202808 0.035541
Si Si6 0.825166 0.689861 0.775992
Si Si7 0.572242 0.591201 0.350967
Si Si8 0.976106 0.741353 0.003898
O O1 0.664894 0.387638 0.063089
O O2 0.032001 0.772143 0.276408
O O3 0.895123 0.332362 0.015580
O O4 0.863952 0.633958 0.042669
O O5 0.984287 0.321810 0.588877
O O6 0.679008 0.874164 0.440470
O O7 0.000000 0.000000 0.500000
O O8 0.182535 0.650682 0.633912
O O9 0.272178 0.373713 0.554686
O O10 0.958653 0.156740 0.351189
O O11 0.049225 0.351018 0.280874
O O12 0.698657 0.936535 0.098697
O O13 0.498638 0.375228 0.180149
O O14 0.500000 0.000000 0.000000
O O15 0.604180 0.488793 0.643381
O O16 0.832221 0.633401 0.859584
O O17 0.890133 0.959107 0.867846
#
# Coordination Sequence:
#
# PCOD8006706 Si02
#       8
#     2   2   2   2   2   2   2   2
#     4  11  22  42  68  96 134 176 222 267 334 399
#     4  10  20  40  63  89 126 166 211 276 319 384
#     4  10  22  43  62  96 129 169 221 263 338 392
#     4  11  24  39  67  95 132 169 215 282 320 386
#     4  12  20  38  69  95 122 174 222 269 317 391
#     4  11  23  43  63  95 137 170 219 278 329 382
#     4  11  23  39  67  93 125 174 220 256 335 393
#     4  10  24  41  63  97 138 172 213 280 335 383
#
# _framework density 21.746286000000001
#
# number of rings (size 3 to 8) (size 9 to 14) (size 15 to 20)
#    0.000    1.250    3.750    3.750    3.500    1.500 
#    0.000    5.625    0.000    0.000    0.000    0.000 
#    0.000    0.000    0.000    0.000    0.000    0.000 
#
# Total GULP energy -198242.099748 kJ/mol
# GULP energy per Si atom -12390.131234 kJ/mol
# Density = 2.169679 g / cm^3
# Si number density = 21.746286 Si / 1000 Ang^3
#
#
#
# Elastic Constant Matrix: (Units=GPa)
#
#
# Indices 1 2 3 4 5 6 
#
# 1 87.5242 26.8600 35.6568 5.7019 24.5623 16.5063
# 2 26.8600 107.7742 30.5746 -15.4912 14.7038 5.6242
# 3 35.6568 30.5746 104.1893 -15.1610 22.7042 2.3768
# 4 5.7019 -15.4912 -15.1610 32.6365 4.2689 5.6354
# 5 24.5623 14.7038 22.7042 4.2689 41.3802 4.0557
# 6 16.5063 5.6242 2.3768 5.6354 4.0557 35.4960
#
#
#
# Elastic Compliance Matrix: (Units=1/GPa)
#
#
# Indices 1 2 3 4 5 6 
#
# 1 0.016974 -0.002549 -0.004311 -0.004414 -0.005776 -0.005840
# 2 -0.002549 0.011469 -0.001064 0.005928 -0.002470 -0.001220
# 3 -0.004311 -0.001064 0.013561 0.007114 -0.005310 0.000743
# 4 -0.004414 0.005928 0.007114 0.039271 -0.006970 -0.004801
# 5 -0.005776 -0.002470 -0.005310 -0.006970 0.032019 0.000881
# 6 -0.005840 -0.001220 0.000743 -0.004801 0.000881 0.031693
#
#
# Mechanical properties :
#
#
# Convention : Reuss Voigt Hill
#
# Bulk Modulus (GPa) = 38.23469 53.96338 46.09903
# Shear Modulus (GPa) = 29.48909 35.66229 32.57569
#
# Velocity S-wave (km/s) = 3.68646 4.05399 3.87458
# Velocity P-wave (km/s) = 5.97832 6.83974 6.42348
#
# Compressibility (1/GPa) = 0.02615426
#
# Stress axis : x y z
#
# Youngs Moduli (GPa) = 58.91338 87.19418 73.74022
#
# Poissons Ratio (x) = 0.22225 0.31793
# Poissons Ratio (y) = 0.15017 0.07849
# Poissons Ratio (z) = 0.25400 0.09281
#
# Static dielectric constant tensor:
#      x y z
#    x 4.138080 1.653570 0.114580 
#    y 1.653570 15.022190 0.632470 
#    z 0.114580 0.632470 4.061810 
# 
# 
# High freq. dielectric constant tensor:
#      x y z
#    x 1.850590 -0.003560 -0.005340 
#    y -0.003560 1.854280 0.001810 
#    z -0.005340 0.001810 1.855000 
# 
# From -- ./inp_files/495745.got.cif
#   From: 2010.06.25/outbox.cif.g09.slc.cpg/sg2_248_cif.got.tgz:495745.got - 2010.06.27 13:26:56.
