data_PCOD8006417
_publ_section_title
;
Structure prediction by ZEFSAII (Michael W. Deem and Ramdas Pophale) SiO2 
 PCOD8006417
Probable space group: P -1
;
_chemical_formula_sum "Si O2"
_cell_formula_units_Z 16
_cell_length_a 9.935727
_cell_length_b 14.571217
_cell_length_c 9.245246
_cell_angle_alpha 142.551490
_cell_angle_beta 111.058367
_cell_angle_gamma 67.140123
_cell_volume 746.839764
_symmetry_space_group_name_H-M "P -1"
_symmetry_group_IT_number 2
_symmetry_cell_setting 'triclinic'
loop_
_space_group_symop_operation_xyz
x,y,z
-x,-y,-z
loop_
_atom_site_type_symbol
_atom_site_label
_atom_site_fract_x
_atom_site_fract_y
_atom_site_fract_z
Si Si1 0.350640 0.860434 0.899072
Si Si2 0.849150 0.713651 0.026374
Si Si3 0.395465 0.386665 0.377559
Si Si4 0.766868 0.055869 0.345751
Si Si5 0.655830 0.357110 0.135149
Si Si6 0.174356 0.668621 0.116274
Si Si7 0.532137 0.922620 0.573341
Si Si8 0.656362 0.648401 0.112021
O O1 0.509175 0.785133 0.794502
O O2 0.244496 0.921422 0.802907
O O3 0.283728 0.736324 0.813127
O O4 0.364384 0.995347 0.184673
O O5 0.781757 0.719975 0.168828
O O6 0.016021 0.621182 0.973481
O O7 0.855078 0.884573 0.187621
O O8 0.752104 0.618002 0.774112
O O9 0.500000 0.500000 0.500000
O O10 0.343377 0.461311 0.607709
O O11 0.851651 0.183844 0.603880
O O12 0.614381 0.077990 0.396731
O O13 0.757899 0.291009 0.959097
O O14 0.488321 0.332336 0.019802
O O15 0.289423 0.529612 0.054654
O O16 0.615064 0.747190 0.364952
O O17 0.500000 0.000000 0.500000
#
# Coordination Sequence:
#
# PCOD8006417 Si02
#       8
#     2   2   2   2   2   2   2   2
#     4  11  22  39  68 102 131 172 226 282 331 392
#     4  12  25  46  67 100 139 181 219 279 341 405
#     4  10  20  39  69  94 132 170 221 273 338 383
#     4  12  24  42  70 101 134 179 226 274 338 404
#     4  11  22  42  68  99 133 174 222 284 331 390
#     4  12  28  43  68 100 140 179 226 272 341 403
#     4  12  20  39  70 101 135 168 227 285 326 383
#     4  12  23  43  70  99 132 178 228 276 328 401
#
# _framework density 21.423604999999998
#
# number of rings (size 3 to 8) (size 9 to 14) (size 15 to 20)
#    0.000    0.500    7.500    2.250    3.500    0.500 
#    0.000    0.625    0.000    0.000    0.000    0.000 
#    0.000    0.000    0.000    0.000    0.000    0.000 
#
# Total GULP energy -198368.271099 kJ/mol
# GULP energy per Si atom -12398.016944 kJ/mol
# Density = 2.137484 g / cm^3
# Si number density = 21.423605 Si / 1000 Ang^3
#
#
#
# Elastic Constant Matrix: (Units=GPa)
#
#
# Indices 1 2 3 4 5 6 
#
# 1 82.1851 28.3973 10.0329 -9.2176 5.3234 -2.5548
# 2 28.3973 86.3024 28.8622 -8.0219 -6.2463 15.4456
# 3 10.0329 28.8622 151.1415 0.2368 -0.9040 -3.6950
# 4 -9.2176 -8.0219 0.2368 30.5764 3.0220 -5.3247
# 5 5.3234 -6.2463 -0.9040 3.0220 28.0474 -2.0872
# 6 -2.5548 15.4456 -3.6950 -5.3247 -2.0872 22.9299
#
#
#
# Elastic Compliance Matrix: (Units=1/GPa)
#
#
# Indices 1 2 3 4 5 6 
#
# 1 0.015258 -0.006184 0.000296 0.004542 -0.004263 0.006580
# 2 -0.006184 0.017191 -0.003152 0.000121 0.003966 -0.012388
# 3 0.000296 -0.003152 0.007277 -0.000201 -0.000259 0.003258
# 4 0.004542 0.000121 -0.000201 0.035970 -0.004094 0.008372
# 5 -0.004263 0.003966 -0.000259 -0.004094 0.037727 -0.000705
# 6 0.006580 -0.012388 0.003258 0.008372 -0.000705 0.055094
#
#
# Mechanical properties :
#
#
# Convention : Reuss Voigt Hill
#
# Bulk Modulus (GPa) = 46.19333 50.46820 48.33076
# Shear Modulus (GPa) = 25.79829 33.13320 29.46575
#
# Velocity S-wave (km/s) = 3.47392 3.93692 3.71264
# Velocity P-wave (km/s) = 6.14000 6.65389 6.40210
#
# Compressibility (1/GPa) = 0.02164815
#
# Stress axis : x y z
#
# Youngs Moduli (GPa) = 65.53822 58.16924 137.42062
#
# Poissons Ratio (x) = 0.35970 -0.04071
# Poissons Ratio (y) = 0.40527 0.43311
# Poissons Ratio (z) = -0.01941 0.18333
#
# Static dielectric constant tensor:
#      x y z
#    x 3.608280 0.085910 -0.214610 
#    y 0.085910 3.815200 0.120480 
#    z -0.214610 0.120480 4.489720 
# 
# 
# High freq. dielectric constant tensor:
#      x y z
#    x 1.812110 0.011560 -0.008320 
#    y 0.011560 1.831790 0.004380 
#    z -0.008320 0.004380 1.861160 
# 
# From -- ./inp_files/209521.got.cif
#   From: 2010.06.25/outbox.cif.g09.slc.cpg/sg2_105_cif.got.tgz:209521.got - 2010.06.27 13:26:56.
