data_PCOD8006458
_publ_section_title
;
Structure prediction by ZEFSAII (Michael W. Deem and Ramdas Pophale) SiO2 
 PCOD8006458
Probable space group: P -1
;
_chemical_formula_sum "Si O2"
_cell_formula_units_Z 16
_cell_length_a 9.012862
_cell_length_b 26.402920
_cell_length_c 15.056748
_cell_angle_alpha 158.347708
_cell_angle_beta 38.550529
_cell_angle_gamma 131.140517
_cell_volume 785.960920
_symmetry_space_group_name_H-M "P -1"
_symmetry_group_IT_number 2
_symmetry_cell_setting 'triclinic'
loop_
_space_group_symop_operation_xyz
x,y,z
-x,-y,-z
loop_
_atom_site_type_symbol
_atom_site_label
_atom_site_fract_x
_atom_site_fract_y
_atom_site_fract_z
Si Si1 0.521637 0.397168 0.402477
Si Si2 0.045896 0.381980 0.209430
Si Si3 0.706163 0.562858 0.244135
Si Si4 0.377609 0.874787 0.843251
Si Si5 0.278507 0.903742 0.733439
Si Si6 0.033934 0.088013 0.764535
Si Si7 0.496118 0.408551 0.940826
Si Si8 0.378405 0.906646 0.179584
O O1 0.500000 0.500000 0.500000
O O2 0.338954 0.468511 0.683891
O O3 0.796638 0.366497 0.259917
O O4 0.450197 0.258747 0.171306
O O5 0.000000 0.500000 0.500000
O O6 0.212312 0.414275 0.104620
O O7 0.154250 0.220310 0.934193
O O8 0.575429 0.731732 0.558497
O O9 0.590929 0.472084 0.085182
O O10 0.000000 0.500000 0.000000
O O11 0.319614 0.853698 0.734328
O O12 0.107167 0.923241 0.096490
O O13 0.500000 0.000000 0.000000
O O14 0.331612 0.755313 0.413398
O O15 0.471288 0.988175 0.753736
O O16 0.000000 0.000000 0.000000
O O17 0.838924 0.095772 0.790106
O O18 0.269804 0.951470 0.403300
O O19 0.500000 0.500000 0.000000
#
# Coordination Sequence:
#
# PCOD8006458 Si02
#       8
#     2   2   2   2   2   2   2   2
#     4  11  25  43  68  99 133 180 226 286 341 406
#     4  11  21  43  68  93 132 176 227 277 337 402
#     4  12  27  46  66 103 143 177 232 285 341 417
#     4  12  23  45  72  99 136 184 228 277 341 406
#     4  12  27  44  68 102 142 180 224 285 342 410
#     4  10  20  39  71  92 125 175 224 271 329 399
#     4  12  26  44  71 102 136 186 230 282 351 406
#     4  10  21  43  64  97 130 174 227 274 333 406
#
# _framework density 20.357247000000001
#
# number of rings (size 3 to 8) (size 9 to 14) (size 15 to 20)
#    0.000    0.750    7.500    0.000    5.250    1.000 
#    0.000    0.625    0.000    0.000    0.000    0.000 
#    0.000    0.000    0.000    0.000    0.000    0.000 
#
# Total GULP energy -198261.235871 kJ/mol
# GULP energy per Si atom -12391.327242 kJ/mol
# Density = 2.031091 g / cm^3
# Si number density = 20.357247 Si / 1000 Ang^3
#
#
#
# Elastic Constant Matrix: (Units=GPa)
#
#
# Indices 1 2 3 4 5 6 
#
# 1 47.9069 34.1679 50.4359 1.4843 9.9283 -6.3238
# 2 34.1679 167.2959 78.2518 -13.9364 17.5133 -8.2377
# 3 50.4359 78.2518 153.1254 -4.2707 28.9980 -5.5124
# 4 1.4843 -13.9364 -4.2707 46.9908 8.4950 3.8172
# 5 9.9283 17.5133 28.9980 8.4950 31.2361 2.6384
# 6 -6.3238 -8.2377 -5.5124 3.8172 2.6384 36.5686
#
#
#
# Elastic Compliance Matrix: (Units=1/GPa)
#
#
# Indices 1 2 3 4 5 6 
#
# 1 0.033438 -0.002315 -0.009817 -0.003013 0.000258 0.004077
# 2 -0.002315 0.008319 -0.003030 0.002532 -0.001879 0.000888
# 3 -0.009817 -0.003030 0.012800 0.001955 -0.007586 -0.000108
# 4 -0.003013 0.002532 0.001955 0.023997 -0.008674 -0.001535
# 5 0.000258 -0.001879 -0.007586 -0.008674 0.042699 -0.003698
# 6 0.004077 0.000888 -0.000108 -0.001535 -0.003698 0.028662
#
#
# Mechanical properties :
#
#
# Convention : Reuss Voigt Hill
#
# Bulk Modulus (GPa) = 41.26641 77.11549 59.19095
# Shear Modulus (GPa) = 26.55098 36.65726 31.60412
#
# Velocity S-wave (km/s) = 3.61536 4.24807 3.94442
# Velocity P-wave (km/s) = 6.14352 7.87558 7.06285
#
# Compressibility (1/GPa) = 0.02423279
#
# Stress axis : x y z
#
# Youngs Moduli (GPa) = 29.90627 120.20604 78.12529
#
# Poissons Ratio (x) = 0.27823 0.76695
# Poissons Ratio (y) = 0.06922 0.23676
# Poissons Ratio (z) = 0.29359 0.36428
#
# Static dielectric constant tensor:
#      x y z
#    x 3.548420 0.021440 0.169630 
#    y 0.021440 3.805090 0.332470 
#    z 0.169630 0.332470 5.356960 
# 
# 
# High freq. dielectric constant tensor:
#      x y z
#    x 1.772520 0.007670 0.026300 
#    y 0.007670 1.813070 -0.003910 
#    z 0.026300 -0.003910 1.816300 
# 
# From -- ./inp_files/508998.got.cif
#   From: 2010.06.25/outbox.cif.g09.slc.cpg/sg2_255_cif.got.tgz:508998.got - 2010.06.27 13:26:56.
