data_PCOD8006832
_publ_section_title
;
Structure prediction by ZEFSAII (Michael W. Deem and Ramdas Pophale) SiO2 
 PCOD8006832
Probable space group: P -1
;
_chemical_formula_sum "Si O2"
_cell_formula_units_Z 16
_cell_length_a 8.987766
_cell_length_b 8.560799
_cell_length_c 15.165025
_cell_angle_alpha 52.556522
_cell_angle_beta 116.596735
_cell_angle_gamma 124.808515
_cell_volume 751.522528
_symmetry_space_group_name_H-M "P -1"
_symmetry_group_IT_number 2
_symmetry_cell_setting 'triclinic'
loop_
_space_group_symop_operation_xyz
x,y,z
-x,-y,-z
loop_
_atom_site_type_symbol
_atom_site_label
_atom_site_fract_x
_atom_site_fract_y
_atom_site_fract_z
Si Si1 0.041892 0.294105 0.570056
Si Si2 0.047330 0.298780 0.072979
Si Si3 0.317379 0.918281 0.535753
Si Si4 0.694943 0.534626 0.765857
Si Si5 0.809450 0.792362 0.024398
Si Si6 0.712433 0.542087 0.263169
Si Si7 0.318999 0.915033 0.036153
Si Si8 0.312683 0.316604 0.480646
O O1 0.154462 0.282588 0.690383
O O2 0.155095 0.303603 0.509006
O O3 0.000000 0.500000 0.500000
O O4 0.843718 0.094702 0.570856
O O5 0.148978 0.282523 0.195149
O O6 0.198987 0.340096 0.021499
O O7 0.000000 0.500000 0.000000
O O8 0.850736 0.099054 0.068219
O O9 0.275111 0.687717 0.647870
O O10 0.500000 0.000000 0.500000
O O11 0.332616 0.089583 0.557929
O O12 0.493946 0.490442 0.762349
O O13 0.720205 0.310940 0.849952
O O14 0.734169 0.623389 0.648043
O O15 0.659169 0.895304 0.952444
O O16 0.782878 0.632669 0.154218
O O17 0.000000 0.000000 0.000000
O O18 0.500000 0.000000 0.000000
O O19 0.500000 0.500000 0.500000
#
# Coordination Sequence:
#
# PCOD8006832 Si02
#       8
#     2   2   2   2   2   2   2   2
#     4  10  23  42  68  97 135 176 224 284 329 408
#     4   9  22  41  62  92 131 172 218 277 325 395
#     4  11  23  43  65 101 136 177 229 279 335 408
#     4  11  22  42  67  93 135 178 215 276 343 392
#     4  10  22  42  68  97 131 169 229 273 334 403
#     4  11  22  44  69  97 137 181 223 276 346 397
#     4  10  20  40  64  95 129 170 223 272 328 401
#     4  12  23  45  70  99 137 176 231 281 342 408
#
# _framework density 21.290113999999999
#
# number of rings (size 3 to 8) (size 9 to 14) (size 15 to 20)
#    0.000    1.500    3.750    1.125    0.000    8.500 
#    2.250    3.750    0.000    0.000    0.000    0.000 
#    0.000    0.000    0.000    0.000    0.000    0.000 
#
# Total GULP energy -198260.299599 kJ/mol
# GULP energy per Si atom -12391.268725 kJ/mol
# Density = 2.124166 g / cm^3
# Si number density = 21.290114 Si / 1000 Ang^3
#
#
#
# Elastic Constant Matrix: (Units=GPa)
#
#
# Indices 1 2 3 4 5 6 
#
# 1 164.6998 57.6180 46.3360 17.6269 -11.8156 -14.2433
# 2 57.6180 104.5588 42.6256 12.0679 3.9505 -13.2917
# 3 46.3360 42.6256 132.9328 10.1671 -8.3492 -7.3555
# 4 17.6269 12.0679 10.1671 41.6400 0.9759 6.5469
# 5 -11.8156 3.9505 -8.3492 0.9759 39.2055 6.9787
# 6 -14.2433 -13.2917 -7.3555 6.5469 6.9787 51.4680
#
#
#
# Elastic Compliance Matrix: (Units=1/GPa)
#
#
# Indices 1 2 3 4 5 6 
#
# 1 0.008252 -0.003701 -0.001296 -0.002336 0.002445 0.001108
# 2 -0.003701 0.013529 -0.002966 -0.001984 -0.003556 0.002780
# 3 -0.001296 -0.002966 0.009111 -0.000865 0.001864 0.000035
# 4 -0.002336 -0.001984 -0.000865 0.026524 -0.000533 -0.004584
# 5 0.002445 -0.003556 0.001864 -0.000533 0.027663 -0.003659
# 6 0.001108 0.002780 0.000035 -0.004584 -0.003659 0.021538
#
#
# Mechanical properties :
#
#
# Convention : Reuss Voigt Hill
#
# Bulk Modulus (GPa) = 66.81815 77.26119 72.03967
# Shear Modulus (GPa) = 39.20571 43.50349 41.35460
#
# Velocity S-wave (km/s) = 4.29592 4.52526 4.41208
# Velocity P-wave (km/s) = 7.48728 7.97951 7.73731
#
# Compressibility (1/GPa) = 0.01496599
#
# Stress axis : x y z
#
# Youngs Moduli (GPa) = 121.17869 73.91336 109.76170
#
# Poissons Ratio (x) = 0.27355 0.14228
# Poissons Ratio (y) = 0.44847 0.32555
# Poissons Ratio (z) = 0.15707 0.21923
#
# Static dielectric constant tensor:
#      x y z
#    x 4.070560 0.018980 0.042850 
#    y 0.018980 4.519570 0.500180 
#    z 0.042850 0.500180 3.901810 
# 
# 
# High freq. dielectric constant tensor:
#      x y z
#    x 1.857020 -0.009200 0.004920 
#    y -0.009200 1.846150 0.003050 
#    z 0.004920 0.003050 1.816180 
# 
# From -- ./inp_files/320638.got.cif
#   From: 2010.06.25/outbox.cif.g09.slc.cpg/sg2_161_cif.got.tgz:320638.got - 2010.06.27 13:26:56.
