data_PCOD8006848
_publ_section_title
;
Structure prediction by ZEFSAII (Michael W. Deem and Ramdas Pophale) SiO2 
 PCOD8006848
Probable space group: P -1
;
_chemical_formula_sum "Si O2"
_cell_formula_units_Z 14
_cell_length_a 20.826286
_cell_length_b 8.838267
_cell_length_c 20.240693
_cell_angle_alpha 151.370593
_cell_angle_beta 158.130264
_cell_angle_gamma 29.576322
_cell_volume 632.438390
_symmetry_space_group_name_H-M "P -1"
_symmetry_group_IT_number 2
_symmetry_cell_setting 'triclinic'
loop_
_space_group_symop_operation_xyz
x,y,z
-x,-y,-z
loop_
_atom_site_type_symbol
_atom_site_label
_atom_site_fract_x
_atom_site_fract_y
_atom_site_fract_z
Si Si1 0.042455 0.400078 0.077682
Si Si2 0.566553 0.179097 0.254320
Si Si3 0.811969 0.819633 0.131689
Si Si4 0.437338 0.384486 0.462360
Si Si5 0.014770 0.687263 0.789160
Si Si6 0.384338 0.224081 0.532590
Si Si7 0.959281 0.682398 0.461187
O O1 0.222166 0.484480 0.301882
O O2 0.883671 0.609632 0.053706
O O3 0.000000 0.500000 0.000000
O O4 0.076591 0.012461 0.972964
O O5 0.495920 0.426475 0.343060
O O6 0.600369 0.403422 0.311248
O O7 0.748624 0.892517 0.336710
O O8 0.406335 0.023859 0.023817
O O9 0.842399 0.595694 0.140822
O O10 0.905049 0.104123 0.338729
O O11 0.500000 0.500000 0.500000
O O12 0.534927 0.983461 0.403716
O O13 0.823286 0.755336 0.668800
O O14 0.999642 0.586859 0.660629
O O15 0.500000 0.000000 0.500000
O O16 0.000000 0.500000 0.500000
#
# Coordination Sequence:
#
# PCOD8006848 Si02
#       7
#     2   2   2   2   2   2   2
#     4  12  23  42  69 106 140 182 234 291 351 414
#     4  11  24  45  70  98 140 183 232 287 347 417
#     4  12  24  47  74 100 136 187 237 287 351 419
#     4  11  22  39  67 104 141 178 231 293 346 411
#     4  12  25  44  72 103 141 186 233 289 351 415
#     4  10  20  40  65 100 135 172 225 287 340 400
#     4  12  28  49  69 100 148 185 233 294 351 420
#
# _framework density 22.136545000000002
#
# number of rings (size 3 to 8) (size 9 to 14) (size 15 to 20)
#    0.000    0.571    2.857    6.857    2.000    1.143 
#    2.571    0.000    0.000    0.000    0.000    0.000 
#    0.000    0.000    0.000    0.000    0.000    0.000 
#
# Total GULP energy -173623.055826 kJ/mol
# GULP energy per Si atom -12401.646845 kJ/mol
# Density = 2.208616 g / cm^3
# Si number density = 22.136545 Si / 1000 Ang^3
#
#
#
# Elastic Constant Matrix: (Units=GPa)
#
#
# Indices 1 2 3 4 5 6 
#
# 1 104.0411 22.7738 23.2835 0.4381 5.4335 16.8184
# 2 22.7738 91.3429 28.4543 -19.9785 17.6599 13.4033
# 3 23.2835 28.4543 132.8298 -23.6986 24.1985 -4.6397
# 4 0.4381 -19.9785 -23.6986 43.9841 -2.2659 -2.9415
# 5 5.4335 17.6599 24.1985 -2.2659 35.3214 4.4156
# 6 16.8184 13.4033 -4.6397 -2.9415 4.4156 39.1232
#
#
#
# Elastic Compliance Matrix: (Units=1/GPa)
#
#
# Indices 1 2 3 4 5 6 
#
# 1 0.011349 -0.002245 -0.002418 -0.002679 0.001457 -0.004762
# 2 -0.002245 0.014537 -0.000780 0.005711 -0.005642 -0.003041
# 3 -0.002418 -0.000780 0.010341 0.005153 -0.006448 0.003648
# 4 -0.002679 0.005711 0.005153 0.028064 -0.004476 0.002422
# 5 0.001457 -0.005642 -0.006448 -0.004476 0.035514 -0.003803
# 6 -0.004762 -0.003041 0.003648 0.002422 -0.003803 0.029693
#
#
# Mechanical properties :
#
#
# Convention : Reuss Voigt Hill
#
# Bulk Modulus (GPa) = 39.46317 53.02635 46.24476
# Shear Modulus (GPa) = 33.59503 40.59923 37.09713
#
# Velocity S-wave (km/s) = 3.89990 4.28721 4.09813
# Velocity P-wave (km/s) = 6.17615 6.96514 6.58247
#
# Compressibility (1/GPa) = 0.02534008
#
# Stress axis : x y z
#
# Youngs Moduli (GPa) = 88.11159 68.79190 96.70307
#
# Poissons Ratio (x) = 0.15445 0.23385
# Poissons Ratio (y) = 0.19783 0.07543
# Poissons Ratio (z) = 0.21307 0.05366
#
# Static dielectric constant tensor:
#      x y z
#    x 4.227420 0.408550 0.043330 
#    y 0.408550 4.332760 -0.095510 
#    z 0.043330 -0.095510 4.120400 
# 
# 
# High freq. dielectric constant tensor:
#      x y z
#    x 1.877730 0.012420 0.009910 
#    y 0.012420 1.873020 -0.008920 
#    z 0.009910 -0.008920 1.878100 
# 
# From -- ./inp_files/278929.got.cif
#   From: 2010.06.25/outbox.cif.g09.slc.cpg/sg2_140_cif.got.tgz:278929.got - 2010.06.27 13:26:56.
