data_PCOD8006656
_publ_section_title
;
Structure prediction by ZEFSAII (Michael W. Deem and Ramdas Pophale) SiO2 
 PCOD8006656
Probable space group: P -1
;
_chemical_formula_sum "Si O2"
_cell_formula_units_Z 14
_cell_length_a 11.418830
_cell_length_b 16.767564
_cell_length_c 17.089027
_cell_angle_alpha 17.593061
_cell_angle_beta 56.469777
_cell_angle_gamma 47.642716
_cell_volume 669.047840
_symmetry_space_group_name_H-M "P -1"
_symmetry_group_IT_number 2
_symmetry_cell_setting 'triclinic'
loop_
_space_group_symop_operation_xyz
x,y,z
-x,-y,-z
loop_
_atom_site_type_symbol
_atom_site_label
_atom_site_fract_x
_atom_site_fract_y
_atom_site_fract_z
Si Si1 0.251611 0.160487 0.351661
Si Si2 0.089258 0.224519 0.065476
Si Si3 0.770416 0.261232 0.130560
Si Si4 0.598168 0.108903 0.621170
Si Si5 0.630286 0.123438 0.021326
Si Si6 0.886625 0.785675 0.111625
Si Si7 0.107706 0.058469 0.770287
O O1 0.312790 0.856632 0.669192
O O2 0.319321 0.041946 0.351421
O O3 0.326789 0.352273 0.180821
O O4 0.040707 0.405600 0.199450
O O5 0.977717 0.074288 0.244043
O O6 0.251616 0.006722 0.264170
O O7 0.153116 0.229369 0.950412
O O8 0.751223 0.188068 0.116413
O O9 0.482119 0.993758 0.797151
O O10 0.486105 0.492176 0.299510
O O11 0.704595 0.972860 0.049122
O O12 0.793501 0.990886 0.140455
O O13 0.018749 0.423797 0.433232
O O14 0.968027 0.985364 0.906921
#
# Coordination Sequence:
#
# PCOD8006656 Si02
#       7
#     2   2   2   2   2   2   2
#     4  10  20  40  62  93 114 163 208 244 297 348
#     4   9  23  38  69  89 117 159 213 247 297 346
#     4   9  19  36  66  90 110 150 220 249 286 335
#     4  12  26  40  58  92 137 157 193 245 312 376
#     4  12  27  40  59  95 128 165 188 247 322 359
#     4  11  22  42  71  87 116 158 214 256 288 355
#     4  11  20  43  66  91 116 155 216 252 290 358
#
# _framework density 20.925260000000002
#
# number of rings (size 3 to 8) (size 9 to 14) (size 15 to 20)
#    0.857    0.571    1.429    3.857    2.000    1.714 
#    0.000    4.286    0.000    0.000    0.000    0.000 
#    0.000    0.000    0.000    0.000    0.000    0.000 
#
# Total GULP energy -173573.378293 kJ/mol
# GULP energy per Si atom -12398.098449 kJ/mol
# Density = 2.087763 g / cm^3
# Si number density = 20.925260 Si / 1000 Ang^3
#
#
#
# Elastic Constant Matrix: (Units=GPa)
#
#
# Indices 1 2 3 4 5 6 
#
# 1 65.2413 48.0255 31.3297 8.0508 2.8734 18.9938
# 2 48.0255 201.8715 60.0943 7.4086 2.7323 19.1601
# 3 31.3297 60.0943 136.2282 11.1922 -12.9182 17.7397
# 4 8.0508 7.4086 11.1922 37.7837 -3.9193 -6.9640
# 5 2.8734 2.7323 -12.9182 -3.9193 30.6686 16.5215
# 6 18.9938 19.1601 17.7397 -6.9640 16.5215 33.8155
#
#
#
# Elastic Compliance Matrix: (Units=1/GPa)
#
#
# Indices 1 2 3 4 5 6 
#
# 1 0.023081 -0.003743 -0.000965 -0.005970 0.004387 -0.013711
# 2 -0.003743 0.006480 -0.002136 0.000063 -0.001199 0.000150
# 3 -0.000965 -0.002136 0.010872 -0.003322 0.009410 -0.009233
# 4 -0.005970 0.000063 -0.003322 0.030753 -0.004144 0.013418
# 5 0.004387 -0.001199 0.009410 -0.004144 0.054040 -0.033977
# 6 -0.013711 0.000150 -0.009233 0.013418 -0.033977 0.061396
#
#
# Mechanical properties :
#
#
# Convention : Reuss Voigt Hill
#
# Bulk Modulus (GPa) = 37.38983 75.80444 56.59714
# Shear Modulus (GPa) = 23.89759 38.04631 30.97195
#
# Velocity S-wave (km/s) = 3.38308 4.26866 3.85141
# Velocity P-wave (km/s) = 5.75911 7.78461 6.84718
#
# Compressibility (1/GPa) = 0.02674524
#
# Stress axis : x y z
#
# Youngs Moduli (GPa) = 43.32486 154.33130 91.97628
#
# Poissons Ratio (x) = 0.57762 0.08878
# Poissons Ratio (y) = 0.16215 0.19647
# Poissons Ratio (z) = 0.04182 0.32966
#
# Static dielectric constant tensor:
#      x y z
#    x 3.564340 0.094600 -0.152990 
#    y 0.094600 4.014210 0.069330 
#    z -0.152990 0.069330 3.816450 
# 
# 
# High freq. dielectric constant tensor:
#      x y z
#    x 1.799050 0.007000 -0.012730 
#    y 0.007000 1.838070 0.005950 
#    z -0.012730 0.005950 1.828010 
# 
# From -- ./inp_files/369063.got.cif
#   From: 2010.06.25/outbox.cif.g09.slc.cpg/sg2_185_cif.got.tgz:369063.got - 2010.06.27 13:26:56.
