data_PCOD8006025
_publ_section_title
;
Structure prediction by ZEFSAII (Michael W. Deem and Ramdas Pophale) SiO2 
 PCOD8006025
Probable space group: P -1
;
_chemical_formula_sum "Si O2"
_cell_formula_units_Z 16
_cell_length_a 8.641417
_cell_length_b 8.403378
_cell_length_c 16.519139
_cell_angle_alpha 43.411576
_cell_angle_beta 66.458293
_cell_angle_gamma 91.073863
_cell_volume 658.706485
_symmetry_space_group_name_H-M "P -1"
_symmetry_group_IT_number 2
_symmetry_cell_setting 'triclinic'
loop_
_space_group_symop_operation_xyz
x,y,z
-x,-y,-z
loop_
_atom_site_type_symbol
_atom_site_label
_atom_site_fract_x
_atom_site_fract_y
_atom_site_fract_z
Si Si1 0.210919 0.257241 0.871810
Si Si2 0.957690 0.739132 0.787151
Si Si3 0.667170 0.530707 0.054197
Si Si4 0.317107 0.200084 0.594182
Si Si5 0.049082 0.303772 0.373285
Si Si6 0.741888 0.454844 0.403344
Si Si7 0.389336 0.637672 0.290192
Si Si8 0.668917 0.915857 0.791245
O O1 0.241060 0.387050 0.906455
O O2 0.236001 0.484073 0.719509
O O3 0.384226 0.187379 0.846677
O O4 0.000000 0.000000 0.000000
O O5 0.880852 0.954960 0.709223
O O6 0.946714 0.601677 0.754980
O O7 0.829867 0.528196 0.960824
O O8 0.179756 0.895322 0.712241
O O9 0.479266 0.238510 0.195184
O O10 0.603151 0.738990 0.953736
O O11 0.526899 0.236394 0.560080
O O12 0.212702 0.271057 0.662428
O O13 0.355087 0.385347 0.441184
O O14 0.884136 0.341323 0.441288
O O15 0.259392 0.515716 0.283089
O O16 0.000000 0.000000 0.500000
O O17 0.320180 0.806146 0.296184
#
# Coordination Sequence:
#
# PCOD8006025 Si02
#       8
#     2   2   2   2   2   2   2   2
#     4  11  24  45  65  99 138 177 227 276 336 406
#     4  10  20  39  64  95 133 169 218 278 338 389
#     4   9  21  43  66  93 141 174 224 279 332 394
#     4  10  21  44  63  97 135 174 220 278 345 411
#     4  12  25  42  67 103 135 171 230 283 337 397
#     4  10  25  42  65  97 137 176 222 277 343 402
#     4  11  24  40  71  98 128 180 229 278 338 398
#     4   9  21  40  68 100 129 180 226 285 323 398
#
# _framework density 24.290029000000001
#
# number of rings (size 3 to 8) (size 9 to 14) (size 15 to 20)
#    0.750    1.000    1.250    2.250    3.500    3.000 
#    0.000    5.000    0.000    0.000    0.000    0.000 
#    0.000    0.000    0.000    0.000    0.000    0.000 
#
# Total GULP energy -198302.925461 kJ/mol
# GULP energy per Si atom -12393.932841 kJ/mol
# Density = 2.423474 g / cm^3
# Si number density = 24.290029 Si / 1000 Ang^3
#
#
#
# Elastic Constant Matrix: (Units=GPa)
#
#
# Indices 1 2 3 4 5 6 
#
# 1 100.8204 45.4520 22.0567 -6.6262 -31.0697 2.3557
# 2 45.4520 113.5373 13.7689 8.4191 -14.4445 24.2819
# 3 22.0567 13.7689 37.2949 3.5600 -19.2445 1.9738
# 4 -6.6262 8.4191 3.5600 40.5086 8.6797 -4.3346
# 5 -31.0697 -14.4445 -19.2445 8.6797 38.4860 -0.1385
# 6 2.3557 24.2819 1.9738 -4.3346 -0.1385 56.2947
#
#
#
# Elastic Compliance Matrix: (Units=1/GPa)
#
#
# Indices 1 2 3 4 5 6 
#
# 1 0.015852 -0.005467 -0.003264 0.002393 0.008581 0.002014
# 2 -0.005467 0.012687 -0.000074 -0.004396 0.001283 -0.005576
# 3 -0.003264 -0.000074 0.039395 -0.008219 0.018883 -0.001799
# 4 0.002393 -0.004396 -0.008219 0.029414 -0.010446 0.004323
# 5 0.008581 0.001283 0.018883 -0.010446 0.045182 -0.002268
# 6 0.002014 -0.005576 -0.001799 0.004323 -0.002268 0.020475
#
#
# Mechanical properties :
#
#
# Convention : Reuss Voigt Hill
#
# Bulk Modulus (GPa) = 19.87129 46.02310 32.94720
# Shear Modulus (GPa) = 25.33064 38.41619 31.87341
#
# Velocity S-wave (km/s) = 3.23281 3.98120 3.62636
# Velocity P-wave (km/s) = 4.70461 6.33417 5.57921
#
# Compressibility (1/GPa) = 0.05032386
#
# Stress axis : x y z
#
# Youngs Moduli (GPa) = 63.08473 78.82175 25.38401
#
# Poissons Ratio (x) = 0.43089 0.08285
# Poissons Ratio (y) = 0.34486 0.00188
# Poissons Ratio (z) = 0.20590 0.00585
#
# Static dielectric constant tensor:
#      x y z
#    x 4.599300 0.135650 -0.322690 
#    y 0.135650 4.229500 0.278450 
#    z -0.322690 0.278450 4.035870 
# 
# 
# High freq. dielectric constant tensor:
#      x y z
#    x 1.971070 0.013320 -0.015170 
#    y 0.013320 1.960360 0.017210 
#    z -0.015170 0.017210 1.944980 
# 
# From -- ./inp_files/556865.got.cif
#   From: 2010.06.25/outbox.cif.g09.slc.cpg/sg2_279_cif.got.tgz:556865.got - 2010.06.27 13:26:56.
