data_PCOD8006615
_publ_section_title
;
Structure prediction by ZEFSAII (Michael W. Deem and Ramdas Pophale) SiO2 
 PCOD8006615
Probable space group: P -1
;
_chemical_formula_sum "Si O2"
_cell_formula_units_Z 16
_cell_length_a 12.003497
_cell_length_b 14.703150
_cell_length_c 9.354436
_cell_angle_alpha 79.357164
_cell_angle_beta 67.489294
_cell_angle_gamma 30.621047
_cell_volume 739.167998
_symmetry_space_group_name_H-M "P -1"
_symmetry_group_IT_number 2
_symmetry_cell_setting 'triclinic'
loop_
_space_group_symop_operation_xyz
x,y,z
-x,-y,-z
loop_
_atom_site_type_symbol
_atom_site_label
_atom_site_fract_x
_atom_site_fract_y
_atom_site_fract_z
Si Si1 0.743516 0.314749 0.853680
Si Si2 0.185542 0.769811 0.595957
Si Si3 0.642578 0.500405 0.582589
Si Si4 0.435834 0.103268 0.142306
Si Si5 0.306201 0.820780 0.259630
Si Si6 0.907046 0.772938 0.202082
Si Si7 0.037969 0.366501 0.493005
Si Si8 0.786454 0.584403 0.002088
O O1 0.750709 0.362021 0.687815
O O2 0.743074 0.205412 0.853851
O O3 0.979222 0.199198 0.853171
O O4 0.500000 0.500000 0.000000
O O5 0.346085 0.701717 0.671299
O O6 0.265859 0.609775 0.577838
O O7 0.261394 0.788698 0.427831
O O8 0.896745 0.962598 0.711833
O O9 0.762805 0.519958 0.540316
O O10 0.208116 0.222844 0.317209
O O11 0.362089 0.255166 0.085375
O O12 0.664002 0.949377 0.180345
O O13 0.500000 0.000000 0.000000
O O14 0.575945 0.685746 0.181801
O O15 0.855393 0.758371 0.384452
O O16 0.097707 0.580633 0.082887
O O17 0.000000 0.500000 0.500000
O O18 0.000000 0.500000 0.000000
#
# Coordination Sequence:
#
# PCOD8006615 Si02
#       8
#     2   2   2   2   2   2   2   2
#     4  10  20  40  62  88 124 170 204 268 333 381
#     4   9  20  40  62  93 124 169 215 274 328 392
#     4   9  21  37  64  91 123 167 219 261 333 394
#     4  12  27  44  68 101 132 184 229 270 343 399
#     4  10  22  39  64  93 131 164 219 272 332 397
#     4  11  24  46  67  96 139 174 227 275 338 407
#     4  11  24  43  68  96 139 181 224 277 335 408
#     4  12  25  43  68 101 136 175 224 285 336 400
#
# _framework density 21.645959000000001
#
# number of rings (size 3 to 8) (size 9 to 14) (size 15 to 20)
#    0.000    1.500    3.750    0.375    3.500    2.000 
#    0.000    1.250    0.000    0.000    0.000    0.000 
#    0.000    0.000    0.000    0.000    0.000    0.000 
#
# Total GULP energy -198225.341060 kJ/mol
# GULP energy per Si atom -12389.083816 kJ/mol
# Density = 2.159669 g / cm^3
# Si number density = 21.645959 Si / 1000 Ang^3
#
#
#
# Elastic Constant Matrix: (Units=GPa)
#
#
# Indices 1 2 3 4 5 6 
#
# 1 143.7872 42.9426 28.5015 2.8727 -3.8450 -21.7102
# 2 42.9426 103.8228 20.0649 3.3837 -2.9242 -14.3312
# 3 28.5015 20.0649 78.9184 15.9602 -2.4618 -13.9491
# 4 2.8727 3.3837 15.9602 31.4927 -3.7696 1.6147
# 5 -3.8450 -2.9242 -2.4618 -3.7696 27.7474 0.4004
# 6 -21.7102 -14.3312 -13.9491 1.6147 0.4004 31.6336
#
#
#
# Elastic Compliance Matrix: (Units=1/GPa)
#
#
# Indices 1 2 3 4 5 6 
#
# 1 0.008730 -0.002706 -0.001804 0.000296 0.000748 0.003946
# 2 -0.002706 0.011418 -0.001351 -0.000361 0.000620 0.002731
# 3 -0.001804 -0.001351 0.016363 -0.008298 -0.000151 0.005791
# 4 0.000296 -0.000361 -0.008298 0.036775 0.004343 -0.005552
# 5 0.000748 0.000620 -0.000151 0.004343 0.036784 0.000040
# 6 0.003946 0.002731 0.005791 -0.005552 0.000040 0.038393
#
#
# Mechanical properties :
#
#
# Convention : Reuss Voigt Hill
#
# Bulk Modulus (GPa) = 40.33887 56.61625 48.47756
# Shear Modulus (GPa) = 29.68236 33.84270 31.76253
#
# Velocity S-wave (km/s) = 3.70708 3.95836 3.83478
# Velocity P-wave (km/s) = 6.08272 6.86322 6.48472
#
# Compressibility (1/GPa) = 0.02478998
#
# Stress axis : x y z
#
# Youngs Moduli (GPa) = 114.54240 87.57826 61.11241
#
# Poissons Ratio (x) = 0.23701 0.11025
# Poissons Ratio (y) = 0.30999 0.08254
# Poissons Ratio (z) = 0.20664 0.11829
#
# Static dielectric constant tensor:
#      x y z
#    x 4.369700 -0.068520 0.105480 
#    y -0.068520 4.018210 0.114190 
#    z 0.105480 0.114190 3.982870 
# 
# 
# High freq. dielectric constant tensor:
#      x y z
#    x 1.858480 -0.009060 0.001790 
#    y -0.009060 1.849110 0.005720 
#    z 0.001790 0.005720 1.844630 
# 
# From -- ./inp_files/272856.got.cif
#   From: 2010.06.25/outbox.cif.g09.slc.cpg/sg2_137_cif.got.tgz:272856.got - 2010.06.27 13:26:56.
