data_PCOD8006841
_publ_section_title
;
Structure prediction by ZEFSAII (Michael W. Deem and Ramdas Pophale) SiO2 
 PCOD8006841
Probable space group: P -1
;
_chemical_formula_sum "Si O2"
_cell_formula_units_Z 16
_cell_length_a 7.678386
_cell_length_b 21.180144
_cell_length_c 14.198306
_cell_angle_alpha 154.684484
_cell_angle_beta 132.499079
_cell_angle_gamma 48.115417
_cell_volume 716.001281
_symmetry_space_group_name_H-M "P -1"
_symmetry_group_IT_number 2
_symmetry_cell_setting 'triclinic'
loop_
_space_group_symop_operation_xyz
x,y,z
-x,-y,-z
loop_
_atom_site_type_symbol
_atom_site_label
_atom_site_fract_x
_atom_site_fract_y
_atom_site_fract_z
Si Si1 0.321602 0.083698 0.323146
Si Si2 0.492969 0.757669 0.883491
Si Si3 0.476995 0.656095 0.951189
Si Si4 0.782713 0.873440 0.446622
Si Si5 0.056501 0.651060 0.492862
Si Si6 0.142598 0.608381 0.250400
Si Si7 0.214694 0.887306 0.383388
Si Si8 0.017325 0.660073 0.890324
O O1 0.225395 0.061518 0.362928
O O2 0.569213 0.147227 0.509833
O O3 0.132538 0.198821 0.348385
O O4 0.365771 0.929874 0.073761
O O5 0.551636 0.692735 0.922104
O O6 0.322453 0.662800 0.639749
O O7 0.739739 0.743208 0.893563
O O8 0.579210 0.476868 0.766893
O O9 0.186334 0.683325 0.893712
O O10 0.594471 0.759493 0.206924
O O11 0.056967 0.775884 0.399178
O O12 0.710782 0.020372 0.554776
O O13 0.050994 0.622228 0.342057
O O14 0.969092 0.515737 0.331383
O O15 0.000000 0.500000 0.000000
O O16 0.000000 0.000000 0.500000
O O17 0.136057 0.730642 0.117842
#
# Coordination Sequence:
#
# PCOD8006841 Si02
#       8
#     2   2   2   2   2   2   2   2
#     4  11  22  42  70  94 129 178 216 272 337 379
#     4  12  24  46  69  92 139 178 223 266 322 400
#     4  11  21  40  69  98 129 177 216 271 331 383
#     4  10  20  40  64  97 131 168 217 271 334 388
#     4  11  26  45  64  97 136 179 218 270 326 396
#     4   9  21  40  66  93 133 172 211 275 335 377
#     4  12  22  37  65  99 132 167 216 281 330 384
#     4  12  25  40  68 102 131 173 226 269 325 398
#
# _framework density 22.346329999999998
#
# number of rings (size 3 to 8) (size 9 to 14) (size 15 to 20)
#    0.000    1.000    5.000    1.875    1.750    2.000 
#    0.000    0.000    0.000    3.000    0.000    0.000 
#    0.000    0.000    0.000    0.000    0.000    0.000 
#
# Total GULP energy -198283.416075 kJ/mol
# GULP energy per Si atom -12392.713505 kJ/mol
# Density = 2.229547 g / cm^3
# Si number density = 22.346330 Si / 1000 Ang^3
#
#
#
# Elastic Constant Matrix: (Units=GPa)
#
#
# Indices 1 2 3 4 5 6 
#
# 1 80.5376 24.5837 21.3077 3.4710 3.4408 -32.7594
# 2 24.5837 94.2867 39.1925 20.7892 -1.1335 -28.5219
# 3 21.3077 39.1925 91.0630 11.0157 12.5266 -8.9337
# 4 3.4710 20.7892 11.0157 38.8899 -8.3951 -6.7539
# 5 3.4408 -1.1335 12.5266 -8.3951 29.4421 -2.3415
# 6 -32.7594 -28.5219 -8.9337 -6.7539 -2.3415 32.9790
#
#
#
# Elastic Compliance Matrix: (Units=1/GPa)
#
#
# Indices 1 2 3 4 5 6 
#
# 1 0.022396 0.002909 -0.004708 0.002427 0.002109 0.024134
# 2 0.002909 0.018889 -0.007072 -0.004750 0.003360 0.016575
# 3 -0.004708 -0.007072 0.015885 -0.003386 -0.008063 -0.007756
# 4 0.002427 -0.004750 -0.003386 0.032077 0.010494 0.004699
# 5 0.002109 0.003360 -0.008063 0.010494 0.040896 0.007869
# 6 0.024134 0.016575 -0.007756 0.004699 0.007869 0.068051
#
#
# Mechanical properties :
#
#
# Convention : Reuss Voigt Hill
#
# Bulk Modulus (GPa) = 25.36330 48.45058 36.90694
# Shear Modulus (GPa) = 21.82651 32.31576 27.07114
#
# Velocity S-wave (km/s) = 3.12867 3.80693 3.48434
# Velocity P-wave (km/s) = 4.94229 6.40721 5.72182
#
# Compressibility (1/GPa) = 0.03942705
#
# Stress axis : x y z
#
# Youngs Moduli (GPa) = 44.64989 52.94122 62.95443
#
# Poissons Ratio (x) = -0.15398 0.29641
# Poissons Ratio (y) = -0.12987 0.44519
# Poissons Ratio (z) = 0.21023 0.37438
#
# Static dielectric constant tensor:
#      x y z
#    x 4.080690 -0.399870 -0.299630 
#    y -0.399870 4.451230 0.364670 
#    z -0.299630 0.364670 4.005800 
# 
# 
# High freq. dielectric constant tensor:
#      x y z
#    x 1.861510 -0.030350 -0.019850 
#    y -0.030350 1.881100 0.017940 
#    z -0.019850 0.017940 1.882570 
# 
# From -- ./inp_files/502833.got.cif
#   From: 2010.06.25/outbox.cif.g09.slc.cpg/sg2_252_cif.got.tgz:502833.got - 2010.06.27 13:26:56.
