data_PCOD8006743
_publ_section_title
;
Structure prediction by ZEFSAII (Michael W. Deem and Ramdas Pophale) SiO2 
 PCOD8006743
Probable space group: P -1
;
_chemical_formula_sum "Si O2"
_cell_formula_units_Z 16
_cell_length_a 19.505234
_cell_length_b 20.076225
_cell_length_c 16.626080
_cell_angle_alpha 161.075065
_cell_angle_beta 157.710164
_cell_angle_gamma 21.042923
_cell_volume 706.121752
_symmetry_space_group_name_H-M "P -1"
_symmetry_group_IT_number 2
_symmetry_cell_setting 'triclinic'
loop_
_space_group_symop_operation_xyz
x,y,z
-x,-y,-z
loop_
_atom_site_type_symbol
_atom_site_label
_atom_site_fract_x
_atom_site_fract_y
_atom_site_fract_z
Si Si1 0.830767 0.234139 0.043280
Si Si2 0.063979 0.134425 0.467596
Si Si3 0.553846 0.324172 0.596449
Si Si4 0.836712 0.502794 0.077907
Si Si5 0.577968 0.689500 0.389244
Si Si6 0.229465 0.467222 0.278096
Si Si7 0.092388 0.186901 0.132313
Si Si8 0.941648 0.265577 0.749733
O O1 0.657966 0.192953 0.761736
O O2 0.717406 0.432143 0.212010
O O3 0.950190 0.314208 0.200471
O O4 0.000000 0.000000 0.000000
O O5 0.924551 0.319856 0.591869
O O6 0.238899 0.918439 0.457342
O O7 0.172130 0.246872 0.656430
O O8 0.921178 0.052241 0.168521
O O9 0.620558 0.529716 0.908168
O O10 0.413730 0.340161 0.538778
O O11 0.445548 0.336907 0.408740
O O12 0.877531 0.355569 0.872489
O O13 0.017270 0.358413 0.170832
O O14 0.673695 0.856499 0.653883
O O15 0.244701 0.572147 0.328017
O O16 0.143480 0.284429 0.963923
O O17 0.000000 0.000000 0.500000
#
# Coordination Sequence:
#
# PCOD8006743 Si02
#       8
#     2   2   2   2   2   2   2   2
#     4  11  26  46  68 102 134 173 222 279 339 401
#     4  10  22  43  64  98 133 175 222 276 335 383
#     4  11  23  42  66 101 129 176 230 269 332 406
#     4  10  22  41  68  94 140 175 217 287 324 394
#     4  11  24  45  69  99 136 176 223 274 340 400
#     4  10  23  39  64  95 133 174 225 277 327 398
#     4  11  23  44  70  98 135 175 223 281 327 403
#     4  10  20  40  63  94 133 178 222 273 337 385
#
# _framework density 22.658982999999999
#
# number of rings (size 3 to 8) (size 9 to 14) (size 15 to 20)
#    0.000    1.500    2.500    3.375    3.500    3.000 
#    0.000    8.750    0.000    0.000    0.000    0.000 
#    0.000    0.000    0.000    0.000    0.000    0.000 
#
# Total GULP energy -198363.581664 kJ/mol
# GULP energy per Si atom -12397.723854 kJ/mol
# Density = 2.260741 g / cm^3
# Si number density = 22.658983 Si / 1000 Ang^3
#
#
#
# Elastic Constant Matrix: (Units=GPa)
#
#
# Indices 1 2 3 4 5 6 
#
# 1 78.6398 31.7286 15.7145 -5.6449 13.7437 16.3733
# 2 31.7286 93.8515 53.3295 -4.5015 7.3236 17.1406
# 3 15.7145 53.3295 139.7976 -1.5301 30.5690 15.9476
# 4 -5.6449 -4.5015 -1.5301 36.1327 -2.5749 1.7781
# 5 13.7437 7.3236 30.5690 -2.5749 41.7989 -4.7204
# 6 16.3733 17.1406 15.9476 1.7781 -4.7204 29.8577
#
#
#
# Elastic Compliance Matrix: (Units=1/GPa)
#
#
# Indices 1 2 3 4 5 6 
#
# 1 0.017793 -0.005122 0.002834 0.002171 -0.007990 -0.009723
# 2 -0.005122 0.016077 -0.005842 0.001305 0.002890 -0.002921
# 3 0.002834 -0.005842 0.011742 -0.000150 -0.009172 -0.005913
# 4 0.002171 0.001305 -0.000150 0.028379 0.000524 -0.003466
# 5 -0.007990 0.002890 -0.009172 0.000524 0.034254 0.013006
# 6 -0.009723 -0.002921 -0.005913 -0.003466 0.013006 0.045922
#
#
# Mechanical properties :
#
#
# Convention : Reuss Voigt Hill
#
# Bulk Modulus (GPa) = 34.06971 57.09267 45.58119
# Shear Modulus (GPa) = 27.74535 35.65894 31.70215
#
# Velocity S-wave (km/s) = 3.50305 3.97132 3.74451
# Velocity P-wave (km/s) = 5.60627 6.80292 6.23338
#
# Compressibility (1/GPa) = 0.02935159
#
# Stress axis : x y z
#
# Youngs Moduli (GPa) = 56.20134 62.20142 85.16662
#
# Poissons Ratio (x) = 0.31862 -0.24136
# Poissons Ratio (y) = 0.28789 0.49751
# Poissons Ratio (z) = -0.15927 0.36336
#
# Static dielectric constant tensor:
#      x y z
#    x 4.323770 0.226870 0.121130 
#    y 0.226870 3.827730 -0.123650 
#    z 0.121130 -0.123650 4.438200 
# 
# 
# High freq. dielectric constant tensor:
#      x y z
#    x 1.904480 0.011190 0.004370 
#    y 0.011190 1.874060 -0.005840 
#    z 0.004370 -0.005840 1.905960 
# 
# From -- ./inp_files/578527.got.cif
#   From: 2010.06.25/outbox.cif.g09.slc.cpg/sg2_290_cif.got.tgz:578527.got - 2010.06.27 13:26:56.
