data_PCOD8006235
_publ_section_title
;
Structure prediction by ZEFSAII (Michael W. Deem and Ramdas Pophale) SiO2 
 PCOD8006235
Probable space group: P -1
;
_chemical_formula_sum "Si O2"
_cell_formula_units_Z 14
_cell_length_a 15.055402
_cell_length_b 9.560696
_cell_length_c 15.265568
_cell_angle_alpha 151.639667
_cell_angle_beta 42.446836
_cell_angle_gamma 138.417490
_cell_volume 670.253697
_symmetry_space_group_name_H-M "P -1"
_symmetry_group_IT_number 2
_symmetry_cell_setting 'triclinic'
loop_
_space_group_symop_operation_xyz
x,y,z
-x,-y,-z
loop_
_atom_site_type_symbol
_atom_site_label
_atom_site_fract_x
_atom_site_fract_y
_atom_site_fract_z
Si Si1 0.849345 0.647562 0.579319
Si Si2 0.088990 0.973903 0.837646
Si Si3 0.347729 0.591338 0.746848
Si Si4 0.058405 0.220362 0.813877
Si Si5 0.382315 0.545758 0.494625
Si Si6 0.649421 0.727368 0.907673
Si Si7 0.626343 0.787390 0.158216
O O1 0.916954 0.377108 0.368330
O O2 0.747169 0.660931 0.581215
O O3 0.762921 0.603394 0.708722
O O4 0.978459 0.959092 0.658839
O O5 0.026068 0.094684 0.866576
O O6 0.246991 0.180750 0.851355
O O7 0.000000 0.000000 0.000000
O O8 0.221562 0.332508 0.740486
O O9 0.341432 0.497587 0.598681
O O10 0.486083 0.571840 0.683087
O O11 0.337934 0.935643 0.954703
O O12 0.000000 0.500000 0.000000
O O13 0.421508 0.905587 0.637360
O O14 0.496731 0.498201 0.873138
O O15 0.675921 0.729098 0.992954
#
# Coordination Sequence:
#
# PCOD8006235 Si02
#       7
#     2   2   2   2   2   2   2
#     4  11  24  42  68  93 128 173 221 271 320 387
#     4  11  26  46  66  93 133 174 222 267 326 390
#     4  10  22  43  63  93 137 164 215 263 332 375
#     4  12  26  43  66  97 131 175 213 273 328 387
#     4   9  22  41  65  93 126 173 211 276 308 389
#     4  10  20  39  66  95 130 164 218 266 323 378
#     4   9  21  40  67  91 126 173 217 267 319 380
#
# _framework density 20.887613999999999
#
# number of rings (size 3 to 8) (size 9 to 14) (size 15 to 20)
#    0.000    1.714    1.429    1.286    8.000    3.429 
#    7.714    0.000    0.000    0.000    0.000    0.000 
#    0.000    0.000    0.000    0.000    0.000    0.000 
#
# Total GULP energy -173658.781454 kJ/mol
# GULP energy per Si atom -12404.198675 kJ/mol
# Density = 2.084007 g / cm^3
# Si number density = 20.887614 Si / 1000 Ang^3
#
#
#
# Elastic Constant Matrix: (Units=GPa)
#
#
# Indices 1 2 3 4 5 6 
#
# 1 128.6581 43.7180 50.3151 19.1004 -4.9360 1.8373
# 2 43.7180 117.3342 53.4682 7.7931 3.9588 14.8488
# 3 50.3151 53.4682 139.8397 -0.3294 -3.0683 6.0880
# 4 19.1004 7.7931 -0.3294 29.0502 9.7625 8.2874
# 5 -4.9360 3.9588 -3.0683 9.7625 28.3200 4.8437
# 6 1.8373 14.8488 6.0880 8.2874 4.8437 23.4049
#
#
#
# Elastic Compliance Matrix: (Units=1/GPa)
#
#
# Indices 1 2 3 4 5 6 
#
# 1 0.011537 -0.002920 -0.003138 -0.009605 0.004672 0.004197
# 2 -0.002920 0.011901 -0.003254 0.001155 -0.001810 -0.006510
# 3 -0.003138 -0.003254 0.009593 0.003445 0.000000 -0.001405
# 4 -0.009605 0.001155 0.003445 0.050276 -0.016171 -0.015330
# 5 0.004672 -0.001810 0.000000 -0.016171 0.042338 -0.002254
# 6 0.004197 -0.006510 -0.001405 -0.015330 -0.002254 0.052787
#
#
# Mechanical properties :
#
#
# Convention : Reuss Voigt Hill
#
# Bulk Modulus (GPa) = 69.39666 75.64827 72.52247
# Shear Modulus (GPa) = 24.76999 32.04375 28.40687
#
# Velocity S-wave (km/s) = 3.44738 3.92101 3.69180
# Velocity P-wave (km/s) = 7.01013 7.53622 7.27793
#
# Compressibility (1/GPa) = 0.01440992
#
# Stress axis : x y z
#
# Youngs Moduli (GPa) = 86.67788 84.02467 104.24004
#
# Poissons Ratio (x) = 0.24532 0.32706
# Poissons Ratio (y) = 0.25307 0.33915
# Poissons Ratio (z) = 0.27196 0.27338
#
# Static dielectric constant tensor:
#      x y z
#    x 3.926270 0.137010 0.094180 
#    y 0.137010 3.925130 -0.018630 
#    z 0.094180 -0.018630 3.850040 
# 
# 
# High freq. dielectric constant tensor:
#      x y z
#    x 1.827620 0.011580 0.004540 
#    y 0.011580 1.813380 -0.001490 
#    z 0.004540 -0.001490 1.822970 
# 
# From -- ./inp_files/175918.got.cif
#   From: 2010.06.25/outbox.cif.g09.slc.cpg/sg2_88_cif.got.tgz:175918.got - 2010.06.27 13:26:56.
