data_PCOD8006146
_publ_section_title
;
Structure prediction by ZEFSAII (Michael W. Deem and Ramdas Pophale) SiO2 
 PCOD8006146
Probable space group: P -1
;
_chemical_formula_sum "Si O2"
_cell_formula_units_Z 14
_cell_length_a 10.327107
_cell_length_b 10.620754
_cell_length_c 11.718682
_cell_angle_alpha 47.360022
_cell_angle_beta 122.082932
_cell_angle_gamma 89.498772
_cell_volume 646.066878
_symmetry_space_group_name_H-M "P -1"
_symmetry_group_IT_number 2
_symmetry_cell_setting 'triclinic'
loop_
_space_group_symop_operation_xyz
x,y,z
-x,-y,-z
loop_
_atom_site_type_symbol
_atom_site_label
_atom_site_fract_x
_atom_site_fract_y
_atom_site_fract_z
Si Si1 0.900081 0.575657 0.204863
Si Si2 0.973063 0.154810 0.990780
Si Si3 0.764311 0.956333 0.606185
Si Si4 0.289664 0.728271 0.014572
Si Si5 0.346491 0.328931 0.182793
Si Si6 0.549752 0.837864 0.023523
Si Si7 0.175167 0.093851 0.586045
O O1 0.048241 0.324536 0.444411
O O2 0.020237 0.662137 0.173762
O O3 0.739916 0.628228 0.008577
O O4 0.772738 0.698724 0.182352
O O5 0.770847 0.246095 0.896862
O O6 0.124599 0.043377 0.233272
O O7 0.000000 0.000000 0.000000
O O8 0.572045 0.190897 0.364433
O O9 0.723302 0.781364 0.704556
O O10 0.880142 0.899533 0.576483
O O11 0.498693 0.676239 0.138961
O O12 0.144503 0.943657 0.740429
O O13 0.273282 0.549999 0.068200
O O14 0.401963 0.990246 0.759502
O O15 0.500000 0.000000 0.000000
#
# Coordination Sequence:
#
# PCOD8006146 Si02
#       7
#     2   2   2   2   2   2   2
#     4  11  22  42  72  87 134 171 211 263 321 382
#     4  11  24  43  62  95 129 170 213 262 317 387
#     4  10  21  40  65  94 129 166 215 264 320 383
#     4  10  23  41  63  96 132 157 222 265 314 375
#     4  10  20  39  65  97 122 170 214 267 320 366
#     4  10  23  43  62  93 136 170 209 258 320 389
#     4  10  23  40  66  99 122 167 216 262 323 369
#
# _framework density 21.669584
#
# number of rings (size 3 to 8) (size 9 to 14) (size 15 to 20)
#    0.857    0.857    1.429    2.571    0.000    8.571 
#    2.571    0.714    0.000    0.000    0.000    0.000 
#    0.000    0.000    0.000    0.000    0.000    0.000 
#
# Total GULP energy -173497.751531 kJ/mol
# GULP energy per Si atom -12392.696538 kJ/mol
# Density = 2.162026 g / cm^3
# Si number density = 21.669584 Si / 1000 Ang^3
#
#
#
# Elastic Constant Matrix: (Units=GPa)
#
#
# Indices 1 2 3 4 5 6 
#
# 1 125.2765 35.9888 34.6112 -11.9725 -12.6357 -21.0694
# 2 35.9888 140.8659 42.0254 -15.7953 -17.9983 -15.1215
# 3 34.6112 42.0254 87.5292 -29.7409 -0.3622 -4.2152
# 4 -11.9725 -15.7953 -29.7409 31.5014 0.5526 5.4782
# 5 -12.6357 -17.9983 -0.3622 0.5526 27.5207 -1.2307
# 6 -21.0694 -15.1215 -4.2152 5.4782 -1.2307 36.4512
#
#
#
# Elastic Compliance Matrix: (Units=1/GPa)
#
#
# Indices 1 2 3 4 5 6 
#
# 1 0.010577 -0.000364 -0.004088 -0.001119 0.004847 0.005822
# 2 -0.000364 0.009647 -0.004330 -0.000111 0.006244 0.003518
# 3 -0.004088 -0.004330 0.020483 0.016471 -0.004968 -0.004434
# 4 -0.001119 -0.000111 0.016471 0.047893 -0.001601 -0.006040
# 5 0.004847 0.006244 -0.004968 -0.001601 0.042903 0.006507
# 6 0.005822 0.003518 -0.004434 -0.006040 0.006507 0.032873
#
#
# Mechanical properties :
#
#
# Convention : Reuss Voigt Hill
#
# Bulk Modulus (GPa) = 43.20880 64.32472 53.76676
# Shear Modulus (GPa) = 26.36367 35.16440 30.76404
#
# Velocity S-wave (km/s) = 3.49179 4.03271 3.77196
# Velocity P-wave (km/s) = 6.01996 7.17164 6.62089
#
# Compressibility (1/GPa) = 0.02314343
#
# Stress axis : x y z
#
# Youngs Moduli (GPa) = 94.54148 103.66021 48.82149
#
# Poissons Ratio (x) = 0.03773 0.19956
# Poissons Ratio (y) = 0.03442 0.21141
# Poissons Ratio (z) = 0.38645 0.44887
#
# Static dielectric constant tensor:
#      x y z
#    x 4.064800 -0.026310 0.030080 
#    y -0.026310 3.816160 -0.038430 
#    z 0.030080 -0.038430 3.829590 
# 
# 
# High freq. dielectric constant tensor:
#      x y z
#    x 1.855580 -0.002410 -0.001890 
#    y -0.002410 1.854640 -0.005770 
#    z -0.001890 -0.005770 1.835220 
# 
# From -- ./inp_files/418961.got.cif
#   From: 2010.06.25/outbox.cif.g09.slc.cpg/sg2_210_cif.got.tgz:418961.got - 2010.06.27 13:26:56.
