data_PCOD8006982
_publ_section_title
;
Structure prediction by ZEFSAII (Michael W. Deem and Ramdas Pophale) SiO2 
 PCOD8006982
Probable space group: P -1
;
_chemical_formula_sum "Si O2"
_cell_formula_units_Z 16
_cell_length_a 17.553474
_cell_length_b 9.785448
_cell_length_c 8.425762
_cell_angle_alpha 135.493862
_cell_angle_beta 91.390128
_cell_angle_gamma 117.441964
_cell_volume 741.458607
_symmetry_space_group_name_H-M "P -1"
_symmetry_group_IT_number 2
_symmetry_cell_setting 'triclinic'
loop_
_space_group_symop_operation_xyz
x,y,z
-x,-y,-z
loop_
_atom_site_type_symbol
_atom_site_label
_atom_site_fract_x
_atom_site_fract_y
_atom_site_fract_z
Si Si1 0.991040 0.655322 0.502354
Si Si2 0.814350 0.950753 0.359841
Si Si3 0.803646 0.524130 0.504010
Si Si4 0.279071 0.595369 0.951370
Si Si5 0.834496 0.227400 0.886520
Si Si6 0.698552 0.718599 0.672804
Si Si7 0.465699 0.788436 0.957427
Si Si8 0.326103 0.051234 0.853241
O O1 0.928011 0.720027 0.642088
O O2 0.000000 0.500000 0.500000
O O3 0.104550 0.929236 0.682513
O O4 0.932695 0.489286 0.200276
O O5 0.869451 0.166427 0.683834
O O6 0.780530 0.677814 0.184716
O O7 0.711651 0.889462 0.249829
O O8 0.750197 0.450543 0.271373
O O9 0.764997 0.652619 0.697781
O O10 0.764425 0.262465 0.373554
O O11 0.404109 0.779950 0.096730
O O12 0.245756 0.742191 0.149265
O O13 0.780142 0.987426 0.804440
O O14 0.604874 0.497727 0.368090
O O15 0.651145 0.762723 0.847352
O O16 0.566128 0.868870 0.112436
O O17 0.500000 0.000000 0.000000
#
# Coordination Sequence:
#
# PCOD8006982 Si02
#       8
#     2   2   2   2   2   2   2   2
#     4  11  22  44  69  95 130 171 215 265 321 382
#     4  12  25  43  63  97 135 168 210 272 324 377
#     4  10  20  40  66  89 129 161 217 261 310 383
#     4  10  22  42  63  94 132 165 219 259 321 380
#     4  11  22  43  68  91 134 174 208 265 329 381
#     4  11  20  41  69  93 125 172 216 262 319 379
#     4  11  20  40  71  94 125 174 217 263 320 383
#     4  12  23  40  66  97 130 167 218 269 312 381
#
# _framework density 21.579087999999999
#
# number of rings (size 3 to 8) (size 9 to 14) (size 15 to 20)
#    0.000    1.000    8.750    0.750    0.000    3.500 
#    2.250    1.875    0.000    0.000    0.000    0.000 
#    0.000    0.000    0.000    0.000    0.000    0.000 
#
# Total GULP energy -198336.697840 kJ/mol
# GULP energy per Si atom -12396.043615 kJ/mol
# Density = 2.152997 g / cm^3
# Si number density = 21.579088 Si / 1000 Ang^3
#
#
#
# Elastic Constant Matrix: (Units=GPa)
#
#
# Indices 1 2 3 4 5 6 
#
# 1 79.5004 -46.1943 39.4958 5.3937 -34.9934 62.0870
# 2 -46.1943 -3.4569 34.3448 11.8884 -45.8113 63.0686
# 3 39.4958 34.3448 19.4470 10.8263 12.3336 -30.0043
# 4 5.3937 11.8884 10.8263 26.7465 -9.1276 3.8574
# 5 -34.9934 -45.8113 12.3336 -9.1276 12.2370 37.7781
# 6 62.0870 63.0686 -30.0043 3.8574 37.7781 -14.8081
#
#
#
# Elastic Compliance Matrix: (Units=1/GPa)
#
#
# Indices 1 2 3 4 5 6 
#
# 1 0.006874 -0.004003 -0.000142 -0.001148 -0.003644 0.002462
# 2 -0.004003 0.012749 0.007254 -0.010566 -0.004602 0.008321
# 3 -0.000142 0.007254 0.028832 -0.010666 0.009590 -0.006431
# 4 -0.001148 -0.010566 -0.010666 0.048714 0.005875 -0.000527
# 5 -0.003644 -0.004602 0.009590 0.005875 0.023854 0.008076
# 6 0.002462 0.008321 -0.006431 -0.000527 0.008076 0.011727
#
#
# Mechanical properties :
#
#
# Convention : Reuss Voigt Hill
#
# Bulk Modulus (GPa) = 18.29042 16.75369 17.52205
# Shear Modulus (GPa) = 34.54091 9.35803 21.94947
#
# Velocity S-wave (km/s) = 4.00517 2.08471 3.19276
# Velocity P-wave (km/s) = 5.46653 3.68448 4.66146
#
# Compressibility (1/GPa) = 0.05467344
#
# Stress axis : x y z
#
# Youngs Moduli (GPa) = 145.47639 78.43948 34.68351
#
# Poissons Ratio (x) = 0.31402 0.00491
# Poissons Ratio (y) = 0.58238 -0.25160
# Poissons Ratio (z) = 0.02061 -0.56902
#
# Static dielectric constant tensor:
#      x y z
#    x 5.248530 0.108870 0.715140 
#    y 0.108870 3.894070 0.746270 
#    z 0.715140 0.746270 9.615610 
# 
# 
# High freq. dielectric constant tensor:
#      x y z
#    x 1.868820 -0.000460 -0.006400 
#    y -0.000460 1.840920 0.010880 
#    z -0.006400 0.010880 1.821100 
# 
# From -- ./inp_files/328081.got.cif
#   From: 2010.06.25/outbox.cif.g09.slc.cpg/sg2_165_cif.got.tgz:328081.got - 2010.06.27 13:26:56.
