data_PCOD8006809
_publ_section_title
;
Structure prediction by ZEFSAII (Michael W. Deem and Ramdas Pophale) SiO2 
 PCOD8006809
Probable space group: P -1
;
_chemical_formula_sum "Si O2"
_cell_formula_units_Z 16
_cell_length_a 7.878721
_cell_length_b 11.946220
_cell_length_c 9.437609
_cell_angle_alpha 102.262856
_cell_angle_beta 113.725201
_cell_angle_gamma 71.758340
_cell_volume 768.509518
_symmetry_space_group_name_H-M "P -1"
_symmetry_group_IT_number 2
_symmetry_cell_setting 'triclinic'
loop_
_space_group_symop_operation_xyz
x,y,z
-x,-y,-z
loop_
_atom_site_type_symbol
_atom_site_label
_atom_site_fract_x
_atom_site_fract_y
_atom_site_fract_z
Si Si1 0.063530 0.158986 0.395291
Si Si2 0.104126 0.409546 0.126326
Si Si3 0.514374 0.422141 0.344509
Si Si4 0.571226 0.954573 0.358434
Si Si5 0.902950 0.849210 0.917669
Si Si6 0.300302 0.894259 0.040011
Si Si7 0.657491 0.156311 0.269136
Si Si8 0.104407 0.574897 0.648295
O O1 0.212483 0.123121 0.564609
O O2 0.157232 0.127041 0.262348
O O3 0.886814 0.099346 0.343271
O O4 0.969309 0.296903 0.408470
O O5 0.300902 0.447096 0.220401
O O6 0.147356 0.268463 0.067313
O O7 0.958783 0.432288 0.214728
O O8 0.000000 0.500000 0.000000
O O9 0.500000 0.500000 0.500000
O O10 0.587823 0.281360 0.360715
O O11 0.663016 0.462585 0.297793
O O12 0.449273 0.874453 0.216753
O O13 0.500000 0.000000 0.500000
O O14 0.552627 0.067094 0.281878
O O15 0.784188 0.966182 0.990093
O O16 0.130162 0.834458 0.010596
O O17 0.400581 0.830171 0.913877
O O18 0.000000 0.500000 0.500000
#
# Coordination Sequence:
#
# PCOD8006809 Si02
#       8
#     2   2   2   2   2   2   2   2
#     4   9  20  39  61  88 127 164 207 261 314 379
#     4  11  24  44  66  99 134 167 220 277 326 387
#     4  11  23  44  72  93 124 182 223 262 338 391
#     4  12  22  35  60 102 125 159 212 264 317 380
#     4   9  19  41  65  85 131 175 203 256 324 394
#     4  10  20  40  64  92 126 173 209 253 331 385
#     4  10  23  41  62  88 132 168 210 259 324 398
#     4  10  21  43  66  91 127 173 217 264 321 390
#
# _framework density 20.819520000000001
#
# number of rings (size 3 to 8) (size 9 to 14) (size 15 to 20)
#    0.000    1.750    2.500    2.250    1.750    0.500 
#    9.000    0.000    0.000    0.000    0.000    0.000 
#    0.000    0.000    0.000    0.000    0.000    0.000 
#
# Total GULP energy -198321.330858 kJ/mol
# GULP energy per Si atom -12395.083179 kJ/mol
# Density = 2.077213 g / cm^3
# Si number density = 20.819520 Si / 1000 Ang^3
#
#
#
# Elastic Constant Matrix: (Units=GPa)
#
#
# Indices 1 2 3 4 5 6 
#
# 1 134.4682 23.4354 50.7846 1.6392 15.4205 7.2377
# 2 23.4354 71.5024 39.3805 11.6984 -0.7623 2.6842
# 3 50.7846 39.3805 114.9802 5.5089 27.9013 -1.8855
# 4 1.6392 11.6984 5.5089 33.8706 -2.5263 0.3876
# 5 15.4205 -0.7623 27.9013 -2.5263 38.4662 7.4572
# 6 7.2377 2.6842 -1.8855 0.3876 7.4572 30.5652
#
#
#
# Elastic Compliance Matrix: (Units=1/GPa)
#
#
# Indices 1 2 3 4 5 6 
#
# 1 0.009157 -0.001023 -0.003599 0.000473 -0.000633 -0.002152
# 2 -0.001023 0.019580 -0.007717 -0.004913 0.006759 -0.003540
# 3 -0.003599 -0.007717 0.015764 -0.000620 -0.011202 0.005243
# 4 0.000473 -0.004913 -0.000620 0.031483 0.002365 -0.000695
# 5 -0.000633 0.006759 -0.011202 0.002365 0.036623 -0.010100
# 6 -0.002152 -0.003540 0.005243 -0.000695 -0.010100 0.036334
#
#
# Mechanical properties :
#
#
# Convention : Reuss Voigt Hill
#
# Bulk Modulus (GPa) = 50.44567 60.90574 55.67571
# Shear Modulus (GPa) = 27.74319 34.40376 31.07347
#
# Velocity S-wave (km/s) = 3.65438 4.06948 3.86750
# Velocity P-wave (km/s) = 6.48757 7.16928 6.83693
#
# Compressibility (1/GPa) = 0.01982331
#
# Stress axis : x y z
#
# Youngs Moduli (GPa) = 109.21111 51.07288 63.43740
#
# Poissons Ratio (x) = 0.05222 0.22828
# Poissons Ratio (y) = 0.11167 0.48957
# Poissons Ratio (z) = 0.39300 0.39415
#
# Static dielectric constant tensor:
#      x y z
#    x 4.430350 0.165720 0.241550 
#    y 0.165720 3.697080 0.221130 
#    z 0.241550 0.221130 3.704640 
# 
# 
# High freq. dielectric constant tensor:
#      x y z
#    x 1.838700 0.001170 0.013540 
#    y 0.001170 1.797500 0.024380 
#    z 0.013540 0.024380 1.800250 
# 
# From -- ./inp_files/188705.got.cif
#   From: 2010.06.25/outbox.cif.g09.slc.cpg/sg2_95_cif.got.tgz:188705.got - 2010.06.27 13:26:56.
