data_PCOD8006456
_publ_section_title
;
Structure prediction by ZEFSAII (Michael W. Deem and Ramdas Pophale) SiO2 
 PCOD8006456
Probable space group: P -1
;
_chemical_formula_sum "Si O2"
_cell_formula_units_Z 16
_cell_length_a 8.236413
_cell_length_b 24.971709
_cell_length_c 19.442899
_cell_angle_alpha 19.994289
_cell_angle_beta 30.811718
_cell_angle_gamma 40.846519
_cell_volume 670.485795
_symmetry_space_group_name_H-M "P -1"
_symmetry_group_IT_number 2
_symmetry_cell_setting 'triclinic'
loop_
_space_group_symop_operation_xyz
x,y,z
-x,-y,-z
loop_
_atom_site_type_symbol
_atom_site_label
_atom_site_fract_x
_atom_site_fract_y
_atom_site_fract_z
Si Si1 0.982870 0.381716 0.414026
Si Si2 0.468881 0.452763 0.420774
Si Si3 0.668138 0.965316 0.206602
Si Si4 0.467868 0.247727 0.879692
Si Si5 0.748348 0.361132 0.302458
Si Si6 0.752376 0.274054 0.065049
Si Si7 0.884195 0.817153 0.511003
Si Si8 0.072929 0.871586 0.944860
O O1 0.808861 0.466742 0.318669
O O2 0.720498 0.274444 0.692023
O O3 0.243605 0.535046 0.171508
O O4 0.169713 0.274514 0.432685
O O5 0.367770 0.613001 0.289520
O O6 0.528976 0.450675 0.319491
O O7 0.213274 0.280884 0.740445
O O8 0.485829 0.770849 0.504515
O O9 0.732866 0.017324 0.198814
O O10 0.432570 0.068572 0.138370
O O11 0.000000 0.000000 0.000000
O O12 0.113762 0.258111 0.971780
O O13 0.921320 0.259960 0.412032
O O14 0.000000 0.500000 0.000000
O O15 0.474999 0.183003 0.329873
O O16 0.672224 0.195070 0.113604
O O17 0.075832 0.007859 0.194501
#
# Coordination Sequence:
#
# PCOD8006456 Si02
#       8
#     2   2   2   2   2   2   2   2
#     4  10  20  39  71 103 135 181 239 294 345 420
#     4  10  21  42  71 105 137 187 237 293 345 432
#     4  12  27  44  70 108 143 186 240 303 355 424
#     4  11  22  43  74 104 144 185 239 297 358 417
#     4  11  27  50  71 102 149 191 235 295 368 426
#     4  11  22  44  67 105 140 187 240 291 357 426
#     4  11  26  42  73 101 141 190 237 299 352 425
#     4  12  23  43  67 104 142 181 247 287 353 423
#
# _framework density 23.863294
#
# number of rings (size 3 to 8) (size 9 to 14) (size 15 to 20)
#    0.000    1.000    3.750    3.000    0.000    7.500 
#    0.000    1.875    0.000    0.000    0.000    0.000 
#    0.000    0.000    0.000    0.000    0.000    0.000 
#
# Total GULP energy -198335.607504 kJ/mol
# GULP energy per Si atom -12395.975469 kJ/mol
# Density = 2.380898 g / cm^3
# Si number density = 23.863294 Si / 1000 Ang^3
#
#
#
# Elastic Constant Matrix: (Units=GPa)
#
#
# Indices 1 2 3 4 5 6 
#
# 1 58.7227 43.9622 22.0869 3.7400 -9.7181 36.0330
# 2 43.9622 145.4491 62.4959 12.2978 4.1293 61.1016
# 3 22.0869 62.4959 129.2257 4.2845 -4.7513 23.8420
# 4 3.7400 12.2978 4.2845 43.9537 6.1753 -1.2889
# 5 -9.7181 4.1293 -4.7513 6.1753 26.9957 -9.6841
# 6 36.0330 61.1016 23.8420 -1.2889 -9.6841 45.7104
#
#
#
# Elastic Compliance Matrix: (Units=1/GPa)
#
#
# Indices 1 2 3 4 5 6 
#
# 1 0.034586 0.003831 -0.001773 -0.004965 0.001464 -0.031290
# 2 0.003831 0.024026 -0.006141 -0.005407 -0.014772 -0.035214
# 3 -0.001773 -0.006141 0.010192 0.000489 0.003817 0.005112
# 4 -0.004965 -0.005407 0.000489 0.025344 -0.002717 0.011025
# 5 0.001464 -0.014772 0.003817 -0.002717 0.050921 0.027312
# 6 -0.031290 -0.035214 0.005112 0.011025 0.027312 0.097044
#
#
# Mechanical properties :
#
#
# Convention : Reuss Voigt Hill
#
# Bulk Modulus (GPa) = 16.49121 65.60971 41.05046
# Shear Modulus (GPa) = 18.48492 36.98878 27.73685
#
# Velocity S-wave (km/s) = 2.78621 3.94131 3.41298
# Velocity P-wave (km/s) = 4.15648 6.94734 5.72459
#
# Compressibility (1/GPa) = 0.06063836
#
# Stress axis : x y z
#
# Youngs Moduli (GPa) = 28.91304 41.62240 98.11507
#
# Poissons Ratio (x) = -0.15944 0.17392
# Poissons Ratio (y) = -0.11075 0.60251
# Poissons Ratio (z) = 0.05125 0.25560
#
# Static dielectric constant tensor:
#      x y z
#    x 4.447340 0.548450 -0.006410 
#    y 0.548450 4.896080 -0.369060 
#    z -0.006410 -0.369060 4.395630 
# 
# 
# High freq. dielectric constant tensor:
#      x y z
#    x 1.934080 0.027050 0.002750 
#    y 0.027050 1.963580 -0.021440 
#    z 0.002750 -0.021440 1.945370 
# 
# From -- ./inp_files/592113.got.cif
#   From: 2010.06.25/outbox.cif.g09.slc.cpg/sg2_297_cif.got.tgz:592113.got - 2010.06.27 13:26:56.
