data_PCOD8006814
_publ_section_title
;
Structure prediction by ZEFSAII (Michael W. Deem and Ramdas Pophale) SiO2 
 PCOD8006814
Probable space group: P -1
;
_chemical_formula_sum "Si O2"
_cell_formula_units_Z 12
_cell_length_a 8.558993
_cell_length_b 17.312122
_cell_length_c 11.667496
_cell_angle_alpha 31.931182
_cell_angle_beta 55.722240
_cell_angle_gamma 39.713470
_cell_volume 563.308527
_symmetry_space_group_name_H-M "P -1"
_symmetry_group_IT_number 2
_symmetry_cell_setting 'triclinic'
loop_
_space_group_symop_operation_xyz
x,y,z
-x,-y,-z
loop_
_atom_site_type_symbol
_atom_site_label
_atom_site_fract_x
_atom_site_fract_y
_atom_site_fract_z
Si Si1 0.369757 0.551120 0.255672
Si Si2 0.886700 0.902826 0.640770
Si Si3 0.892598 0.784740 0.018399
Si Si4 0.893594 0.417388 0.216957
Si Si5 0.088061 0.558633 0.553140
Si Si6 0.538113 0.816686 0.393616
O O1 0.117624 0.738655 0.059827
O O2 0.589310 0.559892 0.146544
O O3 0.469781 0.353407 0.402160
O O4 0.299658 0.553637 0.414827
O O5 0.962930 0.801543 0.612998
O O6 0.582227 0.079605 0.562057
O O7 0.000000 0.000000 0.500000
O O8 0.986910 0.738114 0.905061
O O9 0.834007 0.647845 0.249502
O O10 0.636227 0.015560 0.843823
O O11 0.947635 0.397325 0.353893
O O12 0.000000 0.500000 0.000000
O O13 0.823474 0.730463 0.381173
#
# Coordination Sequence:
#
# PCOD8006814 Si02
#       6
#     2   2   2   2   2   2
#     4  11  23  39  66  94 126 169 211 259 316 382
#     4  10  20  40  64  93 122 170 212 257 310 368
#     4   9  20  40  64  95 119 167 213 259 310 372
#     4  12  23  42  63  93 133 169 208 263 319 378
#     4  11  23  39  64  97 128 167 205 263 324 373
#     4   9  20  40  64  94 124 163 215 260 306 380
#
# _framework density 21.302713000000001
#
# number of rings (size 3 to 8) (size 9 to 14) (size 15 to 20)
#    1.000    0.667    3.333    2.500    0.000    5.333 
#    0.000    5.000    0.000   10.000    0.000    0.000 
#    0.000    0.000    0.000    0.000    0.000    0.000 
#
# Total GULP energy -148672.777736 kJ/mol
# GULP energy per Si atom -12389.398145 kJ/mol
# Density = 2.125423 g / cm^3
# Si number density = 21.302713 Si / 1000 Ang^3
#
#
#
# Elastic Constant Matrix: (Units=GPa)
#
#
# Indices 1 2 3 4 5 6 
#
# 1 107.0446 48.8244 49.6576 2.6036 1.2990 -12.4610
# 2 48.8244 102.4399 42.3487 9.3734 -0.6867 -0.9980
# 3 49.6576 42.3487 80.0148 0.6987 7.2578 -15.7701
# 4 2.6036 9.3734 0.6987 43.9762 -8.9952 0.6502
# 5 1.2990 -0.6867 7.2578 -8.9952 34.9486 4.9198
# 6 -12.4610 -0.9980 -15.7701 0.6502 4.9198 40.2001
#
#
#
# Elastic Compliance Matrix: (Units=1/GPa)
#
#
# Indices 1 2 3 4 5 6 
#
# 1 0.014448 -0.004230 -0.006425 0.000229 0.000522 0.001785
# 2 -0.004230 0.014346 -0.005743 -0.002360 0.001496 -0.003353
# 3 -0.006425 -0.005743 0.021358 0.000088 -0.005256 0.006886
# 4 0.000229 -0.002360 0.000088 0.024555 0.006407 -0.001134
# 5 0.000522 0.001496 -0.005256 0.006407 0.032195 -0.005907
# 6 0.001785 -0.003353 0.006886 -0.001134 -0.005907 0.028788
#
#
# Mechanical properties :
#
#
# Convention : Reuss Voigt Hill
#
# Bulk Modulus (GPa) = 57.62156 63.46230 60.54193
# Shear Modulus (GPa) = 28.69084 33.73623 31.21353
#
# Velocity S-wave (km/s) = 3.67388 3.98384 3.83199
# Velocity P-wave (km/s) = 6.71597 7.14260 6.93256
#
# Compressibility (1/GPa) = 0.01735462
#
# Stress axis : x y z
#
# Youngs Moduli (GPa) = 69.21513 69.70817 46.82071
#
# Poissons Ratio (x) = 0.29486 0.30083
# Poissons Ratio (y) = 0.29277 0.26891
# Poissons Ratio (z) = 0.44471 0.40036
#
# Static dielectric constant tensor:
#      x y z
#    x 3.686920 -0.033820 0.055280 
#    y -0.033820 4.238490 0.113660 
#    z 0.055280 0.113660 3.687040 
# 
# 
# High freq. dielectric constant tensor:
#      x y z
#    x 1.813090 -0.008560 0.001390 
#    y -0.008560 1.852100 0.013150 
#    z 0.001390 0.013150 1.823120 
# 
# From -- ./inp_files/275340.got.cif
#   From: 2010.06.25/outbox.cif.g09.slc.cpg/sg2_138_cif.got.tgz:275340.got - 2010.06.27 13:26:56.
