data_PCOD8006342
_publ_section_title
;
Structure prediction by ZEFSAII (Michael W. Deem and Ramdas Pophale) SiO2 
 PCOD8006342
Probable space group: P -1
;
_chemical_formula_sum "Si O2"
_cell_formula_units_Z 16
_cell_length_a 11.579162
_cell_length_b 8.634314
_cell_length_c 9.285204
_cell_angle_alpha 47.610795
_cell_angle_beta 94.897941
_cell_angle_gamma 99.998495
_cell_volume 674.585192
_symmetry_space_group_name_H-M "P -1"
_symmetry_group_IT_number 2
_symmetry_cell_setting 'triclinic'
loop_
_space_group_symop_operation_xyz
x,y,z
-x,-y,-z
loop_
_atom_site_type_symbol
_atom_site_label
_atom_site_fract_x
_atom_site_fract_y
_atom_site_fract_z
Si Si1 0.887984 0.169552 0.983485
Si Si2 0.401580 0.397703 0.659283
Si Si3 0.946858 0.637334 0.573399
Si Si4 0.858566 0.866500 0.925572
Si Si5 0.312937 0.971536 0.753470
Si Si6 0.237398 0.211883 0.343875
Si Si7 0.170142 0.501431 0.638166
Si Si8 0.438322 0.595998 0.062592
O O1 0.926048 0.400027 0.779365
O O2 0.819584 0.030904 0.933578
O O3 0.805013 0.172372 0.110532
O O4 0.000714 0.074511 0.115446
O O5 0.500000 0.500000 0.500000
O O6 0.306791 0.562650 0.567078
O O7 0.337467 0.177883 0.726404
O O8 0.461856 0.349943 0.842535
O O9 0.885164 0.775807 0.592321
O O10 0.893176 0.650851 0.400267
O O11 0.091795 0.692472 0.539106
O O12 0.791419 0.878066 0.761485
O O13 0.825110 0.629231 0.132206
O O14 0.411860 0.823351 0.864265
O O15 0.300770 0.040854 0.542847
O O16 0.323642 0.438606 0.207641
O O17 0.500000 0.500000 0.000000
#
# Coordination Sequence:
#
# PCOD8006342 Si02
#       8
#     2   2   2   2   2   2   2   2
#     4  10  21  41  69 103 137 188 232 279 353 437
#     4  12  23  47  75 102 137 194 247 285 344 423
#     4  10  20  40  71 104 145 174 233 284 355 432
#     4  10  22  41  67 103 148 178 228 289 354 429
#     4  12  25  48  74 100 141 192 240 290 358 420
#     4  12  24  47  70 107 145 184 231 297 360 420
#     4  10  20  39  68 102 135 188 222 286 348 414
#     4  12  28  49  70 103 143 186 244 302 351 410
#
# _framework density 23.718281000000001
#
# number of rings (size 3 to 8) (size 9 to 14) (size 15 to 20)
#    0.000    1.000    5.000    1.125    0.000    3.000 
#    6.750    0.000    0.000    0.000    0.000    0.000 
#    0.000    0.000    0.000    0.000    0.000    0.000 
#
# Total GULP energy -198331.936935 kJ/mol
# GULP energy per Si atom -12395.746058 kJ/mol
# Density = 2.366430 g / cm^3
# Si number density = 23.718281 Si / 1000 Ang^3
#
#
#
# Elastic Constant Matrix: (Units=GPa)
#
#
# Indices 1 2 3 4 5 6 
#
# 1 157.4124 17.8956 49.1731 3.0495 8.8014 -17.8443
# 2 17.8956 38.9910 32.0606 19.5775 16.2195 2.4875
# 3 49.1731 32.0606 127.7836 31.5409 25.5560 1.5711
# 4 3.0495 19.5775 31.5409 38.3684 1.8398 8.3413
# 5 8.8014 16.2195 25.5560 1.8398 45.5302 3.6699
# 6 -17.8443 2.4875 1.5711 8.3413 3.6699 36.0867
#
#
#
# Elastic Compliance Matrix: (Units=1/GPa)
#
#
# Indices 1 2 3 4 5 6 
#
# 1 0.008004 -0.003007 -0.003232 0.002732 0.000939 0.003579
# 2 -0.003007 0.044579 -0.002398 -0.020242 -0.013262 0.001572
# 3 -0.003232 -0.002398 0.013009 -0.009094 -0.005509 0.000663
# 4 0.002732 -0.020242 -0.009094 0.044951 0.010642 -0.008330
# 5 0.000939 -0.013262 -0.005509 0.010642 0.029478 -0.003839
# 6 0.003579 0.001572 0.000663 -0.008330 -0.003839 0.031660
#
#
# Mechanical properties :
#
#
# Convention : Reuss Voigt Hill
#
# Bulk Modulus (GPa) = 20.69601 58.04949 39.37275
# Shear Modulus (GPa) = 24.38291 39.00090 31.69190
#
# Velocity S-wave (km/s) = 3.20976 4.05944 3.65935
# Velocity P-wave (km/s) = 4.74146 6.81908 5.87287
#
# Compressibility (1/GPa) = 0.04831849
#
# Stress axis : x y z
#
# Youngs Moduli (GPa) = 124.92997 22.43208 76.86750
#
# Poissons Ratio (x) = 0.06745 0.24843
# Poissons Ratio (y) = 0.37565 0.18436
# Poissons Ratio (z) = 0.40376 0.05380
#
# Static dielectric constant tensor:
#      x y z
#    x 4.714040 -0.015880 -0.295990 
#    y -0.015880 3.945930 -0.174620 
#    z -0.295990 -0.174620 4.816460 
# 
# 
# High freq. dielectric constant tensor:
#      x y z
#    x 1.948230 -0.009080 -0.000250 
#    y -0.009080 1.909030 0.010610 
#    z -0.000250 0.010610 1.954950 
# 
# From -- ./inp_files/242169.got.cif
#   From: 2010.06.25/outbox.cif.g09.slc.cpg/sg2_122_cif.got.tgz:242169.got - 2010.06.27 13:26:56.
