data_PCOD8006191
_publ_section_title
;
Structure prediction by ZEFSAII (Michael W. Deem and Ramdas Pophale) SiO2 
 PCOD8006191
Probable space group: P -1
;
_chemical_formula_sum "Si O2"
_cell_formula_units_Z 16
_cell_length_a 11.558656
_cell_length_b 9.233550
_cell_length_c 9.389015
_cell_angle_alpha 51.773654
_cell_angle_beta 79.568390
_cell_angle_gamma 86.342319
_cell_volume 772.673375
_symmetry_space_group_name_H-M "P -1"
_symmetry_group_IT_number 2
_symmetry_cell_setting 'triclinic'
loop_
_space_group_symop_operation_xyz
x,y,z
-x,-y,-z
loop_
_atom_site_type_symbol
_atom_site_label
_atom_site_fract_x
_atom_site_fract_y
_atom_site_fract_z
Si Si1 0.345336 0.497939 0.892279
Si Si2 0.801199 0.785938 0.587207
Si Si3 0.927810 0.411093 0.837405
Si Si4 0.205848 0.120543 0.161539
Si Si5 0.612533 0.500130 0.786294
Si Si6 0.773448 0.258578 0.726903
Si Si7 0.066136 0.874107 0.758426
Si Si8 0.844938 0.366134 0.334397
O O1 0.474505 0.508619 0.787166
O O2 0.267151 0.641316 0.741785
O O3 0.280201 0.302682 0.985782
O O4 0.354860 0.540708 0.031649
O O5 0.871984 0.610728 0.731420
O O6 0.773424 0.909304 0.656089
O O7 0.678086 0.696760 0.604312
O O8 0.867951 0.919753 0.373920
O O9 0.891837 0.305846 0.763662
O O10 0.069181 0.446174 0.800946
O O11 0.878476 0.279377 0.057954
O O12 0.066743 0.116206 0.166797
O O13 0.255326 0.958866 0.153672
O O14 0.659677 0.337773 0.778011
O O15 0.798399 0.345687 0.515248
O O16 0.076894 0.800951 0.637317
#
# Coordination Sequence:
#
# PCOD8006191 Si02
#       8
#     2   2   2   2   2   2   2   2
#     4  10  22  43  72  83 117 175 218 247 309 380
#     4  10  20  39  66  90 124 167 206 255 308 368
#     4  11  23  40  59  94 134 165 205 255 309 377
#     4  11  20  38  62  96 125 163 205 256 314 375
#     4   9  22  45  65  89 122 164 214 266 304 363
#     4  11  24  38  60  92 135 158 201 267 319 356
#     4  12  21  37  67  96 125 166 214 247 308 393
#     4  12  21  38  64  95 125 168 205 255 315 379
#
# _framework density 20.707326999999999
#
# number of rings (size 3 to 8) (size 9 to 14) (size 15 to 20)
#    0.000    1.250    3.750    4.125    0.000    2.500 
#    4.500    0.625    5.500    0.000    0.000    0.000 
#    0.000    0.000    0.000    0.000    0.000    0.000 
#
# Total GULP energy -198292.948735 kJ/mol
# GULP energy per Si atom -12393.309296 kJ/mol
# Density = 2.066020 g / cm^3
# Si number density = 20.707327 Si / 1000 Ang^3
#
#
#
# Elastic Constant Matrix: (Units=GPa)
#
#
# Indices 1 2 3 4 5 6 
#
# 1 118.4473 34.2129 40.5862 -2.4364 -25.9226 8.5752
# 2 34.2129 128.5544 35.2001 5.7880 -12.9057 -6.6503
# 3 40.5862 35.2001 102.8731 -12.7412 -16.8319 0.1021
# 4 -2.4364 5.7880 -12.7412 34.6269 7.4853 -5.8792
# 5 -25.9226 -12.9057 -16.8319 7.4853 28.4038 0.7884
# 6 8.5752 -6.6503 0.1021 -5.8792 0.7884 24.8141
#
#
#
# Elastic Compliance Matrix: (Units=1/GPa)
#
#
# Indices 1 2 3 4 5 6 
#
# 1 0.012486 -0.001642 -0.003145 -0.003097 0.009763 -0.005786
# 2 -0.001642 0.009348 -0.002576 -0.002617 0.001846 0.002405
# 3 -0.003145 -0.002576 0.012790 0.004657 0.002273 0.001375
# 4 -0.003097 -0.002617 0.004657 0.034619 -0.010625 0.008890
# 5 0.009763 0.001846 0.002273 -0.010625 0.049296 -0.006972
# 6 -0.005786 0.002405 0.001375 0.008890 -0.006972 0.045266
#
#
# Mechanical properties :
#
#
# Convention : Reuss Voigt Hill
#
# Bulk Modulus (GPa) = 50.24967 63.31923 56.78445
# Shear Modulus (GPa) = 27.00329 33.56067 30.28198
#
# Velocity S-wave (km/s) = 3.61507 4.03018 3.82826
# Velocity P-wave (km/s) = 6.46098 7.23194 6.85731
#
# Compressibility (1/GPa) = 0.01990063
#
# Stress axis : x y z
#
# Youngs Moduli (GPa) = 80.08894 106.96965 78.18512
#
# Poissons Ratio (x) = 0.17561 0.24588
# Poissons Ratio (y) = 0.13148 0.20137
# Poissons Ratio (z) = 0.25187 0.27550
#
# Static dielectric constant tensor:
#      x y z
#    x 3.820960 0.194990 -0.190330 
#    y 0.194990 3.791700 -0.104270 
#    z -0.190330 -0.104270 3.652780 
# 
# 
# High freq. dielectric constant tensor:
#      x y z
#    x 1.796810 0.007270 -0.012770 
#    y 0.007270 1.808760 -0.003710 
#    z -0.012770 -0.003710 1.800710 
# 
# From -- ./inp_files/200372.got.cif
#   From: 2010.06.25/outbox.cif.g09.slc.cpg/sg2_101_cif.got.tgz:200372.got - 2010.06.27 13:26:56.
