data_PCOD8006284
_publ_section_title
;
Structure prediction by ZEFSAII (Michael W. Deem and Ramdas Pophale) SiO2 
 PCOD8006284
Probable space group: P -1
;
_chemical_formula_sum "Si O2"
_cell_formula_units_Z 16
_cell_length_a 10.682878
_cell_length_b 16.733649
_cell_length_c 12.041106
_cell_angle_alpha 129.047603
_cell_angle_beta 72.180805
_cell_angle_gamma 147.098595
_cell_volume 770.933604
_symmetry_space_group_name_H-M "P -1"
_symmetry_group_IT_number 2
_symmetry_cell_setting 'triclinic'
loop_
_space_group_symop_operation_xyz
x,y,z
-x,-y,-z
loop_
_atom_site_type_symbol
_atom_site_label
_atom_site_fract_x
_atom_site_fract_y
_atom_site_fract_z
Si Si1 0.531455 0.143219 0.605529
Si Si2 0.500534 0.544295 0.914550
Si Si3 0.024717 0.252501 0.105493
Si Si4 0.062065 0.919982 0.415266
Si Si5 0.289884 0.609058 0.021635
Si Si6 0.175075 0.834723 0.147501
Si Si7 0.034472 0.480718 0.351883
Si Si8 0.567283 0.167048 0.027916
O O1 0.729667 0.298380 0.583820
O O2 0.500000 0.000000 0.500000
O O3 0.242483 0.006783 0.547630
O O4 0.663591 0.271473 0.795521
O O5 0.520409 0.680521 0.038387
O O6 0.746143 0.677159 0.884918
O O7 0.230709 0.332794 0.732786
O O8 0.500000 0.500000 0.000000
O O9 0.117990 0.418384 0.290303
O O10 0.026467 0.282019 0.001141
O O11 0.738448 0.012278 0.014786
O O12 0.236532 0.986984 0.323420
O O13 0.000000 0.000000 0.500000
O O14 0.310260 0.666210 0.942466
O O15 0.987352 0.355018 0.893577
O O16 0.435564 0.950198 0.130346
O O17 0.000000 0.500000 0.500000
O O18 0.749445 0.291431 0.197642
#
# Coordination Sequence:
#
# PCOD8006284 Si02
#       8
#     2   2   2   2   2   2   2   2
#     4  12  26  40  66 103 137 170 218 281 343 382
#     4  11  21  42  67  91 127 177 227 270 316 404
#     4  11  22  42  65  92 124 178 224 263 321 399
#     4  11  23  36  67 101 131 166 223 279 329 386
#     4  11  22  41  68  90 130 171 223 271 323 389
#     4  10  20  39  67  90 128 170 222 267 321 388
#     4  11  25  41  63  95 137 165 211 274 338 388
#     4  11  24  40  67  97 129 171 224 268 332 395
#
# _framework density 20.754055999999999
#
# number of rings (size 3 to 8) (size 9 to 14) (size 15 to 20)
#    0.000    1.000    5.000    4.125    8.750    0.500 
#    0.000    0.000    0.000    1.500    0.000    0.000 
#    0.000    0.000    0.000    0.000    0.000    0.000 
#
# Total GULP energy -198251.524028 kJ/mol
# GULP energy per Si atom -12390.720252 kJ/mol
# Density = 2.070682 g / cm^3
# Si number density = 20.754056 Si / 1000 Ang^3
#
#
#
# Elastic Constant Matrix: (Units=GPa)
#
#
# Indices 1 2 3 4 5 6 
#
# 1 130.8782 46.2656 39.8908 -4.8329 -15.8756 18.2569
# 2 46.2656 120.0952 39.6671 -2.9510 -0.0688 13.2153
# 3 39.8908 39.6671 89.8599 -16.2917 -24.1691 5.1234
# 4 -4.8329 -2.9510 -16.2917 31.5023 4.1311 1.5864
# 5 -15.8756 -0.0688 -24.1691 4.1311 33.8678 2.1601
# 6 18.2569 13.2153 5.1234 1.5864 2.1601 41.5660
#
#
#
# Elastic Compliance Matrix: (Units=1/GPa)
#
#
# Indices 1 2 3 4 5 6 
#
# 1 0.010206 -0.002832 -0.002167 -0.000099 0.003467 -0.003492
# 2 -0.002832 0.011231 -0.005133 -0.001349 -0.004715 -0.001398
# 3 -0.002167 -0.005133 0.018852 0.007452 0.011558 -0.000625
# 4 -0.000099 -0.001349 0.007452 0.035409 0.001068 -0.001853
# 5 0.003467 -0.004715 0.011558 0.001068 0.039486 -0.003541
# 6 -0.003492 -0.001398 -0.000625 -0.001853 -0.003541 0.026368
#
#
# Mechanical properties :
#
#
# Convention : Reuss Voigt Hill
#
# Bulk Modulus (GPa) = 49.93992 65.83113 57.88553
# Shear Modulus (GPa) = 29.67491 35.72122 32.69806
#
# Velocity S-wave (km/s) = 3.78542 4.15320 3.97357
# Velocity P-wave (km/s) = 6.57426 7.40184 7.00029
#
# Compressibility (1/GPa) = 0.02002406
#
# Stress axis : x y z
#
# Youngs Moduli (GPa) = 97.97815 89.03619 53.04547
#
# Poissons Ratio (x) = 0.25219 0.11494
# Poissons Ratio (y) = 0.27751 0.27230
# Poissons Ratio (z) = 0.21231 0.45706
#
# Static dielectric constant tensor:
#      x y z
#    x 4.226310 0.310020 -0.255420 
#    y 0.310020 3.689980 -0.133190 
#    z -0.255420 -0.133190 3.940630 
# 
# 
# High freq. dielectric constant tensor:
#      x y z
#    x 1.819840 0.017060 -0.005770 
#    y 0.017060 1.799080 -0.002760 
#    z -0.005770 -0.002760 1.811600 
# 
# From -- ./inp_files/382703.got.cif
#   From: 2010.06.25/outbox.cif.g09.slc.cpg/sg2_192_cif.got.tgz:382703.got - 2010.06.27 13:26:56.
