data_PCOD8006084
_publ_section_title
;
Structure prediction by ZEFSAII (Michael W. Deem and Ramdas Pophale) SiO2 
 PCOD8006084
Probable space group: P -1
;
_chemical_formula_sum "Si O2"
_cell_formula_units_Z 14
_cell_length_a 12.850628
_cell_length_b 8.279836
_cell_length_c 8.614548
_cell_angle_alpha 88.317408
_cell_angle_beta 138.217132
_cell_angle_gamma 99.480977
_cell_volume 596.272154
_symmetry_space_group_name_H-M "P -1"
_symmetry_group_IT_number 2
_symmetry_cell_setting 'triclinic'
loop_
_space_group_symop_operation_xyz
x,y,z
-x,-y,-z
loop_
_atom_site_type_symbol
_atom_site_label
_atom_site_fract_x
_atom_site_fract_y
_atom_site_fract_z
Si Si1 0.853920 0.744435 0.590821
Si Si2 0.836087 0.288042 0.918906
Si Si3 0.135182 0.886565 0.344030
Si Si4 0.623260 0.480483 0.505352
Si Si5 0.005736 0.310663 0.537688
Si Si6 0.679328 0.145041 0.038955
Si Si7 0.540732 0.191588 0.185280
O O1 0.687973 0.656188 0.488706
O O2 0.839818 0.719196 0.387307
O O3 0.903808 0.935411 0.682683
O O4 0.997762 0.652574 0.804918
O O5 0.869653 0.148116 0.843049
O O6 0.780006 0.430526 0.754318
O O7 0.687410 0.220479 0.872557
O O8 0.999788 0.744997 0.286031
O O9 0.312112 0.890372 0.602041
O O10 0.500000 0.500000 0.500000
O O11 0.537603 0.351193 0.282482
O O12 0.857501 0.180948 0.302400
O O13 0.000000 0.500000 0.500000
O O14 0.566555 0.228794 0.026848
O O15 0.619735 0.946772 0.964742
#
# Coordination Sequence:
#
# PCOD8006084 Si02
#       7
#     2   2   2   2   2   2   2
#     4  11  22  39  62  89 126 160 213 259 305 369
#     4  10  22  39  62  87 125 162 210 258 320 354
#     4  10  21  36  65  94 121 163 209 256 310 371
#     4  11  25  40  62  92 126 168 210 257 312 370
#     4  10  20  39  65  91 123 164 207 254 312 371
#     4   9  19  36  66  86 119 165 204 250 313 369
#     4   9  20  40  61  86 129 163 206 249 318 369
#
# _framework density 23.479209999999998
#
# number of rings (size 3 to 8) (size 9 to 14) (size 15 to 20)
#    0.000    2.000    0.000    3.857    4.000    2.286 
#    0.000    0.714   18.857    0.000    0.000    0.000 
#    0.000    0.000    0.000    0.000    0.000    0.000 
#
# Total GULP energy -173484.696445 kJ/mol
# GULP energy per Si atom -12391.764032 kJ/mol
# Density = 2.342577 g / cm^3
# Si number density = 23.479210 Si / 1000 Ang^3
#
#
#
# Elastic Constant Matrix: (Units=GPa)
#
#
# Indices 1 2 3 4 5 6 
#
# 1 197.6303 68.6644 22.1832 17.4041 -35.7225 19.7459
# 2 68.6644 117.3084 18.7247 16.0712 -11.1037 13.5623
# 3 22.1832 18.7247 42.7336 11.5813 -14.7044 6.6719
# 4 17.4041 16.0712 11.5813 22.7956 -1.7299 2.8262
# 5 -35.7225 -11.1037 -14.7044 -1.7299 39.7432 2.7359
# 6 19.7459 13.5623 6.6719 2.8262 2.7359 48.0077
#
#
#
# Elastic Compliance Matrix: (Units=1/GPa)
#
#
# Indices 1 2 3 4 5 6 
#
# 1 0.007849 -0.003383 0.000929 -0.003268 0.006489 -0.002579
# 2 -0.003383 0.011523 -0.002170 -0.004337 -0.000726 -0.001266
# 3 0.000929 -0.002170 0.032476 -0.014264 0.011907 -0.004121
# 4 -0.003268 -0.004337 -0.014264 0.055922 -0.007107 0.001664
# 5 0.006489 -0.000726 0.011907 -0.007107 0.035281 -0.005711
# 6 -0.002579 -0.001266 -0.004121 0.001664 -0.005711 0.023049
#
#
# Mechanical properties :
#
#
# Convention : Reuss Voigt Hill
#
# Bulk Modulus (GPa) = 23.47390 64.09076 43.78233
# Shear Modulus (GPa) = 26.37881 38.64930 32.51405
#
# Velocity S-wave (km/s) = 3.35550 4.06163 3.72533
# Velocity P-wave (km/s) = 5.00319 7.02508 6.09851
#
# Compressibility (1/GPa) = 0.04260051
#
# Stress axis : x y z
#
# Youngs Moduli (GPa) = 127.39840 86.78576 30.79228
#
# Poissons Ratio (x) = 0.29356 -0.02860
# Poissons Ratio (y) = 0.43094 0.06681
# Poissons Ratio (z) = -0.11831 0.18829
#
# Static dielectric constant tensor:
#      x y z
#    x 4.922850 0.360650 -0.543090 
#    y 0.360650 3.944020 0.020210 
#    z -0.543090 0.020210 4.112090 
# 
# 
# High freq. dielectric constant tensor:
#      x y z
#    x 1.955340 0.013130 -0.023470 
#    y 0.013130 1.914210 0.010780 
#    z -0.023470 0.010780 1.902150 
# 
# From -- ./inp_files/244244.got.cif
#   From: 2010.06.25/outbox.cif.g09.slc.cpg/sg2_123_cif.got.tgz:244244.got - 2010.06.27 13:26:56.
