data_PCOD8006727
_publ_section_title
;
Structure prediction by ZEFSAII (Michael W. Deem and Ramdas Pophale) SiO2 
 PCOD8006727
Probable space group: P -1
;
_chemical_formula_sum "Si O2"
_cell_formula_units_Z 16
_cell_length_a 8.580810
_cell_length_b 13.671721
_cell_length_c 14.246807
_cell_angle_alpha 62.130549
_cell_angle_beta 61.827836
_cell_angle_gamma 31.378672
_cell_volume 759.579144
_symmetry_space_group_name_H-M "P -1"
_symmetry_group_IT_number 2
_symmetry_cell_setting 'triclinic'
loop_
_space_group_symop_operation_xyz
x,y,z
-x,-y,-z
loop_
_atom_site_type_symbol
_atom_site_label
_atom_site_fract_x
_atom_site_fract_y
_atom_site_fract_z
Si Si1 0.257907 0.032258 0.520186
Si Si2 0.775118 0.685164 0.422642
Si Si3 0.730637 0.409549 0.723939
Si Si4 0.299424 0.351118 0.746998
Si Si5 0.913767 0.088754 0.761270
Si Si6 0.286410 0.605500 0.603640
Si Si7 0.826041 0.178310 0.036438
Si Si8 0.805000 0.435784 0.896807
O O1 0.076862 0.067714 0.639196
O O2 0.035882 0.185117 0.431533
O O3 0.500000 0.000000 0.500000
O O4 0.459405 0.839743 0.497208
O O5 0.713414 0.662956 0.351871
O O6 0.000000 0.500000 0.500000
O O7 0.937695 0.721838 0.350119
O O8 0.769156 0.257359 0.794543
O O9 0.462672 0.579623 0.650122
O O10 0.666950 0.499330 0.801881
O O11 0.638116 0.153217 0.774497
O O12 0.219963 0.519828 0.705851
O O13 0.069059 0.391394 0.851912
O O14 0.136986 0.892566 0.839047
O O15 0.500000 0.500000 0.500000
O O16 0.460890 0.386141 0.036406
O O17 0.954467 0.238991 0.966931
O O18 0.000000 0.000000 0.000000
#
# Coordination Sequence:
#
# PCOD8006727 Si02
#       8
#     2   2   2   2   2   2   2   2
#     4  12  23  36  61  93 128 178 219 248 316 385
#     4  11  23  36  57  88 134 173 215 256 306 381
#     4  10  20  40  63  91 129 170 212 261 315 388
#     4  10  23  41  61  97 133 166 211 269 317 385
#     4  11  23  40  65  92 129 169 218 266 321 384
#     4  11  20  39  62  92 138 173 210 255 313 385
#     4  11  24  45  73  93 122 166 219 280 332 392
#     4  10  24  44  71  96 124 166 220 270 339 384
#
# _framework density 21.064294
#
# number of rings (size 3 to 8) (size 9 to 14) (size 15 to 20)
#    0.000    1.250    5.000    1.500    5.250    2.000 
#    0.000    0.625    0.000    0.000    0.000    0.000 
#    0.000    0.000    0.000    0.000    0.000    0.000 
#
# Total GULP energy -198210.334739 kJ/mol
# GULP energy per Si atom -12388.145921 kJ/mol
# Density = 2.101635 g / cm^3
# Si number density = 21.064294 Si / 1000 Ang^3
#
#
#
# Elastic Constant Matrix: (Units=GPa)
#
#
# Indices 1 2 3 4 5 6 
#
# 1 76.1027 23.4177 20.1952 7.6649 -6.8898 -14.7387
# 2 23.4177 124.0747 25.1445 -0.3016 -3.6109 1.5400
# 3 20.1952 25.1445 71.9195 -4.3256 -20.2738 3.6489
# 4 7.6649 -0.3016 -4.3256 43.0020 -7.7180 -0.1253
# 5 -6.8898 -3.6109 -20.2738 -7.7180 28.3580 -2.7213
# 6 -14.7387 1.5400 3.6489 -0.1253 -2.7213 26.9868
#
#
#
# Elastic Compliance Matrix: (Units=1/GPa)
#
#
# Indices 1 2 3 4 5 6 
#
# 1 0.017555 -0.002500 -0.004585 -0.003447 0.000730 0.010408
# 2 -0.002500 0.009085 -0.002870 -0.000087 -0.001686 -0.001666
# 3 -0.004585 -0.002870 0.020810 0.005490 0.014541 -0.003662
# 4 -0.003447 -0.000087 0.005490 0.026224 0.010071 -0.001482
# 5 0.000730 -0.001686 0.014541 0.010071 0.048697 0.003486
# 6 0.010408 -0.001666 -0.003662 -0.001482 0.003486 0.043674
#
#
# Mechanical properties :
#
#
# Convention : Reuss Voigt Hill
#
# Bulk Modulus (GPa) = 36.31192 45.51240 40.91216
# Shear Modulus (GPa) = 25.62313 33.22532 29.42423
#
# Velocity S-wave (km/s) = 3.49151 3.97587 3.74154
# Velocity P-wave (km/s) = 5.79053 6.53682 6.17496
#
# Compressibility (1/GPa) = 0.02753916
#
# Stress axis : x y z
#
# Youngs Moduli (GPa) = 56.96332 110.07608 48.05299
#
# Poissons Ratio (x) = 0.27524 0.22032
# Poissons Ratio (y) = 0.14244 0.13791
# Poissons Ratio (z) = 0.26118 0.31592
#
# Static dielectric constant tensor:
#      x y z
#    x 3.976510 -0.045990 -0.096670 
#    y -0.045990 3.806620 -0.029550 
#    z -0.096670 -0.029550 3.983780 
# 
# 
# High freq. dielectric constant tensor:
#      x y z
#    x 1.825410 -0.004380 -0.007940 
#    y -0.004380 1.819140 -0.004050 
#    z -0.007940 -0.004050 1.828860 
# 
# From -- ./inp_files/493408.got.cif
#   From: 2010.06.25/outbox.cif.g09.slc.cpg/sg2_247_cif.got.tgz:493408.got - 2010.06.27 13:26:56.
