data_PCOD8006446
_publ_section_title
;
Structure prediction by ZEFSAII (Michael W. Deem and Ramdas Pophale) SiO2 
 PCOD8006446
Probable space group: P -1
;
_chemical_formula_sum "Si O2"
_cell_formula_units_Z 14
_cell_length_a 15.482791
_cell_length_b 8.526616
_cell_length_c 9.027992
_cell_angle_alpha 122.782977
_cell_angle_beta 36.858345
_cell_angle_gamma 104.169991
_cell_volume 557.510692
_symmetry_space_group_name_H-M "P -1"
_symmetry_group_IT_number 2
_symmetry_cell_setting 'triclinic'
loop_
_space_group_symop_operation_xyz
x,y,z
-x,-y,-z
loop_
_atom_site_type_symbol
_atom_site_label
_atom_site_fract_x
_atom_site_fract_y
_atom_site_fract_z
Si Si1 0.054468 0.025637 0.186499
Si Si2 0.018078 0.576535 0.355660
Si Si3 0.735620 0.485690 0.648790
Si Si4 0.647473 0.192713 0.181701
Si Si5 0.345070 0.485108 0.879585
Si Si6 0.474972 0.098593 0.926674
Si Si7 0.202670 0.963471 0.659879
O O1 0.006062 0.189012 0.467683
O O2 0.905047 0.979324 0.311661
O O3 0.193067 0.832134 0.965124
O O4 0.115906 0.102092 0.990484
O O5 0.885187 0.539400 0.422738
O O6 0.000000 0.500000 0.500000
O O7 0.193906 0.466001 0.993922
O O8 0.763263 0.263427 0.442518
O O9 0.699149 0.486389 0.873438
O O10 0.589157 0.657243 0.856971
O O11 0.500974 0.293762 0.543167
O O12 0.627846 0.320548 0.123714
O O13 0.646632 0.972376 0.032168
O O14 0.639245 0.007330 0.572379
O O15 0.500000 0.000000 0.000000
#
# Coordination Sequence:
#
# PCOD8006446 Si02
#       7
#     2   2   2   2   2   2   2
#     4  11  23  42  69 100 127 176 221 272 319 387
#     4  10  20  39  70  95 127 168 228 260 323 390
#     4  11  22  44  68  94 133 177 217 269 329 395
#     4  11  25  43  67  97 136 172 224 267 326 395
#     4  10  23  41  67  99 129 173 219 271 323 387
#     4  12  27  41  66  99 136 172 219 275 330 390
#     4  11  25  41  68  98 140 167 220 272 332 382
#
# _framework density 25.111626999999999
#
# number of rings (size 3 to 8) (size 9 to 14) (size 15 to 20)
#    0.000    1.143    4.286    2.143    4.000    5.143 
#    0.000    0.000    0.000    6.857    0.000    0.000 
#    0.000    0.000    0.000    0.000    0.000    0.000 
#
# Total GULP energy -173509.266542 kJ/mol
# GULP energy per Si atom -12393.519039 kJ/mol
# Density = 2.505447 g / cm^3
# Si number density = 25.111627 Si / 1000 Ang^3
#
#
#
# Elastic Constant Matrix: (Units=GPa)
#
#
# Indices 1 2 3 4 5 6 
#
# 1 83.8818 20.3183 12.4047 6.2499 -24.5941 -9.5544
# 2 20.3183 62.6092 11.3649 0.7861 -8.5134 -3.7235
# 3 12.4047 11.3649 82.1230 4.3318 -30.9116 -6.0375
# 4 6.2499 0.7861 4.3318 31.2616 1.1187 -6.0715
# 5 -24.5941 -8.5134 -30.9116 1.1187 40.3889 4.1829
# 6 -9.5544 -3.7235 -6.0375 -6.0715 4.1829 28.3380
#
#
#
# Elastic Compliance Matrix: (Units=1/GPa)
#
#
# Indices 1 2 3 4 5 6 
#
# 1 0.016299 -0.004056 0.002572 -0.003275 0.010797 0.003215
# 2 -0.004056 0.017630 -0.001941 0.000796 -0.000340 0.000756
# 3 0.002572 -0.001941 0.017905 -0.003172 0.014787 0.001565
# 4 -0.003275 0.000796 -0.003172 0.034555 -0.005895 0.006598
# 5 0.010797 -0.000340 0.014787 -0.005895 0.042829 -0.000839
# 6 0.003215 0.000756 0.001565 0.006598 -0.000839 0.038343
#
#
# Mechanical properties :
#
#
# Convention : Reuss Voigt Hill
#
# Bulk Modulus (GPa) = 22.23022 35.19886 28.71454
# Shear Modulus (GPa) = 26.39839 32.29944 29.34891
#
# Velocity S-wave (km/s) = 3.24580 3.59030 3.42239
# Velocity P-wave (km/s) = 4.78735 5.58878 5.20352
#
# Compressibility (1/GPa) = 0.04498381
#
# Stress axis : x y z
#
# Youngs Moduli (GPa) = 61.35161 56.72293 55.85009
#
# Poissons Ratio (x) = 0.23007 -0.14367
# Poissons Ratio (y) = 0.24885 0.10843
# Poissons Ratio (z) = -0.15782 0.11012
#
# Static dielectric constant tensor:
#      x y z
#    x 8.986250 5.006820 0.290080 
#    y 5.006820 9.326670 0.710250 
#    z 0.290080 0.710250 5.007510 
# 
# 
# High freq. dielectric constant tensor:
#      x y z
#    x 1.984930 0.005600 -0.029740 
#    y 0.005600 1.982920 -0.000340 
#    z -0.029740 -0.000340 2.012920 
# 
# From -- ./inp_files/299428.got.cif
#   From: 2010.06.25/outbox.cif.g09.slc.cpg/sg2_150_cif.got.tgz:299428.got - 2010.06.27 13:26:56.
