data_PCOD8006281
_publ_section_title
;
Structure prediction by ZEFSAII (Michael W. Deem and Ramdas Pophale) SiO2 
 PCOD8006281
Probable space group: P -1
;
_chemical_formula_sum "Si O2"
_cell_formula_units_Z 16
_cell_length_a 17.970035
_cell_length_b 12.341600
_cell_length_c 11.106157
_cell_angle_alpha 122.702360
_cell_angle_beta 34.822242
_cell_angle_gamma 147.026565
_cell_volume 672.562378
_symmetry_space_group_name_H-M "P -1"
_symmetry_group_IT_number 2
_symmetry_cell_setting 'triclinic'
loop_
_space_group_symop_operation_xyz
x,y,z
-x,-y,-z
loop_
_atom_site_type_symbol
_atom_site_label
_atom_site_fract_x
_atom_site_fract_y
_atom_site_fract_z
Si Si1 0.493359 0.162787 0.719734
Si Si2 0.884079 0.104862 0.494525
Si Si3 0.556819 0.342867 0.303052
Si Si4 0.702294 0.731198 0.941843
Si Si5 0.742956 0.825432 0.201250
Si Si6 0.013440 0.740519 0.820101
Si Si7 0.060744 0.502851 0.552271
Si Si8 0.271622 0.706263 0.754976
O O1 0.224973 0.990329 0.753532
O O2 0.674400 0.321824 0.684704
O O3 0.640313 0.303915 0.484890
O O4 0.306206 0.121396 0.973752
O O5 0.049146 0.124976 0.338782
O O6 0.980008 0.222743 0.307334
O O7 0.904532 0.249639 0.638564
O O8 0.620588 0.846396 0.679756
O O9 0.432313 0.342283 0.557716
O O10 0.640055 0.288039 0.236573
O O11 0.767947 0.588636 0.107213
O O12 0.500000 0.500000 0.000000
O O13 0.657939 0.675794 0.110499
O O14 0.000000 0.000000 0.000000
O O15 0.026620 0.597753 0.744499
O O16 0.368231 0.926987 0.749014
O O17 0.000000 0.500000 0.500000
O O18 0.000000 0.500000 0.000000
#
# Coordination Sequence:
#
# PCOD8006281 Si02
#       8
#     2   2   2   2   2   2   2   2
#     4  11  23  40  65  90 128 167 202 265 325 376
#     4  10  22  43  62  96 130 169 218 260 316 395
#     4  11  22  40  67  96 125 165 218 272 316 380
#     4  12  23  42  69  93 132 180 213 261 335 389
#     4  11  22  43  65  95 129 166 222 268 313 392
#     4  10  22  38  68  97 120 164 220 268 323 369
#     4  10  20  39  67  89 125 167 212 260 321 385
#     4  11  24  39  63  99 127 157 210 267 330 376
#
# _framework density 23.789615999999999
#
# number of rings (size 3 to 8) (size 9 to 14) (size 15 to 20)
#    0.000    1.250    5.000    3.000    3.500    1.000 
#    0.000    3.750    0.000    5.250    0.000    0.000 
#    0.000    0.000    0.000    0.000    0.000    0.000 
#
# Total GULP energy -198270.700010 kJ/mol
# GULP energy per Si atom -12391.918751 kJ/mol
# Density = 2.373547 g / cm^3
# Si number density = 23.789616 Si / 1000 Ang^3
#
#
#
# Elastic Constant Matrix: (Units=GPa)
#
#
# Indices 1 2 3 4 5 6 
#
# 1 64.7384 12.9987 14.5793 -7.5536 -20.2017 14.0892
# 2 12.9987 95.6419 15.3951 0.2845 5.8667 34.9864
# 3 14.5793 15.3951 86.8025 -15.4706 -8.1385 4.4594
# 4 -7.5536 0.2845 -15.4706 47.4680 -7.4411 -8.3483
# 5 -20.2017 5.8667 -8.1385 -7.4411 41.7665 -6.3232
# 6 14.0892 34.9864 4.4594 -8.3483 -6.3232 29.0390
#
#
#
# Elastic Compliance Matrix: (Units=1/GPa)
#
#
# Indices 1 2 3 4 5 6 
#
# 1 0.020566 -0.001310 -0.001439 0.003438 0.009694 -0.005079
# 2 -0.001310 0.024493 -0.005274 -0.009833 -0.011923 -0.033487
# 3 -0.001439 -0.005274 0.013937 0.006538 0.005122 0.007907
# 4 0.003438 -0.009833 0.006538 0.029366 0.012633 0.020368
# 5 0.009694 -0.011923 0.005122 0.012633 0.036657 0.020489
# 6 -0.005079 -0.033487 0.007907 0.020368 0.020489 0.086348
#
#
# Mechanical properties :
#
#
# Convention : Reuss Voigt Hill
#
# Bulk Modulus (GPa) = 23.28369 37.01435 30.14902
# Shear Modulus (GPa) = 20.68420 37.26867 28.97644
#
# Velocity S-wave (km/s) = 2.95187 3.96232 3.49381
# Velocity P-wave (km/s) = 4.62889 6.04368 5.38297
#
# Compressibility (1/GPa) = 0.04294853
#
# Stress axis : x y z
#
# Youngs Moduli (GPa) = 48.62478 40.82819 71.75208
#
# Poissons Ratio (x) = 0.05350 0.10327
# Poissons Ratio (y) = 0.06371 0.37841
# Poissons Ratio (z) = 0.06998 0.21532
#
# Static dielectric constant tensor:
#      x y z
#    x 4.448480 -0.069410 -0.460190 
#    y -0.069410 5.610300 0.711950 
#    z -0.460190 0.711950 4.617350 
# 
# 
# High freq. dielectric constant tensor:
#      x y z
#    x 1.938410 0.004440 -0.038700 
#    y 0.004440 1.951880 0.011860 
#    z -0.038700 0.011860 1.933570 
# 
# From -- ./inp_files/393837.got.cif
#   From: 2010.06.25/outbox.cif.g09.slc.cpg/sg2_197_cif.got.tgz:393837.got - 2010.06.27 13:26:56.
