data_PCOD8006242
_publ_section_title
;
Structure prediction by ZEFSAII (Michael W. Deem and Ramdas Pophale) SiO2 
 PCOD8006242
Probable space group: P -1
;
_chemical_formula_sum "Si O2"
_cell_formula_units_Z 16
_cell_length_a 9.452986
_cell_length_b 16.593805
_cell_length_c 15.259770
_cell_angle_alpha 24.303839
_cell_angle_beta 84.483578
_cell_angle_gamma 68.570081
_cell_volume 720.818806
_symmetry_space_group_name_H-M "P -1"
_symmetry_group_IT_number 2
_symmetry_cell_setting 'triclinic'
loop_
_space_group_symop_operation_xyz
x,y,z
-x,-y,-z
loop_
_atom_site_type_symbol
_atom_site_label
_atom_site_fract_x
_atom_site_fract_y
_atom_site_fract_z
Si Si1 0.494650 0.707406 0.746663
Si Si2 0.494803 0.273485 0.740976
Si Si3 0.731195 0.613618 0.521588
Si Si4 0.099541 0.065289 0.990684
Si Si5 0.563575 0.458812 0.810532
Si Si6 0.230799 0.631909 0.547424
Si Si7 0.828603 0.843881 0.422723
Si Si8 0.807753 0.725604 0.736154
O O1 0.529978 0.648323 0.700301
O O2 0.662104 0.682963 0.802405
O O3 0.284825 0.996265 0.489867
O O4 0.500000 0.500000 0.000000
O O5 0.500000 0.500000 0.500000
O O6 0.406108 0.227461 0.712328
O O7 0.720969 0.001472 0.006502
O O8 0.363507 0.364065 0.744904
O O9 0.662598 0.475329 0.707107
O O10 0.718482 0.809832 0.392606
O O11 0.952620 0.375864 0.714580
O O12 0.174568 0.887573 0.249828
O O13 0.000000 0.000000 0.000000
O O14 0.354407 0.568948 0.688232
O O15 0.703817 0.155349 0.135353
O O16 0.042112 0.690251 0.528341
O O17 0.848973 0.714984 0.641419
O O18 0.000000 0.500000 0.000000
#
# Coordination Sequence:
#
# PCOD8006242 Si02
#       8
#     2   2   2   2   2   2   2   2
#     4  11  25  47  77 103 137 188 221 281 358 418
#     4  10  20  39  66  97 128 188 230 267 345 402
#     4  12  23  43  69  95 141 181 225 288 338 394
#     4  11  19  38  69  90 131 183 227 275 336 396
#     4  12  24  46  70  98 142 178 232 279 337 414
#     4  11  24  40  68 101 132 181 231 279 335 406
#     4  12  28  43  66 107 135 175 231 286 342 409
#     4  11  27  48  72 107 145 173 228 288 350 423
#
# _framework density 22.196978999999999
#
# number of rings (size 3 to 8) (size 9 to 14) (size 15 to 20)
#    0.000    0.750    8.750    0.000    1.750    4.000 
#    0.000    1.250    0.000    0.000    0.000    0.000 
#    0.000    0.000    0.000    0.000    0.000    0.000 
#
# Total GULP energy -198469.825470 kJ/mol
# GULP energy per Si atom -12404.364092 kJ/mol
# Density = 2.214646 g / cm^3
# Si number density = 22.196979 Si / 1000 Ang^3
#
#
#
# Elastic Constant Matrix: (Units=GPa)
#
#
# Indices 1 2 3 4 5 6 
#
# 1 105.8553 34.5321 48.4825 -6.4304 18.8143 1.3645
# 2 34.5321 122.9278 44.6154 -15.4653 18.6385 14.6541
# 3 48.4825 44.6154 98.0055 -9.8079 32.2140 4.6058
# 4 -6.4304 -15.4653 -9.8079 34.5155 3.2207 1.8562
# 5 18.8143 18.6385 32.2140 3.2207 39.1571 -0.8347
# 6 1.3645 14.6541 4.6058 1.8562 -0.8347 39.8162
#
#
#
# Elastic Compliance Matrix: (Units=1/GPa)
#
#
# Indices 1 2 3 4 5 6 
#
# 1 0.012497 -0.001538 -0.005150 0.000235 -0.001041 0.000701
# 2 -0.001538 0.010978 -0.002744 0.004313 -0.002668 -0.003927
# 3 -0.005150 -0.002744 0.018315 0.004177 -0.011660 -0.001372
# 4 0.000235 0.004313 0.004177 0.033125 -0.008408 -0.003799
# 5 -0.001041 -0.002668 -0.011660 -0.008408 0.037668 0.003548
# 6 0.000701 -0.003927 -0.001372 -0.003799 0.003548 0.026947
#
#
# Mechanical properties :
#
#
# Convention : Reuss Voigt Hill
#
# Bulk Modulus (GPa) = 43.61435 64.67207 54.14321
# Shear Modulus (GPa) = 30.11417 35.97501 33.04459
#
# Velocity S-wave (km/s) = 3.68731 4.03018 3.86255
# Velocity P-wave (km/s) = 6.14978 7.13129 6.65864
#
# Compressibility (1/GPa) = 0.02292823
#
# Stress axis : x y z
#
# Youngs Moduli (GPa) = 80.01734 91.09213 54.59958
#
# Poissons Ratio (x) = 0.14008 0.28116
# Poissons Ratio (y) = 0.12305 0.14981
# Poissons Ratio (z) = 0.41205 0.24993
#
# Static dielectric constant tensor:
#      x y z
#    x 4.084450 -0.290840 0.274020 
#    y -0.290840 2.396090 0.098830 
#    z 0.274020 0.098830 4.152350 
# 
# 
# High freq. dielectric constant tensor:
#      x y z
#    x 1.883880 -0.001460 0.007500 
#    y -0.001460 1.878610 -0.007000 
#    z 0.007500 -0.007000 1.872970 
# 
# From -- ./inp_files/505053.got.cif
#   From: 2010.06.25/outbox.cif.g09.slc.cpg/sg2_253_cif.got.tgz:505053.got - 2010.06.27 13:26:56.
