data_PCOD8006957
_publ_section_title
;
Structure prediction by ZEFSAII (Michael W. Deem and Ramdas Pophale) SiO2 
 PCOD8006957
Probable space group: P -1
;
_chemical_formula_sum "Si O2"
_cell_formula_units_Z 16
_cell_length_a 7.838934
_cell_length_b 11.445976
_cell_length_c 18.592617
_cell_angle_alpha 33.569050
_cell_angle_beta 88.182240
_cell_angle_gamma 109.274489
_cell_volume 704.464370
_symmetry_space_group_name_H-M "P -1"
_symmetry_group_IT_number 2
_symmetry_cell_setting 'triclinic'
loop_
_space_group_symop_operation_xyz
x,y,z
-x,-y,-z
loop_
_atom_site_type_symbol
_atom_site_label
_atom_site_fract_x
_atom_site_fract_y
_atom_site_fract_z
Si Si1 0.647017 0.431308 0.500504
Si Si2 0.562810 0.327462 0.399530
Si Si3 0.570836 0.046669 0.819336
Si Si4 0.842260 0.229898 0.352409
Si Si5 0.735887 0.888315 0.054781
Si Si6 0.276049 0.667674 0.176347
Si Si7 0.955668 0.380408 0.983043
Si Si8 0.077120 0.009587 0.146379
O O1 0.500000 0.500000 0.500000
O O2 0.535952 0.246911 0.524510
O O3 0.667392 0.256982 0.644164
O O4 0.890681 0.705019 0.334323
O O5 0.732026 0.315294 0.361489
O O6 0.653562 0.641603 0.236608
O O7 0.317641 0.102235 0.482694
O O8 0.663047 0.251534 0.782317
O O9 0.684123 0.905062 0.883275
O O10 0.303712 0.814629 0.936387
O O11 0.071546 0.343622 0.331655
O O12 0.892539 0.364658 0.204226
O O13 0.498112 0.766918 0.079504
O O14 0.925873 0.965303 0.955330
O O15 0.806621 0.172354 0.941951
O O16 0.000000 0.500000 0.000000
O O17 0.045891 0.214025 0.073675
#
# Coordination Sequence:
#
# PCOD8006957 Si02
#       8
#     2   2   2   2   2   2   2   2
#     4  12  24  41  69 103 139 182 229 281 346 404
#     4  11  24  40  67  99 136 178 223 281 339 413
#     4  11  24  46  67 102 139 175 235 280 338 415
#     4  11  24  42  65 101 135 176 226 279 349 399
#     4  10  20  40  65  98 129 168 232 269 336 403
#     4  10  22  41  71  98 133 177 223 290 330 402
#     4  12  25  45  71  98 140 182 226 286 348 411
#     4  11  24  41  71  99 128 186 229 280 338 404
#
# _framework density 22.712292000000001
#
# number of rings (size 3 to 8) (size 9 to 14) (size 15 to 20)
#    0.000    1.000    2.500    5.625    1.750    2.000 
#    0.000    0.000    0.000    0.000    0.000    0.000 
#    0.000    0.000    0.000    0.000    0.000    0.000 
#
# Total GULP energy -198266.528273 kJ/mol
# GULP energy per Si atom -12391.658017 kJ/mol
# Density = 2.266060 g / cm^3
# Si number density = 22.712292 Si / 1000 Ang^3
#
#
#
# Elastic Constant Matrix: (Units=GPa)
#
#
# Indices 1 2 3 4 5 6 
#
# 1 102.3986 34.4129 23.2707 -4.8876 -16.5593 -12.0146
# 2 34.4129 126.6995 32.3532 10.7704 -13.6432 -0.7866
# 3 23.2707 32.3532 99.8159 10.0159 -16.1638 1.6514
# 4 -4.8876 10.7704 10.0159 28.3301 3.4354 -6.4192
# 5 -16.5593 -13.6432 -16.1638 3.4354 45.6128 -0.7782
# 6 -12.0146 -0.7866 1.6514 -6.4192 -0.7782 31.3065
#
#
#
# Elastic Compliance Matrix: (Units=1/GPa)
#
#
# Indices 1 2 3 4 5 6 
#
# 1 0.012640 -0.002995 -0.002162 0.005124 0.002644 0.006006
# 2 -0.002995 0.009651 -0.001754 -0.004110 0.001460 -0.001621
# 3 -0.002162 -0.001754 0.012170 -0.004969 0.003336 -0.002451
# 4 0.005124 -0.004110 -0.004969 0.042433 -0.004143 0.010723
# 5 0.002644 0.001460 0.003336 -0.004143 0.024825 0.000643
# 6 0.006006 -0.001621 -0.002451 0.010723 0.000643 0.036551
#
#
# Mechanical properties :
#
#
# Convention : Reuss Voigt Hill
#
# Bulk Modulus (GPa) = 48.45038 56.55419 52.50228
# Shear Modulus (GPa) = 31.45222 36.97501 34.21361
#
# Velocity S-wave (km/s) = 3.72534 4.03919 3.88544
# Velocity P-wave (km/s) = 6.31528 6.83431 6.57991
#
# Compressibility (1/GPa) = 0.02063967
#
# Stress axis : x y z
#
# Youngs Moduli (GPa) = 79.11227 103.62129 82.16710
#
# Poissons Ratio (x) = 0.31033 0.17761
# Poissons Ratio (y) = 0.23693 0.14414
# Poissons Ratio (z) = 0.17101 0.18178
#
# Static dielectric constant tensor:
#      x y z
#    x 4.455830 0.019030 -0.116010 
#    y 0.019030 4.164970 0.207340 
#    z -0.116010 0.207340 4.356160 
# 
# 
# High freq. dielectric constant tensor:
#      x y z
#    x 1.911870 -0.001300 -0.017870 
#    y -0.001300 1.888520 0.015970 
#    z -0.017870 0.015970 1.905580 
# 
# From -- ./inp_files/588859.got.cif
#   From: 2010.06.25/outbox.cif.g09.slc.cpg/sg2_295_cif.got.tgz:588859.got - 2010.06.27 13:26:56.
