data_PCOD8006668
_publ_section_title
;
Structure prediction by ZEFSAII (Michael W. Deem and Ramdas Pophale) SiO2 
 PCOD8006668
Probable space group: P -1
;
_chemical_formula_sum "Si O2"
_cell_formula_units_Z 16
_cell_length_a 9.360631
_cell_length_b 14.020595
_cell_length_c 12.083345
_cell_angle_alpha 70.918159
_cell_angle_beta 45.914545
_cell_angle_gamma 44.211235
_cell_volume 746.144547
_symmetry_space_group_name_H-M "P -1"
_symmetry_group_IT_number 2
_symmetry_cell_setting 'triclinic'
loop_
_space_group_symop_operation_xyz
x,y,z
-x,-y,-z
loop_
_atom_site_type_symbol
_atom_site_label
_atom_site_fract_x
_atom_site_fract_y
_atom_site_fract_z
Si Si1 0.595934 0.607869 0.493086
Si Si2 0.899564 0.315812 0.382441
Si Si3 0.861161 0.957215 0.529812
Si Si4 0.787839 0.765857 0.975031
Si Si5 0.216767 0.872629 0.162594
Si Si6 0.226791 0.264109 0.760427
Si Si7 0.286099 0.672307 0.041420
Si Si8 0.131309 0.823068 0.840640
O O1 0.815226 0.435598 0.469479
O O2 0.386404 0.645267 0.495390
O O3 0.794649 0.622351 0.332522
O O4 0.402501 0.719321 0.653158
O O5 0.129236 0.153876 0.369727
O O6 0.012485 0.329512 0.203336
O O7 0.024972 0.888199 0.352229
O O8 0.530414 0.101007 0.643119
O O9 0.000000 0.000000 0.500000
O O10 0.857971 0.856845 0.933292
O O11 0.459110 0.858147 0.089033
O O12 0.865242 0.681532 0.081580
O O13 0.361175 0.727998 0.072576
O O14 0.000726 0.016036 0.146346
O O15 0.026489 0.260843 0.802738
O O16 0.500000 0.500000 0.000000
O O17 0.283045 0.733535 0.904787
#
# Coordination Sequence:
#
# PCOD8006668 Si02
#       8
#     2   2   2   2   2   2   2   2
#     4  10  20  40  62  94 134 167 211 272 325 386
#     4  10  22  34  61 104 132 163 212 267 335 385
#     4  12  21  40  68 102 132 165 217 275 324 391
#     4  10  22  37  70 101 131 164 217 272 332 386
#     4  12  23  42  70  97 132 176 214 267 330 391
#     4  11  23  44  67  92 135 175 215 273 323 384
#     4  11  29  47  63  93 137 176 225 267 322 391
#     4  10  22  45  68  94 130 169 218 275 327 390
#
# _framework density 21.443566000000001
#
# number of rings (size 3 to 8) (size 9 to 14) (size 15 to 20)
#    0.000    1.250    3.750    1.500    7.000    1.000 
#    2.250    0.625    0.000    0.000    0.000    0.000 
#    0.000    0.000    0.000    0.000    0.000    0.000 
#
# Total GULP energy -198229.300322 kJ/mol
# GULP energy per Si atom -12389.331270 kJ/mol
# Density = 2.139476 g / cm^3
# Si number density = 21.443566 Si / 1000 Ang^3
#
#
#
# Elastic Constant Matrix: (Units=GPa)
#
#
# Indices 1 2 3 4 5 6 
#
# 1 71.3503 38.8630 33.1318 -1.3125 7.3343 1.4505
# 2 38.8630 119.1632 33.5733 0.7928 14.2464 18.8942
# 3 33.1318 33.5733 105.4813 -15.7304 -3.0887 8.7724
# 4 -1.3125 0.7928 -15.7304 35.9678 0.6819 0.2599
# 5 7.3343 14.2464 -3.0887 0.6819 24.8612 6.3312
# 6 1.4505 18.8942 8.7724 0.2599 6.3312 29.0456
#
#
#
# Elastic Compliance Matrix: (Units=1/GPa)
#
#
# Indices 1 2 3 4 5 6 
#
# 1 0.019629 -0.005123 -0.005304 -0.001437 -0.004748 0.005002
# 2 -0.005123 0.012101 -0.002037 -0.001223 -0.004089 -0.006098
# 3 -0.005304 -0.002037 0.013055 0.005490 0.005098 -0.003513
# 4 -0.001437 -0.001223 0.005490 0.030163 0.001323 -0.001349
# 5 -0.004748 -0.004089 0.005098 0.001323 0.046821 -0.008860
# 6 0.005002 -0.006098 -0.003513 -0.001349 -0.008860 0.041150
#
#
# Mechanical properties :
#
#
# Convention : Reuss Voigt Hill
#
# Bulk Modulus (GPa) = 50.36428 56.34787 53.35607
# Shear Modulus (GPa) = 25.71153 30.67004 28.19078
#
# Velocity S-wave (km/s) = 3.46646 3.78599 3.62974
# Velocity P-wave (km/s) = 6.28965 6.74136 6.51942
#
# Compressibility (1/GPa) = 0.01985534
#
# Stress axis : x y z
#
# Youngs Moduli (GPa) = 50.94571 82.64092 76.59926
#
# Poissons Ratio (x) = 0.42337 0.40629
# Poissons Ratio (y) = 0.26100 0.15605
# Poissons Ratio (z) = 0.27022 0.16836
#
# Static dielectric constant tensor:
#      x y z
#    x 3.601460 0.122070 0.081860 
#    y 0.122070 3.893770 -0.190260 
#    z 0.081860 -0.190260 4.077390 
# 
# 
# High freq. dielectric constant tensor:
#      x y z
#    x 1.815430 0.010030 -0.006180 
#    y 0.010030 1.840980 -0.005610 
#    z -0.006180 -0.005610 1.854700 
# 
# From -- ./inp_files/329086.got.cif
#   From: 2010.06.25/outbox.cif.g09.slc.cpg/sg2_165_cif.got.tgz:329086.got - 2010.06.27 13:26:56.
