data_PCOD8006715
_publ_section_title
;
Structure prediction by ZEFSAII (Michael W. Deem and Ramdas Pophale) SiO2 
 PCOD8006715
Probable space group: P -1
;
_chemical_formula_sum "Si O2"
_cell_formula_units_Z 14
_cell_length_a 8.867228
_cell_length_b 9.205774
_cell_length_c 9.925351
_cell_angle_alpha 114.581479
_cell_angle_beta 68.199339
_cell_angle_gamma 108.703813
_cell_volume 670.700333
_symmetry_space_group_name_H-M "P -1"
_symmetry_group_IT_number 2
_symmetry_cell_setting 'triclinic'
loop_
_space_group_symop_operation_xyz
x,y,z
-x,-y,-z
loop_
_atom_site_type_symbol
_atom_site_label
_atom_site_fract_x
_atom_site_fract_y
_atom_site_fract_z
Si Si1 0.388990 0.889519 0.885269
Si Si2 0.077965 0.656962 0.620544
Si Si3 0.515824 0.090877 0.671860
Si Si4 0.149759 0.952505 0.511819
Si Si5 0.011754 0.818260 0.964024
Si Si6 0.631973 0.431285 0.345685
Si Si7 0.265783 0.273810 0.762016
O O1 0.196575 0.833049 0.970132
O O2 0.457562 0.722724 0.774217
O O3 0.396930 0.985416 0.779525
O O4 0.500000 0.000000 0.000000
O O5 0.084950 0.811733 0.583931
O O6 0.976340 0.695553 0.800591
O O7 0.255030 0.632751 0.605167
O O8 0.000000 0.500000 0.500000
O O9 0.711535 0.110005 0.653379
O O10 0.449974 0.263432 0.755836
O O11 0.500000 0.000000 0.500000
O O12 0.232320 0.115383 0.620966
O O13 0.000000 0.000000 0.500000
O O14 0.875987 0.734715 0.083384
O O15 0.000000 0.000000 0.000000
O O16 0.500000 0.500000 0.500000
O O17 0.733905 0.566252 0.264617
#
# Coordination Sequence:
#
# PCOD8006715 Si02
#       7
#     2   2   2   2   2   2   2
#     4  11  25  41  64  97 133 174 220 277 336 395
#     4  11  24  42  63  98 133 171 220 277 331 393
#     4  10  20  40  63  90 127 171 222 266 328 398
#     4  11  22  37  64  96 127 170 225 271 323 401
#     4  11  21  43  68  91 136 174 218 275 335 393
#     4  11  23  44  69  94 134 176 219 275 330 398
#     4  11  21  40  69  94 126 178 220 266 339 390
#
# _framework density 20.873702000000002
#
# number of rings (size 3 to 8) (size 9 to 14) (size 15 to 20)
#    0.000    1.143    2.857    6.000    2.000    3.429 
#    2.571    0.714    0.000    0.000    0.000    0.000 
#    0.000    0.000    0.000    0.000    0.000    0.000 
#
# Total GULP energy -173478.543688 kJ/mol
# GULP energy per Si atom -12391.324549 kJ/mol
# Density = 2.082619 g / cm^3
# Si number density = 20.873702 Si / 1000 Ang^3
#
#
#
# Elastic Constant Matrix: (Units=GPa)
#
#
# Indices 1 2 3 4 5 6 
#
# 1 130.6968 45.6669 68.2457 0.6234 -14.3243 -15.7028
# 2 45.6669 119.1975 49.8226 -2.0834 19.0450 -12.6787
# 3 68.2457 49.8226 134.8561 6.3931 -7.0985 4.0624
# 4 0.6234 -2.0834 6.3931 49.2691 9.3233 4.2177
# 5 -14.3243 19.0450 -7.0985 9.3233 35.9239 7.0274
# 6 -15.7028 -12.6787 4.0624 4.2177 7.0274 34.8421
#
#
#
# Elastic Compliance Matrix: (Units=1/GPa)
#
#
# Indices 1 2 3 4 5 6 
#
# 1 0.012341 -0.003036 -0.004941 -0.000942 0.004988 0.004141
# 2 -0.003036 0.014016 -0.004572 0.002868 -0.011509 0.006239
# 3 -0.004941 -0.004572 0.012122 -0.002053 0.004550 -0.005973
# 4 -0.000942 0.002868 -0.002053 0.022234 -0.008031 -0.000213
# 5 0.004988 -0.011509 0.004550 -0.008031 0.040814 -0.009730
# 6 0.004141 0.006239 -0.005973 -0.000213 -0.009730 0.035523
#
#
# Mechanical properties :
#
#
# Convention : Reuss Voigt Hill
#
# Bulk Modulus (GPa) = 74.73088 79.13566 76.93327
# Shear Modulus (GPa) = 30.01068 38.74136 34.37602
#
# Velocity S-wave (km/s) = 3.79585 4.31279 4.06255
# Velocity P-wave (km/s) = 7.42230 7.92428 7.67739
#
# Compressibility (1/GPa) = 0.01338135
#
# Stress axis : x y z
#
# Youngs Moduli (GPa) = 81.03133 71.34660 82.49617
#
# Poissons Ratio (x) = 0.21658 0.40764
# Poissons Ratio (y) = 0.24598 0.37716
# Poissons Ratio (z) = 0.40040 0.32618
#
# Static dielectric constant tensor:
#      x y z
#    x 3.475920 -0.283570 -0.073210 
#    y -0.283570 4.055880 0.098000 
#    z -0.073210 0.098000 3.938170 
# 
# 
# High freq. dielectric constant tensor:
#      x y z
#    x 1.814830 -0.017040 -0.020620 
#    y -0.017040 1.822270 -0.001730 
#    z -0.020620 -0.001730 1.820100 
# 
# From -- ./inp_files/159551.got.cif
#   From: 2010.06.25/outbox.cif.g09.slc.cpg/sg2_80_cif.got.tgz:159551.got - 2010.06.27 13:26:56.
