data_PCOD8006586
_publ_section_title
;
Structure prediction by ZEFSAII (Michael W. Deem and Ramdas Pophale) SiO2 
 PCOD8006586
Probable space group: P -1
;
_chemical_formula_sum "Si O2"
_cell_formula_units_Z 14
_cell_length_a 14.442169
_cell_length_b 11.557092
_cell_length_c 12.045715
_cell_angle_alpha 52.906369
_cell_angle_beta 41.465202
_cell_angle_gamma 29.767079
_cell_volume 654.068344
_symmetry_space_group_name_H-M "P -1"
_symmetry_group_IT_number 2
_symmetry_cell_setting 'triclinic'
loop_
_space_group_symop_operation_xyz
x,y,z
-x,-y,-z
loop_
_atom_site_type_symbol
_atom_site_label
_atom_site_fract_x
_atom_site_fract_y
_atom_site_fract_z
Si Si1 0.713394 0.551249 0.059628
Si Si2 0.070073 0.350498 0.129442
Si Si3 0.682528 0.482199 0.478196
Si Si4 0.408712 0.417290 0.097064
Si Si5 0.324476 0.812990 0.437917
Si Si6 0.128429 0.734794 0.347118
Si Si7 0.141775 0.053633 0.078861
O O1 0.503145 0.707029 0.242941
O O2 0.932938 0.286367 0.061656
O O3 0.768377 0.678725 0.924372
O O4 0.661294 0.528769 0.999705
O O5 0.188369 0.106646 0.119831
O O6 0.845814 0.487770 0.318439
O O7 0.000000 0.500000 0.000000
O O8 0.437148 0.725170 0.509924
O O9 0.772627 0.270311 0.448078
O O10 0.669104 0.446759 0.639534
O O11 0.190350 0.572229 0.285092
O O12 0.500000 0.500000 0.000000
O O13 0.616314 0.134785 0.095674
O O14 0.113569 0.099573 0.468819
O O15 0.101635 0.919154 0.220785
#
# Coordination Sequence:
#
# PCOD8006586 Si02
#       7
#     2   2   2   2   2   2   2
#     4  11  23  40  66  92 119 162 206 249 302 358
#     4  10  20  40  61  92 124 154 203 250 304 363
#     4  11  21  37  61  92 123 154 199 259 302 349
#     4  10  24  40  59  90 126 165 204 242 297 368
#     4  11  20  35  65  93 119 152 203 258 303 341
#     4  11  23  37  60  93 127 155 199 251 307 355
#     4  10  20  40  63  91 124 157 204 251 300 360
#
# _framework density 21.404492000000001
#
# number of rings (size 3 to 8) (size 9 to 14) (size 15 to 20)
#    0.000    1.429    4.286    3.000    2.000    4.000 
#    0.000    0.714    0.000    2.571    0.000    0.000 
#    0.000    0.000    0.000    0.000    0.000    0.000 
#
# Total GULP energy -173433.000362 kJ/mol
# GULP energy per Si atom -12388.071454 kJ/mol
# Density = 2.135577 g / cm^3
# Si number density = 21.404492 Si / 1000 Ang^3
#
#
#
# Elastic Constant Matrix: (Units=GPa)
#
#
# Indices 1 2 3 4 5 6 
#
# 1 138.0833 52.4338 53.1335 15.3122 12.7376 -6.7405
# 2 52.4338 95.2475 47.1161 30.1316 18.6939 -2.6401
# 3 53.1335 47.1161 85.5224 19.4144 1.2643 -2.8038
# 4 15.3122 30.1316 19.4144 28.9098 10.2272 4.0391
# 5 12.7376 18.6939 1.2643 10.2272 40.9341 -6.9646
# 6 -6.7405 -2.6401 -2.8038 4.0391 -6.9646 25.9574
#
#
#
# Elastic Compliance Matrix: (Units=1/GPa)
#
#
# Indices 1 2 3 4 5 6 
#
# 1 0.010499 -0.003582 -0.004938 0.001979 -0.001797 0.001039
# 2 -0.003582 0.020887 -0.005831 -0.014677 -0.004288 0.001698
# 3 -0.004938 -0.005831 0.019545 -0.006885 0.005804 0.002864
# 4 0.001979 -0.014677 -0.006885 0.059240 -0.010858 -0.013854
# 5 -0.001797 -0.004288 0.005804 -0.010858 0.031143 0.009770
# 6 0.001039 0.001698 0.002864 -0.013854 0.009770 0.044054
#
#
# Mechanical properties :
#
#
# Convention : Reuss Voigt Hill
#
# Bulk Modulus (GPa) = 44.98688 69.35780 57.17234
# Shear Modulus (GPa) = 22.57554 30.23826 26.40690
#
# Velocity S-wave (km/s) = 3.25115 3.76268 3.51623
# Velocity P-wave (km/s) = 5.92929 7.16594 6.57675
#
# Compressibility (1/GPa) = 0.02222870
#
# Stress axis : x y z
#
# Youngs Moduli (GPa) = 95.24440 47.87721 51.16517
#
# Poissons Ratio (x) = 0.17148 0.25268
# Poissons Ratio (y) = 0.34112 0.29834
# Poissons Ratio (z) = 0.47036 0.27917
#
# Static dielectric constant tensor:
#      x y z
#    x 4.268000 0.311960 0.012660 
#    y 0.311960 4.576990 0.517720 
#    z 0.012660 0.517720 4.310090 
# 
# 
# High freq. dielectric constant tensor:
#      x y z
#    x 1.829890 -0.013760 0.001940 
#    y -0.013760 1.837520 0.010540 
#    z 0.001940 0.010540 1.826660 
# 
# From -- ./inp_files/451060.got.cif
#   From: 2010.06.25/outbox.cif.g09.slc.cpg/sg2_226_cif.got.tgz:451060.got - 2010.06.27 13:26:56.
