data_PCOD8006248
_publ_section_title
;
Structure prediction by ZEFSAII (Michael W. Deem and Ramdas Pophale) SiO2 
 PCOD8006248
Probable space group: P -1
;
_chemical_formula_sum "Si O2"
_cell_formula_units_Z 16
_cell_length_a 13.747121
_cell_length_b 12.200606
_cell_length_c 8.979541
_cell_angle_alpha 48.454257
_cell_angle_beta 138.259404
_cell_angle_gamma 127.629031
_cell_volume 729.933386
_symmetry_space_group_name_H-M "P -1"
_symmetry_group_IT_number 2
_symmetry_cell_setting 'triclinic'
loop_
_space_group_symop_operation_xyz
x,y,z
-x,-y,-z
loop_
_atom_site_type_symbol
_atom_site_label
_atom_site_fract_x
_atom_site_fract_y
_atom_site_fract_z
Si Si1 0.364497 0.365670 0.012729
Si Si2 0.424281 0.697756 0.465948
Si Si3 0.165686 0.436695 0.970219
Si Si4 0.875191 0.212829 0.967294
Si Si5 0.270149 0.355046 0.603461
Si Si6 0.687979 0.774662 0.521081
Si Si7 0.963542 0.002950 0.779377
Si Si8 0.939203 0.285929 0.310977
O O1 0.441638 0.257914 0.297670
O O2 0.500000 0.500000 0.000000
O O3 0.224834 0.416184 0.889279
O O4 0.293771 0.284321 0.854743
O O5 0.286753 0.768850 0.289838
O O6 0.380110 0.517569 0.555790
O O7 0.513907 0.777156 0.350597
O O8 0.165649 0.610919 0.836337
O O9 0.000711 0.334747 0.911713
O O10 0.286972 0.392165 0.259657
O O11 0.872920 0.218799 0.138332
O O12 0.900179 0.049118 0.100911
O O13 0.287175 0.220018 0.632753
O O14 0.104417 0.385895 0.373569
O O15 0.805699 0.892651 0.649516
O O16 0.952148 0.164886 0.561026
O O17 0.000000 0.000000 0.000000
#
# Coordination Sequence:
#
# PCOD8006248 Si02
#       8
#     2   2   2   2   2   2   2   2
#     4   9  22  37  57 100 136 173 205 261 333 385
#     4  10  21  40  67  97 134 168 212 275 331 384
#     4  10  20  39  66  98 129 164 220 274 319 383
#     4  11  22  42  67 100 127 169 224 275 324 385
#     4  11  20  36  67 100 130 165 220 269 326 383
#     4  10  22  43  67  93 134 173 218 265 332 391
#     4  11  27  45  65  92 133 179 220 269 329 394
#     4  12  23  39  70 100 129 168 227 274 324 382
#
# _framework density 21.919809000000001
#
# number of rings (size 3 to 8) (size 9 to 14) (size 15 to 20)
#    0.000    1.500    3.750    1.875    5.250    4.500 
#    0.000    1.250    8.250    0.000    0.000    0.000 
#    0.000    0.000    0.000    0.000    0.000    0.000 
#
# Total GULP energy -198217.697963 kJ/mol
# GULP energy per Si atom -12388.606123 kJ/mol
# Density = 2.186992 g / cm^3
# Si number density = 21.919809 Si / 1000 Ang^3
#
#
#
# Elastic Constant Matrix: (Units=GPa)
#
#
# Indices 1 2 3 4 5 6 
#
# 1 150.6831 39.9745 57.8836 5.6463 7.6960 -15.1835
# 2 39.9745 74.0527 42.7676 2.7551 -5.5238 -18.4398
# 3 57.8836 42.7676 84.8961 0.1771 10.3506 -16.7549
# 4 5.6463 2.7551 0.1771 39.3592 -5.4099 -5.9660
# 5 7.6960 -5.5238 10.3506 -5.4099 45.7257 9.9481
# 6 -15.1835 -18.4398 -16.7549 -5.9660 9.9481 27.6236
#
#
#
# Elastic Compliance Matrix: (Units=1/GPa)
#
#
# Indices 1 2 3 4 5 6 
#
# 1 0.009267 -0.001885 -0.005083 -0.001179 -0.000960 0.000844
# 2 -0.001885 0.021427 -0.008552 0.000324 0.003371 0.006936
# 3 -0.005083 -0.008552 0.021809 0.001451 -0.006552 0.007398
# 4 -0.001179 0.000324 0.001451 0.026641 0.001857 0.005533
# 5 -0.000960 0.003371 -0.006552 0.001857 0.026630 -0.011441
# 6 0.000844 0.006936 0.007398 0.005533 -0.011441 0.051098
#
#
# Mechanical properties :
#
#
# Convention : Reuss Voigt Hill
#
# Bulk Modulus (GPa) = 46.59003 65.65371 56.12187
# Shear Modulus (GPa) = 25.63244 33.80878 29.72061
#
# Velocity S-wave (km/s) = 3.42332 3.93158 3.68622
# Velocity P-wave (km/s) = 6.07671 7.11524 6.61638
#
# Compressibility (1/GPa) = 0.02146382
#
# Stress axis : x y z
#
# Youngs Moduli (GPa) = 107.90667 46.67080 45.85269
#
# Poissons Ratio (x) = 0.08795 0.23308
# Poissons Ratio (y) = 0.20335 0.39212
# Poissons Ratio (z) = 0.54852 0.39912
#
# Static dielectric constant tensor:
#      x y z
#    x 4.276640 -0.166560 -0.128000 
#    y -0.166560 3.782630 0.264220 
#    z -0.128000 0.264220 4.224470 
# 
# 
# High freq. dielectric constant tensor:
#      x y z
#    x 1.877070 -0.001160 0.000020 
#    y -0.001160 1.833310 0.018650 
#    z 0.000020 0.018650 1.855210 
# 
# From -- ./inp_files/257207.got.cif
#   From: 2010.06.25/outbox.cif.g09.slc.cpg/sg2_129_cif.got.tgz:257207.got - 2010.06.27 13:26:56.
