data_PCOD8006755
_publ_section_title
;
Structure prediction by ZEFSAII (Michael W. Deem and Ramdas Pophale) SiO2 
 PCOD8006755
Probable space group: P -1
;
_chemical_formula_sum "Si O2"
_cell_formula_units_Z 12
_cell_length_a 16.550817
_cell_length_b 6.658634
_cell_length_c 5.192634
_cell_angle_alpha 80.250226
_cell_angle_beta 114.555535
_cell_angle_gamma 118.911349
_cell_volume 455.273720
_symmetry_space_group_name_H-M "P -1"
_symmetry_group_IT_number 2
_symmetry_cell_setting 'triclinic'
loop_
_space_group_symop_operation_xyz
x,y,z
-x,-y,-z
loop_
_atom_site_type_symbol
_atom_site_label
_atom_site_fract_x
_atom_site_fract_y
_atom_site_fract_z
Si Si1 0.484698 0.226726 0.880221
Si Si2 0.736446 0.950567 0.576632
Si Si3 0.214089 0.452778 0.246264
Si Si4 0.566519 0.270583 0.480628
Si Si5 0.828276 0.213464 0.128351
Si Si6 0.987461 0.849127 0.760686
O O1 0.373434 0.163812 0.662916
O O2 0.560787 0.383131 0.721864
O O3 0.517212 0.359718 0.169637
O O4 0.500000 0.000000 0.000000
O O5 0.768677 0.762294 0.757537
O O6 0.809393 0.102471 0.409597
O O7 0.744004 0.083581 0.822706
O O8 0.318243 0.651313 0.461879
O O9 0.122665 0.370349 0.346219
O O10 0.178237 0.545502 0.926293
O O11 0.500000 0.000000 0.500000
O O12 0.932106 0.247213 0.135279
O O13 0.000000 0.000000 0.500000
O O14 0.000000 0.000000 0.000000
#
# Coordination Sequence:
#
# PCOD8006755 Si02
#       6
#     2   2   2   2   2   2
#     4  10  20  40  63  96 140 184 229 291 346 405
#     4  12  26  45  75 108 148 192 244 298 354 438
#     4  12  27  46  79 107 143 202 237 294 379 419
#     4  10  22  41  65 101 141 181 241 287 345 427
#     4  12  25  48  73 108 150 185 242 303 357 437
#     4  12  25  50  73 108 146 185 241 303 358 438
#
# _framework density 26.357771
#
# number of rings (size 3 to 8) (size 9 to 14) (size 15 to 20)
#    0.000    0.667    3.333    5.500    0.000    6.667 
#    0.000    3.333    0.000    0.000    0.000    0.000 
#    0.000    0.000    0.000    0.000    0.000    0.000 
#
# Total GULP energy -148673.070529 kJ/mol
# GULP energy per Si atom -12389.422544 kJ/mol
# Density = 2.629778 g / cm^3
# Si number density = 26.357771 Si / 1000 Ang^3
#
#
#
# Elastic Constant Matrix: (Units=GPa)
#
#
# Indices 1 2 3 4 5 6 
#
# 1 95.1375 41.2864 54.9522 -15.7417 23.0404 7.7432
# 2 41.2864 111.9814 46.1580 -18.8209 6.2550 31.5572
# 3 54.9522 46.1580 166.9771 -22.7327 -14.4582 0.8641
# 4 -15.7417 -18.8209 -22.7327 40.2118 -3.1101 19.6485
# 5 23.0404 6.2550 -14.4582 -3.1101 61.5367 -3.1788
# 6 7.7432 31.5572 0.8641 19.6485 -3.1788 49.0459
#
#
#
# Elastic Compliance Matrix: (Units=1/GPa)
#
#
# Indices 1 2 3 4 5 6 
#
# 1 0.017097 -0.002311 -0.005111 0.003649 -0.007341 -0.003060
# 2 -0.002311 0.018116 -0.002326 0.014523 -0.001676 -0.017177
# 3 -0.005111 -0.002326 0.008867 0.001336 0.004399 0.001897
# 4 0.003649 0.014523 0.001336 0.048038 -0.001614 -0.029293
# 5 -0.007341 -0.001676 0.004399 -0.001614 0.020334 0.004124
# 6 -0.003060 -0.017177 0.001897 -0.029293 0.004124 0.043894
#
#
# Mechanical properties :
#
#
# Convention : Reuss Voigt Hill
#
# Bulk Modulus (GPa) = 40.67781 73.20992 56.94386
# Shear Modulus (GPa) = 27.16854 45.60550 36.38702
#
# Velocity S-wave (km/s) = 3.21403 4.16414 3.71954
# Velocity P-wave (km/s) = 5.40738 7.13833 6.33228
#
# Compressibility (1/GPa) = 0.02458343
#
# Stress axis : x y z
#
# Youngs Moduli (GPa) = 58.49118 55.19923 112.77993
#
# Poissons Ratio (x) = 0.12757 0.57637
# Poissons Ratio (y) = 0.13518 0.26237
# Poissons Ratio (z) = 0.29892 0.12841
#
# Static dielectric constant tensor:
#      x y z
#    x 3.868280 0.531340 2.022130 
#    y 0.531340 4.921990 -0.609010 
#    z 2.022130 -0.609010 2.131570 
# 
# 
# High freq. dielectric constant tensor:
#      x y z
#    x 2.067850 0.002050 0.018390 
#    y 0.002050 2.055980 -0.022140 
#    z 0.018390 -0.022140 2.071660 
# 
# From -- ./inp_files/103771.got.cif
#   From: 2010.06.25/outbox.cif.g09.slc.cpg/sg2_52_cif.got.tgz:103771.got - 2010.06.27 13:26:56.
