data_PCOD8006341
_publ_section_title
;
Structure prediction by ZEFSAII (Michael W. Deem and Ramdas Pophale) SiO2 
 PCOD8006341
Probable space group: P -1
;
_chemical_formula_sum "Si O2"
_cell_formula_units_Z 14
_cell_length_a 16.435799
_cell_length_b 26.045307
_cell_length_c 12.443197
_cell_angle_alpha 153.823047
_cell_angle_beta 27.913704
_cell_angle_gamma 165.299102
_cell_volume 590.504394
_symmetry_space_group_name_H-M "P -1"
_symmetry_group_IT_number 2
_symmetry_cell_setting 'triclinic'
loop_
_space_group_symop_operation_xyz
x,y,z
-x,-y,-z
loop_
_atom_site_type_symbol
_atom_site_label
_atom_site_fract_x
_atom_site_fract_y
_atom_site_fract_z
Si Si1 0.753359 0.789538 0.819624
Si Si2 0.360565 0.092015 0.568796
Si Si3 0.378815 0.563908 0.442493
Si Si4 0.329736 0.899777 0.623407
Si Si5 0.769227 0.324810 0.345346
Si Si6 0.648125 0.488500 0.040112
Si Si7 0.375861 0.706079 0.925214
O O1 0.510077 0.577115 0.779503
O O2 0.536334 0.751785 0.932398
O O3 0.988035 0.846937 0.573302
O O4 0.000000 0.000000 0.000000
O O5 0.603041 0.183001 0.549456
O O6 0.456726 0.096305 0.346105
O O7 0.421539 0.266267 0.825509
O O8 0.375365 0.654244 0.520011
O O9 0.645938 0.611059 0.208713
O O10 0.450987 0.670182 0.668241
O O11 0.047697 0.303985 0.342934
O O12 0.500000 0.000000 0.500000
O O13 0.467680 0.079228 0.876429
O O14 0.000000 0.500000 0.500000
O O15 0.977431 0.345567 0.076286
O O16 0.000000 0.500000 0.000000
#
# Coordination Sequence:
#
# PCOD8006341 Si02
#       7
#     2   2   2   2   2   2   2
#     4  10  21  42  67 102 141 179 233 294 357 424
#     4  10  21  41  69 101 137 192 234 287 359 428
#     4  12  24  43  72 102 143 191 239 301 357 426
#     4  12  21  42  71 102 146 185 229 297 364 420
#     4  10  21  43  69 103 141 191 247 285 359 438
#     4  10  20  39  68 101 138 181 239 295 351 425
#     4  12  26  42  69 112 144 185 244 297 363 432
#
# _framework density 23.708545000000001
#
# number of rings (size 3 to 8) (size 9 to 14) (size 15 to 20)
#    0.000    1.143    4.286    5.143    0.000    2.857 
#    5.143    1.429    0.000    0.000    0.000    0.000 
#    0.000    0.000    0.000    0.000    0.000    0.000 
#
# Total GULP energy -173496.007158 kJ/mol
# GULP energy per Si atom -12392.571940 kJ/mol
# Density = 2.365458 g / cm^3
# Si number density = 23.708545 Si / 1000 Ang^3
#
#
#
# Elastic Constant Matrix: (Units=GPa)
#
#
# Indices 1 2 3 4 5 6 
#
# 1 163.9372 42.2519 55.7515 -14.2911 -23.9749 -10.2120
# 2 42.2519 97.9572 52.0151 -33.8145 11.2011 -14.7115
# 3 55.7515 52.0151 116.6400 -12.6460 -17.7259 -5.8749
# 4 -14.2911 -33.8145 -12.6460 50.5288 6.3390 18.4115
# 5 -23.9749 11.2011 -17.7259 6.3390 38.1168 -4.6702
# 6 -10.2120 -14.7115 -5.8749 18.4115 -4.6702 40.7453
#
#
#
# Elastic Compliance Matrix: (Units=1/GPa)
#
#
# Indices 1 2 3 4 5 6 
#
# 1 0.008555 -0.004246 -0.001326 -0.002425 0.006695 0.002283
# 2 -0.004246 0.024304 -0.009881 0.015811 -0.017386 -0.002851
# 3 -0.001326 -0.009881 0.014649 -0.005188 0.009952 0.001697
# 4 -0.002425 0.015811 -0.005188 0.035307 -0.016104 -0.013447
# 5 0.006695 -0.017386 0.009952 -0.016104 0.043983 0.009154
# 6 0.002283 -0.002851 0.001697 -0.013447 0.009154 0.031456
#
#
# Mechanical properties :
#
#
# Convention : Reuss Voigt Hill
#
# Bulk Modulus (GPa) = 60.22954 75.39683 67.81318
# Shear Modulus (GPa) = 25.68132 41.11257 33.39695
#
# Velocity S-wave (km/s) = 3.29479 4.16875 3.75726
# Velocity P-wave (km/s) = 6.31929 7.41902 6.89113
#
# Compressibility (1/GPa) = 0.01660315
#
# Stress axis : x y z
#
# Youngs Moduli (GPa) = 116.88936 41.14527 68.26393
#
# Poissons Ratio (x) = 0.17469 0.09054
# Poissons Ratio (y) = 0.49627 0.67448
# Poissons Ratio (z) = 0.15504 0.40654
#
# Static dielectric constant tensor:
#      x y z
#    x 4.297610 -0.524410 -0.021430 
#    y -0.524410 5.803570 -0.199780 
#    z -0.021430 -0.199780 4.857580 
# 
# 
# High freq. dielectric constant tensor:
#      x y z
#    x 1.943390 -0.005010 -0.009870 
#    y -0.005010 1.927390 -0.021480 
#    z -0.009870 -0.021480 1.928940 
# 
# From -- ./inp_files/458093.got.cif
#   From: 2010.06.25/outbox.cif.g09.slc.cpg/sg2_230_cif.got.tgz:458093.got - 2010.06.27 13:26:56.
