data_PCOD8006561
_publ_section_title
;
Structure prediction by ZEFSAII (Michael W. Deem and Ramdas Pophale) SiO2 
 PCOD8006561
Probable space group: P -1
;
_chemical_formula_sum "Si O2"
_cell_formula_units_Z 16
_cell_length_a 15.014913
_cell_length_b 8.181565
_cell_length_c 15.500205
_cell_angle_alpha 90.500331
_cell_angle_beta 143.827960
_cell_angle_gamma 63.920180
_cell_volume 764.511018
_symmetry_space_group_name_H-M "P -1"
_symmetry_group_IT_number 2
_symmetry_cell_setting 'triclinic'
loop_
_space_group_symop_operation_xyz
x,y,z
-x,-y,-z
loop_
_atom_site_type_symbol
_atom_site_label
_atom_site_fract_x
_atom_site_fract_y
_atom_site_fract_z
Si Si1 0.487070 0.945704 0.136458
Si Si2 0.865553 0.655557 0.809381
Si Si3 0.437794 0.795946 0.435390
Si Si4 0.720400 0.466074 0.383748
Si Si5 0.202673 0.161421 0.755648
Si Si6 0.571675 0.337958 0.134727
Si Si7 0.475042 0.560816 0.620342
Si Si8 0.699816 0.599868 0.936348
O O1 0.514165 0.754734 0.208913
O O2 0.690158 0.793084 0.225861
O O3 0.463427 0.110781 0.188902
O O4 0.268568 0.130401 0.907135
O O5 0.696335 0.648315 0.645248
O O6 0.721281 0.931526 0.716615
O O7 0.000000 0.500000 0.000000
O O8 0.043754 0.549114 0.872262
O O9 0.363071 0.781240 0.469500
O O10 0.402708 0.679139 0.338526
O O11 0.726639 0.321984 0.316518
O O12 0.709096 0.383873 0.466195
O O13 0.941506 0.396452 0.550437
O O14 0.273986 0.927944 0.778411
O O15 0.349929 0.453242 0.012469
O O16 0.500000 0.500000 0.000000
O O17 0.647158 0.521853 0.815162
#
# Coordination Sequence:
#
# PCOD8006561 Si02
#       8
#     2   2   2   2   2   2   2   2
#     4  10  22  39  60  87 129 157 212 260 292 377
#     4  11  23  43  70  93 122 168 210 256 321 370
#     4  10  24  45  65  91 130 159 209 265 307 382
#     4  11  22  37  64  90 121 167 209 254 313 367
#     4  10  21  39  58  89 121 168 207 250 312 362
#     4  10  20  40  61  87 131 161 205 258 307 370
#     4  10  23  44  60  95 129 159 208 262 313 372
#     4  10  23  41  63  93 126 165 208 256 313 370
#
# _framework density 20.928408000000001
#
# number of rings (size 3 to 8) (size 9 to 14) (size 15 to 20)
#    0.000    1.750    2.500    0.750    3.500    1.500 
#    0.000    0.000    0.000    0.000    0.000    0.000 
#    0.000    0.000    0.000    0.000    0.000    0.000 
#
# Total GULP energy -198334.726521 kJ/mol
# GULP energy per Si atom -12395.920408 kJ/mol
# Density = 2.088077 g / cm^3
# Si number density = 20.928408 Si / 1000 Ang^3
#
#
#
# Elastic Constant Matrix: (Units=GPa)
#
#
# Indices 1 2 3 4 5 6 
#
# 1 112.3569 33.3459 54.4483 3.7482 -8.1983 1.5171
# 2 33.3459 106.6438 24.5180 9.6350 -12.8870 5.2765
# 3 54.4483 24.5180 82.4172 -3.0420 1.8018 0.0476
# 4 3.7482 9.6350 -3.0420 21.6368 3.3066 -2.9974
# 5 -8.1983 -12.8870 1.8018 3.3066 33.0046 -2.0566
# 6 1.5171 5.2765 0.0476 -2.9974 -2.0566 30.1353
#
#
#
# Elastic Compliance Matrix: (Units=1/GPa)
#
#
# Indices 1 2 3 4 5 6 
#
# 1 0.014186 -0.001516 -0.009140 -0.003719 0.003769 -0.000547
# 2 -0.001516 0.011794 -0.002851 -0.006455 0.004888 -0.002293
# 3 -0.009140 -0.002851 0.019369 0.006514 -0.005017 0.001234
# 4 -0.003719 -0.006455 0.006514 0.052811 -0.008719 0.005965
# 5 0.003769 0.004888 -0.005017 -0.008719 0.034318 0.000437
# 6 -0.000547 -0.002293 0.001234 0.005965 0.000437 0.034234
#
#
# Mechanical properties :
#
#
# Convention : Reuss Voigt Hill
#
# Bulk Modulus (GPa) = 54.54009 58.44915 56.49462
# Shear Modulus (GPa) = 25.02037 29.56239 27.29138
#
# Velocity S-wave (km/s) = 3.46138 3.76247 3.61506
# Velocity P-wave (km/s) = 6.48782 6.84570 6.66916
#
# Compressibility (1/GPa) = 0.01833514
#
# Stress axis : x y z
#
# Youngs Moduli (GPa) = 70.49225 84.79151 51.62807
#
# Poissons Ratio (x) = 0.12852 0.47190
# Poissons Ratio (y) = 0.10685 0.14718
# Poissons Ratio (z) = 0.64432 0.24173
#
# Static dielectric constant tensor:
#      x y z
#    x 4.080080 0.071240 -0.020710 
#    y 0.071240 3.837730 0.244050 
#    z -0.020710 0.244050 3.549500 
# 
# 
# High freq. dielectric constant tensor:
#      x y z
#    x 1.830970 0.008800 -0.005910 
#    y 0.008800 1.830270 0.013540 
#    z -0.005910 0.013540 1.793050 
# 
# From -- ./inp_files/307337.got.cif
#   From: 2010.06.25/outbox.cif.g09.slc.cpg/sg2_154_cif.got.tgz:307337.got - 2010.06.27 13:26:56.
