data_PCOD8006100
_publ_section_title
;
Structure prediction by ZEFSAII (Michael W. Deem and Ramdas Pophale) SiO2 
 PCOD8006100
Probable space group: P -1
;
_chemical_formula_sum "Si O2"
_cell_formula_units_Z 16
_cell_length_a 16.601871
_cell_length_b 8.986138
_cell_length_c 9.075638
_cell_angle_alpha 44.657509
_cell_angle_beta 123.338447
_cell_angle_gamma 134.527190
_cell_volume 674.961934
_symmetry_space_group_name_H-M "P -1"
_symmetry_group_IT_number 2
_symmetry_cell_setting 'triclinic'
loop_
_space_group_symop_operation_xyz
x,y,z
-x,-y,-z
loop_
_atom_site_type_symbol
_atom_site_label
_atom_site_fract_x
_atom_site_fract_y
_atom_site_fract_z
Si Si1 0.287661 0.176919 0.028973
Si Si2 0.905804 0.124864 0.445949
Si Si3 0.337129 0.646542 0.863160
Si Si4 0.064877 0.977448 0.776662
Si Si5 0.142720 0.512635 0.968688
Si Si6 0.319675 0.110421 0.446663
Si Si7 0.474613 0.680039 0.250568
Si Si8 0.649534 0.065463 0.975367
O O1 0.332948 0.472196 0.847464
O O2 0.155106 0.025034 0.958743
O O3 0.360829 0.099458 0.059690
O O4 0.306123 0.137569 0.243086
O O5 0.885957 0.004633 0.348227
O O6 0.923200 0.396940 0.265430
O O7 0.792885 0.934381 0.557651
O O8 0.020614 0.169184 0.606459
O O9 0.225398 0.470757 0.977123
O O10 0.344675 0.891628 0.637549
O O11 0.443066 0.716901 0.024584
O O12 0.947472 0.716676 0.865373
O O13 0.218107 0.733735 0.005293
O O14 0.431808 0.377559 0.437892
O O15 0.609149 0.893723 0.209047
O O16 0.412036 0.776317 0.227055
#
# Coordination Sequence:
#
# PCOD8006100 Si02
#       8
#     2   2   2   2   2   2   2   2
#     4  11  23  39  60  93 127 156 203 252 301 357
#     4  10  21  37  59  86 119 158 206 243 293 358
#     4   9  21  40  61  88 127 162 199 248 302 366
#     4  11  22  37  62  89 119 164 203 250 298 348
#     4  10  20  40  61  83 124 166 202 243 300 358
#     4  10  22  43  62  89 126 165 196 247 310 363
#     4   9  20  42  67  86 121 163 198 248 313 359
#     4  10  20  39  65  93 118 157 205 255 298 362
#
# _framework density 23.705038999999999
#
# number of rings (size 3 to 8) (size 9 to 14) (size 15 to 20)
#    0.000    2.000    1.250    2.625    0.000    5.000 
#    4.500   16.250    0.000    0.000    0.000    0.000 
#    0.000    0.000    0.000    0.000    0.000    0.000 
#
# Total GULP energy -198286.634103 kJ/mol
# GULP energy per Si atom -12392.914631 kJ/mol
# Density = 2.365109 g / cm^3
# Si number density = 23.705039 Si / 1000 Ang^3
#
#
#
# Elastic Constant Matrix: (Units=GPa)
#
#
# Indices 1 2 3 4 5 6 
#
# 1 108.5651 56.6612 33.0746 -6.3800 2.9829 -24.7599
# 2 56.6612 112.6607 43.5271 -2.3757 3.6607 -21.5105
# 3 33.0746 43.5271 95.3821 -24.5662 -8.0301 -10.6144
# 4 -6.3800 -2.3757 -24.5662 31.1424 -5.6816 7.4780
# 5 2.9829 3.6607 -8.0301 -5.6816 25.4613 -5.3366
# 6 -24.7599 -21.5105 -10.6144 7.4780 -5.3366 42.2670
#
#
#
# Elastic Compliance Matrix: (Units=1/GPa)
#
#
# Indices 1 2 3 4 5 6 
#
# 1 0.013593 -0.005128 -0.001997 -0.000452 -0.000567 0.004860
# 2 -0.005128 0.014691 -0.006672 -0.006827 -0.004417 0.003447
# 3 -0.001997 -0.006672 0.019225 0.016508 0.010665 -0.001311
# 4 -0.000452 -0.006827 0.016508 0.048910 0.015846 -0.006246
# 5 -0.000567 -0.004417 0.010665 0.015846 0.047568 0.003301
# 6 0.004860 0.003447 -0.001311 -0.006246 0.003301 0.029453
#
#
# Mechanical properties :
#
#
# Convention : Reuss Voigt Hill
#
# Bulk Modulus (GPa) = 50.21401 64.79264 57.50332
# Shear Modulus (GPa) = 24.07625 31.99714 28.03670
#
# Velocity S-wave (km/s) = 3.19040 3.67795 3.44282
# Velocity P-wave (km/s) = 5.89918 6.74008 6.33360
#
# Compressibility (1/GPa) = 0.01991476
#
# Stress axis : x y z
#
# Youngs Moduli (GPa) = 73.56579 68.06864 52.01531
#
# Poissons Ratio (x) = 0.34908 0.10385
# Poissons Ratio (y) = 0.37727 0.34707
# Poissons Ratio (z) = 0.14688 0.45418
#
# Static dielectric constant tensor:
#      x y z
#    x 4.492730 0.055870 0.373850 
#    y 0.055870 4.393880 -0.082690 
#    z 0.373850 -0.082690 4.467970 
# 
# 
# High freq. dielectric constant tensor:
#      x y z
#    x 1.949650 0.005630 0.023730 
#    y 0.005630 1.933000 -0.005580 
#    z 0.023730 -0.005580 1.948510 
# 
# From -- ./inp_files/328472.got.cif
#   From: 2010.06.25/outbox.cif.g09.slc.cpg/sg2_165_cif.got.tgz:328472.got - 2010.06.27 13:26:56.
