data_PCOD8006311
_publ_section_title
;
Structure prediction by ZEFSAII (Michael W. Deem and Ramdas Pophale) SiO2 
 PCOD8006311
Probable space group: P -1
;
_chemical_formula_sum "Si O2"
_cell_formula_units_Z 16
_cell_length_a 15.779040
_cell_length_b 8.971787
_cell_length_c 15.141511
_cell_angle_alpha 37.919357
_cell_angle_beta 143.827058
_cell_angle_gamma 135.832339
_cell_volume 758.121777
_symmetry_space_group_name_H-M "P -1"
_symmetry_group_IT_number 2
_symmetry_cell_setting 'triclinic'
loop_
_space_group_symop_operation_xyz
x,y,z
-x,-y,-z
loop_
_atom_site_type_symbol
_atom_site_label
_atom_site_fract_x
_atom_site_fract_y
_atom_site_fract_z
Si Si1 0.431278 0.201819 0.394857
Si Si2 0.871681 0.918945 0.185441
Si Si3 0.139747 0.575943 0.700900
Si Si4 0.399490 0.952635 0.056327
Si Si5 0.197547 0.070980 0.400594
Si Si6 0.367154 0.359755 0.556134
Si Si7 0.109100 0.218116 0.540705
Si Si8 0.375009 0.624843 0.026688
O O1 0.284027 0.061060 0.387109
O O2 0.539773 0.358141 0.487368
O O3 0.396187 0.373177 0.206668
O O4 0.500000 0.000000 0.500000
O O5 0.868384 0.660348 0.256400
O O6 0.838763 0.880440 0.279069
O O7 0.032729 0.097823 0.223098
O O8 0.732896 0.041901 0.986194
O O9 0.978858 0.566568 0.611494
O O10 0.191071 0.825702 0.569144
O O11 0.246709 0.561396 0.877783
O O12 0.522764 0.827763 0.261902
O O13 0.331479 0.801462 0.982714
O O14 0.475429 0.236248 0.961269
O O15 0.276699 0.314804 0.409455
O O16 0.255380 0.319245 0.562146
O O17 0.000000 0.000000 0.500000
#
# Coordination Sequence:
#
# PCOD8006311 Si02
#       8
#     2   2   2   2   2   2   2   2
#     4  11  27  42  65  90 136 175 211 258 326 392
#     4  11  23  35  63 101 136 158 209 282 321 371
#     4  11  23  37  67 101 131 161 217 276 322 367
#     4  10  20  39  67  96 123 163 223 267 316 368
#     4  11  23  43  61  98 128 169 219 258 321 386
#     4  11  22  42  70  94 126 172 219 264 312 392
#     4  11  18  36  65  97 124 163 212 267 322 368
#     4  10  21  42  64  93 128 171 216 261 318 391
#
# _framework density 21.104787999999999
#
# number of rings (size 3 to 8) (size 9 to 14) (size 15 to 20)
#    0.000    1.250    3.750    4.875    5.250    1.500 
#    0.000    3.125    2.750    0.000    0.000    0.000 
#    0.000    0.000    0.000    0.000    0.000    0.000 
#
# Total GULP energy -198346.614974 kJ/mol
# GULP energy per Si atom -12396.663436 kJ/mol
# Density = 2.105675 g / cm^3
# Si number density = 21.104788 Si / 1000 Ang^3
#
#
#
# Elastic Constant Matrix: (Units=GPa)
#
#
# Indices 1 2 3 4 5 6 
#
# 1 129.3056 32.9127 43.2144 -7.6319 44.7938 17.8644
# 2 32.9127 80.3764 41.7949 1.0059 20.0874 3.6591
# 3 43.2144 41.7949 85.9476 -3.4946 25.8699 7.2779
# 4 -7.6319 1.0059 -3.4946 24.0154 -1.0168 6.3400
# 5 44.7938 20.0874 25.8699 -1.0168 39.9600 1.4536
# 6 17.8644 3.6591 7.2779 6.3400 1.4536 30.8467
#
#
#
# Elastic Compliance Matrix: (Units=1/GPa)
#
#
# Indices 1 2 3 4 5 6 
#
# 1 0.015499 -0.001448 -0.001483 0.006524 -0.015190 -0.009080
# 2 -0.001448 0.017380 -0.007145 -0.002635 -0.002596 0.001126
# 3 -0.001483 -0.007145 0.018113 0.002957 -0.006293 -0.002879
# 4 0.006524 -0.002635 0.002957 0.047596 -0.006196 -0.013654
# 5 -0.015190 -0.002596 -0.006293 -0.006196 0.046923 0.009652
# 6 -0.009080 0.001126 -0.002879 -0.013654 0.009652 0.040574
#
#
# Mechanical properties :
#
#
# Convention : Reuss Voigt Hill
#
# Bulk Modulus (GPa) = 32.42333 59.05262 45.73797
# Shear Modulus (GPa) = 23.09294 30.81160 26.95227
#
# Velocity S-wave (km/s) = 3.31146 3.82505 3.57749
# Velocity P-wave (km/s) = 5.47882 6.89561 6.22764
#
# Compressibility (1/GPa) = 0.03084199
#
# Stress axis : x y z
#
# Youngs Moduli (GPa) = 64.51910 57.53723 55.20924
#
# Poissons Ratio (x) = 0.08330 0.08186
# Poissons Ratio (y) = 0.09341 0.39445
# Poissons Ratio (z) = 0.09566 0.41109
#
# Static dielectric constant tensor:
#      x y z
#    x 3.697080 0.111170 0.085090 
#    y 0.111170 3.914410 0.238350 
#    z 0.085090 0.238350 3.697190 
# 
# 
# High freq. dielectric constant tensor:
#      x y z
#    x 1.833730 -0.003530 0.019650 
#    y -0.003530 1.827990 0.020230 
#    z 0.019650 0.020230 1.813110 
# 
# From -- ./inp_files/269484.got.cif
#   From: 2010.06.25/outbox.cif.g09.slc.cpg/sg2_135_cif.got.tgz:269484.got - 2010.06.27 13:26:56.
