data_PCOD8006738
_publ_section_title
;
Structure prediction by ZEFSAII (Michael W. Deem and Ramdas Pophale) SiO2 
 PCOD8006738
Probable space group: P -1
;
_chemical_formula_sum "Si O2"
_cell_formula_units_Z 16
_cell_length_a 14.419040
_cell_length_b 11.886729
_cell_length_c 15.288188
_cell_angle_alpha 116.644177
_cell_angle_beta 149.659822
_cell_angle_gamma 42.714454
_cell_volume 754.635903
_symmetry_space_group_name_H-M "P -1"
_symmetry_group_IT_number 2
_symmetry_cell_setting 'triclinic'
loop_
_space_group_symop_operation_xyz
x,y,z
-x,-y,-z
loop_
_atom_site_type_symbol
_atom_site_label
_atom_site_fract_x
_atom_site_fract_y
_atom_site_fract_z
Si Si1 0.952624 0.803818 0.271397
Si Si2 0.558830 0.437268 0.700267
Si Si3 0.430299 0.988156 0.809153
Si Si4 0.326246 0.366122 0.210019
Si Si5 0.486433 0.584522 0.142306
Si Si6 0.980785 0.236668 0.304874
Si Si7 0.217299 0.837158 0.361387
Si Si8 0.294010 0.270023 0.659422
O O1 0.247614 0.576181 0.452678
O O2 0.001292 0.894597 0.277655
O O3 0.824249 0.916098 0.298976
O O4 0.728002 0.830265 0.050634
O O5 0.648389 0.536403 0.806391
O O6 0.558722 0.395712 0.784985
O O7 0.790499 0.234688 0.761726
O O8 0.463094 0.860458 0.721282
O O9 0.364141 0.155331 0.765000
O O10 0.453777 0.347652 0.399405
O O11 0.000000 0.500000 0.000000
O O12 0.789722 0.360328 0.281115
O O13 0.466035 0.746313 0.159945
O O14 0.233417 0.636940 0.908093
O O15 0.246170 0.197738 0.513201
O O16 0.124869 0.027140 0.337858
O O17 0.000000 0.500000 0.500000
#
# Coordination Sequence:
#
# PCOD8006738 Si02
#       8
#     2   2   2   2   2   2   2   2
#     4  10  22  37  63  96 130 164 213 260 328 388
#     4  11  24  42  62  93 131 176 204 269 326 389
#     4  11  21  38  65 101 124 168 214 267 323 388
#     4  11  23  40  63  92 133 168 213 263 325 390
#     4  10  23  41  67  93 131 167 220 268 322 381
#     4  10  21  41  65  96 123 172 220 268 321 382
#     4  11  22  40  65  87 135 167 213 264 330 384
#     4  10  20  40  63  93 131 163 210 272 318 370
#
# _framework density 21.202276999999999
#
# number of rings (size 3 to 8) (size 9 to 14) (size 15 to 20)
#    0.000    1.500    1.250    5.250    1.750    1.500 
#    9.000    0.625    0.000    0.000    0.000    0.000 
#    0.000    0.000    0.000    0.000    0.000    0.000 
#
# Total GULP energy -198279.555748 kJ/mol
# GULP energy per Si atom -12392.472234 kJ/mol
# Density = 2.115402 g / cm^3
# Si number density = 21.202277 Si / 1000 Ang^3
#
#
#
# Elastic Constant Matrix: (Units=GPa)
#
#
# Indices 1 2 3 4 5 6 
#
# 1 116.5922 59.2123 28.5312 -2.2952 -10.3220 -5.1617
# 2 59.2123 109.7239 8.6125 1.4784 -4.6290 0.2165
# 3 28.5312 8.6125 76.6826 9.9742 3.0406 -6.5560
# 4 -2.2952 1.4784 9.9742 25.4335 -0.7293 -0.6385
# 5 -10.3220 -4.6290 3.0406 -0.7293 30.3205 3.1420
# 6 -5.1617 0.2165 -6.5560 -0.6385 3.1420 23.7155
#
#
#
# Elastic Compliance Matrix: (Units=1/GPa)
#
#
# Indices 1 2 3 4 5 6 
#
# 1 0.013786 -0.006936 -0.004886 0.003713 0.004082 0.001272
# 2 -0.006936 0.012763 0.001309 -0.001926 -0.000460 -0.001255
# 3 -0.004886 0.001309 0.016056 -0.006825 -0.003617 0.003659
# 4 0.003713 -0.001926 -0.006825 0.042513 0.002705 -0.000275
# 5 0.004082 -0.000460 -0.003617 0.002705 0.035215 -0.004700
# 6 0.001272 -0.001255 0.003659 -0.000275 -0.004700 0.044081
#
#
# Mechanical properties :
#
#
# Convention : Reuss Voigt Hill
#
# Bulk Modulus (GPa) = 46.34503 55.07896 50.71199
# Shear Modulus (GPa) = 25.95587 29.67009 27.81298
#
# Velocity S-wave (km/s) = 3.50266 3.74489 3.62580
# Velocity P-wave (km/s) = 6.18580 6.68829 6.44194
#
# Compressibility (1/GPa) = 0.02157729
#
# Stress axis : x y z
#
# Youngs Moduli (GPa) = 72.53673 78.34963 62.28282
#
# Poissons Ratio (x) = 0.54347 0.30433
# Poissons Ratio (y) = 0.50315 -0.08151
# Poissons Ratio (z) = 0.35443 -0.10254
#
# Static dielectric constant tensor:
#      x y z
#    x 3.774290 0.068300 0.135260 
#    y 0.068300 3.981810 0.332960 
#    z 0.135260 0.332960 4.236050 
# 
# 
# High freq. dielectric constant tensor:
#      x y z
#    x 1.804630 0.002420 -0.003470 
#    y 0.002420 1.834000 0.007740 
#    z -0.003470 0.007740 1.846960 
# 
# From -- ./inp_files/532640.got.cif
#   From: 2010.06.25/outbox.cif.g09.slc.cpg/sg2_267_cif.got.tgz:532640.got - 2010.06.27 13:26:56.
