data_PCOD8006507
_publ_section_title
;
Structure prediction by ZEFSAII (Michael W. Deem and Ramdas Pophale) SiO2 
 PCOD8006507
Probable space group: P -1
;
_chemical_formula_sum "Si O2"
_cell_formula_units_Z 16
_cell_length_a 12.333402
_cell_length_b 13.630600
_cell_length_c 6.688203
_cell_angle_alpha 78.170709
_cell_angle_beta 133.724206
_cell_angle_gamma 79.565784
_cell_volume 707.648206
_symmetry_space_group_name_H-M "P -1"
_symmetry_group_IT_number 2
_symmetry_cell_setting 'triclinic'
loop_
_space_group_symop_operation_xyz
x,y,z
-x,-y,-z
loop_
_atom_site_type_symbol
_atom_site_label
_atom_site_fract_x
_atom_site_fract_y
_atom_site_fract_z
Si Si1 0.242074 0.517630 0.630389
Si Si2 0.268543 0.302349 0.938338
Si Si3 0.647197 0.204008 0.370098
Si Si4 0.744020 0.231786 0.901252
Si Si5 0.428381 0.593729 0.107859
Si Si6 0.811418 0.036132 0.318596
Si Si7 0.102812 0.206812 0.484576
Si Si8 0.925403 0.623285 0.956610
O O1 0.216101 0.407560 0.677097
O O2 0.300094 0.543579 0.908094
O O3 0.074078 0.620377 0.289725
O O4 0.380044 0.498397 0.641544
O O5 0.152830 0.244298 0.741971
O O6 0.230183 0.345769 0.101325
O O7 0.467339 0.214871 0.211104
O O8 0.755683 0.215479 0.687126
O O9 0.613723 0.304431 0.138926
O O10 0.765860 0.085034 0.465858
O O11 0.598550 0.357625 0.721222
O O12 0.698392 0.136585 0.979241
O O13 0.911145 0.226811 0.220060
O O14 0.775717 0.928018 0.317430
O O15 0.000000 0.000000 0.500000
O O16 0.136992 0.274431 0.321047
O O17 0.000000 0.500000 0.000000
#
# Coordination Sequence:
#
# PCOD8006507 Si02
#       8
#     2   2   2   2   2   2   2   2
#     4  10  20  40  59  87 126 165 210 253 305 362
#     4  11  25  41  60  90 133 164 204 254 307 365
#     4  10  22  41  65  97 122 159 206 259 310 372
#     4  10  21  39  68  91 122 158 208 258 311 365
#     4   9  20  37  61  90 124 160 203 263 309 356
#     4   9  22  43  69  93 124 156 203 263 317 363
#     4  11  24  42  63  92 123 166 206 254 310 370
#     4  12  25  37  60  88 124 171 209 243 297 370
#
# _framework density 22.610105000000001
#
# number of rings (size 3 to 8) (size 9 to 14) (size 15 to 20)
#    0.000    1.750    1.250    1.875    3.500    6.500 
#    0.000    3.750    0.000    0.000    0.000    0.000 
#    0.000    0.000    0.000    0.000    0.000    0.000 
#
# Total GULP energy -198267.933254 kJ/mol
# GULP energy per Si atom -12391.745828 kJ/mol
# Density = 2.255864 g / cm^3
# Si number density = 22.610105 Si / 1000 Ang^3
#
#
#
# Elastic Constant Matrix: (Units=GPa)
#
#
# Indices 1 2 3 4 5 6 
#
# 1 89.8543 53.2100 27.7177 11.8210 -0.6428 -19.7991
# 2 53.2100 124.1190 23.2380 21.5501 2.3274 -19.7727
# 3 27.7177 23.2380 45.1827 14.2900 7.5215 -7.9381
# 4 11.8210 21.5501 14.2900 27.0544 -5.4211 -2.3647
# 5 -0.6428 2.3274 7.5215 -5.4211 27.0508 3.1677
# 6 -19.7991 -19.7727 -7.9381 -2.3647 3.1677 47.6181
#
#
#
# Elastic Compliance Matrix: (Units=1/GPa)
#
#
# Indices 1 2 3 4 5 6 
#
# 1 0.017748 -0.005965 -0.008598 0.002521 0.003437 0.003366
# 2 -0.005965 0.012340 0.000920 -0.008162 -0.003401 0.002618
# 3 -0.008598 0.000920 0.035595 -0.018378 -0.014188 0.002772
# 4 0.002521 -0.008162 -0.018378 0.055219 0.017386 -0.003819
# 5 0.003437 -0.003401 -0.014188 0.017386 0.045298 -0.004499
# 6 0.003366 0.002618 0.002772 -0.003819 -0.004499 0.024059
#
#
# Mechanical properties :
#
#
# Convention : Reuss Voigt Hill
#
# Bulk Modulus (GPa) = 26.04316 51.94304 38.99310
# Shear Modulus (GPa) = 21.70675 30.67734 26.19204
#
# Velocity S-wave (km/s) = 3.10182 3.68747 3.40725
# Velocity P-wave (km/s) = 4.93678 6.41507 5.72385
#
# Compressibility (1/GPa) = 0.03839779
#
# Stress axis : x y z
#
# Youngs Moduli (GPa) = 56.34344 81.04042 28.09384
#
# Poissons Ratio (x) = 0.48339 0.24155
# Poissons Ratio (y) = 0.33608 -0.02585
# Poissons Ratio (z) = 0.48444 -0.07458
#
# Static dielectric constant tensor:
#      x y z
#    x 4.123330 -0.127720 0.006270 
#    y -0.127720 4.728500 -0.066170 
#    z 0.006270 -0.066170 3.876890 
# 
# 
# High freq. dielectric constant tensor:
#      x y z
#    x 1.884520 -0.007480 -0.003470 
#    y -0.007480 1.900380 0.004230 
#    z -0.003470 0.004230 1.874200 
# 
# From -- ./inp_files/78039.got.cif
#   From: 2010.06.25/outbox.cif.g09.slc.cpg/sg2_40_cif.got.tgz:78039.got - 2010.06.27 13:26:56.
