data_PCOD8006564
_publ_section_title
;
Structure prediction by ZEFSAII (Michael W. Deem and Ramdas Pophale) SiO2 
 PCOD8006564
Probable space group: P -1
;
_chemical_formula_sum "Si O2"
_cell_formula_units_Z 14
_cell_length_a 11.497691
_cell_length_b 7.805773
_cell_length_c 13.711039
_cell_angle_alpha 95.050715
_cell_angle_beta 33.471971
_cell_angle_gamma 81.919269
_cell_volume 622.645650
_symmetry_space_group_name_H-M "P -1"
_symmetry_group_IT_number 2
_symmetry_cell_setting 'triclinic'
loop_
_space_group_symop_operation_xyz
x,y,z
-x,-y,-z
loop_
_atom_site_type_symbol
_atom_site_label
_atom_site_fract_x
_atom_site_fract_y
_atom_site_fract_z
Si Si1 0.545869 0.264972 0.757477
Si Si2 0.477938 0.332265 0.416372
Si Si3 0.059100 0.803036 0.398225
Si Si4 0.122420 0.874238 0.134104
Si Si5 0.843794 0.420983 0.045247
Si Si6 0.575359 0.865645 0.737377
Si Si7 0.256157 0.742272 0.588737
O O1 0.701480 0.331346 0.726545
O O2 0.301020 0.431058 0.927705
O O3 0.671337 0.210973 0.564079
O O4 0.510769 0.083691 0.812051
O O5 0.683475 0.383784 0.234690
O O6 0.440325 0.178073 0.368367
O O7 0.255645 0.531949 0.583799
O O8 0.556104 0.246351 0.464304
O O9 0.083665 0.817303 0.266326
O O10 0.843130 0.746370 0.572308
O O11 0.000000 0.000000 0.500000
O O12 0.021931 0.765946 0.121469
O O13 0.396946 0.809428 0.922025
O O14 0.994515 0.095174 0.210097
O O15 0.000000 0.500000 0.000000
#
# Coordination Sequence:
#
# PCOD8006564 Si02
#       7
#     2   2   2   2   2   2   2
#     4  10  22  42  63  88 132 162 210 257 310 363
#     4   9  22  39  59  90 130 159 219 248 317 378
#     4  10  21  43  64  91 127 164 210 263 303 370
#     4  11  23  40  67  92 126 164 214 249 322 366
#     4  10  24  41  60  97 130 162 204 264 307 381
#     4  10  22  40  64  92 123 166 208 261 306 371
#     4  10  20  40  61  88 126 168 198 266 306 374
#
# _framework density 22.484698999999999
#
# number of rings (size 3 to 8) (size 9 to 14) (size 15 to 20)
#    0.000    2.000    2.857    0.000    4.000    8.000 
#    0.000    6.429    0.000    0.000    0.000    0.000 
#    0.000    0.000    0.000    0.000    0.000    0.000 
#
# Total GULP energy -173471.218098 kJ/mol
# GULP energy per Si atom -12390.801293 kJ/mol
# Density = 2.243352 g / cm^3
# Si number density = 22.484699 Si / 1000 Ang^3
#
#
#
# Elastic Constant Matrix: (Units=GPa)
#
#
# Indices 1 2 3 4 5 6 
#
# 1 115.8662 28.1899 61.0716 0.3017 -9.2290 2.9880
# 2 28.1899 55.3725 35.2278 11.2766 -8.6117 0.9628
# 3 61.0716 35.2278 89.3704 12.4389 -9.3294 3.7053
# 4 0.3017 11.2766 12.4389 29.3984 2.3521 -5.5314
# 5 -9.2290 -8.6117 -9.3294 2.3521 40.4351 3.3070
# 6 2.9880 0.9628 3.7053 -5.5314 3.3070 33.4615
#
#
#
# Elastic Compliance Matrix: (Units=1/GPa)
#
#
# Indices 1 2 3 4 5 6 
#
# 1 0.014140 -0.002098 -0.009498 0.004773 0.000261 0.000613
# 2 -0.002098 0.025896 -0.007281 -0.007399 0.003898 -0.001360
# 3 -0.009498 -0.007281 0.021843 -0.007019 0.001951 -0.002714
# 4 0.004773 -0.007399 -0.007019 0.041688 -0.005182 0.007967
# 5 0.000261 0.003898 0.001951 -0.005182 0.026687 -0.003846
# 6 0.000613 -0.001360 -0.002714 0.007967 -0.003846 0.031867
#
#
# Mechanical properties :
#
#
# Convention : Reuss Voigt Hill
#
# Bulk Modulus (GPa) = 41.45013 56.62087 49.03550
# Shear Modulus (GPa) = 24.04801 29.73365 26.89083
#
# Velocity S-wave (km/s) = 3.27391 3.64042 3.46202
# Velocity P-wave (km/s) = 5.72417 6.55033 6.15114
#
# Compressibility (1/GPa) = 0.02412538
#
# Stress axis : x y z
#
# Youngs Moduli (GPa) = 70.72158 38.61541 45.78117
#
# Poissons Ratio (x) = 0.08101 0.43483
# Poissons Ratio (y) = 0.14837 0.33333
# Poissons Ratio (z) = 0.67172 0.28116
#
# Static dielectric constant tensor:
#      x y z
#    x 4.775880 0.039310 -0.151040 
#    y 0.039310 3.919850 0.287720 
#    z -0.151040 0.287720 4.155030 
# 
# 
# High freq. dielectric constant tensor:
#      x y z
#    x 1.895320 0.007770 0.003050 
#    y 0.007770 1.865760 0.012600 
#    z 0.003050 0.012600 1.879170 
# 
# From -- ./inp_files/515588.got.cif
#   From: 2010.06.25/outbox.cif.g09.slc.cpg/sg2_258_cif.got.tgz:515588.got - 2010.06.27 13:26:56.
