data_PCOD8006822
_publ_section_title
;
Structure prediction by ZEFSAII (Michael W. Deem and Ramdas Pophale) SiO2 
 PCOD8006822
Probable space group: P -1
;
_chemical_formula_sum "Si O2"
_cell_formula_units_Z 16
_cell_length_a 8.679243
_cell_length_b 17.109268
_cell_length_c 14.181915
_cell_angle_alpha 145.009199
_cell_angle_beta 120.743965
_cell_angle_gamma 43.288471
_cell_volume 808.406753
_symmetry_space_group_name_H-M "P -1"
_symmetry_group_IT_number 2
_symmetry_cell_setting 'triclinic'
loop_
_space_group_symop_operation_xyz
x,y,z
-x,-y,-z
loop_
_atom_site_type_symbol
_atom_site_label
_atom_site_fract_x
_atom_site_fract_y
_atom_site_fract_z
Si Si1 0.924835 0.668592 0.782779
Si Si2 0.180111 0.736875 0.069310
Si Si3 0.282637 0.080896 0.204488
Si Si4 0.333267 0.598184 0.379667
Si Si5 0.384967 0.316351 0.535904
Si Si6 0.038745 0.897554 0.719460
Si Si7 0.637070 0.392370 0.806718
Si Si8 0.488239 0.760455 0.831979
O O1 0.882341 0.792286 0.806278
O O2 0.692437 0.700643 0.766079
O O3 0.111639 0.468865 0.610863
O O4 0.011216 0.709927 0.941347
O O5 0.173649 0.714490 0.158129
O O6 0.441262 0.594645 0.974236
O O7 0.100618 0.927568 0.213146
O O8 0.427135 0.137756 0.350217
O O9 0.126871 0.085357 0.238002
O O10 0.467094 0.884557 0.029243
O O11 0.515546 0.637345 0.472774
O O12 0.119514 0.738133 0.517542
O O13 0.245573 0.610231 0.256672
O O14 0.468238 0.405438 0.271513
O O15 0.515184 0.302744 0.659096
O O16 0.253324 0.868820 0.807118
#
# Coordination Sequence:
#
# PCOD8006822 Si02
#       8
#     2   2   2   2   2   2   2   2
#     4  11  22  37  62  89 129 159 204 249 314 361
#     4  10  20  40  64  94 115 168 205 255 298 367
#     4  12  23  37  59  93 127 159 200 253 306 366
#     4  10  22  41  61  88 127 164 200 250 304 365
#     4   9  21  40  62  86 124 163 197 251 306 361
#     4  12  24  36  62  91 130 161 206 247 311 364
#     4   8  20  41  67  84 123 162 210 246 306 360
#     4  12  24  38  59  94 129 161 202 252 308 369
#
# _framework density 19.792017000000001
#
# number of rings (size 3 to 8) (size 9 to 14) (size 15 to 20)
#    0.750    0.750    1.250    4.500    1.750    0.500 
#    0.000    1.250    0.000    0.000    0.000    0.000 
#    0.000    0.000    0.000    0.000    0.000    0.000 
#
# Total GULP energy -198366.015991 kJ/mol
# GULP energy per Si atom -12397.875999 kJ/mol
# Density = 1.974697 g / cm^3
# Si number density = 19.792017 Si / 1000 Ang^3
#
#
#
# Elastic Constant Matrix: (Units=GPa)
#
#
# Indices 1 2 3 4 5 6 
#
# 1 43.3341 9.7136 -4.1524 16.6477 -4.3297 15.4472
# 2 9.7136 113.2498 30.8447 -1.1432 4.1303 11.6974
# 3 -4.1524 30.8447 101.6890 12.6173 -1.9475 4.8802
# 4 16.6477 -1.1432 12.6173 25.6601 5.5061 1.2056
# 5 -4.3297 4.1303 -1.9475 5.5061 28.8674 -7.6605
# 6 15.4472 11.6974 4.8802 1.2056 -7.6605 19.2724
#
#
#
# Elastic Compliance Matrix: (Units=1/GPa)
#
#
# Indices 1 2 3 4 5 6 
#
# 1 0.055615 -0.004309 0.010714 -0.041226 0.007125 -0.039263
# 2 -0.004309 0.011080 -0.004239 0.006665 -0.005011 -0.004607
# 3 0.010714 -0.004239 0.013762 -0.014446 0.004043 -0.006989
# 4 -0.041226 0.006665 -0.014446 0.075757 -0.016940 0.021183
# 5 0.007125 -0.005011 0.004043 -0.016940 0.043858 0.014800
# 6 -0.039263 -0.004607 -0.006989 0.021183 0.014800 0.092482
#
#
# Mechanical properties :
#
#
# Convention : Reuss Voigt Hill
#
# Bulk Modulus (GPa) = 11.79385 36.78718 24.29051
# Shear Modulus (GPa) = 15.79860 29.55112 22.67486
#
# Velocity S-wave (km/s) = 2.82836 3.86823 3.38843
# Velocity P-wave (km/s) = 4.07897 6.21114 5.25434
#
# Compressibility (1/GPa) = 0.08478997
#
# Stress axis : x y z
#
# Youngs Moduli (GPa) = 17.98086 90.25332 72.66225
#
# Poissons Ratio (x) = 0.38888 -0.77849
# Poissons Ratio (y) = 0.07747 0.30799
# Poissons Ratio (z) = -0.19264 0.38255
#
# Static dielectric constant tensor:
#      x y z
#    x 3.382930 0.121860 -0.151360 
#    y 0.121860 3.487240 -0.057860 
#    z -0.151360 -0.057860 3.786440 
# 
# 
# High freq. dielectric constant tensor:
#      x y z
#    x 1.756100 0.012250 -0.012500 
#    y 0.012250 1.755960 -0.003130 
#    z -0.012500 -0.003130 1.787980 
# 
# From -- ./inp_files/504474.got.cif
#   From: 2010.06.25/outbox.cif.g09.slc.cpg/sg2_253_cif.got.tgz:504474.got - 2010.06.27 13:26:56.
