data_PCOD8006722
_publ_section_title
;
Structure prediction by ZEFSAII (Michael W. Deem and Ramdas Pophale) SiO2 
 PCOD8006722
Probable space group: P -1
;
_chemical_formula_sum "Si O2"
_cell_formula_units_Z 16
_cell_length_a 17.112212
_cell_length_b 13.974126
_cell_length_c 8.133810
_cell_angle_alpha 82.643098
_cell_angle_beta 87.378859
_cell_angle_gamma 22.974754
_cell_volume 739.745133
_symmetry_space_group_name_H-M "P -1"
_symmetry_group_IT_number 2
_symmetry_cell_setting 'triclinic'
loop_
_space_group_symop_operation_xyz
x,y,z
-x,-y,-z
loop_
_atom_site_type_symbol
_atom_site_label
_atom_site_fract_x
_atom_site_fract_y
_atom_site_fract_z
Si Si1 0.905630 0.388797 0.418278
Si Si2 0.390935 0.946436 0.840355
Si Si3 0.948153 0.948598 0.986695
Si Si4 0.326888 0.465119 0.847363
Si Si5 0.763872 0.067064 0.303954
Si Si6 0.008131 0.504684 0.693683
Si Si7 0.670130 0.756677 0.645774
Si Si8 0.517233 0.450209 0.820247
O O1 0.735415 0.521563 0.311700
O O2 0.977751 0.396779 0.294836
O O3 0.815472 0.527583 0.568269
O O4 0.096232 0.104205 0.510503
O O5 0.335119 0.923029 0.729663
O O6 0.575757 0.796949 0.782990
O O7 0.198107 0.235454 0.821143
O O8 0.470828 0.813879 0.034490
O O9 0.893999 0.958113 0.160858
O O10 0.140698 0.675733 0.948426
O O11 0.758100 0.159620 0.829036
O O12 0.000000 0.000000 0.000000
O O13 0.384918 0.506930 0.779606
O O14 0.583618 0.346041 0.314757
O O15 0.000000 0.500000 0.500000
O O16 0.801524 0.690614 0.740715
O O17 0.500000 0.000000 0.500000
O O18 0.500000 0.500000 0.000000
#
# Coordination Sequence:
#
# PCOD8006722 Si02
#       8
#     2   2   2   2   2   2   2   2
#     4  11  24  42  62  97 133 156 207 271 313 355
#     4  12  21  39  71  91 118 172 218 243 308 381
#     4  11  20  42  68  90 122 169 214 250 304 379
#     4  12  25  40  63  98 131 158 204 272 315 353
#     4  11  20  41  69  90 122 170 217 248 300 385
#     4  10  20  41  61  91 127 157 214 258 294 381
#     4  11  20  41  69  88 120 173 211 248 308 380
#     4  10  20  40  63  91 124 161 212 252 296 380
#
# _framework density 21.629071
#
# number of rings (size 3 to 8) (size 9 to 14) (size 15 to 20)
#    0.000    1.000   10.000    0.750    0.000    1.000 
#    4.500    1.250    0.000    0.000    0.000    0.000 
#    0.000    0.000    0.000    0.000    0.000    0.000 
#
# Total GULP energy -198386.191398 kJ/mol
# GULP energy per Si atom -12399.136962 kJ/mol
# Density = 2.157984 g / cm^3
# Si number density = 21.629071 Si / 1000 Ang^3
#
#
#
# Elastic Constant Matrix: (Units=GPa)
#
#
# Indices 1 2 3 4 5 6 
#
# 1 163.7522 28.9497 25.7570 -12.8592 3.7857 -7.5056
# 2 28.9497 89.2892 31.5193 -44.2569 -6.1883 -4.9527
# 3 25.7570 31.5193 61.7160 -40.8850 8.7306 9.3310
# 4 -12.8592 -44.2569 -40.8850 42.6508 -1.2653 -7.3958
# 5 3.7857 -6.1883 8.7306 -1.2653 36.3279 -5.9006
# 6 -7.5056 -4.9527 9.3310 -7.3958 -5.9006 35.8436
#
#
#
# Elastic Compliance Matrix: (Units=1/GPa)
#
#
# Indices 1 2 3 4 5 6 
#
# 1 0.007225 -0.003885 -0.006289 -0.007704 -0.000005 0.001023
# 2 -0.003885 0.032363 0.014988 0.048818 0.005767 0.010779
# 3 -0.006289 0.014988 0.058469 0.069164 -0.008699 -0.001628
# 4 -0.007704 0.048818 0.069164 0.140891 0.000036 0.016204
# 5 -0.000005 0.005767 -0.008699 0.000036 0.031954 0.008328
# 6 0.001023 0.010779 -0.001628 0.016204 0.008328 0.034741
#
#
# Mechanical properties :
#
#
# Convention : Reuss Voigt Hill
#
# Bulk Modulus (GPa) = 9.28625 54.13439 31.71032
# Shear Modulus (GPa) = 15.06437 38.19989 26.63213
#
# Velocity S-wave (km/s) = 2.64197 4.20710 3.51281
# Velocity P-wave (km/s) = 3.68909 6.97728 5.58085
#
# Compressibility (1/GPa) = 0.10768606
#
# Stress axis : x y z
#
# Youngs Moduli (GPa) = 138.41333 30.89981 17.10300
#
# Poissons Ratio (x) = 0.12003 0.10755
# Poissons Ratio (y) = 0.53767 -0.25634
# Poissons Ratio (z) = 0.87043 -0.46312
#
# Static dielectric constant tensor:
#      x y z
#    x 4.448640 -0.013580 -0.162710 
#    y -0.013580 3.715630 -0.460040 
#    z -0.162710 -0.460040 3.631490 
# 
# 
# High freq. dielectric constant tensor:
#      x y z
#    x 1.871500 -0.005530 -0.005700 
#    y -0.005530 1.844050 -0.042130 
#    z -0.005700 -0.042130 1.815720 
# 
# From -- ./inp_files/307347.got.cif
#   From: 2010.06.25/outbox.cif.g09.slc.cpg/sg2_154_cif.got.tgz:307347.got - 2010.06.27 13:26:56.
