data_PCOD8006003
_publ_section_title
;
Structure prediction by ZEFSAII (Michael W. Deem and Ramdas Pophale) SiO2 
 PCOD8006003
Probable space group: P -1
;
_chemical_formula_sum "Si O2"
_cell_formula_units_Z 14
_cell_length_a 17.408114
_cell_length_b 11.702277
_cell_length_c 16.085461
_cell_angle_alpha 35.557522
_cell_angle_beta 146.406829
_cell_angle_gamma 158.410588
_cell_volume 654.772705
_symmetry_space_group_name_H-M "P -1"
_symmetry_group_IT_number 2
_symmetry_cell_setting 'triclinic'
loop_
_space_group_symop_operation_xyz
x,y,z
-x,-y,-z
loop_
_atom_site_type_symbol
_atom_site_label
_atom_site_fract_x
_atom_site_fract_y
_atom_site_fract_z
Si Si1 0.029173 0.859687 0.674381
Si Si2 0.530588 0.743000 0.841372
Si Si3 0.116262 0.265085 0.638489
Si Si4 0.456155 0.842062 0.312158
Si Si5 0.162038 0.863858 0.410141
Si Si6 0.811605 0.195979 0.291957
Si Si7 0.934494 0.151430 0.850120
O O1 0.189518 0.878901 0.761066
O O2 0.798249 0.507937 0.705058
O O3 0.140286 0.077207 0.728282
O O4 0.000000 0.000000 0.500000
O O5 0.355226 0.590253 0.699262
O O6 0.517582 0.893391 0.812431
O O7 0.774263 0.026923 0.854651
O O8 0.500000 0.500000 0.000000
O O9 0.942980 0.064560 0.678522
O O10 0.019184 0.319443 0.453784
O O11 0.585915 0.890740 0.477873
O O12 0.573320 0.895555 0.300455
O O13 0.185379 0.934871 0.293210
O O14 0.000000 0.500000 0.500000
O O15 0.849168 0.471393 0.166153
O O16 0.000000 0.000000 0.000000
#
# Coordination Sequence:
#
# PCOD8006003 Si02
#       7
#     2   2   2   2   2   2   2
#     4  10  23  38  60  95 130 166 207 255 314 386
#     4  12  24  39  66  91 126 166 216 266 318 374
#     4  10  21  40  60  95 126 159 212 254 315 372
#     4  11  21  40  66  91 128 168 206 260 324 361
#     4  11  20  37  64  93 127 160 213 270 309 378
#     4  10  20  39  64  92 130 162 209 259 309 384
#     4  12  23  37  63  95 127 163 214 270 317 374
#
# _framework density 21.381466
#
# number of rings (size 3 to 8) (size 9 to 14) (size 15 to 20)
#    0.000    1.143    5.714    1.714    4.000    6.286 
#    0.000    0.714    0.000    1.714    0.000    0.000 
#    0.000    0.000    0.000    0.000    0.000    0.000 
#
# Total GULP energy -173517.663099 kJ/mol
# GULP energy per Si atom -12394.118793 kJ/mol
# Density = 2.133280 g / cm^3
# Si number density = 21.381466 Si / 1000 Ang^3
#
#
#
# Elastic Constant Matrix: (Units=GPa)
#
#
# Indices 1 2 3 4 5 6 
#
# 1 156.6498 37.7525 25.0674 -13.3058 20.6623 5.0589
# 2 37.7525 77.7782 12.2040 -15.7670 6.9494 3.7139
# 3 25.0674 12.2040 60.1399 -16.1272 10.4142 3.8700
# 4 -13.3058 -15.7670 -16.1272 25.4127 0.6293 4.6813
# 5 20.6623 6.9494 10.4142 0.6293 30.6938 -7.3445
# 6 5.0589 3.7139 3.8700 4.6813 -7.3445 36.9862
#
#
#
# Elastic Compliance Matrix: (Units=1/GPa)
#
#
# Indices 1 2 3 4 5 6 
#
# 1 0.008161 -0.002772 -0.001250 0.002246 -0.004961 -0.001976
# 2 -0.002772 0.016563 0.001398 0.010427 -0.003391 -0.003424
# 3 -0.001250 0.001398 0.023251 0.016357 -0.009207 -0.006301
# 4 0.002246 0.010427 0.016357 0.060195 -0.013873 -0.013439
# 5 -0.004961 -0.003391 -0.009207 -0.013873 0.043035 0.012284
# 6 -0.001976 -0.003424 -0.006301 -0.013439 0.012284 0.032451
#
#
# Mechanical properties :
#
#
# Convention : Reuss Voigt Hill
#
# Bulk Modulus (GPa) = 23.40451 49.40174 36.40313
# Shear Modulus (GPa) = 24.61263 33.25479 28.93371
#
# Velocity S-wave (km/s) = 3.39650 3.94802 3.68260
# Velocity P-wave (km/s) = 5.13337 6.62854 5.92828
#
# Compressibility (1/GPa) = 0.04272680
#
# Stress axis : x y z
#
# Youngs Moduli (GPa) = 122.53747 60.37402 43.00804
#
# Poissons Ratio (x) = 0.16735 0.05378
# Poissons Ratio (y) = 0.33966 -0.06012
# Poissons Ratio (z) = 0.15322 -0.08440
#
# Static dielectric constant tensor:
#      x y z
#    x 4.813440 -0.212650 0.171760 
#    y -0.212650 3.660760 -0.148730 
#    z 0.171760 -0.148730 3.794500 
# 
# 
# High freq. dielectric constant tensor:
#      x y z
#    x 1.867210 0.003190 0.017920 
#    y 0.003190 1.817450 -0.015470 
#    z 0.017920 -0.015470 1.806800 
# 
# From -- ./inp_files/332820.got.cif
#   From: 2010.06.25/outbox.cif.g09.slc.cpg/sg2_167_cif.got.tgz:332820.got - 2010.06.27 13:26:56.
