data_PCOD8006355
_publ_section_title
;
Structure prediction by ZEFSAII (Michael W. Deem and Ramdas Pophale) SiO2 
 PCOD8006355
Probable space group: P -1
;
_chemical_formula_sum "Si O2"
_cell_formula_units_Z 14
_cell_length_a 6.336928
_cell_length_b 5.501029
_cell_length_c 22.068984
_cell_angle_alpha 80.040095
_cell_angle_beta 123.639866
_cell_angle_gamma 78.853814
_cell_volume 590.315566
_symmetry_space_group_name_H-M "P -1"
_symmetry_group_IT_number 2
_symmetry_cell_setting 'triclinic'
loop_
_space_group_symop_operation_xyz
x,y,z
-x,-y,-z
loop_
_atom_site_type_symbol
_atom_site_label
_atom_site_fract_x
_atom_site_fract_y
_atom_site_fract_z
Si Si1 0.941485 0.618471 0.919019
Si Si2 0.197535 0.398518 0.669456
Si Si3 0.859749 0.870089 0.674365
Si Si4 0.865636 0.181837 0.552164
Si Si5 0.625714 0.263056 0.389530
Si Si6 0.669778 0.035686 0.193789
Si Si7 0.787283 0.926544 0.081115
O O1 0.035184 0.370261 0.898580
O O2 0.617707 0.732517 0.858403
O O3 0.077580 0.846118 0.919782
O O4 0.000000 0.500000 0.000000
O O5 0.438188 0.479911 0.674504
O O6 0.979353 0.602247 0.668224
O O7 0.038424 0.365297 0.585199
O O8 0.343495 0.145962 0.744225
O O9 0.582569 0.872350 0.660789
O O10 0.078876 0.866540 0.759663
O O11 0.763516 0.125125 0.604171
O O12 0.618754 0.310175 0.459780
O O13 0.064438 0.903863 0.569892
O O14 0.726635 0.900149 0.143301
O O15 0.500000 0.000000 0.000000
#
# Coordination Sequence:
#
# PCOD8006355 Si02
#       7
#     2   2   2   2   2   2   2
#     4  12  28  50  83 112 151 194 245 313 367 439
#     4  10  23  40  61  96 139 181 235 296 361 436
#     4  10  23  40  62  97 141 182 236 295 363 437
#     4   9  20  39  61  97 131 181 237 300 354 436
#     4  10  20  39  68  91 134 182 241 293 362 426
#     4  11  28  47  68 105 154 185 247 296 374 444
#     4  12  28  49  83 115 147 196 248 303 375 444
#
# _framework density 23.716131000000001
#
# number of rings (size 3 to 8) (size 9 to 14) (size 15 to 20)
#    0.000    1.429    1.429    1.714    4.000    7.429 
#    0.000    0.000    0.000    0.000    0.000    0.000 
#    0.000    0.000    0.000    0.000    0.000    0.000 
#
# Total GULP energy -173447.453069 kJ/mol
# GULP energy per Si atom -12389.103791 kJ/mol
# Density = 2.366215 g / cm^3
# Si number density = 23.716131 Si / 1000 Ang^3
#
#
#
# Elastic Constant Matrix: (Units=GPa)
#
#
# Indices 1 2 3 4 5 6 
#
# 1 127.3558 45.6504 73.7406 2.7032 13.6047 28.5663
# 2 45.6504 126.3925 50.8460 9.3645 1.0622 5.9476
# 3 73.7406 50.8460 159.6012 13.0885 8.4994 5.2537
# 4 2.7032 9.3645 13.0885 34.8996 -4.4703 0.2311
# 5 13.6047 1.0622 8.4994 -4.4703 25.0873 3.9683
# 6 28.5663 5.9476 5.2537 0.2311 3.9683 46.5628
#
#
#
# Elastic Compliance Matrix: (Units=1/GPa)
#
#
# Indices 1 2 3 4 5 6 
#
# 1 0.013849 -0.002620 -0.005185 0.001070 -0.004311 -0.007215
# 2 -0.002620 0.009675 -0.001829 -0.001547 0.001280 0.000476
# 3 -0.005185 -0.001829 0.009459 -0.002826 -0.001209 0.002464
# 4 0.001070 -0.001547 -0.002826 0.030828 0.006064 -0.000810
# 5 -0.004311 0.001280 -0.001209 0.006064 0.043816 -0.001147
# 6 -0.007215 0.000476 0.002464 -0.000810 -0.001147 0.025666
#
#
# Mechanical properties :
#
#
# Convention : Reuss Voigt Hill
#
# Bulk Modulus (GPa) = 72.90667 83.75816 78.33242
# Shear Modulus (GPa) = 31.82040 37.51742 34.66891
#
# Velocity S-wave (km/s) = 3.66692 3.98167 3.82753
# Velocity P-wave (km/s) = 6.98116 7.51877 7.25495
#
# Compressibility (1/GPa) = 0.01371617
#
# Stress axis : x y z
#
# Youngs Moduli (GPa) = 72.20570 103.35641 105.72088
#
# Poissons Ratio (x) = 0.27078 0.54815
# Poissons Ratio (y) = 0.18917 0.19335
# Poissons Ratio (z) = 0.37438 0.18903
#
# Static dielectric constant tensor:
#      x y z
#    x 4.386740 0.240960 -0.208830 
#    y 0.240960 5.496420 -0.333610 
#    z -0.208830 -0.333610 4.651350 
# 
# 
# High freq. dielectric constant tensor:
#      x y z
#    x 1.944660 0.007200 -0.007720 
#    y 0.007200 1.943050 0.004990 
#    z -0.007720 0.004990 1.948610 
# 
# From -- ./inp_files/7970.got.cif
#   From: 2010.06.25/outbox.cif.g09.slc.cpg/sg2_4_cif.got.tgz:7970.got - 2010.06.27 13:26:56.
