data_PCOD8006019
_publ_section_title
;
Structure prediction by ZEFSAII (Michael W. Deem and Ramdas Pophale) SiO2 
 PCOD8006019
Probable space group: P -1
;
_chemical_formula_sum "Si O2"
_cell_formula_units_Z 16
_cell_length_a 13.225187
_cell_length_b 24.269129
_cell_length_c 9.023734
_cell_angle_alpha 135.240529
_cell_angle_beta 146.852533
_cell_angle_gamma 28.784766
_cell_volume 759.468551
_symmetry_space_group_name_H-M "P -1"
_symmetry_group_IT_number 2
_symmetry_cell_setting 'triclinic'
loop_
_space_group_symop_operation_xyz
x,y,z
-x,-y,-z
loop_
_atom_site_type_symbol
_atom_site_label
_atom_site_fract_x
_atom_site_fract_y
_atom_site_fract_z
Si Si1 0.960622 0.676251 0.817652
Si Si2 0.940724 0.865316 0.133417
Si Si3 0.446098 0.746453 0.351177
Si Si4 0.091936 0.826272 0.562742
Si Si5 0.292594 0.870258 0.112101
Si Si6 0.602213 0.423867 0.623488
Si Si7 0.679502 0.513348 0.308622
Si Si8 0.556242 0.010692 0.427238
O O1 0.660445 0.750349 0.652037
O O2 0.017657 0.604518 0.603105
O O3 0.011994 0.751536 0.990671
O O4 0.180406 0.588067 0.047921
O O5 0.179309 0.841103 0.303574
O O6 0.935636 0.898908 0.359167
O O7 0.650120 0.968599 0.898401
O O8 0.340384 0.785723 0.127470
O O9 0.595901 0.619692 0.330901
O O10 0.250814 0.697867 0.490025
O O11 0.311716 0.823390 0.883389
O O12 0.859731 0.891255 0.527331
O O13 0.497187 0.878230 0.418776
O O14 0.000000 0.000000 0.000000
O O15 0.500000 0.500000 0.500000
O O16 0.357900 0.473880 0.533491
O O17 0.500000 0.500000 0.000000
O O18 0.500000 0.000000 0.500000
#
# Coordination Sequence:
#
# PCOD8006019 Si02
#       8
#     2   2   2   2   2   2   2   2
#     4  10  22  40  65  98 129 171 228 258 329 400
#     4  11  21  42  67  98 133 172 214 280 329 392
#     4  12  21  41  71  89 136 173 223 274 324 397
#     4  10  22  42  64  96 136 168 219 277 337 388
#     4  10  23  41  64  99 128 170 230 269 323 403
#     4  10  22  42  67  95 139 170 215 278 335 392
#     4  10  20  39  64  95 125 174 220 259 329 394
#     4  11  23  44  66  96 132 176 226 275 333 401
#
# _framework density 21.067364000000001
#
# number of rings (size 3 to 8) (size 9 to 14) (size 15 to 20)
#    0.000    1.500    5.000    2.250    3.500    1.000 
#    4.500    3.750    0.000    0.000    0.000    0.000 
#    0.000    0.000    0.000    0.000    0.000    0.000 
#
# Total GULP energy -198235.642911 kJ/mol
# GULP energy per Si atom -12389.727682 kJ/mol
# Density = 2.101941 g / cm^3
# Si number density = 21.067364 Si / 1000 Ang^3
#
#
#
# Elastic Constant Matrix: (Units=GPa)
#
#
# Indices 1 2 3 4 5 6 
#
# 1 136.5705 41.9662 55.1649 4.5464 -12.7076 0.3302
# 2 41.9662 64.9589 18.7875 11.2357 -7.6842 -10.5515
# 3 55.1649 18.7875 109.9368 -2.6530 -10.8826 -12.5438
# 4 4.5464 11.2357 -2.6530 30.3322 -3.9422 -6.1185
# 5 -12.7076 -7.6842 -10.8826 -3.9422 42.1066 -7.5212
# 6 0.3302 -10.5515 -12.5438 -6.1185 -7.5212 37.2411
#
#
#
# Elastic Compliance Matrix: (Units=1/GPa)
#
#
# Indices 1 2 3 4 5 6 
#
# 1 0.011346 -0.006353 -0.005003 -0.000476 0.000283 -0.003607
# 2 -0.006353 0.021640 0.000295 -0.005499 0.002650 0.005919
# 3 -0.005003 0.000295 0.012569 0.003254 0.003083 0.005519
# 4 -0.000476 -0.005499 0.003254 0.037246 0.004349 0.006540
# 5 0.000283 0.002650 0.003083 0.004349 0.026941 0.007942
# 6 -0.003607 0.005919 0.005519 0.006540 0.007942 0.033098
#
#
# Mechanical properties :
#
#
# Convention : Reuss Voigt Hill
#
# Bulk Modulus (GPa) = 42.67460 60.36705 51.52082
# Shear Modulus (GPa) = 28.93968 34.97249 31.95608
#
# Velocity S-wave (km/s) = 3.71033 4.07877 3.89890
# Velocity P-wave (km/s) = 6.21737 7.13430 6.69156
#
# Compressibility (1/GPa) = 0.02343314
#
# Stress axis : x y z
#
# Youngs Moduli (GPa) = 88.13625 46.21148 79.55839
#
# Poissons Ratio (x) = 0.29360 0.39799
# Poissons Ratio (y) = 0.55996 -0.02346
# Poissons Ratio (z) = 0.44091 -0.01363
#
# Static dielectric constant tensor:
#      x y z
#    x 4.158910 -0.208500 -0.142960 
#    y -0.208500 4.100300 0.164130 
#    z -0.142960 0.164130 4.481570 
# 
# 
# High freq. dielectric constant tensor:
#      x y z
#    x 1.822250 0.000420 -0.005810 
#    y 0.000420 1.820360 -0.002930 
#    z -0.005810 -0.002930 1.823860 
# 
# From -- ./inp_files/284981.got.cif
#   From: 2010.06.25/outbox.cif.g09.slc.cpg/sg2_143_cif.got.tgz:284981.got - 2010.06.27 13:26:56.
