data_PCOD8006112
_publ_section_title
;
Structure prediction by ZEFSAII (Michael W. Deem and Ramdas Pophale) SiO2 
 PCOD8006112
Probable space group: P -1
;
_chemical_formula_sum "Si O2"
_cell_formula_units_Z 16
_cell_length_a 8.326123
_cell_length_b 20.019361
_cell_length_c 25.556323
_cell_angle_alpha 160.144424
_cell_angle_beta 31.026965
_cell_angle_gamma 140.847662
_cell_volume 734.352620
_symmetry_space_group_name_H-M "P -1"
_symmetry_group_IT_number 2
_symmetry_cell_setting 'triclinic'
loop_
_space_group_symop_operation_xyz
x,y,z
-x,-y,-z
loop_
_atom_site_type_symbol
_atom_site_label
_atom_site_fract_x
_atom_site_fract_y
_atom_site_fract_z
Si Si1 0.687462 0.591748 0.740649
Si Si2 0.701150 0.983883 0.145433
Si Si3 0.383767 0.338433 0.559632
Si Si4 0.749490 0.587915 0.063650
Si Si5 0.592054 0.384175 0.057439
Si Si6 0.154334 0.774722 0.308560
Si Si7 0.610224 0.546934 0.560504
Si Si8 0.600339 0.039081 0.095654
O O1 0.530323 0.431550 0.636681
O O2 0.050879 0.584706 0.617713
O O3 0.666949 0.539702 0.769411
O O4 0.520817 0.821148 0.944110
O O5 0.512318 0.806087 0.080973
O O6 0.612654 0.137547 0.330487
O O7 0.591979 0.077522 0.188561
O O8 0.076011 0.916988 0.988099
O O9 0.353772 0.495681 0.636134
O O10 0.044398 0.294391 0.638950
O O11 0.512054 0.749500 0.214028
O O12 0.068147 0.674629 0.051021
O O13 0.593068 0.552642 0.137374
O O14 0.841919 0.374560 0.851384
O O15 0.000000 0.000000 0.500000
O O16 0.500000 0.500000 0.500000
O O17 0.651526 0.780130 0.725246
#
# Coordination Sequence:
#
# PCOD8006112 Si02
#       8
#     2   2   2   2   2   2   2   2
#     4  11  24  44  63  98 144 167 220 279 329 403
#     4  10  20  39  65  93 135 173 215 268 330 397
#     4  12  24  43  67  98 135 178 216 281 342 388
#     4  10  23  46  71  96 133 176 229 287 343 395
#     4  10  21  43  73 100 131 181 227 280 341 405
#     4  11  25  47  68 102 135 174 227 289 340 401
#     4  12  23  40  67  99 132 176 226 264 332 410
#     4  10  21  40  62  93 132 177 217 262 316 404
#
# _framework density 21.787897999999998
#
# number of rings (size 3 to 8) (size 9 to 14) (size 15 to 20)
#    0.000    1.250    3.750    2.625    3.500    0.500 
#    4.500    5.625    0.000    0.000    0.000    0.000 
#    0.000    0.000    0.000    0.000    0.000    0.000 
#
# Total GULP energy -198324.450570 kJ/mol
# GULP energy per Si atom -12395.278161 kJ/mol
# Density = 2.173831 g / cm^3
# Si number density = 21.787898 Si / 1000 Ang^3
#
#
#
# Elastic Constant Matrix: (Units=GPa)
#
#
# Indices 1 2 3 4 5 6 
#
# 1 59.7641 17.0945 36.3418 9.2136 5.6296 0.3224
# 2 17.0945 94.1649 29.5847 -5.4736 4.1579 -3.7468
# 3 36.3418 29.5847 107.4649 18.6137 8.9455 -5.6179
# 4 9.2136 -5.4736 18.6137 29.9017 1.0898 5.3962
# 5 5.6296 4.1579 8.9455 1.0898 35.3074 1.2767
# 6 0.3224 -3.7468 -5.6179 5.3962 1.2767 33.7563
#
#
#
# Elastic Compliance Matrix: (Units=1/GPa)
#
#
# Indices 1 2 3 4 5 6 
#
# 1 0.021700 -0.002156 -0.006140 -0.003036 -0.001523 -0.000926
# 2 -0.002156 0.012448 -0.003563 0.005175 -0.000379 -0.000004
# 3 -0.006140 -0.003563 0.014109 -0.008078 -0.002049 0.003380
# 4 -0.003036 0.005175 -0.008078 0.041663 0.000904 -0.007435
# 5 -0.001523 -0.000379 -0.002049 0.000904 0.029160 -0.001616
# 6 -0.000926 -0.000004 0.003380 -0.007435 -0.001616 0.031445
#
#
# Mechanical properties :
#
#
# Convention : Reuss Voigt Hill
#
# Bulk Modulus (GPa) = 40.75297 47.49289 44.12293
# Shear Modulus (GPa) = 27.40890 31.68461 29.54676
#
# Velocity S-wave (km/s) = 3.55066 3.81757 3.68653
# Velocity P-wave (km/s) = 5.96277 6.42472 6.19805
#
# Compressibility (1/GPa) = 0.02453809
#
# Stress axis : x y z
#
# Youngs Moduli (GPa) = 46.08383 80.33519 70.87585
#
# Poissons Ratio (x) = 0.17322 0.43521
# Poissons Ratio (y) = 0.09936 0.25251
# Poissons Ratio (z) = 0.28297 0.28621
#
# Static dielectric constant tensor:
#      x y z
#    x 3.806880 -0.002380 0.066570 
#    y -0.002380 4.136570 -0.140390 
#    z 0.066570 -0.140390 4.133730 
# 
# 
# High freq. dielectric constant tensor:
#      x y z
#    x 1.841000 -0.005380 0.017620 
#    y -0.005380 1.866690 -0.005090 
#    z 0.017620 -0.005090 1.851560 
# 
# From -- ./inp_files/617550.got.cif
#   From: 2010.06.25/outbox.cif.g09.slc.cpg/sg2_309_cif.got.tgz:617550.got - 2010.06.27 13:26:56.
