data_PCOD8006076
_publ_section_title
;
Structure prediction by ZEFSAII (Michael W. Deem and Ramdas Pophale) SiO2 
 PCOD8006076
Probable space group: P -1
;
_chemical_formula_sum "Si O2"
_cell_formula_units_Z 14
_cell_length_a 18.084047
_cell_length_b 14.692298
_cell_length_c 9.061432
_cell_angle_alpha 47.666957
_cell_angle_beta 47.600466
_cell_angle_gamma 21.864853
_cell_volume 652.113065
_symmetry_space_group_name_H-M "P -1"
_symmetry_group_IT_number 2
_symmetry_cell_setting 'triclinic'
loop_
_space_group_symop_operation_xyz
x,y,z
-x,-y,-z
loop_
_atom_site_type_symbol
_atom_site_label
_atom_site_fract_x
_atom_site_fract_y
_atom_site_fract_z
Si Si1 0.976635 0.247945 0.638408
Si Si2 0.250403 0.346342 0.709007
Si Si3 0.339668 0.010308 0.331992
Si Si4 0.120160 0.845733 0.359132
Si Si5 0.046361 0.537852 0.058576
Si Si6 0.587733 0.537162 0.386244
Si Si7 0.060546 0.753859 0.980259
O O1 0.806443 0.522800 0.507363
O O2 0.001095 0.115160 0.629313
O O3 0.188739 0.091962 0.548324
O O4 0.905679 0.267528 0.867472
O O5 0.175294 0.284538 0.862428
O O6 0.489171 0.104513 0.675932
O O7 0.123173 0.536109 0.815018
O O8 0.213733 0.251808 0.158978
O O9 0.431032 0.818400 0.296710
O O10 0.330115 0.563825 0.443298
O O11 0.000000 0.000000 0.500000
O O12 0.136263 0.958114 0.124819
O O13 0.031445 0.640705 0.107948
O O14 0.500000 0.500000 0.500000
O O15 0.747429 0.397177 0.197626
#
# Coordination Sequence:
#
# PCOD8006076 Si02
#       7
#     2   2   2   2   2   2   2
#     4  11  23  41  65  94 134 168 200 265 330 372
#     4  10  20  39  65  89 126 168 215 257 304 372
#     4  11  21  40  68  93 125 165 223 257 301 381
#     4  10  20  41  67  87 125 168 210 258 315 373
#     4  10  22  39  67  92 124 171 217 263 308 370
#     4  11  23  41  68  96 121 163 225 265 308 379
#     4  11  23  42  61  95 133 166 206 264 329 375
#
# _framework density 21.468668000000001
#
# number of rings (size 3 to 8) (size 9 to 14) (size 15 to 20)
#    0.000    1.429    2.857    3.429    0.000    4.571 
#    2.571    2.857    0.000    0.000    0.000    0.000 
#    0.000    0.000    0.000    0.000    0.000    0.000 
#
# Total GULP energy -173495.504454 kJ/mol
# GULP energy per Si atom -12392.536032 kJ/mol
# Density = 2.141980 g / cm^3
# Si number density = 21.468668 Si / 1000 Ang^3
#
#
#
# Elastic Constant Matrix: (Units=GPa)
#
#
# Indices 1 2 3 4 5 6 
#
# 1 150.0210 52.3032 56.2364 3.0720 -4.9400 -14.1888
# 2 52.3032 72.5753 40.4242 -4.5947 -11.9690 -13.4574
# 3 56.2364 40.4242 130.3883 -7.7443 15.6794 -4.3700
# 4 3.0720 -4.5947 -7.7443 28.4720 0.5978 -8.4503
# 5 -4.9400 -11.9690 15.6794 0.5978 36.8526 2.3937
# 6 -14.1888 -13.4574 -4.3700 -8.4503 2.3937 36.0976
#
#
#
# Elastic Compliance Matrix: (Units=1/GPa)
#
#
# Indices 1 2 3 4 5 6 
#
# 1 0.009709 -0.005351 -0.002727 -0.002406 0.000706 0.000881
# 2 -0.005351 0.023746 -0.005627 0.004641 0.008888 0.006565
# 3 -0.002727 -0.005627 0.011567 0.002468 -0.007108 -0.000720
# 4 -0.002406 0.004641 0.002468 0.039948 -0.001196 0.010514
# 5 0.000706 0.008888 -0.007108 -0.001196 0.033143 0.000252
# 6 0.000881 0.006565 -0.000720 0.010514 0.000252 0.032854
#
#
# Mechanical properties :
#
#
# Convention : Reuss Voigt Hill
#
# Bulk Modulus (GPa) = 56.77699 72.32358 64.55029
# Shear Modulus (GPa) = 27.13719 33.88583 30.51151
#
# Velocity S-wave (km/s) = 3.55919 3.97720 3.77399
# Velocity P-wave (km/s) = 6.58743 7.40621 7.00879
#
# Compressibility (1/GPa) = 0.01761277
#
# Stress axis : x y z
#
# Youngs Moduli (GPa) = 102.99366 42.11175 86.45064
#
# Poissons Ratio (x) = 0.22534 0.23574
# Poissons Ratio (y) = 0.55111 0.48648
# Poissons Ratio (z) = 0.28085 0.23697
#
# Static dielectric constant tensor:
#      x y z
#    x 3.988950 -0.193580 -0.123020 
#    y -0.193580 4.032200 -0.444490 
#    z -0.123020 -0.444490 4.014670 
# 
# 
# High freq. dielectric constant tensor:
#      x y z
#    x 1.851450 -0.004850 -0.013940 
#    y -0.004850 1.819280 -0.022290 
#    z -0.013940 -0.022290 1.839600 
# 
# From -- ./inp_files/208527.got.cif
#   From: 2010.06.25/outbox.cif.g09.slc.cpg/sg2_105_cif.got.tgz:208527.got - 2010.06.27 13:26:56.
