data_PCOD8006216
_publ_section_title
;
Structure prediction by ZEFSAII (Michael W. Deem and Ramdas Pophale) SiO2 
 PCOD8006216
Probable space group: P -1
;
_chemical_formula_sum "Si O2"
_cell_formula_units_Z 16
_cell_length_a 23.335066
_cell_length_b 11.014253
_cell_length_c 7.542545
_cell_angle_alpha 45.795473
_cell_angle_beta 122.763683
_cell_angle_gamma 149.172533
_cell_volume 703.356167
_symmetry_space_group_name_H-M "P -1"
_symmetry_group_IT_number 2
_symmetry_cell_setting 'triclinic'
loop_
_space_group_symop_operation_xyz
x,y,z
-x,-y,-z
loop_
_atom_site_type_symbol
_atom_site_label
_atom_site_fract_x
_atom_site_fract_y
_atom_site_fract_z
Si Si1 0.830006 0.620172 0.978588
Si Si2 0.085215 0.324867 0.288890
Si Si3 0.991833 0.234331 0.689506
Si Si4 0.753894 0.157019 0.761407
Si Si5 0.575827 0.173551 0.118588
Si Si6 0.945663 0.314516 0.877011
Si Si7 0.588663 0.838818 0.507801
Si Si8 0.560342 0.779174 0.108462
O O1 0.824669 0.525626 0.870820
O O2 0.915074 0.944410 0.760125
O O3 0.708466 0.445632 0.016046
O O4 0.881985 0.588981 0.237954
O O5 0.158490 0.509094 0.402653
O O6 0.000000 0.000000 0.500000
O O7 0.018046 0.368687 0.097547
O O8 0.931486 0.152114 0.859778
O O9 0.995064 0.401490 0.396153
O O10 0.822625 0.119047 0.947884
O O11 0.706634 0.042298 0.599444
O O12 0.657863 0.988560 0.917091
O O13 0.550701 0.948145 0.411900
O O14 0.534295 0.264340 0.049377
O O15 0.500000 0.000000 0.000000
O O16 0.610658 0.891821 0.278004
O O17 0.495541 0.513892 0.722793
#
# Coordination Sequence:
#
# PCOD8006216 Si02
#       8
#     2   2   2   2   2   2   2   2
#     4  10  20  39  66  93 133 173 224 281 338 403
#     4  11  24  43  59  95 141 176 224 282 342 411
#     4   9  20  39  67  99 125 173 228 278 336 412
#     4  12  24  43  69  98 136 178 224 283 338 413
#     4  10  21  41  66  96 131 177 225 272 339 407
#     4  10  22  40  63  98 133 172 223 277 344 400
#     4  10  23  45  67  96 138 178 228 285 337 404
#     4  10  24  46  67 101 139 174 233 283 339 412
#
# _framework density 22.748075
#
# number of rings (size 3 to 8) (size 9 to 14) (size 15 to 20)
#    0.000    1.750    0.000    3.750    1.750    4.500 
#   13.500    0.000    0.000    0.000    0.000    0.000 
#    0.000    0.000    0.000    0.000    0.000    0.000 
#
# Total GULP energy -198240.968461 kJ/mol
# GULP energy per Si atom -12390.060529 kJ/mol
# Density = 2.269630 g / cm^3
# Si number density = 22.748075 Si / 1000 Ang^3
#
#
#
# Elastic Constant Matrix: (Units=GPa)
#
#
# Indices 1 2 3 4 5 6 
#
# 1 127.8990 52.9792 35.0145 10.5633 2.2471 31.3959
# 2 52.9792 137.8578 47.0881 9.9850 -7.4632 -0.3519
# 3 35.0145 47.0881 102.4450 -1.4015 20.5952 2.0230
# 4 10.5633 9.9850 -1.4015 28.5103 0.9773 -1.6085
# 5 2.2471 -7.4632 20.5952 0.9773 20.5487 4.9456
# 6 31.3959 -0.3519 2.0230 -1.6085 4.9456 42.3754
#
#
#
# Elastic Compliance Matrix: (Units=1/GPa)
#
#
# Indices 1 2 3 4 5 6 
#
# 1 0.012885 -0.003283 -0.003459 -0.004477 0.003481 -0.009985
# 2 -0.003283 0.011554 -0.006441 -0.003437 0.010827 0.001442
# 3 -0.003459 -0.006441 0.018220 0.005417 -0.021529 0.004358
# 4 -0.004477 -0.003437 0.005417 0.038841 -0.009383 0.005599
# 5 0.003481 0.010827 -0.021529 -0.009383 0.076836 -0.010785
# 6 -0.009985 0.001442 0.004358 0.005599 -0.010785 0.032272
#
#
# Mechanical properties :
#
#
# Convention : Reuss Voigt Hill
#
# Bulk Modulus (GPa) = 61.37279 70.92951 66.15115
# Shear Modulus (GPa) = 22.48138 33.82822 28.15480
#
# Velocity S-wave (km/s) = 3.14710 3.86045 3.52188
# Velocity P-wave (km/s) = 6.34378 7.14975 6.75879
#
# Compressibility (1/GPa) = 0.01629386
#
# Stress axis : x y z
#
# Youngs Moduli (GPa) = 77.60819 86.54734 54.88398
#
# Poissons Ratio (x) = 0.28415 0.18984
# Poissons Ratio (y) = 0.25480 0.35351
# Poissons Ratio (z) = 0.26844 0.55745
#
# Static dielectric constant tensor:
#      x y z
#    x 4.757210 -0.034130 0.588320 
#    y -0.034130 4.154730 0.268690 
#    z 0.588320 0.268690 4.393740 
# 
# 
# High freq. dielectric constant tensor:
#      x y z
#    x 1.909490 -0.012730 0.009310 
#    y -0.012730 1.899200 0.002780 
#    z 0.009310 0.002780 1.892550 
# 
# From -- ./inp_files/353353.got.cif
#   From: 2010.06.25/outbox.cif.g09.slc.cpg/sg2_177_cif.got.tgz:353353.got - 2010.06.27 13:26:56.
