data_PCOD8006495
_publ_section_title
;
Structure prediction by ZEFSAII (Michael W. Deem and Ramdas Pophale) SiO2 
 PCOD8006495
Probable space group: P -1
;
_chemical_formula_sum "Si O2"
_cell_formula_units_Z 12
_cell_length_a 6.317482
_cell_length_b 5.116054
_cell_length_c 15.575606
_cell_angle_alpha 73.781241
_cell_angle_beta 69.674292
_cell_angle_gamma 71.458357
_cell_volume 439.417349
_symmetry_space_group_name_H-M "P -1"
_symmetry_group_IT_number 2
_symmetry_cell_setting 'triclinic'
loop_
_space_group_symop_operation_xyz
x,y,z
-x,-y,-z
loop_
_atom_site_type_symbol
_atom_site_label
_atom_site_fract_x
_atom_site_fract_y
_atom_site_fract_z
Si Si1 0.806064 0.437149 0.594088
Si Si2 0.464603 0.968812 0.407404
Si Si3 0.106984 0.462441 0.119414
Si Si4 0.729320 0.183588 0.788064
Si Si5 0.732492 0.875074 0.219123
Si Si6 0.343557 0.548572 0.912095
O O1 0.688348 0.732251 0.628677
O O2 0.896394 0.246767 0.682656
O O3 0.000000 0.500000 0.500000
O O4 0.649536 0.292379 0.567721
O O5 0.698007 0.938919 0.319577
O O6 0.500000 0.000000 0.500000
O O7 0.851516 0.569763 0.099906
O O8 0.011399 0.690538 0.192037
O O9 0.167248 0.138383 0.168445
O O10 0.305909 0.506976 0.022479
O O11 0.621904 0.402478 0.864122
O O12 0.477449 0.259347 0.767150
O O13 0.707377 0.128769 0.133406
#
# Coordination Sequence:
#
# PCOD8006495 Si02
#       6
#     2   2   2   2   2   2
#     4  11  24  43  65  95 129 162 214 262 313 385
#     4  11  24  43  67  93 128 167 207 264 322 371
#     4  10  22  36  62  89 118 166 206 254 313 376
#     4  10  22  39  59  88 125 160 205 259 316 365
#     4  10  22  39  59  87 126 156 208 260 308 376
#     4  10  20  40  58  88 124 156 210 260 304 376
#
# _framework density 27.308889000000001
#
# number of rings (size 3 to 8) (size 9 to 14) (size 15 to 20)
#    0.000    1.667    1.667    2.000    2.333    3.333 
#    0.000    0.000    0.000    0.000    0.000    0.000 
#    0.000    0.000    0.000    0.000    0.000    0.000 
#
# Total GULP energy -148674.241299 kJ/mol
# GULP energy per Si atom -12389.520108 kJ/mol
# Density = 2.724673 g / cm^3
# Si number density = 27.308889 Si / 1000 Ang^3
#
#
#
# Elastic Constant Matrix: (Units=GPa)
#
#
# Indices 1 2 3 4 5 6 
#
# 1 124.6650 60.8823 79.9455 18.3870 -16.5459 -27.1743
# 2 60.8823 190.3907 101.5712 14.0635 -27.7034 -28.6928
# 3 79.9455 101.5712 304.7081 9.1858 -17.6509 -12.2909
# 4 18.3870 14.0635 9.1858 43.8836 6.5248 -11.8824
# 5 -16.5459 -27.7034 -17.6509 6.5248 44.4880 9.5446
# 6 -27.1743 -28.6928 -12.2909 -11.8824 9.5446 46.5129
#
#
#
# Elastic Compliance Matrix: (Units=1/GPa)
#
#
# Indices 1 2 3 4 5 6 
#
# 1 0.011822 -0.001393 -0.002243 -0.003238 0.002219 0.004172
# 2 -0.001393 0.007601 -0.001850 -0.001281 0.003152 0.002413
# 3 -0.002243 -0.001850 0.004429 0.000280 -0.000011 -0.001207
# 4 -0.003238 -0.001281 0.000280 0.027117 -0.007107 0.005779
# 5 0.002219 0.003152 -0.000011 -0.007107 0.027196 -0.004159
# 6 0.004172 0.002413 -0.001207 0.005779 -0.004159 0.027436
#
#
# Mechanical properties :
#
#
# Convention : Reuss Voigt Hill
#
# Bulk Modulus (GPa) = 77.63479 122.72908 100.18194
# Shear Modulus (GPa) = 41.36807 52.13457 46.75132
#
# Velocity S-wave (km/s) = 3.89629 4.37403 4.14205
# Velocity P-wave (km/s) = 6.98080 8.39929 7.72268
#
# Compressibility (1/GPa) = 0.01288082
#
# Stress axis : x y z
#
# Youngs Moduli (GPa) = 84.59160 131.55329 225.77688
#
# Poissons Ratio (x) = 0.18324 0.50638
# Poissons Ratio (y) = 0.11783 0.41767
# Poissons Ratio (z) = 0.18972 0.24336
#
# Static dielectric constant tensor:
#      x y z
#    x 8.385700 -2.580690 -0.745160 
#    y -2.580690 10.324720 2.194800 
#    z -0.745160 2.194800 6.147290 
# 
# 
# High freq. dielectric constant tensor:
#      x y z
#    x 2.168110 -0.001940 0.005860 
#    y -0.001940 2.102610 0.026350 
#    z 0.005860 0.026350 2.135180 
# 
# From -- ./inp_files/487485.got.cif
#   From: 2010.06.25/outbox.cif.g09.slc.cpg/sg2_244_cif.got.tgz:487485.got - 2010.06.27 13:26:56.
