data_PCOD8006642
_publ_section_title
;
Structure prediction by ZEFSAII (Michael W. Deem and Ramdas Pophale) SiO2 
 PCOD8006642
Probable space group: P -1
;
_chemical_formula_sum "Si O2"
_cell_formula_units_Z 16
_cell_length_a 11.281055
_cell_length_b 12.873984
_cell_length_c 15.443870
_cell_angle_alpha 52.245480
_cell_angle_beta 76.343522
_cell_angle_gamma 34.955711
_cell_volume 822.871777
_symmetry_space_group_name_H-M "P -1"
_symmetry_group_IT_number 2
_symmetry_cell_setting 'triclinic'
loop_
_space_group_symop_operation_xyz
x,y,z
-x,-y,-z
loop_
_atom_site_type_symbol
_atom_site_label
_atom_site_fract_x
_atom_site_fract_y
_atom_site_fract_z
Si Si1 0.372131 0.543909 0.661245
Si Si2 0.833160 0.988613 0.606443
Si Si3 0.663720 0.045139 0.782779
Si Si4 0.077933 0.927218 0.121668
Si Si5 0.541098 0.872955 0.475025
Si Si6 0.000637 0.283561 0.766865
Si Si7 0.487072 0.947939 0.779396
Si Si8 0.927586 0.340869 0.956118
O O1 0.617991 0.334120 0.787446
O O2 0.128086 0.726446 0.664080
O O3 0.313737 0.734620 0.523620
O O4 0.435425 0.365413 0.675275
O O5 0.837193 0.947251 0.728037
O O6 0.697506 0.998695 0.570259
O O7 0.566567 0.998184 0.793437
O O8 0.809778 0.867505 0.936254
O O9 0.000867 0.858400 0.205174
O O10 0.000000 0.000000 0.000000
O O11 0.907651 0.203783 0.053367
O O12 0.605594 0.915160 0.367298
O O13 0.792569 0.552479 0.608805
O O14 0.500000 0.000000 0.500000
O O15 0.274286 0.084141 0.805177
O O16 0.939519 0.349938 0.845929
O O17 0.705118 0.633440 0.888956
#
# Coordination Sequence:
#
# PCOD8006642 Si02
#       8
#     2   2   2   2   2   2   2   2
#     4  10  20  40  62  91 117 165 206 246 308 352
#     4  10  22  39  65  88 122 162 204 255 298 358
#     4  10  23  38  59  90 125 153 206 251 298 366
#     4   9  20  39  64  88 123 158 200 252 298 358
#     4  11  22  41  63  89 126 156 200 257 302 359
#     4  11  22  41  62  88 123 159 204 251 303 359
#     4  11  24  38  62  91 119 163 203 243 310 366
#     4  10  22  41  60  86 124 162 200 253 302 358
#
# _framework density 19.444096999999999
#
# number of rings (size 3 to 8) (size 9 to 14) (size 15 to 20)
#    0.000    1.750    2.500    1.125    1.750    4.000 
#    0.000    6.250    0.000    0.000    0.000    0.000 
#    0.000    0.000    0.000    0.000    0.000    0.000 
#
# Total GULP energy -198244.550844 kJ/mol
# GULP energy per Si atom -12390.284428 kJ/mol
# Density = 1.939984 g / cm^3
# Si number density = 19.444097 Si / 1000 Ang^3
#
#
#
# Elastic Constant Matrix: (Units=GPa)
#
#
# Indices 1 2 3 4 5 6 
#
# 1 107.7007 63.7276 42.7628 -28.3987 -9.9831 9.0254
# 2 63.7276 116.7421 27.5192 -56.6116 -0.7805 13.2123
# 3 42.7628 27.5192 104.9552 -16.9841 -6.0811 7.3816
# 4 -28.3987 -56.6116 -16.9841 53.9784 7.8829 -8.3272
# 5 -9.9831 -0.7805 -6.0811 7.8829 30.7667 -0.4174
# 6 9.0254 13.2123 7.3816 -8.3272 -0.4174 40.0445
#
#
#
# Elastic Compliance Matrix: (Units=1/GPa)
#
#
# Indices 1 2 3 4 5 6 
#
# 1 0.016173 -0.009458 -0.004368 -0.003587 0.005058 -0.000413
# 2 -0.009458 0.024059 0.000660 0.021365 -0.007824 -0.001567
# 3 -0.004368 0.000660 0.011519 0.001809 0.000399 -0.000976
# 4 -0.003587 0.021365 0.001809 0.041502 -0.010872 0.001943
# 5 0.005058 -0.007824 0.000399 -0.010872 0.036803 -0.000509
# 6 -0.000413 -0.001567 -0.000976 0.001943 -0.000509 0.026161
#
#
# Mechanical properties :
#
#
# Convention : Reuss Voigt Hill
#
# Bulk Modulus (GPa) = 39.34205 66.37968 52.86086
# Shear Modulus (GPa) = 26.17473 37.98380 32.07927
#
# Velocity S-wave (km/s) = 3.67298 4.42462 4.06620
# Velocity P-wave (km/s) = 6.18587 7.76633 7.02072
#
# Compressibility (1/GPa) = 0.02541810
#
# Stress axis : x y z
#
# Youngs Moduli (GPa) = 61.82988 41.56458 86.81128
#
# Poissons Ratio (x) = 0.39313 0.37920
# Poissons Ratio (y) = 0.58480 -0.05726
# Poissons Ratio (z) = 0.27008 -0.02742
#
# Static dielectric constant tensor:
#      x y z
#    x 4.731050 0.966740 -0.184010 
#    y 0.966740 4.140070 0.149270 
#    z -0.184010 0.149270 4.127850 
# 
# 
# High freq. dielectric constant tensor:
#      x y z
#    x 1.770140 0.019760 -0.009610 
#    y 0.019760 1.743910 -0.004320 
#    z -0.009610 -0.004320 1.776890 
# 
# From -- ./inp_files/69989.got.cif
#   From: 2010.06.25/outbox.cif.g09.slc.cpg/sg2_35_cif.got.tgz:69989.got - 2010.06.27 13:26:56.
