data_PCOD8006549
_publ_section_title
;
Structure prediction by ZEFSAII (Michael W. Deem and Ramdas Pophale) SiO2 
 PCOD8006549
Probable space group: P -1
;
_chemical_formula_sum "Si O2"
_cell_formula_units_Z 16
_cell_length_a 11.981547
_cell_length_b 13.715121
_cell_length_c 9.300951
_cell_angle_alpha 63.642450
_cell_angle_beta 148.276620
_cell_angle_gamma 108.953572
_cell_volume 715.575512
_symmetry_space_group_name_H-M "P -1"
_symmetry_group_IT_number 2
_symmetry_cell_setting 'triclinic'
loop_
_space_group_symop_operation_xyz
x,y,z
-x,-y,-z
loop_
_atom_site_type_symbol
_atom_site_label
_atom_site_fract_x
_atom_site_fract_y
_atom_site_fract_z
Si Si1 0.702794 0.690628 0.170778
Si Si2 0.914267 0.477575 0.677281
Si Si3 0.562915 0.012328 0.899897
Si Si4 0.941428 0.860597 0.483468
Si Si5 0.038295 0.252704 0.840910
Si Si6 0.725248 0.541273 0.725345
Si Si7 0.756812 0.795512 0.609566
Si Si8 0.707919 0.169898 0.330461
O O1 0.784444 0.564994 0.375327
O O2 0.826893 0.759423 0.370914
O O3 0.761218 0.717420 0.053734
O O4 0.449407 0.716317 0.907728
O O5 0.835916 0.474422 0.757207
O O6 0.889856 0.363259 0.647877
O O7 0.165184 0.491581 0.976806
O O8 0.480339 0.135776 0.680461
O O9 0.436095 0.926928 0.725046
O O10 0.500000 0.000000 0.000000
O O11 0.821153 0.975411 0.207546
O O12 0.909480 0.851388 0.626592
O O13 0.186356 0.847519 0.703201
O O14 0.897432 0.173282 0.651094
O O15 0.128308 0.191402 0.121643
O O16 0.500000 0.500000 0.500000
O O17 0.720116 0.671993 0.610216
#
# Coordination Sequence:
#
# PCOD8006549 Si02
#       8
#     2   2   2   2   2   2   2   2
#     4  10  20  40  61  85 127 165 208 255 298 362
#     4  10  21  40  58  91 125 162 208 259 305 354
#     4   9  20  39  64  93 126 155 210 260 307 368
#     4   9  19  40  64  93 122 157 210 259 303 368
#     4  10  23  38  60  90 128 164 205 254 307 374
#     4  10  22  39  62  95 127 159 207 254 314 370
#     4  10  20  41  64  92 130 160 199 270 312 352
#     4  10  22  40  62  92 122 166 211 246 310 379
#
# _framework density 22.359624
#
# number of rings (size 3 to 8) (size 9 to 14) (size 15 to 20)
#    0.000    2.250    1.250    0.375    0.000    7.000 
#    0.000   14.375    0.000    0.000    0.000    0.000 
#    0.000    0.000    0.000    0.000    0.000    0.000 
#
# Total GULP energy -198228.943138 kJ/mol
# GULP energy per Si atom -12389.308946 kJ/mol
# Density = 2.230873 g / cm^3
# Si number density = 22.359624 Si / 1000 Ang^3
#
#
#
# Elastic Constant Matrix: (Units=GPa)
#
#
# Indices 1 2 3 4 5 6 
#
# 1 103.2373 25.2349 54.9481 -9.7448 -2.4918 -7.3851
# 2 25.2349 51.9378 24.6434 -24.7681 1.5344 -11.8889
# 3 54.9481 24.6434 115.3605 -30.7013 7.1635 0.8806
# 4 -9.7448 -24.7681 -30.7013 40.0583 -6.3183 5.0450
# 5 -2.4918 1.5344 7.1635 -6.3183 36.2772 2.3173
# 6 -7.3851 -11.8889 0.8806 5.0450 2.3173 23.2477
#
#
#
# Elastic Compliance Matrix: (Units=1/GPa)
#
#
# Indices 1 2 3 4 5 6 
#
# 1 0.014789 -0.005743 -0.007495 -0.005856 0.001517 0.003165
# 2 -0.005743 0.032948 0.000352 0.017940 0.000560 0.011063
# 3 -0.007495 0.000352 0.015030 0.010307 -0.001391 -0.004868
# 4 -0.005856 0.017940 0.010307 0.043634 0.004595 -0.003004
# 5 0.001517 0.000560 -0.001391 0.004595 0.028916 -0.003059
# 6 0.003165 0.011063 -0.004868 -0.003004 -0.003059 0.050819
#
#
# Mechanical properties :
#
#
# Convention : Reuss Voigt Hill
#
# Bulk Modulus (GPa) = 27.02956 53.35426 40.19191
# Shear Modulus (GPa) = 22.29768 30.96392 26.63080
#
# Velocity S-wave (km/s) = 3.16132 3.72535 3.45486
# Velocity P-wave (km/s) = 5.04381 6.51291 5.82486
#
# Compressibility (1/GPa) = 0.03699653
#
# Stress axis : x y z
#
# Youngs Moduli (GPa) = 67.61627 30.35099 66.53505
#
# Poissons Ratio (x) = 0.17430 0.49865
# Poissons Ratio (y) = 0.38831 -0.02343
# Poissons Ratio (z) = 0.50675 -0.01069
#
# Static dielectric constant tensor:
#      x y z
#    x 4.129650 -0.636760 0.673870 
#    y -0.636760 5.546410 -1.759340 
#    z 0.673870 -1.759340 6.653570 
# 
# 
# High freq. dielectric constant tensor:
#      x y z
#    x 1.860800 -0.028820 0.007340 
#    y -0.028820 1.881440 -0.003860 
#    z 0.007340 -0.003860 1.884180 
# 
# From -- ./inp_files/56920.got.cif
#   From: 2010.06.25/outbox.cif.g09.slc.cpg/sg2_29_cif.got.tgz:56920.got - 2010.06.27 13:26:56.
