data_PCOD8006097
_publ_section_title
;
Structure prediction by ZEFSAII (Michael W. Deem and Ramdas Pophale) SiO2 
 PCOD8006097
Probable space group: P -1
;
_chemical_formula_sum "Si O2"
_cell_formula_units_Z 16
_cell_length_a 5.396626
_cell_length_b 15.170488
_cell_length_c 8.132578
_cell_angle_alpha 80.134256
_cell_angle_beta 76.945218
_cell_angle_gamma 87.651851
_cell_volume 639.008187
_symmetry_space_group_name_H-M "P -1"
_symmetry_group_IT_number 2
_symmetry_cell_setting 'triclinic'
loop_
_space_group_symop_operation_xyz
x,y,z
-x,-y,-z
loop_
_atom_site_type_symbol
_atom_site_label
_atom_site_fract_x
_atom_site_fract_y
_atom_site_fract_z
Si Si1 0.459068 0.859613 0.448004
Si Si2 0.525280 0.323080 0.649820
Si Si3 0.084043 0.098554 0.402607
Si Si4 0.360370 0.004849 0.852263
Si Si5 0.040176 0.663655 0.004282
Si Si6 0.450685 0.396857 0.005647
Si Si7 0.966817 0.869029 0.952580
Si Si8 0.029991 0.403043 0.602652
O O1 0.505341 0.784007 0.325223
O O2 0.694325 0.856689 0.538667
O O3 0.459919 0.959053 0.332050
O O4 0.179056 0.843181 0.571143
O O5 0.465348 0.361508 0.826939
O O6 0.319154 0.367994 0.540656
O O7 0.817159 0.345902 0.554429
O O8 0.194254 0.107548 0.196542
O O9 0.000000 0.000000 0.500000
O O10 0.135901 0.079601 0.886939
O O11 0.246579 0.908570 0.853976
O O12 0.500000 0.000000 0.000000
O O13 0.976797 0.765233 0.028484
O O14 0.334860 0.655572 0.901668
O O15 0.845148 0.627870 0.902395
O O16 0.028143 0.601837 0.190535
O O17 0.500000 0.500000 0.000000
O O18 0.000000 0.500000 0.500000
#
# Coordination Sequence:
#
# PCOD8006097 Si02
#       8
#     2   2   2   2   2   2   2   2
#     4  12  26  46  73 102 146 192 240 290 352 413
#     4  10  22  40  66 100 128 173 228 285 333 421
#     4  12  26  48  67 100 144 198 239 287 349 414
#     4  11  25  40  73 106 141 191 239 289 356 418
#     4  10  23  40  65  97 133 172 224 283 338 416
#     4  10  21  42  67  95 131 176 216 286 361 413
#     4  11  26  44  68 106 144 187 239 294 350 420
#     4  10  20  39  65  92 130 172 216 286 348 410
#
# _framework density 25.038803999999999
#
# number of rings (size 3 to 8) (size 9 to 14) (size 15 to 20)
#    0.000    1.250    1.250    4.125    8.750    0.000 
#    0.000   15.000    0.000    0.000    0.000    0.000 
#    0.000    0.000    0.000    0.000    0.000    0.000 
#
# Total GULP energy -198230.667332 kJ/mol
# GULP energy per Si atom -12389.416708 kJ/mol
# Density = 2.498181 g / cm^3
# Si number density = 25.038804 Si / 1000 Ang^3
#
#
#
# Elastic Constant Matrix: (Units=GPa)
#
#
# Indices 1 2 3 4 5 6 
#
# 1 212.3339 29.5971 7.4260 7.8918 22.7918 33.9083
# 2 29.5971 119.5655 3.1620 5.0264 5.0732 26.1805
# 3 7.4260 3.1620 62.4721 -1.8390 5.8076 5.9461
# 4 7.8918 5.0264 -1.8390 37.2480 -1.9146 2.6383
# 5 22.7918 5.0732 5.8076 -1.9146 30.2042 4.1266
# 6 33.9083 26.1805 5.9461 2.6383 4.1266 42.6573
#
#
#
# Elastic Compliance Matrix: (Units=1/GPa)
#
#
# Indices 1 2 3 4 5 6 
#
# 1 0.005855 -0.000365 0.000031 -0.001107 -0.003888 -0.003990
# 2 -0.000365 0.009739 0.000119 -0.000870 -0.000675 -0.005584
# 3 0.000031 0.000119 0.016494 0.000798 -0.002868 -0.002169
# 4 -0.001107 -0.000870 0.000798 0.027421 0.002655 -0.000650
# 5 -0.003888 -0.000675 -0.002868 0.002655 0.036851 0.000176
# 6 -0.003990 -0.005584 -0.002169 -0.000650 0.000176 0.030367
#
#
# Mechanical properties :
#
#
# Convention : Reuss Voigt Hill
#
# Bulk Modulus (GPa) = 31.58736 52.74910 42.16823
# Shear Modulus (GPa) = 36.30845 45.63432 40.97139
#
# Velocity S-wave (km/s) = 3.81213 4.27376 4.04953
# Velocity P-wave (km/s) = 5.65855 6.74285 6.22436
#
# Compressibility (1/GPa) = 0.03165823
#
# Stress axis : x y z
#
# Youngs Moduli (GPa) = 170.79510 102.68163 60.62829
#
# Poissons Ratio (x) = 0.03748 -0.00189
# Poissons Ratio (y) = 0.06234 -0.00723
# Poissons Ratio (z) = -0.00531 -0.01224
#
# Static dielectric constant tensor:
#      x y z
#    x 6.613540 -0.363520 -0.633680 
#    y -0.363520 4.828940 0.539120 
#    z -0.633680 0.539120 4.562300 
# 
# 
# High freq. dielectric constant tensor:
#      x y z
#    x 2.039260 0.006850 0.006170 
#    y 0.006850 1.994500 0.002570 
#    z 0.006170 0.002570 1.955470 
# 
# From -- ./inp_files/134993.got.cif
#   From: 2010.06.25/outbox.cif.g09.slc.cpg/sg2_68_cif.got.tgz:134993.got - 2010.06.27 13:26:56.
