data_PCOD8006840
_publ_section_title
;
Structure prediction by ZEFSAII (Michael W. Deem and Ramdas Pophale) SiO2 
 PCOD8006840
Probable space group: P -1
;
_chemical_formula_sum "Si O2"
_cell_formula_units_Z 16
_cell_length_a 9.232920
_cell_length_b 18.343382
_cell_length_c 24.628229
_cell_angle_alpha 18.356561
_cell_angle_beta 145.083835
_cell_angle_gamma 141.699681
_cell_volume 751.387970
_symmetry_space_group_name_H-M "P -1"
_symmetry_group_IT_number 2
_symmetry_cell_setting 'triclinic'
loop_
_space_group_symop_operation_xyz
x,y,z
-x,-y,-z
loop_
_atom_site_type_symbol
_atom_site_label
_atom_site_fract_x
_atom_site_fract_y
_atom_site_fract_z
Si Si1 0.628139 0.511371 0.363148
Si Si2 0.947847 0.049050 0.236607
Si Si3 0.236470 0.986969 0.267080
Si Si4 0.828128 0.535445 0.820448
Si Si5 0.758215 0.001536 0.042921
Si Si6 0.463216 0.326877 0.660702
Si Si7 0.225096 0.823593 0.688100
Si Si8 0.268426 0.018792 0.455197
O O1 0.783024 0.287944 0.554000
O O2 0.345044 0.491075 0.267100
O O3 0.781076 0.729860 0.227073
O O4 0.609197 0.531570 0.408106
O O5 0.014658 0.998677 0.355168
O O6 0.195783 0.044144 0.277641
O O7 0.759655 0.853805 0.294144
O O8 0.825192 0.300017 0.020142
O O9 0.008691 0.095925 0.085347
O O10 0.513558 0.093465 0.260116
O O11 0.718433 0.735799 0.682860
O O12 0.116888 0.588958 0.849222
O O13 0.500000 0.000000 0.000000
O O14 0.714892 0.175857 0.855871
O O15 0.500000 0.500000 0.500000
O O16 0.269218 0.807237 0.648265
O O17 0.000000 0.000000 0.500000
O O18 0.500000 0.000000 0.500000
#
# Coordination Sequence:
#
# PCOD8006840 Si02
#       8
#     2   2   2   2   2   2   2   2
#     4  11  20  40  70  94 126 172 223 278 330 400
#     4  12  23  41  64  96 137 176 227 274 344 408
#     4  12  21  40  72  98 132 177 232 278 333 403
#     4  11  23  42  68  97 135 183 226 279 332 406
#     4  10  20  40  64  97 124 169 224 270 327 406
#     4  11  25  42  65  97 134 176 217 284 347 402
#     4  10  22  41  65  98 131 175 231 277 330 400
#     4  11  22  42  64  99 134 176 225 276 343 402
#
# _framework density 21.293927
#
# number of rings (size 3 to 8) (size 9 to 14) (size 15 to 20)
#    0.000    1.000    7.500    1.500    1.750    0.500 
#    0.000    0.625    0.000    0.000    0.000    0.000 
#    0.000    0.000    0.000    0.000    0.000    0.000 
#
# Total GULP energy -198312.043763 kJ/mol
# GULP energy per Si atom -12394.502735 kJ/mol
# Density = 2.124546 g / cm^3
# Si number density = 21.293927 Si / 1000 Ang^3
#
#
#
# Elastic Constant Matrix: (Units=GPa)
#
#
# Indices 1 2 3 4 5 6 
#
# 1 87.5863 40.6275 39.2843 2.2473 -7.1520 -2.2881
# 2 40.6275 148.1944 40.1201 20.7483 -6.9422 2.2281
# 3 39.2843 40.1201 101.0166 11.6045 -13.3203 -5.7896
# 4 2.2473 20.7483 11.6045 36.5218 -4.4723 4.2981
# 5 -7.1520 -6.9422 -13.3203 -4.4723 26.0065 4.2314
# 6 -2.2881 2.2281 -5.7896 4.2981 4.2314 39.6324
#
#
#
# Elastic Compliance Matrix: (Units=1/GPa)
#
#
# Indices 1 2 3 4 5 6 
#
# 1 0.015029 -0.003133 -0.004719 0.002524 0.001323 -0.000061
# 2 -0.003133 0.008671 -0.001792 -0.004120 -0.000096 -0.000473
# 3 -0.004719 -0.001792 0.013416 -0.002606 0.004387 0.001602
# 4 0.002524 -0.004120 -0.002606 0.031373 0.004283 -0.003863
# 5 0.001323 -0.000096 0.004387 0.004283 0.042469 -0.004276
# 6 -0.000061 -0.000473 0.001602 -0.003863 -0.004276 0.026365
#
#
# Mechanical properties :
#
#
# Convention : Reuss Voigt Hill
#
# Bulk Modulus (GPa) = 56.09211 64.09569 60.09390
# Shear Modulus (GPa) = 30.75884 34.88314 32.82099
#
# Velocity S-wave (km/s) = 3.80477 4.05183 3.93024
# Velocity P-wave (km/s) = 6.76023 7.21495 6.99129
#
# Compressibility (1/GPa) = 0.01782782
#
# Stress axis : x y z
#
# Youngs Moduli (GPa) = 66.53812 115.32112 74.53816
#
# Poissons Ratio (x) = 0.36131 0.35176
# Poissons Ratio (y) = 0.20847 0.13358
# Poissons Ratio (z) = 0.31400 0.20666
#
# Static dielectric constant tensor:
#      x y z
#    x 4.476600 -0.037590 -0.440850 
#    y -0.037590 4.146910 0.030730 
#    z -0.440850 0.030730 4.454920 
# 
# 
# High freq. dielectric constant tensor:
#      x y z
#    x 1.803170 -0.002290 0.009150 
#    y -0.002290 1.854240 0.009110 
#    z 0.009150 0.009110 1.838190 
# 
# From -- ./inp_files/608437.got.cif
#   From: 2010.06.25/outbox.cif.g09.slc.cpg/sg2_305_cif.got.tgz:608437.got - 2010.06.27 13:26:56.
