data_PCOD8006306
_publ_section_title
;
Structure prediction by ZEFSAII (Michael W. Deem and Ramdas Pophale) SiO2 
 PCOD8006306
Probable space group: P -1
;
_chemical_formula_sum "Si O2"
_cell_formula_units_Z 12
_cell_length_a 9.267625
_cell_length_b 13.124728
_cell_length_c 9.347579
_cell_angle_alpha 88.144668
_cell_angle_beta 131.792416
_cell_angle_gamma 58.815244
_cell_volume 584.592618
_symmetry_space_group_name_H-M "P -1"
_symmetry_group_IT_number 2
_symmetry_cell_setting 'triclinic'
loop_
_space_group_symop_operation_xyz
x,y,z
-x,-y,-z
loop_
_atom_site_type_symbol
_atom_site_label
_atom_site_fract_x
_atom_site_fract_y
_atom_site_fract_z
Si Si1 0.888387 0.128900 0.315129
Si Si2 0.943345 0.674388 0.932022
Si Si3 0.531149 0.671225 0.744980
Si Si4 0.679265 0.876819 0.501378
Si Si5 0.311064 0.670601 0.333664
Si Si6 0.285724 0.863081 0.116265
O O1 0.615222 0.285913 0.200408
O O2 0.143271 0.110495 0.472456
O O3 0.781108 0.126741 0.094356
O O4 0.000000 0.000000 0.500000
O O5 0.661519 0.733965 0.809605
O O6 0.898228 0.722151 0.736363
O O7 0.214147 0.500709 0.110304
O O8 0.009099 0.745532 0.075973
O O9 0.290303 0.744118 0.462259
O O10 0.498721 0.876211 0.274523
O O11 0.500000 0.000000 0.500000
O O12 0.500000 0.500000 0.500000
O O13 0.420390 0.707677 0.280759
O O14 0.000000 0.000000 0.000000
#
# Coordination Sequence:
#
# PCOD8006306 Si02
#       6
#     2   2   2   2   2   2
#     4  12  26  41  63  98 131 162 219 276 317 372
#     4  10  20  40  67  91 127 175 209 252 325 387
#     4  10  22  39  65  96 131 163 214 266 313 377
#     4  12  23  41  67  92 124 173 217 260 325 384
#     4  10  20  39  67  95 125 171 214 254 318 386
#     4  12  23  42  68  94 126 172 219 262 322 393
#
# _framework density 20.527114999999998
#
# number of rings (size 3 to 8) (size 9 to 14) (size 15 to 20)
#    0.000    1.000    5.000    2.000    0.000    2.667 
#    0.000    0.833    0.000    0.000    0.000    0.000 
#    0.000    0.000    0.000    0.000    0.000    0.000 
#
# Total GULP energy -148709.302099 kJ/mol
# GULP energy per Si atom -12392.441842 kJ/mol
# Density = 2.048039 g / cm^3
# Si number density = 20.527115 Si / 1000 Ang^3
#
#
#
# Elastic Constant Matrix: (Units=GPa)
#
#
# Indices 1 2 3 4 5 6 
#
# 1 172.1803 66.3419 71.8852 23.7580 8.7225 10.6202
# 2 66.3419 73.6301 57.3588 31.3303 7.0610 4.3885
# 3 71.8852 57.3588 142.9344 48.4064 -1.5683 10.8593
# 4 23.7580 31.3303 48.4064 50.4032 11.8182 -0.6710
# 5 8.7225 7.0610 -1.5683 11.8182 44.9678 5.5699
# 6 10.6202 4.3885 10.8593 -0.6710 5.5699 44.1528
#
#
#
# Elastic Compliance Matrix: (Units=1/GPa)
#
#
# Indices 1 2 3 4 5 6 
#
# 1 0.009612 -0.007669 -0.002860 0.003342 -0.001564 -0.000598
# 2 -0.007669 0.027790 -0.004016 -0.009693 -0.000467 -0.000018
# 3 -0.002860 -0.004016 0.013989 -0.010779 0.004894 -0.003135
# 4 0.003342 -0.009693 -0.010779 0.037001 -0.009797 0.004609
# 5 -0.001564 -0.000467 0.004894 -0.009797 0.025880 -0.004195
# 6 -0.000598 -0.000018 -0.003135 0.004609 -0.004195 0.024164
#
#
# Mechanical properties :
#
#
# Convention : Reuss Voigt Hill
#
# Bulk Modulus (GPa) = 44.84183 86.65739 65.74961
# Shear Modulus (GPa) = 28.57813 40.78204 34.68008
#
# Velocity S-wave (km/s) = 3.73529 4.46212 4.11478
# Velocity P-wave (km/s) = 6.36363 8.29790 7.39428
#
# Compressibility (1/GPa) = 0.02230061
#
# Stress axis : x y z
#
# Youngs Moduli (GPa) = 104.03999 35.98415 71.48635
#
# Poissons Ratio (x) = 0.27595 0.20445
# Poissons Ratio (y) = 0.79784 0.28711
# Poissons Ratio (z) = 0.29756 0.14452
#
# Static dielectric constant tensor:
#      x y z
#    x 3.968730 0.349870 -0.015900 
#    y 0.349870 4.038070 0.304850 
#    z -0.015900 0.304850 4.349010 
# 
# 
# High freq. dielectric constant tensor:
#      x y z
#    x 1.789440 0.029040 -0.000340 
#    y 0.029040 1.801720 0.008890 
#    z -0.000340 0.008890 1.826910 
# 
# From -- ./inp_files/162782.got.cif
#   From: 2010.06.25/outbox.cif.g09.slc.cpg/sg2_82_cif.got.tgz:162782.got - 2010.06.27 13:26:56.
