data_PCOD8006017
_publ_section_title
;
Structure prediction by ZEFSAII (Michael W. Deem and Ramdas Pophale) SiO2 
 PCOD8006017
Probable space group: P -1
;
_chemical_formula_sum "Si O2"
_cell_formula_units_Z 16
_cell_length_a 8.412915
_cell_length_b 9.585118
_cell_length_c 16.234772
_cell_angle_alpha 103.935373
_cell_angle_beta 74.712444
_cell_angle_gamma 48.735330
_cell_volume 778.626575
_symmetry_space_group_name_H-M "P -1"
_symmetry_group_IT_number 2
_symmetry_cell_setting 'triclinic'
loop_
_space_group_symop_operation_xyz
x,y,z
-x,-y,-z
loop_
_atom_site_type_symbol
_atom_site_label
_atom_site_fract_x
_atom_site_fract_y
_atom_site_fract_z
Si Si1 0.715294 0.099665 0.713324
Si Si2 0.025916 0.595081 0.291402
Si Si3 0.796784 0.049711 0.364053
Si Si4 0.297262 0.582480 0.791929
Si Si5 0.458080 0.772186 0.746664
Si Si6 0.527418 0.752798 0.399067
Si Si7 0.629456 0.853748 0.133921
Si Si8 0.918213 0.617381 0.902721
O O1 0.014884 0.938813 0.660460
O O2 0.532384 0.364638 0.786764
O O3 0.658543 0.068830 0.625876
O O4 0.644945 0.028995 0.783088
O O5 0.753704 0.716225 0.378802
O O6 0.159660 0.408286 0.175058
O O7 0.233615 0.459415 0.317696
O O8 0.973526 0.789835 0.293421
O O9 0.593365 0.196876 0.338964
O O10 0.640436 0.154987 0.484592
O O11 0.297829 0.753969 0.812280
O O12 0.342068 0.486480 0.679959
O O13 0.025238 0.706214 0.882830
O O14 0.359330 0.984667 0.830718
O O15 0.852403 0.632441 0.126489
O O16 0.673323 0.792099 0.022155
#
# Coordination Sequence:
#
# PCOD8006017 Si02
#       8
#     2   2   2   2   2   2   2   2
#     4   9  19  40  62  87 121 160 200 246 301 352
#     4  11  21  41  61  89 128 154 202 260 293 355
#     4  12  22  38  63  90 123 164 203 246 301 360
#     4   8  19  39  57  92 118 158 194 252 296 353
#     4  12  24  36  62  93 124 157 205 247 305 349
#     4   9  20  39  64  84 121 172 196 241 313 348
#     4  10  20  39  64  95 111 163 206 241 304 371
#     4   9  19  41  67  81 126 159 199 247 304 362
#
# _framework density 20.549005999999999
#
# number of rings (size 3 to 8) (size 9 to 14) (size 15 to 20)
#    0.750    1.250    3.750    0.750    0.000    4.000 
#    0.000    1.875    0.000    0.000    0.000    0.000 
#    0.000    0.000    0.000    0.000    0.000    0.000 
#
# Total GULP energy -198330.961272 kJ/mol
# GULP energy per Si atom -12395.685080 kJ/mol
# Density = 2.050224 g / cm^3
# Si number density = 20.549006 Si / 1000 Ang^3
#
#
#
# Elastic Constant Matrix: (Units=GPa)
#
#
# Indices 1 2 3 4 5 6 
#
# 1 127.4545 62.3739 57.2390 -11.9560 -19.4017 -2.6483
# 2 62.3739 75.4948 35.1512 -13.1802 -4.3502 5.5590
# 3 57.2390 35.1512 126.4593 -27.0889 -10.7416 -1.2826
# 4 -11.9560 -13.1802 -27.0889 14.7046 2.5595 -0.3597
# 5 -19.4017 -4.3502 -10.7416 2.5595 21.0588 -3.1490
# 6 -2.6483 5.5590 -1.2826 -0.3597 -3.1490 49.1020
#
#
#
# Elastic Compliance Matrix: (Units=1/GPa)
#
#
# Indices 1 2 3 4 5 6 
#
# 1 0.017919 -0.013486 -0.005254 -0.009320 0.012640 0.003098
# 2 -0.013486 0.026414 0.001653 0.017191 -0.008830 -0.004115
# 3 -0.005254 0.001653 0.015266 0.025295 0.000233 0.000129
# 4 -0.009320 0.017191 0.025295 0.123685 -0.007369 -0.001355
# 5 0.012640 -0.008830 0.000233 -0.007369 0.059133 0.005426
# 6 0.003098 -0.004115 0.000129 -0.001355 0.005426 0.021340
#
#
# Mechanical properties :
#
#
# Convention : Reuss Voigt Hill
#
# Bulk Modulus (GPa) = 39.33050 70.99299 55.16174
# Shear Modulus (GPa) = 16.31827 28.61605 22.46716
#
# Velocity S-wave (km/s) = 2.82106 3.73577 3.31016
# Velocity P-wave (km/s) = 5.45826 7.29597 6.44297
#
# Compressibility (1/GPa) = 0.02542556
#
# Stress axis : x y z
#
# Youngs Moduli (GPa) = 55.80656 37.85895 65.50592
#
# Poissons Ratio (x) = 0.51055 0.34414
# Poissons Ratio (y) = 0.75259 -0.10826
# Poissons Ratio (z) = 0.29319 -0.06257
#
# Static dielectric constant tensor:
#      x y z
#    x 3.759930 0.054420 -0.045420 
#    y 0.054420 3.586240 -0.162620 
#    z -0.045420 -0.162620 3.510980 
# 
# 
# High freq. dielectric constant tensor:
#      x y z
#    x 1.806090 0.004140 -0.008580 
#    y 0.004140 1.791970 -0.011330 
#    z -0.008580 -0.011330 1.784010 
# 
# From -- ./inp_files/556216.got.cif
#   From: 2010.06.25/outbox.cif.g09.slc.cpg/sg2_279_cif.got.tgz:556216.got - 2010.06.27 13:26:56.
