data_PCOD8006663
_publ_section_title
;
Structure prediction by ZEFSAII (Michael W. Deem and Ramdas Pophale) SiO2 
 PCOD8006663
Probable space group: P -1
;
_chemical_formula_sum "Si O2"
_cell_formula_units_Z 16
_cell_length_a 12.928088
_cell_length_b 9.234832
_cell_length_c 14.412685
_cell_angle_alpha 71.435657
_cell_angle_beta 34.804386
_cell_angle_gamma 51.679294
_cell_volume 697.124561
_symmetry_space_group_name_H-M "P -1"
_symmetry_group_IT_number 2
_symmetry_cell_setting 'triclinic'
loop_
_space_group_symop_operation_xyz
x,y,z
-x,-y,-z
loop_
_atom_site_type_symbol
_atom_site_label
_atom_site_fract_x
_atom_site_fract_y
_atom_site_fract_z
Si Si1 0.690453 0.774373 0.370117
Si Si2 0.982014 0.155576 0.417351
Si Si3 0.022531 0.027973 0.709541
Si Si4 0.209407 0.312041 0.319934
Si Si5 0.482849 0.920384 0.299691
Si Si6 0.389789 0.659156 0.631384
Si Si7 0.794831 0.436062 0.876093
Si Si8 0.550480 0.587527 0.213109
O O1 0.684659 0.795897 0.257533
O O2 0.604506 0.659142 0.495923
O O3 0.955857 0.654343 0.239494
O O4 0.500000 0.000000 0.500000
O O5 0.083424 0.047306 0.263310
O O6 0.699535 0.351402 0.581886
O O7 0.125034 0.218443 0.338043
O O8 0.000000 0.000000 0.500000
O O9 0.221239 0.013776 0.509559
O O10 0.147639 0.883916 0.735685
O O11 0.813651 0.260004 0.849732
O O12 0.296533 0.394297 0.168729
O O13 0.000000 0.500000 0.500000
O O14 0.435768 0.119040 0.253868
O O15 0.570344 0.756406 0.187351
O O16 0.500000 0.500000 0.500000
O O17 0.284370 0.612101 0.802165
O O18 0.591655 0.540176 0.083767
#
# Coordination Sequence:
#
# PCOD8006663 Si02
#       8
#     2   2   2   2   2   2   2   2
#     4  11  20  40  68  94 124 174 213 265 309 386
#     4  11  20  41  71  87 123 178 216 247 317 391
#     4  10  20  40  62  93 126 166 214 261 301 395
#     4  12  22  41  73  96 120 175 223 257 309 392
#     4  10  20  40  63  91 131 162 220 256 309 386
#     4  11  19  39  69  86 123 171 222 244 314 391
#     4  12  25  40  66  99 136 157 215 276 326 357
#     4  11  24  40  64  99 130 162 210 279 316 374
#
# _framework density 22.951422000000001
#
# number of rings (size 3 to 8) (size 9 to 14) (size 15 to 20)
#    0.000    1.000   10.000    0.750    0.000    1.500 
#    0.000    2.500    0.000    0.000    0.000    0.000 
#    0.000    0.000    0.000    0.000    0.000    0.000 
#
# Total GULP energy -198302.515015 kJ/mol
# GULP energy per Si atom -12393.907188 kJ/mol
# Density = 2.289918 g / cm^3
# Si number density = 22.951422 Si / 1000 Ang^3
#
#
#
# Elastic Constant Matrix: (Units=GPa)
#
#
# Indices 1 2 3 4 5 6 
#
# 1 73.8272 24.0343 17.7230 -0.0782 19.2989 9.4081
# 2 24.0343 163.2866 46.2555 -10.8474 25.6048 -6.2871
# 3 17.7230 46.2555 74.7266 -2.3481 42.8685 6.2024
# 4 -0.0782 -10.8474 -2.3481 27.3795 -1.7145 17.4601
# 5 19.2989 25.6048 42.8685 -1.7145 36.1416 0.2683
# 6 9.4081 -6.2871 6.2024 17.4601 0.2683 46.2225
#
#
#
# Elastic Compliance Matrix: (Units=1/GPa)
#
#
# Indices 1 2 3 4 5 6 
#
# 1 0.017372 -0.002041 0.006497 0.002326 -0.015386 -0.005475
# 2 -0.002041 0.007887 -0.006068 0.001731 0.002770 0.001633
# 3 0.006497 -0.006068 0.049933 0.004857 -0.058090 -0.010345
# 4 0.002326 0.001731 0.004857 0.049822 -0.005719 -0.019676
# 5 -0.015386 0.002770 -0.058090 -0.005719 0.102458 0.012869
# 6 -0.005475 0.001633 -0.010345 -0.019676 0.012869 0.031717
#
#
# Mechanical properties :
#
#
# Convention : Reuss Voigt Hill
#
# Bulk Modulus (GPa) = 13.89500 54.20733 34.05116
# Shear Modulus (GPa) = 17.45796 36.87058 27.16427
#
# Velocity S-wave (km/s) = 2.76098 4.01242 3.44402
# Velocity P-wave (km/s) = 4.02880 6.71830 5.53926
#
# Compressibility (1/GPa) = 0.07196833
#
# Stress axis : x y z
#
# Youngs Moduli (GPa) = 57.56401 126.78931 20.02679
#
# Poissons Ratio (x) = 0.25880 -0.13012
# Poissons Ratio (y) = 0.11750 0.12152
# Poissons Ratio (z) = -0.37400 0.76935
#
# Static dielectric constant tensor:
#      x y z
#    x 40.654680 -0.978860 -10.120810 
#    y -0.978860 4.864000 0.228100 
#    z -10.120810 0.228100 6.719440 
# 
# 
# High freq. dielectric constant tensor:
#      x y z
#    x 1.909700 -0.007050 0.027020 
#    y -0.007050 1.933080 0.005520 
#    z 0.027020 0.005520 1.857820 
# 
# From -- ./inp_files/527409.got.cif
#   From: 2010.06.25/outbox.cif.g09.slc.cpg/sg2_264_cif.got.tgz:527409.got - 2010.06.27 13:26:56.
