data_PCOD8006091
_publ_section_title
;
Structure prediction by ZEFSAII (Michael W. Deem and Ramdas Pophale) SiO2 
 PCOD8006091
Probable space group: P -1
;
_chemical_formula_sum "Si O2"
_cell_formula_units_Z 16
_cell_length_a 9.146844
_cell_length_b 12.395140
_cell_length_c 15.823612
_cell_angle_alpha 27.638363
_cell_angle_beta 76.549608
_cell_angle_gamma 87.987483
_cell_volume 749.053120
_symmetry_space_group_name_H-M "P -1"
_symmetry_group_IT_number 2
_symmetry_cell_setting 'triclinic'
loop_
_space_group_symop_operation_xyz
x,y,z
-x,-y,-z
loop_
_atom_site_type_symbol
_atom_site_label
_atom_site_fract_x
_atom_site_fract_y
_atom_site_fract_z
Si Si1 0.731765 0.608697 0.369963
Si Si2 0.077051 0.146337 0.471860
Si Si3 0.379465 0.627821 0.730137
Si Si4 0.900767 0.486300 0.286322
Si Si5 0.384652 0.597419 0.154789
Si Si6 0.707515 0.084319 0.319755
Si Si7 0.777984 0.102608 0.107825
Si Si8 0.459838 0.722709 0.235831
O O1 0.880833 0.589813 0.309839
O O2 0.616599 0.659530 0.280240
O O3 0.651407 0.350031 0.614093
O O4 0.786182 0.833439 0.274925
O O5 0.242730 0.388669 0.264601
O O6 0.944997 0.241052 0.466196
O O7 0.125481 0.957523 0.654923
O O8 0.000000 0.000000 0.500000
O O9 0.261936 0.586849 0.695109
O O10 0.435785 0.392627 0.903654
O O11 0.294553 0.678204 0.790790
O O12 0.548334 0.850635 0.529608
O O13 0.042909 0.695360 0.071300
O O14 0.366256 0.538290 0.299111
O O15 0.359757 0.859957 0.960238
O O16 0.712472 0.137246 0.183912
O O17 0.500000 0.000000 0.000000
#
# Coordination Sequence:
#
# PCOD8006091 Si02
#       8
#     2   2   2   2   2   2   2   2
#     4  11  23  41  69  98 133 179 216 276 338 389
#     4  10  20  40  62  88 127 177 213 273 337 385
#     4  10  20  39  65  92 123 173 228 281 311 399
#     4  11  23  40  64  99 131 170 228 273 327 402
#     4  10  21  39  63  95 131 169 220 272 330 392
#     4  10  22  40  64  89 129 175 225 268 341 387
#     4  11  24  42  63  93 140 179 213 274 340 401
#     4  11  22  41  70  99 134 172 223 277 334 397
#
# _framework density 21.360301
#
# number of rings (size 3 to 8) (size 9 to 14) (size 15 to 20)
#    0.000    1.500    3.750    1.875    1.750    1.000 
#    2.250    4.375    0.000    0.000    0.000    0.000 
#    0.000    0.000    0.000    0.000    0.000    0.000 
#
# Total GULP energy -198260.192134 kJ/mol
# GULP energy per Si atom -12391.262008 kJ/mol
# Density = 2.131168 g / cm^3
# Si number density = 21.360301 Si / 1000 Ang^3
#
#
#
# Elastic Constant Matrix: (Units=GPa)
#
#
# Indices 1 2 3 4 5 6 
#
# 1 126.4002 50.4129 29.2649 -1.7340 21.1857 -11.6543
# 2 50.4129 145.1332 42.4281 10.9615 7.7688 -23.2288
# 3 29.2649 42.4281 74.9522 8.4419 14.1115 -7.0440
# 4 -1.7340 10.9615 8.4419 29.7031 -0.6208 1.7038
# 5 21.1857 7.7688 14.1115 -0.6208 28.1106 -3.4089
# 6 -11.6543 -23.2288 -7.0440 1.7038 -3.4089 45.5047
#
#
#
# Elastic Compliance Matrix: (Units=1/GPa)
#
#
# Indices 1 2 3 4 5 6 
#
# 1 0.010561 -0.002999 -0.001419 0.001971 -0.006325 0.000407
# 2 -0.002999 0.009860 -0.004104 -0.002828 0.002004 0.003886
# 3 -0.001419 -0.004104 0.017941 -0.003808 -0.006893 -0.000055
# 4 0.001971 -0.002828 -0.003808 0.036101 0.001671 -0.002755
# 5 -0.006325 0.002004 -0.006893 0.001671 0.043470 0.001530
# 6 0.000407 0.003886 -0.000055 -0.002755 0.001530 0.024273
#
#
# Mechanical properties :
#
#
# Convention : Reuss Voigt Hill
#
# Bulk Modulus (GPa) = 46.90894 65.63304 56.27099
# Shear Modulus (GPa) = 30.05649 35.62232 32.83941
#
# Velocity S-wave (km/s) = 3.75523 4.08816 3.92523
# Velocity P-wave (km/s) = 6.38833 7.28543 6.85158
#
# Compressibility (1/GPa) = 0.02131790
#
# Stress axis : x y z
#
# Youngs Moduli (GPa) = 94.69226 101.42075 55.73951
#
# Poissons Ratio (x) = 0.30413 0.07908
# Poissons Ratio (y) = 0.28395 0.22876
# Poissons Ratio (z) = 0.13435 0.41624
#
# Static dielectric constant tensor:
#      x y z
#    x 4.149710 -0.151410 0.330970 
#    y -0.151410 4.160150 -0.232520 
#    z 0.330970 -0.232520 3.648640 
# 
# 
# High freq. dielectric constant tensor:
#      x y z
#    x 1.845310 0.001520 0.017740 
#    y 0.001520 1.853590 -0.014000 
#    z 0.017740 -0.014000 1.808080 
# 
# From -- ./inp_files/499695.got.cif
#   From: 2010.06.25/outbox.cif.g09.slc.cpg/sg2_250_cif.got.tgz:499695.got - 2010.06.27 13:26:56.
