data_PCOD8006879
_publ_section_title
;
Structure prediction by ZEFSAII (Michael W. Deem and Ramdas Pophale) SiO2 
 PCOD8006879
Probable space group: P -1
;
_chemical_formula_sum "Si O2"
_cell_formula_units_Z 16
_cell_length_a 8.847065
_cell_length_b 9.174746
_cell_length_c 18.062914
_cell_angle_alpha 134.459893
_cell_angle_beta 65.311260
_cell_angle_gamma 135.361391
_cell_volume 725.695506
_symmetry_space_group_name_H-M "P -1"
_symmetry_group_IT_number 2
_symmetry_cell_setting 'triclinic'
loop_
_space_group_symop_operation_xyz
x,y,z
-x,-y,-z
loop_
_atom_site_type_symbol
_atom_site_label
_atom_site_fract_x
_atom_site_fract_y
_atom_site_fract_z
Si Si1 0.358556 0.680397 0.792588
Si Si2 0.996881 0.603771 0.920102
Si Si3 0.313911 0.810427 0.699432
Si Si4 0.140144 0.898048 0.146306
Si Si5 0.590561 0.678160 0.269429
Si Si6 0.442166 0.601118 0.113743
Si Si7 0.879689 0.654658 0.681350
Si Si8 0.667998 0.171908 0.459774
O O1 0.327075 0.636479 0.694310
O O2 0.286960 0.405670 0.743293
O O3 0.215255 0.752404 0.879989
O O4 0.603208 0.913141 0.850811
O O5 0.929145 0.321857 0.857415
O O6 0.819140 0.573525 0.893509
O O7 0.030841 0.771947 0.044431
O O8 0.417239 0.822409 0.602722
O O9 0.066291 0.694894 0.705187
O O10 0.458721 0.097312 0.811417
O O11 0.064992 0.064241 0.248554
O O12 0.546540 0.584117 0.159804
O O13 0.351278 0.539701 0.299590
O O14 0.749219 0.005025 0.361670
O O15 0.500000 0.500000 0.000000
O O16 0.850915 0.483295 0.554472
O O17 0.500000 0.000000 0.500000
#
# Coordination Sequence:
#
# PCOD8006879 Si02
#       8
#     2   2   2   2   2   2   2   2
#     4  11  23  41  63  94 132 163 207 263 313 373
#     4  11  23  39  64  90 135 168 206 256 319 362
#     4  11  22  38  63  92 127 160 213 257 312 376
#     4  10  23  40  61  96 126 169 209 258 311 378
#     4   9  22  40  64  91 124 165 212 257 319 371
#     4  11  23  39  62  91 128 169 214 254 306 376
#     4  10  20  40  65  88 122 162 213 258 314 368
#     4   9  20  41  66  89 122 166 208 263 311 374
#
# _framework density 22.047813000000001
#
# number of rings (size 3 to 8) (size 9 to 14) (size 15 to 20)
#    0.000    1.750    1.250    2.250    7.000    2.000 
#    0.000   10.625    0.000    0.000    0.000    0.000 
#    0.000    0.000    0.000    0.000    0.000    0.000 
#
# Total GULP energy -198253.570716 kJ/mol
# GULP energy per Si atom -12390.848170 kJ/mol
# Density = 2.199763 g / cm^3
# Si number density = 22.047813 Si / 1000 Ang^3
#
#
#
# Elastic Constant Matrix: (Units=GPa)
#
#
# Indices 1 2 3 4 5 6 
#
# 1 121.9266 35.1592 59.2686 -3.4794 8.6677 -13.0854
# 2 35.1592 51.5615 46.4068 -1.2510 1.5704 -28.3153
# 3 59.2686 46.4068 156.7764 1.1655 2.4474 -12.8863
# 4 -3.4794 -1.2510 1.1655 41.6581 4.4913 6.0934
# 5 8.6677 1.5704 2.4474 4.4913 23.3293 -11.2318
# 6 -13.0854 -28.3153 -12.8863 6.0934 -11.2318 42.6336
#
#
#
# Elastic Compliance Matrix: (Units=1/GPa)
#
#
# Indices 1 2 3 4 5 6 
#
# 1 0.011661 -0.008012 -0.002314 0.002082 -0.006035 -0.004329
# 2 -0.008012 0.052116 -0.009773 -0.005924 0.018439 0.034905
# 3 -0.002314 -0.009773 0.009784 0.000129 -0.001816 -0.004740
# 4 0.002082 -0.005924 0.000129 0.026517 -0.010177 -0.009728
# 5 -0.006035 0.018439 -0.001816 -0.010177 0.058930 0.026825
# 6 -0.004329 0.034905 -0.004740 -0.009728 0.026825 0.052334
#
#
# Mechanical properties :
#
#
# Convention : Reuss Voigt Hill
#
# Bulk Modulus (GPa) = 29.97256 67.99265 48.98260
# Shear Modulus (GPa) = 19.03611 34.15285 26.59448
#
# Velocity S-wave (km/s) = 2.94156 3.94005 3.47683
# Velocity P-wave (km/s) = 5.01606 7.18361 6.19537
#
# Compressibility (1/GPa) = 0.03336385
#
# Stress axis : x y z
#
# Youngs Moduli (GPa) = 85.75936 19.18804 102.21022
#
# Poissons Ratio (x) = 0.15373 0.23649
# Poissons Ratio (y) = 0.68708 0.99886
# Poissons Ratio (z) = 0.19843 0.18752
#
# Static dielectric constant tensor:
#      x y z
#    x 3.907480 -0.041300 0.035350 
#    y -0.041300 4.161860 0.118130 
#    z 0.035350 0.118130 4.256640 
# 
# 
# High freq. dielectric constant tensor:
#      x y z
#    x 1.857440 0.007050 0.000920 
#    y 0.007050 1.878350 -0.002600 
#    z 0.000920 -0.002600 1.870640 
# 
# From -- ./inp_files/556532.got.cif
#   From: 2010.06.25/outbox.cif.g09.slc.cpg/sg2_279_cif.got.tgz:556532.got - 2010.06.27 13:26:56.
