data_PCOD8006682
_publ_section_title
;
Structure prediction by ZEFSAII (Michael W. Deem and Ramdas Pophale) SiO2 
 PCOD8006682
Probable space group: P -1
;
_chemical_formula_sum "Si O2"
_cell_formula_units_Z 16
_cell_length_a 10.240749
_cell_length_b 21.926809
_cell_length_c 18.168818
_cell_angle_alpha 26.993311
_cell_angle_beta 28.861815
_cell_angle_gamma 28.185569
_cell_volume 793.096113
_symmetry_space_group_name_H-M "P -1"
_symmetry_group_IT_number 2
_symmetry_cell_setting 'triclinic'
loop_
_space_group_symop_operation_xyz
x,y,z
-x,-y,-z
loop_
_atom_site_type_symbol
_atom_site_label
_atom_site_fract_x
_atom_site_fract_y
_atom_site_fract_z
Si Si1 0.078403 0.899710 0.462279
Si Si2 0.444794 0.011450 0.929529
Si Si3 0.812409 0.248565 0.011852
Si Si4 0.290677 0.171793 0.394416
Si Si5 0.938882 0.700530 0.013985
Si Si6 0.890591 0.516130 0.620013
Si Si7 0.846834 0.448973 0.401744
Si Si8 0.267896 0.776486 0.657176
O O1 0.397767 0.893609 0.286776
O O2 0.122774 0.810236 0.612046
O O3 0.964407 0.818966 0.546499
O O4 0.822654 0.072557 0.412881
O O5 0.081995 0.100809 0.997002
O O6 0.500000 0.000000 0.000000
O O7 0.602994 0.837139 0.011092
O O8 0.767415 0.395512 0.829720
O O9 0.915828 0.252437 0.039950
O O10 0.501011 0.235500 0.182505
O O11 0.091547 0.275088 0.450326
O O12 0.500000 0.000000 0.500000
O O13 0.938741 0.544785 0.197337
O O14 0.150524 0.670713 0.870593
O O15 0.628975 0.687135 0.571677
O O16 0.000000 0.500000 0.500000
O O17 0.141698 0.504750 0.568557
O O18 0.500000 0.500000 0.500000
#
# Coordination Sequence:
#
# PCOD8006682 Si02
#       8
#     2   2   2   2   2   2   2   2
#     4  10  22  37  64  92 124 164 210 260 311 377
#     4   9  17  33  61  84 115 160 212 246 303 370
#     4  10  21  36  62  92 119 162 213 251 307 383
#     4  12  24  39  64  95 131 160 203 271 319 359
#     4   9  19  38  61  84 118 167 206 254 304 378
#     4  11  23  41  65  88 125 173 210 258 312 381
#     4  11  26  40  62  95 129 162 215 262 313 373
#     4  10  20  40  63  86 121 167 215 251 313 380
#
# _framework density 20.174099999999999
#
# number of rings (size 3 to 8) (size 9 to 14) (size 15 to 20)
#    0.000    1.750    0.000    5.250    8.750    2.000 
#    2.250    1.250    0.000    3.750    0.000    0.000 
#    0.000    0.000    0.000    0.000    0.000    0.000 
#
# Total GULP energy -198330.952001 kJ/mol
# GULP energy per Si atom -12395.684500 kJ/mol
# Density = 2.012818 g / cm^3
# Si number density = 20.174100 Si / 1000 Ang^3
#
#
#
# Elastic Constant Matrix: (Units=GPa)
#
#
# Indices 1 2 3 4 5 6 
#
# 1 86.4608 26.3970 58.1218 1.6453 13.5528 7.3845
# 2 26.3970 112.7725 39.3784 14.6322 0.0249 -0.2681
# 3 58.1218 39.3784 96.1276 2.4655 20.8315 1.2731
# 4 1.6453 14.6322 2.4655 32.8210 1.1300 2.7065
# 5 13.5528 0.0249 20.8315 1.1300 35.0961 4.1988
# 6 7.3845 -0.2681 1.2731 2.7065 4.1988 23.7567
#
#
#
# Elastic Compliance Matrix: (Units=1/GPa)
#
#
# Indices 1 2 3 4 5 6 
#
# 1 0.020259 -0.000692 -0.011884 0.000661 -0.000105 -0.005725
# 2 -0.000692 0.011331 -0.004800 -0.004814 0.003193 0.000584
# 3 -0.011884 -0.004800 0.021332 0.001108 -0.008569 0.003885
# 4 0.000661 -0.004814 0.001108 0.032863 -0.001513 -0.003796
# 5 -0.000105 0.003193 -0.008569 -0.001513 0.034308 -0.005363
# 6 -0.005725 0.000584 0.003885 -0.003796 -0.005363 0.045052
#
#
# Mechanical properties :
#
#
# Convention : Reuss Voigt Hill
#
# Bulk Modulus (GPa) = 55.03455 60.35060 57.69257
# Shear Modulus (GPa) = 24.27750 29.76568 27.02159
#
# Velocity S-wave (km/s) = 3.47277 3.84531 3.66378
# Velocity P-wave (km/s) = 6.58932 7.04947 6.82328
#
# Compressibility (1/GPa) = 0.01817040
#
# Stress axis : x y z
#
# Youngs Moduli (GPa) = 49.36095 88.25688 46.87860
#
# Poissons Ratio (x) = 0.06105 0.55711
# Poissons Ratio (y) = 0.03414 0.22499
# Poissons Ratio (z) = 0.58662 0.42359
#
# Static dielectric constant tensor:
#      x y z
#    x 3.485880 0.027470 0.331970 
#    y 0.027470 4.227840 0.335080 
#    z 0.331970 0.335080 4.534490 
# 
# 
# High freq. dielectric constant tensor:
#      x y z
#    x 1.758140 -0.003280 0.020870 
#    y -0.003280 1.809790 0.001780 
#    z 0.020870 0.001780 1.784720 
# 
# From -- ./inp_files/509152.got.cif
#   From: 2010.06.25/outbox.cif.g09.slc.cpg/sg2_255_cif.got.tgz:509152.got - 2010.06.27 13:26:56.
