data_PCOD8006991
_publ_section_title
;
Structure prediction by ZEFSAII (Michael W. Deem and Ramdas Pophale) SiO2 
 PCOD8006991
Probable space group: P -1
;
_chemical_formula_sum "Si O2"
_cell_formula_units_Z 12
_cell_length_a 10.034461
_cell_length_b 9.398263
_cell_length_c 9.166650
_cell_angle_alpha 65.773920
_cell_angle_beta 124.904749
_cell_angle_gamma 119.085697
_cell_volume 608.927623
_symmetry_space_group_name_H-M "P -1"
_symmetry_group_IT_number 2
_symmetry_cell_setting 'triclinic'
loop_
_space_group_symop_operation_xyz
x,y,z
-x,-y,-z
loop_
_atom_site_type_symbol
_atom_site_label
_atom_site_fract_x
_atom_site_fract_y
_atom_site_fract_z
Si Si1 0.508922 0.142572 0.328994
Si Si2 0.158391 0.617042 0.962773
Si Si3 0.034429 0.167544 0.796471
Si Si4 0.354664 0.404209 0.062402
Si Si5 0.218084 0.920832 0.070754
Si Si6 0.099898 0.667090 0.578313
O O1 0.406005 0.270756 0.251314
O O2 0.698748 0.261227 0.363217
O O3 0.500000 0.000000 0.500000
O O4 0.411641 0.049363 0.161549
O O5 0.081208 0.646389 0.747615
O O6 0.309529 0.536457 0.081206
O O7 0.239429 0.786299 0.030187
O O8 0.000000 0.500000 0.000000
O O9 0.862435 0.147132 0.793065
O O10 0.991055 0.203914 0.588726
O O11 0.185069 0.318488 0.897190
O O12 0.085868 0.003776 0.885217
O O13 0.500000 0.500000 0.000000
O O14 0.000000 0.500000 0.500000
#
# Coordination Sequence:
#
# PCOD8006991 Si02
#       6
#     2   2   2   2   2   2
#     4  11  23  40  70  95 129 171 225 266 321 395
#     4  12  24  40  67  96 134 169 222 275 324 383
#     4  10  20  40  66  90 128 175 216 256 332 399
#     4  11  21  42  66  94 127 180 219 258 330 395
#     4  10  22  40  64  95 131 169 213 269 332 383
#     4  12  22  40  69  96 127 176 226 263 323 402
#
# _framework density 19.706776999999999
#
# number of rings (size 3 to 8) (size 9 to 14) (size 15 to 20)
#    0.000    1.000    6.667    0.000    0.000    1.333 
#    0.000    0.833    3.667    0.000    0.000    0.000 
#    0.000    0.000    0.000    0.000    0.000    0.000 
#
# Total GULP energy -148732.595135 kJ/mol
# GULP energy per Si atom -12394.382928 kJ/mol
# Density = 1.966192 g / cm^3
# Si number density = 19.706777 Si / 1000 Ang^3
#
#
#
# Elastic Constant Matrix: (Units=GPa)
#
#
# Indices 1 2 3 4 5 6 
#
# 1 113.0857 66.9912 47.8287 -2.5099 5.2279 -2.5747
# 2 66.9912 138.6629 50.7926 5.5855 4.1285 -14.2500
# 3 47.8287 50.7926 145.3481 -22.6926 -0.1403 -9.0018
# 4 -2.5099 5.5855 -22.6926 35.3751 7.1161 9.3328
# 5 5.2279 4.1285 -0.1403 7.1161 29.0568 0.8661
# 6 -2.5747 -14.2500 -9.0018 9.3328 0.8661 47.6308
#
#
#
# Elastic Compliance Matrix: (Units=1/GPa)
#
#
# Indices 1 2 3 4 5 6 
#
# 1 0.013283 -0.005742 -0.002283 0.001182 -0.001826 -0.001630
# 2 -0.005742 0.011532 -0.002699 -0.005011 0.000501 0.003602
# 3 -0.002283 -0.002699 0.009591 0.006684 -0.000784 -0.000414
# 4 0.001182 -0.005011 0.006684 0.037024 -0.008319 -0.007275
# 5 -0.001826 0.000501 -0.000784 -0.008319 0.036680 0.000866
# 6 -0.001630 0.003602 -0.000414 -0.007275 0.000866 0.023316
#
#
# Mechanical properties :
#
#
# Convention : Reuss Voigt Hill
#
# Bulk Modulus (GPa) = 77.16592 80.92462 79.04527
# Shear Modulus (GPa) = 31.80787 37.84482 34.82634
#
# Velocity S-wave (km/s) = 4.02189 4.38699 4.20840
# Velocity P-wave (km/s) = 7.79805 8.17401 7.98824
#
# Compressibility (1/GPa) = 0.01295909
#
# Stress axis : x y z
#
# Youngs Moduli (GPa) = 75.28192 86.71797 104.25925
#
# Poissons Ratio (x) = 0.49795 0.23798
# Poissons Ratio (y) = 0.43228 0.28139
# Poissons Ratio (z) = 0.17184 0.23405
#
# Static dielectric constant tensor:
#      x y z
#    x 3.629110 0.086660 0.151060 
#    y 0.086660 3.824580 -0.160280 
#    z 0.151060 -0.160280 4.175930 
# 
# 
# High freq. dielectric constant tensor:
#      x y z
#    x 1.751410 0.020030 0.019810 
#    y 0.020030 1.783810 -0.016850 
#    z 0.019810 -0.016850 1.772520 
# 
# From -- ./inp_files/145154.got.cif
#   From: 2010.06.25/outbox.cif.g09.slc.cpg/sg2_73_cif.got.tgz:145154.got - 2010.06.27 13:26:56.
