data_PCOD8006681
_publ_section_title
;
Structure prediction by ZEFSAII (Michael W. Deem and Ramdas Pophale) SiO2 
 PCOD8006681
Probable space group: P -1
;
_chemical_formula_sum "Si O2"
_cell_formula_units_Z 16
_cell_length_a 8.999673
_cell_length_b 11.237137
_cell_length_c 8.241402
_cell_angle_alpha 94.460554
_cell_angle_beta 105.326096
_cell_angle_gamma 76.196247
_cell_volume 780.505850
_symmetry_space_group_name_H-M "P -1"
_symmetry_group_IT_number 2
_symmetry_cell_setting 'triclinic'
loop_
_space_group_symop_operation_xyz
x,y,z
-x,-y,-z
loop_
_atom_site_type_symbol
_atom_site_label
_atom_site_fract_x
_atom_site_fract_y
_atom_site_fract_z
Si Si1 0.572445 0.885910 0.399482
Si Si2 0.798715 0.514222 0.769919
Si Si3 0.896795 0.377029 0.109805
Si Si4 0.918786 0.892816 0.521829
Si Si5 0.188298 0.655074 0.559027
Si Si6 0.484944 0.269983 0.361572
Si Si7 0.935262 0.891187 0.898565
Si Si8 0.591648 0.951337 0.867663
O O1 0.750163 0.890744 0.390837
O O2 0.570673 0.757614 0.474803
O O3 0.500000 0.000000 0.500000
O O4 0.444882 0.916484 0.221949
O O5 0.818319 0.437140 0.600608
O O6 0.631611 0.609783 0.728576
O O7 0.937978 0.584964 0.821131
O O8 0.797541 0.441706 0.932798
O O9 0.807331 0.403193 0.262384
O O10 0.932875 0.233572 0.059817
O O11 0.880173 0.915020 0.701298
O O12 0.033012 0.762241 0.507003
O O13 0.000000 0.000000 0.500000
O O14 0.340351 0.709342 0.582821
O O15 0.488399 0.151756 0.241618
O O16 0.774722 0.890675 0.949164
O O17 0.000000 0.000000 0.000000
O O18 0.500000 0.000000 0.000000
#
# Coordination Sequence:
#
# PCOD8006681 Si02
#       8
#     2   2   2   2   2   2   2   2
#     4  10  20  40  63  85 130 171 206 261 325 383
#     4  11  23  46  70  88 135 177 220 273 339 384
#     4  10  24  45  65  98 132 170 221 283 319 397
#     4  11  22  39  63  95 129 168 220 271 318 402
#     4  11  25  40  68  98 126 172 233 267 329 401
#     4  11  22  45  63  92 133 172 217 278 327 391
#     4  11  24  40  64  94 134 164 209 274 328 387
#     4  11  24  40  63  95 131 174 212 260 337 397
#
# _framework density 20.499528999999999
#
# number of rings (size 3 to 8) (size 9 to 14) (size 15 to 20)
#    0.000    1.250    3.750    3.000    7.000    0.500 
#    2.250    0.000    0.000    0.000    0.000    0.000 
#    0.000    0.000    0.000    0.000    0.000    0.000 
#
# Total GULP energy -198217.239518 kJ/mol
# GULP energy per Si atom -12388.577470 kJ/mol
# Density = 2.045287 g / cm^3
# Si number density = 20.499529 Si / 1000 Ang^3
#
#
#
# Elastic Constant Matrix: (Units=GPa)
#
#
# Indices 1 2 3 4 5 6 
#
# 1 107.5338 29.4951 19.1877 -0.4212 -1.3287 -7.2537
# 2 29.4951 105.7806 55.4142 -3.0712 -4.1282 -7.2636
# 3 19.1877 55.4142 96.9200 2.1540 -17.7725 -10.7489
# 4 -0.4212 -3.0712 2.1540 39.7551 3.7962 2.7368
# 5 -1.3287 -4.1282 -17.7725 3.7962 37.5740 -1.6581
# 6 -7.2537 -7.2636 -10.7489 2.7368 -1.6581 35.0115
#
#
#
# Elastic Compliance Matrix: (Units=1/GPa)
#
#
# Indices 1 2 3 4 5 6 
#
# 1 0.010163 -0.002526 -0.000407 -0.000164 -0.000029 0.001468
# 2 -0.002526 0.014442 -0.008320 0.001815 -0.002637 -0.000348
# 3 -0.000407 -0.008320 0.017041 -0.002567 0.007567 0.003981
# 4 -0.000164 0.001815 -0.002567 0.025974 -0.003762 -0.002654
# 5 -0.000029 -0.002637 0.007567 -0.003762 0.030437 0.003506
# 6 0.001468 -0.000348 0.003981 -0.002654 0.003506 0.030390
#
#
# Mechanical properties :
#
#
# Convention : Reuss Voigt Hill
#
# Bulk Modulus (GPa) = 52.24198 57.60318 54.92258
# Shear Modulus (GPa) = 31.78002 36.21059 33.99530
#
# Velocity S-wave (km/s) = 3.94163 4.20743 4.07670
# Velocity P-wave (km/s) = 6.80111 7.19472 7.00068
#
# Compressibility (1/GPa) = 0.01914169
#
# Stress axis : x y z
#
# Youngs Moduli (GPa) = 98.39828 69.24228 58.68118
#
# Poissons Ratio (x) = 0.17489 0.02387
# Poissons Ratio (y) = 0.24852 0.48821
# Poissons Ratio (z) = 0.04003 0.57607
#
# Static dielectric constant tensor:
#      x y z
#    x 3.572950 -0.091390 -0.415610 
#    y -0.091390 3.737530 -0.310830 
#    z -0.415610 -0.310830 3.725730 
# 
# 
# High freq. dielectric constant tensor:
#      x y z
#    x 1.808250 -0.004880 -0.003640 
#    y -0.004880 1.803840 -0.009360 
#    z -0.003640 -0.009360 1.802920 
# 
# From -- ./inp_files/188703.got.cif
#   From: 2010.06.25/outbox.cif.g09.slc.cpg/sg2_95_cif.got.tgz:188703.got - 2010.06.27 13:26:56.
