data_PCOD8006619
_publ_section_title
;
Structure prediction by ZEFSAII (Michael W. Deem and Ramdas Pophale) SiO2 
 PCOD8006619
Probable space group: P -1
;
_chemical_formula_sum "Si O2"
_cell_formula_units_Z 14
_cell_length_a 5.487044
_cell_length_b 11.097260
_cell_length_c 13.498003
_cell_angle_alpha 125.356870
_cell_angle_beta 95.503406
_cell_angle_gamma 85.971526
_cell_volume 667.119007
_symmetry_space_group_name_H-M "P -1"
_symmetry_group_IT_number 2
_symmetry_cell_setting 'triclinic'
loop_
_space_group_symop_operation_xyz
x,y,z
-x,-y,-z
loop_
_atom_site_type_symbol
_atom_site_label
_atom_site_fract_x
_atom_site_fract_y
_atom_site_fract_z
Si Si1 0.257211 0.350045 0.342672
Si Si2 0.018533 0.624812 0.140306
Si Si3 0.582103 0.341948 0.541016
Si Si4 0.754302 0.094006 0.773490
Si Si5 0.490129 0.054073 0.137065
Si Si6 0.903674 0.160376 0.332418
Si Si7 0.475014 0.304402 0.735195
O O1 0.382741 0.369859 0.463132
O O2 0.269536 0.505980 0.360315
O O3 0.376418 0.219995 0.218267
O O4 0.981228 0.303807 0.338522
O O5 0.777583 0.621462 0.199168
O O6 0.032910 0.783830 0.161599
O O7 0.279677 0.596381 0.193130
O O8 0.000000 0.500000 0.000000
O O9 0.763231 0.210932 0.449475
O O10 0.447187 0.285745 0.607628
O O11 0.529196 0.146994 0.717950
O O12 0.666041 0.069202 0.870611
O O13 0.861880 0.935432 0.665395
O O14 0.752390 0.057515 0.202851
O O15 0.500000 0.000000 0.000000
#
# Coordination Sequence:
#
# PCOD8006619 Si02
#       7
#     2   2   2   2   2   2   2
#     4   9  21  38  60  91 123 170 211 275 316 379
#     4  10  22  43  63  91 132 169 214 264 318 382
#     4  10  21  39  62  90 131 162 222 263 324 382
#     4   9  22  38  62  90 127 164 212 263 324 375
#     4  10  21  40  60  91 125 168 217 263 323 385
#     4  10  20  40  62  88 126 169 211 269 325 375
#     4  10  23  40  65  97 125 168 214 260 325 379
#
# _framework density 20.985759999999999
#
# number of rings (size 3 to 8) (size 9 to 14) (size 15 to 20)
#    0.857    1.429    0.000    1.714    2.000    4.000 
#    5.143    7.143    0.000    0.000    0.000    0.000 
#    0.000    0.000    0.000    0.000    0.000    0.000 
#
# Total GULP energy -173441.970445 kJ/mol
# GULP energy per Si atom -12388.712175 kJ/mol
# Density = 2.093800 g / cm^3
# Si number density = 20.985760 Si / 1000 Ang^3
#
#
#
# Elastic Constant Matrix: (Units=GPa)
#
#
# Indices 1 2 3 4 5 6 
#
# 1 109.3427 19.2164 46.2507 -6.3621 -22.0243 18.1996
# 2 19.2164 93.8906 62.3298 -10.0005 -11.8198 11.5120
# 3 46.2507 62.3298 150.7540 -16.0707 -22.1506 11.9223
# 4 -6.3621 -10.0005 -16.0707 26.3610 13.5157 0.2045
# 5 -22.0243 -11.8198 -22.1506 13.5157 24.2958 -2.7874
# 6 18.1996 11.5120 11.9223 0.2045 -2.7874 25.7322
#
#
#
# Elastic Compliance Matrix: (Units=1/GPa)
#
#
# Indices 1 2 3 4 5 6 
#
# 1 0.013428 0.000959 -0.002648 -0.003859 0.011520 -0.007421
# 2 0.000959 0.015273 -0.005838 0.001749 0.001469 -0.004661
# 3 -0.002648 -0.005838 0.010553 0.001871 0.003333 -0.000059
# 4 -0.003859 0.001749 0.001871 0.055232 -0.031990 -0.002825
# 5 0.011520 0.001469 0.003333 -0.031990 0.072900 -0.002198
# 6 -0.007421 -0.004661 -0.000059 -0.002825 -0.002198 0.046007
#
#
# Mechanical properties :
#
#
# Convention : Reuss Voigt Hill
#
# Bulk Modulus (GPa) = 41.32212 67.73121 54.52667
# Shear Modulus (GPa) = 21.14048 30.35717 25.74883
#
# Velocity S-wave (km/s) = 3.17736 3.80749 3.50661
# Velocity P-wave (km/s) = 5.76143 7.18848 6.51415
#
# Compressibility (1/GPa) = 0.02420011
#
# Stress axis : x y z
#
# Youngs Moduli (GPa) = 74.47014 65.47685 94.75793
#
# Poissons Ratio (x) = -0.06277 0.25090
# Poissons Ratio (y) = -0.07139 0.55317
# Poissons Ratio (z) = 0.19718 0.38223
#
# Static dielectric constant tensor:
#      x y z
#    x 3.924840 0.252130 -0.108510 
#    y 0.252130 3.990790 0.059540 
#    z -0.108510 0.059540 3.478340 
# 
# 
# High freq. dielectric constant tensor:
#      x y z
#    x 1.824280 0.014660 -0.012900 
#    y 0.014660 1.818300 0.006180 
#    z -0.012900 0.006180 1.801840 
# 
# From -- ./inp_files/83857.got.cif
#   From: 2010.06.25/outbox.cif.g09.slc.cpg/sg2_42_cif.got.tgz:83857.got - 2010.06.27 13:26:56.
