data_PCOD8006935
_publ_section_title
;
Structure prediction by ZEFSAII (Michael W. Deem and Ramdas Pophale) SiO2 
 PCOD8006935
Probable space group: P -1
;
_chemical_formula_sum "Si O2"
_cell_formula_units_Z 12
_cell_length_a 10.588901
_cell_length_b 7.814795
_cell_length_c 9.239187
_cell_angle_alpha 127.489344
_cell_angle_beta 67.031116
_cell_angle_gamma 88.557733
_cell_volume 521.192041
_symmetry_space_group_name_H-M "P -1"
_symmetry_group_IT_number 2
_symmetry_cell_setting 'triclinic'
loop_
_space_group_symop_operation_xyz
x,y,z
-x,-y,-z
loop_
_atom_site_type_symbol
_atom_site_label
_atom_site_fract_x
_atom_site_fract_y
_atom_site_fract_z
Si Si1 0.411057 0.517692 0.906175
Si Si2 0.048516 0.683550 0.419634
Si Si3 0.844320 0.478633 0.285340
Si Si4 0.111695 0.833183 0.161638
Si Si5 0.327426 0.140222 0.650985
Si Si6 0.301096 0.679770 0.486098
O O1 0.313294 0.351271 0.875997
O O2 0.524501 0.445619 0.684052
O O3 0.500000 0.500000 0.000000
O O4 0.288846 0.770499 0.066341
O O5 0.042013 0.761404 0.296460
O O6 0.215266 0.585665 0.354487
O O7 0.966930 0.496825 0.354404
O O8 0.959787 0.890689 0.676397
O O9 0.746640 0.735525 0.401856
O O10 0.734432 0.381553 0.369365
O O11 0.922891 0.296727 0.029479
O O12 0.500000 0.000000 0.500000
O O13 0.249713 0.961016 0.640833
#
# Coordination Sequence:
#
# PCOD8006935 Si02
#       6
#     2   2   2   2   2   2
#     4  10  20  40  65  94 126 168 216 264 326 383
#     4  11  22  41  66  93 135 175 212 265 321 388
#     4  11  24  42  66 100 130 170 220 267 320 387
#     4  10  22  40  67  93 131 170 222 264 325 380
#     4   9  21  38  65  89 128 169 204 265 325 373
#     4  11  23  43  67  96 132 169 217 268 322 387
#
# _framework density 23.024142000000001
#
# number of rings (size 3 to 8) (size 9 to 14) (size 15 to 20)
#    0.000    1.667    1.667    3.000    2.333    8.000 
#    3.000    0.833    0.000    0.000    0.000    0.000 
#    0.000    0.000    0.000    0.000    0.000    0.000 
#
# Total GULP energy -148715.286405 kJ/mol
# GULP energy per Si atom -12392.940534 kJ/mol
# Density = 2.297174 g / cm^3
# Si number density = 23.024142 Si / 1000 Ang^3
#
#
#
# Elastic Constant Matrix: (Units=GPa)
#
#
# Indices 1 2 3 4 5 6 
#
# 1 118.4843 22.8915 25.3599 14.4565 15.5318 14.8049
# 2 22.8915 111.1200 29.4428 -6.8003 -7.9380 14.5730
# 3 25.3599 29.4428 106.9795 10.8708 -2.5381 13.2353
# 4 14.4565 -6.8003 10.8708 19.2782 1.1494 -4.2579
# 5 15.5318 -7.9380 -2.5381 1.1494 35.5563 5.1968
# 6 14.8049 14.5730 13.2353 -4.2579 5.1968 30.4487
#
#
#
# Elastic Compliance Matrix: (Units=1/GPa)
#
#
# Indices 1 2 3 4 5 6 
#
# 1 0.011451 -0.002536 -0.000529 -0.009955 -0.004592 -0.004733
# 2 -0.002536 0.011263 -0.002760 0.006632 0.003597 -0.002644
# 3 -0.000529 -0.002760 0.011728 -0.008367 0.001444 -0.004936
# 4 -0.009955 0.006632 -0.008367 0.069638 0.000802 0.014904
# 5 -0.004592 0.003597 0.001444 0.000802 0.031805 -0.005432
# 6 -0.004733 -0.002644 -0.004936 0.014904 -0.005432 0.041566
#
#
# Mechanical properties :
#
#
# Convention : Reuss Voigt Hill
#
# Bulk Modulus (GPa) = 43.87335 54.66356 49.26845
# Shear Modulus (GPa) = 25.42000 34.31596 29.86798
#
# Velocity S-wave (km/s) = 3.32634 3.86480 3.60564
# Velocity P-wave (km/s) = 5.81803 6.61128 6.22730
#
# Compressibility (1/GPa) = 0.02279288
#
# Stress axis : x y z
#
# Youngs Moduli (GPa) = 87.32951 88.78993 85.26881
#
# Poissons Ratio (x) = 0.22513 0.04507
# Poissons Ratio (y) = 0.22142 0.23535
# Poissons Ratio (z) = 0.04616 0.24506
#
# Static dielectric constant tensor:
#      x y z
#    x 4.403990 0.203320 -0.112280 
#    y 0.203320 4.285060 0.450620 
#    z -0.112280 0.450620 4.465460 
# 
# 
# High freq. dielectric constant tensor:
#      x y z
#    x 1.931950 0.003630 0.000600 
#    y 0.003630 1.882630 0.009590 
#    z 0.000600 0.009590 1.902390 
# 
# From -- ./inp_files/245748.got.cif
#   From: 2010.06.25/outbox.cif.g09.slc.cpg/sg2_123_cif.got.tgz:245748.got - 2010.06.27 13:26:56.
