data_PCOD8006568
_publ_section_title
;
Structure prediction by ZEFSAII (Michael W. Deem and Ramdas Pophale) SiO2 
 PCOD8006568
Probable space group: P -1
;
_chemical_formula_sum "Si O2"
_cell_formula_units_Z 16
_cell_length_a 14.948624
_cell_length_b 10.032916
_cell_length_c 11.776737
_cell_angle_alpha 111.477533
_cell_angle_beta 150.239147
_cell_angle_gamma 80.086147
_cell_volume 774.219371
_symmetry_space_group_name_H-M "P -1"
_symmetry_group_IT_number 2
_symmetry_cell_setting 'triclinic'
loop_
_space_group_symop_operation_xyz
x,y,z
-x,-y,-z
loop_
_atom_site_type_symbol
_atom_site_label
_atom_site_fract_x
_atom_site_fract_y
_atom_site_fract_z
Si Si1 0.864782 0.673697 0.358045
Si Si2 0.009843 0.967247 0.743991
Si Si3 0.370130 0.250045 0.471552
Si Si4 0.893118 0.489048 0.550109
Si Si5 0.952800 0.216036 0.061078
Si Si6 0.491451 0.583375 0.782089
Si Si7 0.601528 0.804461 0.770300
Si Si8 0.677084 0.029499 0.523234
O O1 0.833932 0.567221 0.400434
O O2 0.964637 0.847082 0.554940
O O3 0.995707 0.626806 0.395453
O O4 0.660943 0.660411 0.078379
O O5 0.091927 0.903683 0.923395
O O6 0.818975 0.004895 0.576424
O O7 0.175586 0.115698 0.932817
O O8 0.472838 0.408015 0.694829
O O9 0.440811 0.253632 0.422734
O O10 0.143919 0.213287 0.208744
O O11 0.422210 0.123499 0.563510
O O12 0.701106 0.396555 0.373829
O O13 0.029162 0.617140 0.821916
O O14 0.784813 0.164771 0.769566
O O15 0.526720 0.659993 0.722290
O O16 0.487284 0.922946 0.706070
#
# Coordination Sequence:
#
# PCOD8006568 Si02
#       8
#     2   2   2   2   2   2   2   2
#     4  10  22  41  67  83 117 167 203 251 293 355
#     4  10  21  39  60  90 118 154 211 247 295 351
#     4  10  20  40  61  89 124 160 204 248 295 359
#     4   9  21  40  63  93 115 156 213 247 292 361
#     4   9  17  37  64  89 120 152 204 262 287 342
#     4  11  25  40  59  91 131 157 193 251 310 358
#     4  12  24  37  59  94 126 161 196 245 308 367
#     4  11  21  37  66  92 118 161 203 254 294 346
#
# _framework density 20.665979
#
# number of rings (size 3 to 8) (size 9 to 14) (size 15 to 20)
#    0.000    1.750    2.500    2.625    1.750    4.500 
#    0.000    2.500    0.000    0.000    0.000    0.000 
#    0.000    0.000    0.000    0.000    0.000    0.000 
#
# Total GULP energy -198491.406993 kJ/mol
# GULP energy per Si atom -12405.712937 kJ/mol
# Density = 2.061894 g / cm^3
# Si number density = 20.665979 Si / 1000 Ang^3
#
#
#
# Elastic Constant Matrix: (Units=GPa)
#
#
# Indices 1 2 3 4 5 6 
#
# 1 99.7593 41.9182 29.2827 12.8887 11.9176 -11.7050
# 2 41.9182 67.9670 32.6771 7.1011 -2.3751 -2.4554
# 3 29.2827 32.6771 61.4737 10.4551 1.3312 -1.7133
# 4 12.8887 7.1011 10.4551 18.8767 -0.5338 -2.5310
# 5 11.9176 -2.3751 1.3312 -0.5338 22.5300 10.1244
# 6 -11.7050 -2.4554 -1.7133 -2.5310 10.1244 34.0490
#
#
#
# Elastic Compliance Matrix: (Units=1/GPa)
#
#
# Indices 1 2 3 4 5 6 
#
# 1 0.018666 -0.010145 -0.001684 -0.007138 -0.015341 0.009632
# 2 -0.010145 0.025492 -0.009476 0.002195 0.011020 -0.005240
# 3 -0.001684 -0.009476 0.023566 -0.008413 -0.001598 -0.000227
# 4 -0.007138 0.002195 -0.008413 0.061867 0.005916 0.000121
# 5 -0.015341 0.011020 -0.001598 0.005916 0.064346 -0.023253
# 6 0.009632 -0.005240 -0.000227 0.000121 -0.023253 0.039214
#
#
# Mechanical properties :
#
#
# Convention : Reuss Voigt Hill
#
# Bulk Modulus (GPa) = 39.81910 48.55069 44.18490
# Shear Modulus (GPa) = 17.59737 23.44596 20.52166
#
# Velocity S-wave (km/s) = 2.92124 3.37192 3.15464
# Velocity P-wave (km/s) = 5.53967 6.22124 5.89032
#
# Compressibility (1/GPa) = 0.02511358
#
# Stress axis : x y z
#
# Youngs Moduli (GPa) = 53.57210 39.22753 42.43453
#
# Poissons Ratio (x) = 0.39796 0.07147
# Poissons Ratio (y) = 0.54349 0.40212
# Poissons Ratio (z) = 0.09023 0.37173
#
# Static dielectric constant tensor:
#      x y z
#    x 3.823190 -0.156900 0.087220 
#    y -0.156900 3.548680 0.170100 
#    z 0.087220 0.170100 3.579730 
# 
# 
# High freq. dielectric constant tensor:
#      x y z
#    x 1.813880 -0.015200 0.008280 
#    y -0.015200 1.790290 0.013360 
#    z 0.008280 0.013360 1.804870 
# 
# From -- ./inp_files/447962.got.cif
#   From: 2010.06.25/outbox.cif.g09.slc.cpg/sg2_224_cif.got.tgz:447962.got - 2010.06.27 13:26:56.
