data_PCOD8006972
_publ_section_title
;
Structure prediction by ZEFSAII (Michael W. Deem and Ramdas Pophale) SiO2 
 PCOD8006972
Probable space group: P -1
;
_chemical_formula_sum "Si O2"
_cell_formula_units_Z 16
_cell_length_a 9.226182
_cell_length_b 12.411563
_cell_length_c 22.458553
_cell_angle_alpha 141.086655
_cell_angle_beta 150.901066
_cell_angle_gamma 46.870554
_cell_volume 785.557710
_symmetry_space_group_name_H-M "P -1"
_symmetry_group_IT_number 2
_symmetry_cell_setting 'triclinic'
loop_
_space_group_symop_operation_xyz
x,y,z
-x,-y,-z
loop_
_atom_site_type_symbol
_atom_site_label
_atom_site_fract_x
_atom_site_fract_y
_atom_site_fract_z
Si Si1 0.483046 0.065617 0.203305
Si Si2 0.980286 0.603535 0.977442
Si Si3 0.893562 0.015945 0.790234
Si Si4 0.629130 0.545676 0.182127
Si Si5 0.716846 0.903683 0.335732
Si Si6 0.914033 0.184475 0.115811
Si Si7 0.977199 0.227509 0.371241
Si Si8 0.369157 0.475308 0.685255
O O1 0.726060 0.187140 0.312807
O O2 0.212235 0.179876 0.181310
O O3 0.633753 0.952330 0.259893
O O4 0.345647 0.940073 0.051662
O O5 0.700957 0.534185 0.808985
O O6 0.000000 0.500000 0.000000
O O7 0.928237 0.806722 0.059816
O O8 0.295617 0.564707 0.041721
O O9 0.547960 0.053739 0.694837
O O10 0.016769 0.867954 0.814389
O O11 0.933312 0.945155 0.706910
O O12 0.807326 0.703430 0.285902
O O13 0.791825 0.374906 0.146820
O O14 0.624723 0.560926 0.258213
O O15 0.000000 0.000000 0.500000
O O16 0.861339 0.371527 0.345825
O O17 0.269629 0.301904 0.541278
#
# Coordination Sequence:
#
# PCOD8006972 Si02
#       8
#     2   2   2   2   2   2   2   2
#     4  10  23  39  62  92 125 156 206 257 301 358
#     4   9  20  36  58  91 121 158 199 252 297 359
#     4  10  21  40  68  89 120 166 210 244 308 366
#     4  10  20  40  66  86 120 164 208 245 303 367
#     4  10  22  44  60  86 127 167 197 248 310 373
#     4  10  21  41  65  92 116 162 212 253 300 358
#     4  11  22  38  63  96 126 156 202 260 305 360
#     4  10  21  38  59  96 129 153 201 260 306 354
#
# _framework density 20.367694
#
# number of rings (size 3 to 8) (size 9 to 14) (size 15 to 20)
#    0.000    2.000    1.250    1.500    3.500    2.500 
#    6.750    8.125    0.000    0.000    0.000    0.000 
#    0.000    0.000    0.000    0.000    0.000    0.000 
#
# Total GULP energy -198369.840825 kJ/mol
# GULP energy per Si atom -12398.115052 kJ/mol
# Density = 2.032134 g / cm^3
# Si number density = 20.367694 Si / 1000 Ang^3
#
#
#
# Elastic Constant Matrix: (Units=GPa)
#
#
# Indices 1 2 3 4 5 6 
#
# 1 69.1387 35.5627 55.2548 12.2877 3.5202 -1.5451
# 2 35.5627 110.3428 47.2051 19.3554 -4.5022 -12.8403
# 3 55.2548 47.2051 163.1455 9.5328 15.6594 -11.7494
# 4 12.2877 19.3554 9.5328 31.7380 5.5168 -1.9032
# 5 3.5202 -4.5022 15.6594 5.5168 25.4679 6.3504
# 6 -1.5451 -12.8403 -11.7494 -1.9032 6.3504 22.4740
#
#
#
# Elastic Compliance Matrix: (Units=1/GPa)
#
#
# Indices 1 2 3 4 5 6 
#
# 1 0.022670 -0.003986 -0.006907 -0.005112 0.002909 -0.005585
# 2 -0.003986 0.013067 -0.002191 -0.006298 0.004516 0.004236
# 3 -0.006907 -0.002191 0.010118 0.002672 -0.007721 0.005971
# 4 -0.005112 -0.006298 0.002672 0.038750 -0.011431 0.003958
# 5 0.002909 0.004516 -0.007721 -0.011431 0.051036 -0.016645
# 6 -0.005585 0.004236 0.005971 0.003958 -0.016645 0.054692
#
#
# Mechanical properties :
#
#
# Convention : Reuss Voigt Hill
#
# Bulk Modulus (GPa) = 50.79817 68.74136 59.76976
# Shear Modulus (GPa) = 22.41520 29.57628 25.99574
#
# Velocity S-wave (km/s) = 3.32102 3.81480 3.57644
# Velocity P-wave (km/s) = 6.30081 7.29569 6.81643
#
# Compressibility (1/GPa) = 0.01968575
#
# Stress axis : x y z
#
# Youngs Moduli (GPa) = 44.11171 76.53028 98.83448
#
# Poissons Ratio (x) = 0.30503 0.68268
# Poissons Ratio (y) = 0.17582 0.21657
# Poissons Ratio (z) = 0.30469 0.16769
#
# Static dielectric constant tensor:
#      x y z
#    x 3.629570 0.115950 0.088170 
#    y 0.115950 3.873000 -0.335910 
#    z 0.088170 -0.335910 4.332220 
# 
# 
# High freq. dielectric constant tensor:
#      x y z
#    x 1.778400 0.011570 0.009670 
#    y 0.011570 1.805730 -0.002500 
#    z 0.009670 -0.002500 1.802090 
# 
# From -- ./inp_files/186710.got.cif
#   From: 2010.06.25/outbox.cif.g09.slc.cpg/sg2_94_cif.got.tgz:186710.got - 2010.06.27 13:26:56.
