data_PCOD8006435
_publ_section_title
;
Structure prediction by ZEFSAII (Michael W. Deem and Ramdas Pophale) SiO2 
 PCOD8006435
Probable space group: P -1
;
_chemical_formula_sum "Si O2"
_cell_formula_units_Z 14
_cell_length_a 8.610724
_cell_length_b 12.842106
_cell_length_c 15.711401
_cell_angle_alpha 26.454092
_cell_angle_beta 49.584432
_cell_angle_gamma 52.871428
_cell_volume 587.889513
_symmetry_space_group_name_H-M "P -1"
_symmetry_group_IT_number 2
_symmetry_cell_setting 'triclinic'
loop_
_space_group_symop_operation_xyz
x,y,z
-x,-y,-z
loop_
_atom_site_type_symbol
_atom_site_label
_atom_site_fract_x
_atom_site_fract_y
_atom_site_fract_z
Si Si1 0.862385 0.762378 0.088719
Si Si2 0.712517 0.948591 0.508107
Si Si3 0.711755 0.406677 0.886881
Si Si4 0.745610 0.658022 0.382490
Si Si5 0.199554 0.722714 0.232335
Si Si6 0.592315 0.943025 0.736582
Si Si7 0.929825 0.746160 0.886086
O O1 0.766913 0.602518 0.313670
O O2 0.103271 0.764969 0.019186
O O3 0.835745 0.687454 0.055086
O O4 0.748736 0.014231 0.961073
O O5 0.761706 0.669894 0.698161
O O6 0.698798 0.039807 0.543532
O O7 0.500000 0.000000 0.500000
O O8 0.881583 0.085766 0.296982
O O9 0.680635 0.383403 0.813882
O O10 0.507687 0.302258 0.074651
O O11 0.701003 0.415712 0.620590
O O12 0.956776 0.723101 0.303767
O O13 0.575186 0.864802 0.309505
O O14 0.761057 0.892161 0.785088
O O15 0.000000 0.500000 0.000000
#
# Coordination Sequence:
#
# PCOD8006435 Si02
#       7
#     2   2   2   2   2   2   2
#     4  11  22  43  70 100 139 182 234 279 340 417
#     4  12  26  44  74 103 131 186 242 282 342 416
#     4  11  21  42  74 105 134 179 233 290 337 408
#     4  10  21  38  70 106 136 181 224 292 343 402
#     4  10  20  39  70 107 141 171 233 289 338 402
#     4  12  23  45  68 103 148 175 229 289 349 407
#     4  12  29  48  66  96 146 187 226 292 349 408
#
# _framework density 23.814
#
# number of rings (size 3 to 8) (size 9 to 14) (size 15 to 20)
#    0.000    0.857    2.857    5.143    6.000    0.571 
#    0.000    0.714    0.000    0.000    0.000    0.000 
#    0.000    0.000    0.000    0.000    0.000    0.000 
#
# Total GULP energy -173556.745726 kJ/mol
# GULP energy per Si atom -12396.910409 kJ/mol
# Density = 2.375980 g / cm^3
# Si number density = 23.814000 Si / 1000 Ang^3
#
#
#
# Elastic Constant Matrix: (Units=GPa)
#
#
# Indices 1 2 3 4 5 6 
#
# 1 95.9950 34.7435 34.1529 2.1722 34.7061 3.1061
# 2 34.7435 127.9298 34.5292 12.9123 26.0538 19.1704
# 3 34.1529 34.5292 99.8887 1.5213 25.1136 3.2888
# 4 2.1722 12.9123 1.5213 37.8916 12.5858 16.3153
# 5 34.7061 26.0538 25.1136 12.5858 46.1652 9.7561
# 6 3.1061 19.1704 3.2888 16.3153 9.7561 37.8267
#
#
#
# Elastic Compliance Matrix: (Units=1/GPa)
#
#
# Indices 1 2 3 4 5 6 
#
# 1 0.015572 -0.002027 -0.002077 0.002739 -0.010487 0.001452
# 2 -0.002027 0.009999 -0.002148 -0.000930 -0.001888 -0.003826
# 3 -0.002077 -0.002148 0.012587 0.001601 -0.004653 0.000675
# 4 0.002739 -0.000930 0.001601 0.034992 -0.009284 -0.012591
# 5 -0.010487 -0.001888 -0.004653 -0.009284 0.036338 -0.003145
# 6 0.001452 -0.003826 0.000675 -0.012591 -0.003145 0.034439
#
#
# Mechanical properties :
#
#
# Convention : Reuss Voigt Hill
#
# Bulk Modulus (GPa) = 38.98030 58.96274 48.97152
# Shear Modulus (GPa) = 30.30636 39.06923 34.68779
#
# Velocity S-wave (km/s) = 3.57126 4.05483 3.82070
# Velocity P-wave (km/s) = 5.78009 6.83634 6.33028
#
# Compressibility (1/GPa) = 0.02565398
#
# Stress axis : x y z
#
# Youngs Moduli (GPa) = 64.21736 100.01049 79.44730
#
# Poissons Ratio (x) = 0.20272 0.16497
# Poissons Ratio (y) = 0.13017 0.17069
# Poissons Ratio (z) = 0.13335 0.21487
#
# Static dielectric constant tensor:
#      x y z
#    x 4.104960 -0.091320 0.316880 
#    y -0.091320 4.451350 0.188380 
#    z 0.316880 0.188380 4.565280 
# 
# 
# High freq. dielectric constant tensor:
#      x y z
#    x 1.930650 -0.005680 0.025080 
#    y -0.005680 1.949760 0.009510 
#    z 0.025080 0.009510 1.950330 
# 
# From -- ./inp_files/498673.got.cif
#   From: 2010.06.25/outbox.cif.g09.slc.cpg/sg2_250_cif.got.tgz:498673.got - 2010.06.27 13:26:56.
