data_PCOD8006741
_publ_section_title
;
Structure prediction by ZEFSAII (Michael W. Deem and Ramdas Pophale) SiO2 
 PCOD8006741
Probable space group: P -1
;
_chemical_formula_sum "Si O2"
_cell_formula_units_Z 16
_cell_length_a 8.707848
_cell_length_b 11.010970
_cell_length_c 12.087881
_cell_angle_alpha 82.367859
_cell_angle_beta 121.643581
_cell_angle_gamma 124.761563
_cell_volume 787.350261
_symmetry_space_group_name_H-M "P -1"
_symmetry_group_IT_number 2
_symmetry_cell_setting 'triclinic'
loop_
_space_group_symop_operation_xyz
x,y,z
-x,-y,-z
loop_
_atom_site_type_symbol
_atom_site_label
_atom_site_fract_x
_atom_site_fract_y
_atom_site_fract_z
Si Si1 0.376854 0.355793 0.593743
Si Si2 0.476828 0.148004 0.747482
Si Si3 0.713796 0.112780 0.645472
Si Si4 0.235360 0.808322 0.745560
Si Si5 0.035656 0.022170 0.143004
Si Si6 0.780067 0.675347 0.699103
Si Si7 0.464216 0.130633 0.973862
Si Si8 0.034920 0.656239 0.475772
O O1 0.337483 0.203518 0.639980
O O2 0.618728 0.504256 0.708015
O O3 0.359949 0.330855 0.458153
O O4 0.190948 0.367183 0.573952
O O5 0.651341 0.164837 0.724191
O O6 0.587548 0.234034 0.897172
O O7 0.297530 0.976439 0.744031
O O8 0.888517 0.269221 0.625796
O O9 0.500000 0.000000 0.500000
O O10 0.830734 0.037269 0.744759
O O11 0.004226 0.701355 0.737136
O O12 0.232086 0.768669 0.621728
O O13 0.409065 0.784401 0.874085
O O14 0.170764 0.200032 0.206374
O O15 0.790036 0.925957 0.114131
O O16 0.000000 0.000000 0.000000
O O17 0.500000 0.000000 0.000000
O O18 0.000000 0.500000 0.500000
#
# Coordination Sequence:
#
# PCOD8006741 Si02
#       8
#     2   2   2   2   2   2   2   2
#     4  10  24  41  65  92 130 175 217 271 332 395
#     4  11  21  40  66  92 128 165 222 269 317 396
#     4  12  26  40  66 102 134 174 225 282 333 389
#     4  10  21  40  69  93 126 177 217 271 324 395
#     4  12  24  39  70 103 138 172 223 282 337 389
#     4  10  22  39  65  94 129 168 222 261 331 398
#     4  10  20  40  63  94 129 169 220 266 325 397
#     4  11  26  42  64  96 137 172 218 281 344 384
#
# _framework density 20.321325000000002
#
# number of rings (size 3 to 8) (size 9 to 14) (size 15 to 20)
#    0.000    1.250    3.750    3.000    7.000    1.000 
#    0.000    1.875    0.000    3.000    0.000    0.000 
#    0.000    0.000    0.000    0.000    0.000    0.000 
#
# Total GULP energy -198222.888788 kJ/mol
# GULP energy per Si atom -12388.930549 kJ/mol
# Density = 2.027507 g / cm^3
# Si number density = 20.321325 Si / 1000 Ang^3
#
#
#
# Elastic Constant Matrix: (Units=GPa)
#
#
# Indices 1 2 3 4 5 6 
#
# 1 121.6247 38.4903 56.8898 -7.9556 -1.2041 1.8841
# 2 38.4903 82.9249 53.4542 -3.0727 0.9849 4.8025
# 3 56.8898 53.4542 134.8894 -7.1343 0.5246 0.4439
# 4 -7.9556 -3.0727 -7.1343 28.6536 0.5260 1.7811
# 5 -1.2041 0.9849 0.5246 0.5260 41.1714 -8.7317
# 6 1.8841 4.8025 0.4439 1.7811 -8.7317 32.2681
#
#
#
# Elastic Compliance Matrix: (Units=1/GPa)
#
#
# Indices 1 2 3 4 5 6 
#
# 1 0.010799 -0.002773 -0.003357 0.001869 0.000364 -0.000176
# 2 -0.002773 0.017116 -0.005609 -0.000154 -0.000960 -0.002560
# 3 -0.003357 -0.005609 0.011112 0.001181 0.000055 0.000828
# 4 0.001869 -0.000154 0.001181 0.035857 -0.000908 -0.002327
# 5 0.000364 -0.000960 0.000055 -0.000908 0.025853 0.007167
# 6 -0.000176 -0.002560 0.000828 -0.002327 0.007167 0.033438
#
#
# Mechanical properties :
#
#
# Convention : Reuss Voigt Hill
#
# Bulk Modulus (GPa) = 64.32048 70.78973 67.55511
# Shear Modulus (GPa) = 30.70567 33.12558 31.91563
#
# Velocity S-wave (km/s) = 3.89138 4.04182 3.96731
# Velocity P-wave (km/s) = 7.20492 7.52944 7.36897
#
# Compressibility (1/GPa) = 0.01554715
#
# Stress axis : x y z
#
# Youngs Moduli (GPa) = 92.60484 58.42537 89.99409
#
# Poissons Ratio (x) = 0.16200 0.30215
# Poissons Ratio (y) = 0.25678 0.50480
# Poissons Ratio (z) = 0.31092 0.32772
#
# Static dielectric constant tensor:
#      x y z
#    x 3.774210 0.037820 -0.257320 
#    y 0.037820 3.634050 -0.027890 
#    z -0.257320 -0.027890 3.490610 
# 
# 
# High freq. dielectric constant tensor:
#      x y z
#    x 1.799830 0.007730 -0.006300 
#    y 0.007730 1.773890 -0.009910 
#    z -0.006300 -0.009910 1.808520 
# 
# From -- ./inp_files/390086.got.cif
#   From: 2010.06.25/outbox.cif.g09.slc.cpg/sg2_196_cif.got.tgz:390086.got - 2010.06.27 13:26:56.
