data_PCOD8006575
_publ_section_title
;
Structure prediction by ZEFSAII (Michael W. Deem and Ramdas Pophale) SiO2 
 PCOD8006575
Probable space group: P -1
;
_chemical_formula_sum "Si O2"
_cell_formula_units_Z 14
_cell_length_a 11.921851
_cell_length_b 17.772576
_cell_length_c 14.039298
_cell_angle_alpha 159.322895
_cell_angle_beta 43.896189
_cell_angle_gamma 138.531614
_cell_volume 693.122084
_symmetry_space_group_name_H-M "P -1"
_symmetry_group_IT_number 2
_symmetry_cell_setting 'triclinic'
loop_
_space_group_symop_operation_xyz
x,y,z
-x,-y,-z
loop_
_atom_site_type_symbol
_atom_site_label
_atom_site_fract_x
_atom_site_fract_y
_atom_site_fract_z
Si Si1 0.322032 0.243757 0.320562
Si Si2 0.875319 0.244975 0.094070
Si Si3 0.534655 0.440895 0.060355
Si Si4 0.402050 0.548059 0.464652
Si Si5 0.203677 0.762163 0.268061
Si Si6 0.241306 0.256180 0.877587
Si Si7 0.141602 0.598103 0.909289
O O1 0.370950 0.313237 0.262710
O O2 0.485788 0.256165 0.300981
O O3 0.242910 0.420856 0.626418
O O4 0.191743 0.998276 0.106338
O O5 0.778230 0.407161 0.392882
O O6 0.835965 0.231224 0.989538
O O7 0.078837 0.341964 0.099485
O O8 0.497682 0.552384 0.312166
O O9 0.654829 0.633950 0.149395
O O10 0.623572 0.252716 0.807317
O O11 0.358395 0.315814 0.969207
O O12 0.056051 0.540793 0.126810
O O13 0.171360 0.989169 0.590210
O O14 0.215182 0.759590 0.143921
#
# Coordination Sequence:
#
# PCOD8006575 Si02
#       7
#     2   2   2   2   2   2   2
#     4  10  20  40  61  90 125 158 196 252 310 361
#     4  11  22  39  63  93 122 157 203 250 307 366
#     4  11  24  44  60  89 125 164 206 252 289 367
#     4  10  23  39  62  89 126 158 198 252 306 363
#     4  11  21  38  61  91 121 158 200 251 306 358
#     4  11  25  40  65  88 123 165 207 247 301 350
#     4  10  21  34  63  93 121 152 196 256 309 354
#
# _framework density 20.198463
#
# number of rings (size 3 to 8) (size 9 to 14) (size 15 to 20)
#    0.000    1.429    4.286    0.857    2.000    2.286 
#    0.000    0.714    0.000    0.000    0.000    0.000 
#    0.000    0.000    0.000    0.000    0.000    0.000 
#
# Total GULP energy -173595.265059 kJ/mol
# GULP energy per Si atom -12399.661790 kJ/mol
# Density = 2.015249 g / cm^3
# Si number density = 20.198463 Si / 1000 Ang^3
#
#
#
# Elastic Constant Matrix: (Units=GPa)
#
#
# Indices 1 2 3 4 5 6 
#
# 1 107.7576 37.8408 28.8524 -5.7304 -12.5850 10.8127
# 2 37.8408 93.2582 15.3143 -3.2987 -1.9490 -5.1545
# 3 28.8524 15.3143 54.2793 -2.8386 -10.2323 1.6757
# 4 -5.7304 -3.2987 -2.8386 34.6382 8.0345 -5.2697
# 5 -12.5850 -1.9490 -10.2323 8.0345 25.5745 -8.0543
# 6 10.8127 -5.1545 1.6757 -5.2697 -8.0543 28.9423
#
#
#
# Elastic Compliance Matrix: (Units=1/GPa)
#
#
# Indices 1 2 3 4 5 6 
#
# 1 0.013026 -0.004674 -0.004973 -0.000012 0.002590 -0.004692
# 2 -0.004674 0.013109 -0.001460 0.001206 -0.000968 0.004116
# 3 -0.004973 -0.001460 0.022782 -0.000471 0.007415 0.002256
# 4 -0.000012 0.001206 -0.000471 0.031544 -0.008907 0.003512
# 5 0.002590 -0.000968 0.007415 -0.008907 0.049391 0.010554
# 6 -0.004692 0.004116 0.002256 0.003512 0.010554 0.040483
#
#
# Mechanical properties :
#
#
# Convention : Reuss Voigt Hill
#
# Bulk Modulus (GPa) = 37.45001 46.59001 42.02001
# Shear Modulus (GPa) = 24.81992 29.38353 27.10173
#
# Velocity S-wave (km/s) = 3.50923 3.81824 3.66699
# Velocity P-wave (km/s) = 5.91615 6.52341 6.22719
#
# Compressibility (1/GPa) = 0.02670226
#
# Stress axis : x y z
#
# Youngs Moduli (GPa) = 76.77137 76.28130 43.89429
#
# Poissons Ratio (x) = 0.35657 0.21826
# Poissons Ratio (y) = 0.35886 0.06411
# Poissons Ratio (z) = 0.38175 0.11140
#
# Static dielectric constant tensor:
#      x y z
#    x 3.721560 0.033840 -0.285070 
#    y 0.033840 3.866250 -0.162120 
#    z -0.285070 -0.162120 3.346750 
# 
# 
# High freq. dielectric constant tensor:
#      x y z
#    x 1.788470 0.002690 -0.025610 
#    y 0.002690 1.803070 -0.009870 
#    z -0.025610 -0.009870 1.764670 
# 
# From -- ./inp_files/65107.got.cif
#   From: 2010.06.25/outbox.cif.g09.slc.cpg/sg2_33_cif.got.tgz:65107.got - 2010.06.27 13:26:56.
