data_PCOD8006203
_publ_section_title
;
Structure prediction by ZEFSAII (Michael W. Deem and Ramdas Pophale) SiO2 
 PCOD8006203
Probable space group: P -1
;
_chemical_formula_sum "Si O2"
_cell_formula_units_Z 16
_cell_length_a 23.349588
_cell_length_b 11.627685
_cell_length_c 8.896953
_cell_angle_alpha 106.824756
_cell_angle_beta 50.347430
_cell_angle_gamma 147.818112
_cell_volume 783.972724
_symmetry_space_group_name_H-M "P -1"
_symmetry_group_IT_number 2
_symmetry_cell_setting 'triclinic'
loop_
_space_group_symop_operation_xyz
x,y,z
-x,-y,-z
loop_
_atom_site_type_symbol
_atom_site_label
_atom_site_fract_x
_atom_site_fract_y
_atom_site_fract_z
Si Si1 0.742272 0.307420 0.690154
Si Si2 0.485733 0.187394 0.696603
Si Si3 0.076766 0.627894 0.758486
Si Si4 0.168747 0.314155 0.878664
Si Si5 0.664673 0.859613 0.302494
Si Si6 0.189429 0.603831 0.044331
Si Si7 0.331505 0.391158 0.865322
Si Si8 0.430261 0.704533 0.071018
O O1 0.872649 0.429980 0.408660
O O2 0.811661 0.412666 0.781788
O O3 0.715244 0.403928 0.708369
O O4 0.574041 0.981878 0.840715
O O5 0.672259 0.458377 0.415606
O O6 0.354006 0.080652 0.788079
O O7 0.509296 0.261106 0.858142
O O8 0.380530 0.908629 0.777892
O O9 0.946147 0.491731 0.806156
O O10 0.232449 0.942150 0.650633
O O11 0.000000 0.500000 0.000000
O O12 0.215027 0.325180 0.965587
O O13 0.121950 0.384585 0.000700
O O14 0.000000 0.000000 0.000000
O O15 0.480641 0.580100 0.572401
O O16 0.749282 0.860123 0.091498
O O17 0.376070 0.505631 0.998371
#
# Coordination Sequence:
#
# PCOD8006203 Si02
#       8
#     2   2   2   2   2   2   2   2
#     4  10  22  39  61  94 128 163 210 257 318 369
#     4  10  23  38  64  96 125 162 215 260 313 367
#     4  12  23  37  61  94 127 160 207 260 311 362
#     4  11  23  41  63  93 128 167 210 257 318 379
#     4  10  21  39  60  93 123 164 204 257 305 380
#     4  11  22  40  65  92 127 167 208 265 309 372
#     4  10  20  40  65  84 125 166 207 245 318 379
#     4  10  20  39  66  92 122 168 208 262 306 376
#
# _framework density 20.408871999999999
#
# number of rings (size 3 to 8) (size 9 to 14) (size 15 to 20)
#    0.000    1.500    3.750    1.500    1.750    0.500 
#    0.000    1.875    0.000    0.000    0.000    0.000 
#    0.000    0.000    0.000    0.000    0.000    0.000 
#
# Total GULP energy -198227.225805 kJ/mol
# GULP energy per Si atom -12389.201613 kJ/mol
# Density = 2.036242 g / cm^3
# Si number density = 20.408872 Si / 1000 Ang^3
#
#
#
# Elastic Constant Matrix: (Units=GPa)
#
#
# Indices 1 2 3 4 5 6 
#
# 1 72.0097 23.5489 30.2431 4.7091 -2.3287 8.9939
# 2 23.5489 122.9635 34.5709 10.7179 -0.7379 -2.9349
# 3 30.2431 34.5709 71.6050 10.1081 -4.1873 -7.1212
# 4 4.7091 10.7179 10.1081 28.0853 -2.2103 -7.9397
# 5 -2.3287 -0.7379 -4.1873 -2.2103 28.1047 4.9073
# 6 8.9939 -2.9349 -7.1212 -7.9397 4.9073 35.6998
#
#
#
# Elastic Compliance Matrix: (Units=1/GPa)
#
#
# Indices 1 2 3 4 5 6 
#
# 1 0.018514 -0.001451 -0.007478 -0.001681 0.001445 -0.006848
# 2 -0.001451 0.009656 -0.003783 -0.002123 -0.000600 0.000015
# 3 -0.007478 -0.003783 0.019918 -0.003048 0.001187 0.004705
# 4 -0.001681 -0.002123 -0.003048 0.040266 0.001042 0.008453
# 5 0.001445 -0.000600 0.001187 0.001042 0.036818 -0.005006
# 6 -0.006848 0.000015 0.004705 0.008453 -0.005006 0.033244
#
#
# Mechanical properties :
#
#
# Convention : Reuss Voigt Hill
#
# Bulk Modulus (GPa) = 44.12397 49.25598 46.68998
# Shear Modulus (GPa) = 26.12384 30.25897 28.19141
#
# Velocity S-wave (km/s) = 3.58162 3.85468 3.72066
# Velocity P-wave (km/s) = 6.22663 6.63313 6.43309
#
# Compressibility (1/GPa) = 0.02266342
#
# Stress axis : x y z
#
# Youngs Moduli (GPa) = 54.01210 103.56515 50.20630
#
# Poissons Ratio (x) = 0.15032 0.37545
# Poissons Ratio (y) = 0.07840 0.18991
# Poissons Ratio (z) = 0.40391 0.39175
#
# Static dielectric constant tensor:
#      x y z
#    x 3.944620 -0.479330 -0.030960 
#    y -0.479330 3.023610 0.140920 
#    z -0.030960 0.140920 3.453710 
# 
# 
# High freq. dielectric constant tensor:
#      x y z
#    x 1.805570 0.005770 -0.004630 
#    y 0.005770 1.801700 0.005060 
#    z -0.004630 0.005060 1.777510 
# 
# From -- ./inp_files/207121.got.cif
#   From: 2010.06.25/outbox.cif.g09.slc.cpg/sg2_104_cif.got.tgz:207121.got - 2010.06.27 13:26:56.
