data_PCOD8006673
_publ_section_title
;
Structure prediction by ZEFSAII (Michael W. Deem and Ramdas Pophale) SiO2 
 PCOD8006673
Probable space group: P -1
;
_chemical_formula_sum "Si O2"
_cell_formula_units_Z 16
_cell_length_a 15.037287
_cell_length_b 11.956817
_cell_length_c 9.318101
_cell_angle_alpha 48.430909
_cell_angle_beta 104.805253
_cell_angle_gamma 137.064292
_cell_volume 761.712333
_symmetry_space_group_name_H-M "P -1"
_symmetry_group_IT_number 2
_symmetry_cell_setting 'triclinic'
loop_
_space_group_symop_operation_xyz
x,y,z
-x,-y,-z
loop_
_atom_site_type_symbol
_atom_site_label
_atom_site_fract_x
_atom_site_fract_y
_atom_site_fract_z
Si Si1 0.606206 0.028539 0.928682
Si Si2 0.041704 0.880837 0.770811
Si Si3 0.535847 0.184153 0.254967
Si Si4 0.329234 0.080991 0.440970
Si Si5 0.822184 0.426114 0.226777
Si Si6 0.369896 0.222575 0.650571
Si Si7 0.106110 0.501704 0.491202
Si Si8 0.934443 0.067647 0.589756
O O1 0.769304 0.297926 0.743159
O O2 0.533154 0.914594 0.843436
O O3 0.500000 0.000000 0.000000
O O4 0.624860 0.893735 0.125663
O O5 0.006973 0.813887 0.645188
O O6 0.214298 0.111365 0.679689
O O7 0.961997 0.929325 0.751887
O O8 0.978441 0.657743 0.020758
O O9 0.710790 0.403773 0.125150
O O10 0.500000 0.000000 0.500000
O O11 0.467685 0.243456 0.253338
O O12 0.219885 0.799770 0.625203
O O13 0.238902 0.113338 0.327430
O O14 0.392937 0.173168 0.548623
O O15 0.819921 0.464030 0.361963
O O16 0.500000 0.500000 0.500000
O O17 0.000000 0.500000 0.500000
O O18 0.011963 0.255151 0.588401
#
# Coordination Sequence:
#
# PCOD8006673 Si02
#       8
#     2   2   2   2   2   2   2   2
#     4  12  25  40  71 100 130 179 233 280 339 401
#     4  10  25  44  64 100 135 180 224 273 350 400
#     4  10  20  40  62  97 134 166 219 276 341 393
#     4  10  21  43  67  93 134 178 221 278 339 402
#     4  11  22  40  69  97 136 169 223 282 335 406
#     4  11  27  44  65  97 141 177 225 283 343 410
#     4  12  23  41  68 102 135 173 230 283 335 405
#     4  10  23  41  68  93 138 175 226 278 335 403
#
# _framework density 21.005305
#
# number of rings (size 3 to 8) (size 9 to 14) (size 15 to 20)
#    0.000    1.250    3.750    2.250    5.250    3.500 
#    0.000    3.750    0.000    0.000    0.000    0.000 
#    0.000    0.000    0.000    0.000    0.000    0.000 
#
# Total GULP energy -198363.714311 kJ/mol
# GULP energy per Si atom -12397.732144 kJ/mol
# Density = 2.095750 g / cm^3
# Si number density = 21.005305 Si / 1000 Ang^3
#
#
#
# Elastic Constant Matrix: (Units=GPa)
#
#
# Indices 1 2 3 4 5 6 
#
# 1 133.8900 25.3267 11.9003 8.9885 -6.6713 5.0843
# 2 25.3267 128.0895 22.7642 20.2106 1.7790 -10.0565
# 3 11.9003 22.7642 59.7844 9.9902 -4.0835 -1.7408
# 4 8.9885 20.2106 9.9902 36.9660 7.1936 -5.1241
# 5 -6.6713 1.7790 -4.0835 7.1936 32.8731 3.0679
# 6 5.0843 -10.0565 -1.7408 -5.1241 3.0679 38.2005
#
#
#
# Elastic Compliance Matrix: (Units=1/GPa)
#
#
# Indices 1 2 3 4 5 6 
#
# 1 0.008087 -0.001382 -0.000705 -0.001704 0.002176 -0.001876
# 2 -0.001382 0.009292 -0.002627 -0.003650 -0.000503 0.002061
# 3 -0.000705 -0.002627 0.018776 -0.004188 0.003301 -0.000569
# 4 -0.001704 -0.003650 -0.004188 0.032767 -0.008224 0.004131
# 5 0.002176 -0.000503 0.003301 -0.008224 0.033478 -0.004064
# 6 -0.001876 0.002061 -0.000569 0.004131 -0.004064 0.027824
#
#
# Mechanical properties :
#
#
# Convention : Reuss Voigt Hill
#
# Bulk Modulus (GPa) = 37.41617 49.08294 43.24955
# Shear Modulus (GPa) = 33.65595 39.05943 36.35769
#
# Velocity S-wave (km/s) = 4.00717 4.31687 4.16490
# Velocity P-wave (km/s) = 6.26588 6.94729 6.61536
#
# Compressibility (1/GPa) = 0.02672641
#
# Stress axis : x y z
#
# Youngs Moduli (GPa) = 123.65538 107.61789 53.25899
#
# Poissons Ratio (x) = 0.14878 0.03753
# Poissons Ratio (y) = 0.17095 0.13993
# Poissons Ratio (z) = 0.08713 0.28275
#
# Static dielectric constant tensor:
#      x y z
#    x 2.916930 -0.034040 0.145620 
#    y -0.034040 3.961820 0.254230 
#    z 0.145620 0.254230 3.848070 
# 
# 
# High freq. dielectric constant tensor:
#      x y z
#    x 1.837140 0.012270 -0.009760 
#    y 0.012270 1.832590 0.017890 
#    z -0.009760 0.017890 1.808010 
# 
# From -- ./inp_files/306542.got.cif
#   From: 2010.06.25/outbox.cif.g09.slc.cpg/sg2_154_cif.got.tgz:306542.got - 2010.06.27 13:26:56.
