data_PCOD8006565
_publ_section_title
;
Structure prediction by ZEFSAII (Michael W. Deem and Ramdas Pophale) SiO2 
 PCOD8006565
Probable space group: P -1
;
_chemical_formula_sum "Si O2"
_cell_formula_units_Z 16
_cell_length_a 15.689549
_cell_length_b 12.189554
_cell_length_c 15.571089
_cell_angle_alpha 41.163451
_cell_angle_beta 26.552660
_cell_angle_gamma 59.373207
_cell_volume 727.509350
_symmetry_space_group_name_H-M "P -1"
_symmetry_group_IT_number 2
_symmetry_cell_setting 'triclinic'
loop_
_space_group_symop_operation_xyz
x,y,z
-x,-y,-z
loop_
_atom_site_type_symbol
_atom_site_label
_atom_site_fract_x
_atom_site_fract_y
_atom_site_fract_z
Si Si1 0.020514 0.683394 0.822353
Si Si2 0.225477 0.322647 0.614179
Si Si3 0.194441 0.365637 0.428723
Si Si4 0.249864 0.042838 0.526205
Si Si5 0.476264 0.929481 0.160747
Si Si6 0.552955 0.596539 0.300720
Si Si7 0.701098 0.214093 0.942147
Si Si8 0.736451 0.018997 0.261450
O O1 0.209519 0.775651 0.521779
O O2 0.065751 0.858263 0.743291
O O3 0.000000 0.500000 0.000000
O O4 0.768140 0.603294 0.060218
O O5 0.316057 0.419903 0.380882
O O6 0.340171 0.478230 0.496708
O O7 0.285782 0.156522 0.673872
O O8 0.951698 0.234580 0.908974
O O9 0.275266 0.254146 0.358343
O O10 0.247495 0.566365 0.218941
O O11 0.917386 0.209162 0.776405
O O12 0.166972 0.997350 0.724769
O O13 0.495763 0.069133 0.278529
O O14 0.605709 0.818787 0.126686
O O15 0.500000 0.000000 0.000000
O O16 0.608257 0.132711 0.977861
O O17 0.500000 0.500000 0.500000
O O18 0.500000 0.000000 0.500000
#
# Coordination Sequence:
#
# PCOD8006565 Si02
#       8
#     2   2   2   2   2   2   2   2
#     4  11  24  42  65  99 129 180 230 273 331 412
#     4  10  23  37  56  91 124 156 214 265 317 387
#     4  10  20  40  61  89 120 164 210 264 329 381
#     4  10  21  37  59  87 121 154 213 261 316 382
#     4  11  25  44  66 100 137 174 225 279 336 402
#     4  12  24  41  67  94 134 181 220 276 336 397
#     4  10  21  38  65  87 121 166 213 260 322 398
#     4  10  21  35  57  83 119 159 197 259 322 371
#
# _framework density 21.992844000000002
#
# number of rings (size 3 to 8) (size 9 to 14) (size 15 to 20)
#    0.000    1.500    1.250    3.375    1.750    2.500 
#    0.000    6.250    0.000    0.000    0.000    0.000 
#    0.000    0.000    0.000    0.000    0.000    0.000 
#
# Total GULP energy -198308.293829 kJ/mol
# GULP energy per Si atom -12394.268364 kJ/mol
# Density = 2.194279 g / cm^3
# Si number density = 21.992844 Si / 1000 Ang^3
#
#
#
# Elastic Constant Matrix: (Units=GPa)
#
#
# Indices 1 2 3 4 5 6 
#
# 1 79.2863 20.8338 29.0694 0.7609 9.2993 10.0657
# 2 20.8338 109.7822 30.9892 3.4955 -3.0575 -3.6243
# 3 29.0694 30.9892 84.0849 12.8713 -3.5267 -3.2399
# 4 0.7609 3.4955 12.8713 39.6262 -5.0416 -9.1266
# 5 9.2993 -3.0575 -3.5267 -5.0416 39.4533 3.0144
# 6 10.0657 -3.6243 -3.2399 -9.1266 3.0144 38.8558
#
#
#
# Elastic Compliance Matrix: (Units=1/GPa)
#
#
# Indices 1 2 3 4 5 6 
#
# 1 0.016045 -0.001833 -0.005214 0.000008 -0.004049 -0.004446
# 2 -0.001833 0.010410 -0.003202 0.000560 0.000930 0.001238
# 3 -0.005214 -0.003202 0.015638 -0.004190 0.001749 0.001236
# 4 0.000008 0.000560 -0.004190 0.028318 0.002817 0.006134
# 5 -0.004049 0.000930 0.001749 0.002817 0.026900 -0.000144
# 6 -0.004446 0.001238 0.001236 0.006134 -0.000144 0.028558
#
#
# Mechanical properties :
#
#
# Convention : Reuss Voigt Hill
#
# Bulk Modulus (GPa) = 46.30722 48.32649 47.31685
# Shear Modulus (GPa) = 32.55957 36.40445 34.48201
#
# Velocity S-wave (km/s) = 3.85185 4.07293 3.96393
# Velocity P-wave (km/s) = 6.39403 6.64378 6.52010
#
# Compressibility (1/GPa) = 0.02159490
#
# Stress axis : x y z
#
# Youngs Moduli (GPa) = 62.32435 96.06595 63.94854
#
# Poissons Ratio (x) = 0.17609 0.33342
# Poissons Ratio (y) = 0.11424 0.20475
# Poissons Ratio (z) = 0.32495 0.30758
#
# Static dielectric constant tensor:
#      x y z
#    x 3.721150 -0.002010 -0.129530 
#    y -0.002010 4.103230 0.125240 
#    z -0.129530 0.125240 4.085600 
# 
# 
# High freq. dielectric constant tensor:
#      x y z
#    x 1.848640 0.001730 -0.004990 
#    y 0.001730 1.877630 0.005680 
#    z -0.004990 0.005680 1.866440 
# 
# From -- ./inp_files/532324.got.cif
#   From: 2010.06.25/outbox.cif.g09.slc.cpg/sg2_267_cif.got.tgz:532324.got - 2010.06.27 13:26:56.
