data_PCOD8006567
_publ_section_title
;
Structure prediction by ZEFSAII (Michael W. Deem and Ramdas Pophale) SiO2 
 PCOD8006567
Probable space group: P -1
;
_chemical_formula_sum "Si O2"
_cell_formula_units_Z 16
_cell_length_a 13.494869
_cell_length_b 22.411292
_cell_length_c 20.464474
_cell_angle_alpha 168.041476
_cell_angle_beta 33.087664
_cell_angle_gamma 148.771440
_cell_volume 664.831840
_symmetry_space_group_name_H-M "P -1"
_symmetry_group_IT_number 2
_symmetry_cell_setting 'triclinic'
loop_
_space_group_symop_operation_xyz
x,y,z
-x,-y,-z
loop_
_atom_site_type_symbol
_atom_site_label
_atom_site_fract_x
_atom_site_fract_y
_atom_site_fract_z
Si Si1 0.301110 0.781944 0.903217
Si Si2 0.985002 0.387782 0.815638
Si Si3 0.155324 0.103077 0.225863
Si Si4 0.317699 0.184138 0.436688
Si Si5 0.681573 0.515439 0.753908
Si Si6 0.249190 0.222755 0.666837
Si Si7 0.740042 0.354267 0.410293
Si Si8 0.101999 0.804794 0.631612
O O1 0.294086 0.435146 0.525529
O O2 0.500000 0.000000 0.000000
O O3 0.135417 0.865772 0.042248
O O4 0.285216 0.858090 0.070031
O O5 0.191181 0.353518 0.646716
O O6 0.811735 0.070838 0.568625
O O7 0.912793 0.615314 0.054732
O O8 0.000000 0.500000 0.000000
O O9 0.954410 0.152556 0.367341
O O10 0.231411 0.956206 0.964450
O O11 0.244759 0.122940 0.485958
O O12 0.539874 0.384889 0.526559
O O13 0.455517 0.442199 0.809225
O O14 0.730651 0.325184 0.462911
O O15 0.770554 0.419508 0.668078
O O16 0.775410 0.864816 0.056828
O O17 0.904423 0.656070 0.620519
#
# Coordination Sequence:
#
# PCOD8006567 Si02
#       8
#     2   2   2   2   2   2   2   2
#     4  12  24  40  56  85 121 168 212 236 284 352
#     4  10  20  40  61  89 124 155 193 249 305 363
#     4  12  24  39  55  80 125 162 202 250 272 345
#     4  10  22  39  62  89 123 169 187 244 303 355
#     4  11  24  36  64  88 118 162 199 248 314 358
#     4  10  22  41  60  96 122 149 202 249 301 373
#     4  11  23  38  56  91 127 159 203 238 295 373
#     4  12  22  41  56  87 122 166 198 251 295 355
#
# _framework density 24.066234999999999
#
# number of rings (size 3 to 8) (size 9 to 14) (size 15 to 20)
#    0.000    1.000    3.750    3.375    1.750    3.000 
#   11.250    0.000    0.000    0.000    0.000   17.500 
#    0.000    0.000    0.000    0.000    0.000    0.000 
#
# Total GULP energy -198242.125936 kJ/mol
# GULP energy per Si atom -12390.132871 kJ/mol
# Density = 2.401146 g / cm^3
# Si number density = 24.066235 Si / 1000 Ang^3
#
#
#
# Elastic Constant Matrix: (Units=GPa)
#
#
# Indices 1 2 3 4 5 6 
#
# 1 68.8903 28.8579 6.0603 -0.6049 -17.9262 20.1877
# 2 28.8579 82.7377 41.0881 8.0891 -5.5768 36.4094
# 3 6.0603 41.0881 114.2931 20.3512 -8.9253 8.7517
# 4 -0.6049 8.0891 20.3512 30.8022 2.2842 -4.6431
# 5 -17.9262 -5.5768 -8.9253 2.2842 34.9633 2.4208
# 6 20.1877 36.4094 8.7517 -4.6431 2.4208 31.2172
#
#
#
# Elastic Compliance Matrix: (Units=1/GPa)
#
#
# Indices 1 2 3 4 5 6 
#
# 1 0.022867 -0.000247 0.001999 -0.004345 0.013640 -0.016764
# 2 -0.000247 0.035641 -0.006953 -0.011618 0.007434 -0.041765
# 3 0.001999 -0.006953 0.012341 -0.006207 0.003321 0.002176
# 4 -0.004345 -0.011618 -0.006207 0.044135 -0.010312 0.025465
# 5 0.013640 0.007434 0.003321 -0.010312 0.039898 -0.023050
# 6 -0.016764 -0.041765 0.002176 0.025465 -0.023050 0.096551
#
#
# Mechanical properties :
#
#
# Convention : Reuss Voigt Hill
#
# Bulk Modulus (GPa) = 16.54328 46.43710 31.49019
# Shear Modulus (GPa) = 17.73150 32.05752 24.89451
#
# Velocity S-wave (km/s) = 2.71731 3.65369 3.21972
# Velocity P-wave (km/s) = 4.09073 6.09399 5.18993
#
# Compressibility (1/GPa) = 0.06044750
#
# Stress axis : x y z
#
# Youngs Moduli (GPa) = 43.73089 28.05742 81.03200
#
# Poissons Ratio (x) = 0.00693 -0.16197
# Poissons Ratio (y) = 0.01081 0.56338
# Poissons Ratio (z) = -0.08741 0.19507
#
# Static dielectric constant tensor:
#      x y z
#    x 4.733620 0.385200 -0.211740 
#    y 0.385200 4.261610 -0.115190 
#    z -0.211740 -0.115190 4.776050 
# 
# 
# High freq. dielectric constant tensor:
#      x y z
#    x 1.947820 0.028470 -0.015610 
#    y 0.028470 1.928590 0.020710 
#    z -0.015610 0.020710 1.958000 
# 
# From -- ./inp_files/612450.got.cif
#   From: 2010.06.25/outbox.cif.g09.slc.cpg/sg2_307_cif.got.tgz:612450.got - 2010.06.27 13:26:56.
