data_PCOD8006940
_publ_section_title
;
Structure prediction by ZEFSAII (Michael W. Deem and Ramdas Pophale) SiO2 
 PCOD8006940
Probable space group: P -1
;
_chemical_formula_sum "Si O2"
_cell_formula_units_Z 16
_cell_length_a 11.464072
_cell_length_b 9.333226
_cell_length_c 12.842744
_cell_angle_alpha 106.022555
_cell_angle_beta 55.821019
_cell_angle_gamma 140.618007
_cell_volume 687.746394
_symmetry_space_group_name_H-M "P -1"
_symmetry_group_IT_number 2
_symmetry_cell_setting 'triclinic'
loop_
_space_group_symop_operation_xyz
x,y,z
-x,-y,-z
loop_
_atom_site_type_symbol
_atom_site_label
_atom_site_fract_x
_atom_site_fract_y
_atom_site_fract_z
Si Si1 0.873244 0.797828 0.938365
Si Si2 0.530918 0.861000 0.411238
Si Si3 0.793352 0.141555 0.143729
Si Si4 0.487107 0.375187 0.166737
Si Si5 0.276159 0.573459 0.762944
Si Si6 0.803143 0.666898 0.540713
Si Si7 0.248418 0.093550 0.509242
Si Si8 0.857025 0.052909 0.870719
O O1 0.898237 0.907752 0.838942
O O2 0.991824 0.733889 0.870174
O O3 0.608967 0.564602 0.050710
O O4 0.000000 0.000000 0.000000
O O5 0.301008 0.578659 0.484650
O O6 0.735653 0.940598 0.383883
O O7 0.500000 0.000000 0.500000
O O8 0.580744 0.913533 0.273683
O O9 0.810065 0.331008 0.163581
O O10 0.774820 0.059217 0.020943
O O11 0.690391 0.470910 0.149468
O O12 0.341488 0.369474 0.306156
O O13 0.340411 0.112912 0.148796
O O14 0.506146 0.754849 0.621725
O O15 0.071190 0.309748 0.763397
O O16 0.796171 0.766677 0.460281
O O17 0.055019 0.847010 0.493061
#
# Coordination Sequence:
#
# PCOD8006940 Si02
#       8
#     2   2   2   2   2   2   2   2
#     4  10  20  40  65  94 129 168 213 270 323 389
#     4  12  25  46  69  97 134 181 220 273 339 391
#     4  11  24  44  65  97 138 178 215 271 335 393
#     4  11  23  41  70 101 131 170 225 273 334 392
#     4  11  23  45  65  97 142 169 222 275 323 405
#     4  10  24  44  71 100 132 171 227 281 325 392
#     4  10  24  45  70 100 130 178 228 271 333 389
#     4  11  24  41  71  98 134 173 221 273 331 398
#
# _framework density 23.264389999999999
#
# number of rings (size 3 to 8) (size 9 to 14) (size 15 to 20)
#    0.000    1.250    3.750    2.625    3.500    4.000 
#    0.000    0.000    0.000    0.000    0.000    0.000 
#    0.000    0.000    0.000    0.000    0.000    0.000 
#
# Total GULP energy -198307.614956 kJ/mol
# GULP energy per Si atom -12394.225935 kJ/mol
# Density = 2.321144 g / cm^3
# Si number density = 23.264390 Si / 1000 Ang^3
#
#
#
# Elastic Constant Matrix: (Units=GPa)
#
#
# Indices 1 2 3 4 5 6 
#
# 1 55.6263 49.2935 14.7608 -2.3632 -7.1185 -10.3021
# 2 49.2935 178.3442 30.4045 -13.5629 -15.3048 2.6591
# 3 14.7608 30.4045 49.0397 -0.9056 -14.8730 -6.8025
# 4 -2.3632 -13.5629 -0.9056 32.1538 1.2711 -2.1848
# 5 -7.1185 -15.3048 -14.8730 1.2711 24.2728 -0.7236
# 6 -10.3021 2.6591 -6.8025 -2.1848 -0.7236 36.4827
#
#
#
# Elastic Compliance Matrix: (Units=1/GPa)
#
#
# Indices 1 2 3 4 5 6 
#
# 1 0.026273 -0.006895 -0.001836 -0.000612 0.002491 0.007592
# 2 -0.006895 0.008395 -0.003155 0.002700 0.001109 -0.002963
# 3 -0.001836 -0.003155 0.028126 -0.000910 0.014909 0.005197
# 4 -0.000612 0.002700 -0.000910 0.032290 -0.000684 0.001381
# 5 0.002491 0.001109 0.014909 -0.000684 0.051930 0.004392
# 6 0.007592 -0.002963 0.005197 0.001381 0.004392 0.030909
#
#
# Mechanical properties :
#
#
# Convention : Reuss Voigt Hill
#
# Bulk Modulus (GPa) = 25.62570 52.43639 39.03105
# Shear Modulus (GPa) = 23.28813 31.15196 27.22004
#
# Velocity S-wave (km/s) = 3.16732 3.66326 3.42428
# Velocity P-wave (km/s) = 4.94114 6.36246 5.69630
#
# Compressibility (1/GPa) = 0.03902332
#
# Stress axis : x y z
#
# Youngs Moduli (GPa) = 38.06209 119.11442 35.55433
#
# Poissons Ratio (x) = 0.82125 0.06528
# Poissons Ratio (y) = 0.26242 0.11216
# Poissons Ratio (z) = 0.06988 0.37577
#
# Static dielectric constant tensor:
#      x y z
#    x 4.767110 -0.072120 0.162370 
#    y -0.072120 4.154930 -0.198560 
#    z 0.162370 -0.198560 4.155600 
# 
# 
# High freq. dielectric constant tensor:
#      x y z
#    x 1.916970 -0.002750 0.011910 
#    y -0.002750 1.915640 -0.017580 
#    z 0.011910 -0.017580 1.922790 
# 
# From -- ./inp_files/515879.got.cif
#   From: 2010.06.25/outbox.cif.g09.slc.cpg/sg2_258_cif.got.tgz:515879.got - 2010.06.27 13:26:56.
