data_PCOD8006653
_publ_section_title
;
Structure prediction by ZEFSAII (Michael W. Deem and Ramdas Pophale) SiO2 
 PCOD8006653
Probable space group: P -1
;
_chemical_formula_sum "Si O2"
_cell_formula_units_Z 16
_cell_length_a 11.252349
_cell_length_b 13.481598
_cell_length_c 8.494904
_cell_angle_alpha 35.824221
_cell_angle_beta 86.601519
_cell_angle_gamma 95.166537
_cell_volume 731.595484
_symmetry_space_group_name_H-M "P -1"
_symmetry_group_IT_number 2
_symmetry_cell_setting 'triclinic'
loop_
_space_group_symop_operation_xyz
x,y,z
-x,-y,-z
loop_
_atom_site_type_symbol
_atom_site_label
_atom_site_fract_x
_atom_site_fract_y
_atom_site_fract_z
Si Si1 0.138509 0.769866 0.993524
Si Si2 0.354052 0.017802 0.815899
Si Si3 0.864177 0.983092 0.586099
Si Si4 0.538145 0.798508 0.138455
Si Si5 0.920628 0.872827 0.041340
Si Si6 0.694855 0.699063 0.766716
Si Si7 0.237946 0.440244 0.358369
Si Si8 0.472913 0.475629 0.745333
O O1 0.158009 0.576112 0.234644
O O2 0.002161 0.768624 0.065217
O O3 0.224589 0.885444 0.969090
O O4 0.174274 0.854653 0.707301
O O5 0.356590 0.083951 0.911360
O O6 0.373551 0.182238 0.485882
O O7 0.463099 0.921936 0.900317
O O8 0.781085 0.802890 0.760259
O O9 0.859381 0.983905 0.776470
O O10 0.000000 0.000000 0.500000
O O11 0.449023 0.652825 0.444382
O O12 0.593515 0.694107 0.134762
O O13 0.812730 0.734755 0.312934
O O14 0.000000 0.000000 0.000000
O O15 0.777206 0.608695 0.762609
O O16 0.587230 0.550885 0.044256
O O17 0.381901 0.515435 0.281995
#
# Coordination Sequence:
#
# PCOD8006653 Si02
#       8
#     2   2   2   2   2   2   2   2
#     4  10  22  43  65  95 126 163 210 263 316 371
#     4  10  20  40  62  92 127 164 210 263 304 379
#     4   9  21  43  65  92 122 162 211 257 312 377
#     4  10  22  38  62  91 129 161 218 256 310 367
#     4  11  24  43  73  92 122 163 209 263 322 373
#     4  11  24  40  64  88 130 173 210 253 317 372
#     4  12  23  43  61  95 129 167 210 263 313 374
#     4  11  24  40  61  92 130 173 209 263 314 369
#
# _framework density 21.870007999999999
#
# number of rings (size 3 to 8) (size 9 to 14) (size 15 to 20)
#    0.000    1.500    2.500    3.000    3.500    0.500 
#    0.000    9.375    0.000    0.000    0.000    0.000 
#    0.000    0.000    0.000    0.000    0.000    0.000 
#
# Total GULP energy -198309.998731 kJ/mol
# GULP energy per Si atom -12394.374921 kJ/mol
# Density = 2.182023 g / cm^3
# Si number density = 21.870008 Si / 1000 Ang^3
#
#
#
# Elastic Constant Matrix: (Units=GPa)
#
#
# Indices 1 2 3 4 5 6 
#
# 1 65.6347 22.7435 36.3957 10.3698 -1.9221 0.1058
# 2 22.7435 89.3256 36.9493 11.2883 -2.0999 9.6149
# 3 36.3957 36.9493 89.4791 9.4630 -12.0287 -12.3346
# 4 10.3698 11.2883 9.4630 36.0319 -9.3491 3.9480
# 5 -1.9221 -2.0999 -12.0287 -9.3491 34.3341 3.0440
# 6 0.1058 9.6149 -12.3346 3.9480 3.0440 39.9670
#
#
#
# Elastic Compliance Matrix: (Units=1/GPa)
#
#
# Indices 1 2 3 4 5 6 
#
# 1 0.020701 -0.001338 -0.008032 -0.003944 -0.002667 -0.001619
# 2 -0.001338 0.014979 -0.006304 -0.002497 -0.001588 -0.005178
# 3 -0.008032 -0.006304 0.018691 -0.000062 0.005082 0.006925
# 4 -0.003944 -0.002497 -0.000062 0.032298 0.008689 -0.003260
# 5 -0.002667 -0.001588 0.005082 0.008689 0.033152 -0.001426
# 6 -0.001619 -0.005178 0.006925 -0.003260 -0.001426 0.028839
#
#
# Mechanical properties :
#
#
# Convention : Reuss Voigt Hill
#
# Bulk Modulus (GPa) = 43.43858 48.51294 45.97576
# Shear Modulus (GPa) = 26.64068 31.95665 29.29866
#
# Velocity S-wave (km/s) = 3.49397 3.82672 3.66413
# Velocity P-wave (km/s) = 6.01518 6.46186 6.24252
#
# Compressibility (1/GPa) = 0.02302101
#
# Stress axis : x y z
#
# Youngs Moduli (GPa) = 48.30637 66.75997 53.50284
#
# Poissons Ratio (x) = 0.08935 0.42975
# Poissons Ratio (y) = 0.06465 0.33730
# Poissons Ratio (z) = 0.38801 0.42087
#
# Static dielectric constant tensor:
#      x y z
#    x 4.855490 0.562700 -0.496760 
#    y 0.562700 4.353030 -0.040330 
#    z -0.496760 -0.040330 4.679420 
# 
# 
# High freq. dielectric constant tensor:
#      x y z
#    x 1.845320 0.017520 0.000410 
#    y 0.017520 1.867770 0.004980 
#    z 0.000410 0.004980 1.861090 
# 
# From -- ./inp_files/271370.got.cif
#   From: 2010.06.25/outbox.cif.g09.slc.cpg/sg2_136_cif.got.tgz:271370.got - 2010.06.27 13:26:56.
