data_PCOD8006131
_publ_section_title
;
Structure prediction by ZEFSAII (Michael W. Deem and Ramdas Pophale) SiO2 
 PCOD8006131
Probable space group: P -1
;
_chemical_formula_sum "Si O2"
_cell_formula_units_Z 14
_cell_length_a 11.091027
_cell_length_b 8.690955
_cell_length_c 11.597931
_cell_angle_alpha 126.007948
_cell_angle_beta 98.385027
_cell_angle_gamma 51.416412
_cell_volume 662.420009
_symmetry_space_group_name_H-M "P -1"
_symmetry_group_IT_number 2
_symmetry_cell_setting 'triclinic'
loop_
_space_group_symop_operation_xyz
x,y,z
-x,-y,-z
loop_
_atom_site_type_symbol
_atom_site_label
_atom_site_fract_x
_atom_site_fract_y
_atom_site_fract_z
Si Si1 0.580279 0.252385 0.479515
Si Si2 0.204110 0.302917 0.810673
Si Si3 0.205875 0.954666 0.970370
Si Si4 0.031174 0.028954 0.193760
Si Si5 0.296593 0.477785 0.693819
Si Si6 0.838380 0.198117 0.638608
Si Si7 0.826532 0.606731 0.897354
O O1 0.500000 0.500000 0.500000
O O2 0.441384 0.272796 0.535013
O O3 0.694824 0.218298 0.579831
O O4 0.687544 0.003877 0.302990
O O5 0.282192 0.349623 0.741828
O O6 0.017708 0.439211 0.820054
O O7 0.211808 0.401226 0.977997
O O8 0.168033 0.982508 0.112617
O O9 0.273276 0.095653 0.017032
O O10 0.335592 0.652797 0.822585
O O11 0.035506 0.095944 0.933961
O O12 0.875904 0.336515 0.319191
O O13 0.115123 0.904780 0.271006
O O14 0.772807 0.485150 0.757521
O O15 0.000000 0.000000 0.500000
#
# Coordination Sequence:
#
# PCOD8006131 Si02
#       7
#     2   2   2   2   2   2   2
#     4  12  26  44  61  89 136 174 205 259 328 378
#     4  11  21  39  69  94 122 171 214 254 318 377
#     4   9  17  37  69  98 121 162 212 258 316 368
#     4   9  18  37  65  92 124 159 215 257 305 368
#     4  10  20  39  65  95 126 164 206 259 323 378
#     4  12  24  40  61  97 127 165 215 264 311 369
#     4  11  20  37  67  98 121 159 222 263 295 374
#
# _framework density 21.134626000000001
#
# number of rings (size 3 to 8) (size 9 to 14) (size 15 to 20)
#    0.857    0.571    2.857    4.714    0.000    0.000 
#    0.000   11.429    0.000    0.000    0.000    0.000 
#    0.000    0.000    0.000    0.000    0.000    0.000 
#
# Total GULP energy -173513.096734 kJ/mol
# GULP energy per Si atom -12393.792624 kJ/mol
# Density = 2.108652 g / cm^3
# Si number density = 21.134626 Si / 1000 Ang^3
#
#
#
# Elastic Constant Matrix: (Units=GPa)
#
#
# Indices 1 2 3 4 5 6 
#
# 1 50.7448 17.8466 20.2657 -7.7423 -17.4412 13.7103
# 2 17.8466 90.6735 30.2415 -4.7795 1.9517 20.5293
# 3 20.2657 30.2415 93.5349 0.0024 -4.0300 2.8523
# 4 -7.7423 -4.7795 0.0024 41.0996 7.6199 -2.9625
# 5 -17.4412 1.9517 -4.0300 7.6199 32.5978 -0.2423
# 6 13.7103 20.5293 2.8523 -2.9625 -0.2423 30.1265
#
#
#
# Elastic Compliance Matrix: (Units=1/GPa)
#
#
# Indices 1 2 3 4 5 6 
#
# 1 0.031444 -0.001962 -0.005128 0.001893 0.015774 -0.012174
# 2 -0.001962 0.014955 -0.004264 0.001261 -0.002833 -0.008793
# 3 -0.005128 -0.004264 0.013036 -0.001071 -0.000597 0.003895
# 4 0.001893 0.001261 -0.001071 0.025869 -0.005235 0.000882
# 5 0.015774 -0.002833 -0.000597 -0.005235 0.040396 -0.005382
# 6 -0.012174 -0.008793 0.003895 0.000882 -0.005382 0.044400
#
#
# Mechanical properties :
#
#
# Convention : Reuss Voigt Hill
#
# Bulk Modulus (GPa) = 27.22708 41.29565 34.26137
# Shear Modulus (GPa) = 24.38408 31.87141 28.12774
#
# Velocity S-wave (km/s) = 3.40037 3.88753 3.65209
# Velocity P-wave (km/s) = 5.32235 6.30336 5.83351
#
# Compressibility (1/GPa) = 0.03672814
#
# Stress axis : x y z
#
# Youngs Moduli (GPa) = 31.80231 66.86623 76.70860
#
# Poissons Ratio (x) = 0.13120 0.39333
# Poissons Ratio (y) = 0.06240 0.32709
# Poissons Ratio (z) = 0.16307 0.28512
#
# Static dielectric constant tensor:
#      x y z
#    x 3.592840 0.093660 -0.041610 
#    y 0.093660 4.069050 -0.153140 
#    z -0.041610 -0.153140 4.380050 
# 
# 
# High freq. dielectric constant tensor:
#      x y z
#    x 1.803600 0.026150 -0.023690 
#    y 0.026150 1.819630 0.015130 
#    z -0.023690 0.015130 1.830020 
# 
# From -- ./inp_files/420055.got.cif
#   From: 2010.06.25/outbox.cif.g09.slc.cpg/sg2_211_cif.got.tgz:420055.got - 2010.06.27 13:26:56.
