data_PCOD8006573
_publ_section_title
;
Structure prediction by ZEFSAII (Michael W. Deem and Ramdas Pophale) SiO2 
 PCOD8006573
Probable space group: P -1
;
_chemical_formula_sum "Si O2"
_cell_formula_units_Z 16
_cell_length_a 16.797677
_cell_length_b 12.619125
_cell_length_c 21.051708
_cell_angle_alpha 26.137724
_cell_angle_beta 22.511586
_cell_angle_gamma 38.072392
_cell_volume 728.827347
_symmetry_space_group_name_H-M "P -1"
_symmetry_group_IT_number 2
_symmetry_cell_setting 'triclinic'
loop_
_space_group_symop_operation_xyz
x,y,z
-x,-y,-z
loop_
_atom_site_type_symbol
_atom_site_label
_atom_site_fract_x
_atom_site_fract_y
_atom_site_fract_z
Si Si1 0.456183 0.954744 0.655670
Si Si2 0.627830 0.811740 0.286536
Si Si3 0.750453 0.156789 0.888848
Si Si4 0.663278 0.820398 0.885202
Si Si5 0.283994 0.635441 0.840017
Si Si6 0.815331 0.406000 0.321293
Si Si7 0.094675 0.099996 0.454522
Si Si8 0.818984 0.723284 0.563351
O O1 0.322129 0.001534 0.791076
O O2 0.583318 0.225064 0.391740
O O3 0.293091 0.819517 0.794557
O O4 0.619946 0.786921 0.640613
O O5 0.753005 0.594964 0.316525
O O6 0.373118 0.679640 0.545556
O O7 0.697384 0.959483 0.090505
O O8 0.791049 0.430409 0.740700
O O9 0.962553 0.127933 0.711706
O O10 0.555921 0.103518 0.010217
O O11 0.836977 0.056827 0.660961
O O12 0.768590 0.725760 0.794847
O O13 0.614621 0.592892 0.093035
O O14 0.037257 0.541381 0.050248
O O15 0.851632 0.163777 0.459941
O O16 0.181247 0.199153 0.405254
#
# Coordination Sequence:
#
# PCOD8006573 Si02
#       8
#     2   2   2   2   2   2   2   2
#     4  11  22  41  63  88 120 162 206 240 300 357
#     4  11  23  40  65  91 118 159 202 251 297 353
#     4  11  23  40  62  90 127 152 200 255 295 355
#     4  10  20  40  61  90 122 156 195 248 299 360
#     4  10  23  39  62  88 124 161 196 250 295 359
#     4  10  21  42  59  93 120 152 203 247 300 349
#     4  10  21  40  67  89 118 158 201 244 303 360
#     4  11  23  40  63  91 119 159 202 249 300 351
#
# _framework density 21.953073
#
# number of rings (size 3 to 8) (size 9 to 14) (size 15 to 20)
#    0.000    1.500    3.750    0.750    1.750    2.500 
#    9.000    3.750    0.000    0.000    0.000    0.000 
#    0.000    0.000    0.000    0.000    0.000    0.000 
#
# Total GULP energy -198381.943952 kJ/mol
# GULP energy per Si atom -12398.871497 kJ/mol
# Density = 2.190311 g / cm^3
# Si number density = 21.953073 Si / 1000 Ang^3
#
#
#
# Elastic Constant Matrix: (Units=GPa)
#
#
# Indices 1 2 3 4 5 6 
#
# 1 68.8362 9.7838 12.0196 1.7055 1.6289 -0.6124
# 2 9.7838 68.7828 -0.8610 3.5879 2.8679 -8.8365
# 3 12.0196 -0.8610 67.4449 -2.8829 -3.4956 -10.1886
# 4 1.7055 3.5879 -2.8829 21.2318 -4.1368 1.4416
# 5 1.6289 2.8679 -3.4956 -4.1368 31.2868 0.2833
# 6 -0.6124 -8.8365 -10.1886 1.4416 0.2833 16.9564
#
#
#
# Elastic Compliance Matrix: (Units=1/GPa)
#
#
# Indices 1 2 3 4 5 6 
#
# 1 0.015488 -0.002460 -0.003293 -0.001315 -0.001099 -0.002571
# 2 -0.002460 0.016433 0.001920 -0.003323 -0.001693 0.009940
# 3 -0.003293 0.001920 0.017303 0.001944 0.002085 0.011078
# 4 -0.001315 -0.003323 0.001944 0.049773 0.007216 -0.004964
# 5 -0.001099 -0.001693 0.002085 0.007216 0.033370 -0.000840
# 6 -0.002571 0.009940 0.011078 -0.004964 -0.000840 0.071154
#
#
# Mechanical properties :
#
#
# Convention : Reuss Voigt Hill
#
# Bulk Modulus (GPa) = 24.06307 27.43873 25.75090
# Shear Modulus (GPa) = 22.21823 26.16978 24.19401
#
# Velocity S-wave (km/s) = 3.18477 3.45639 3.32336
# Velocity P-wave (km/s) = 4.95062 5.33431 5.14604
#
# Compressibility (1/GPa) = 0.04155745
#
# Stress axis : x y z
#
# Youngs Moduli (GPa) = 64.56766 60.85183 57.79331
#
# Poissons Ratio (x) = 0.14970 0.19032
# Poissons Ratio (y) = 0.15884 -0.11096
# Poissons Ratio (z) = 0.21263 -0.11683
#
# Static dielectric constant tensor:
#      x y z
#    x 3.832690 -0.170140 -0.138020 
#    y -0.170140 3.790930 -0.070810 
#    z -0.138020 -0.070810 4.154990 
# 
# 
# High freq. dielectric constant tensor:
#      x y z
#    x 1.859860 -0.010780 -0.006820 
#    y -0.010780 1.842760 -0.008660 
#    z -0.006820 -0.008660 1.872970 
# 
# From -- ./inp_files/223863.got.cif
#   From: 2010.06.25/outbox.cif.g09.slc.cpg/sg2_112_cif.got.tgz:223863.got - 2010.06.27 13:26:56.
