data_PCOD8006802
_publ_section_title
;
Structure prediction by ZEFSAII (Michael W. Deem and Ramdas Pophale) SiO2 
 PCOD8006802
Probable space group: P -1
;
_chemical_formula_sum "Si O2"
_cell_formula_units_Z 16
_cell_length_a 15.704478
_cell_length_b 8.773617
_cell_length_c 12.381560
_cell_angle_alpha 109.825724
_cell_angle_beta 116.308033
_cell_angle_gamma 123.554114
_cell_volume 794.483083
_symmetry_space_group_name_H-M "P -1"
_symmetry_group_IT_number 2
_symmetry_cell_setting 'triclinic'
loop_
_space_group_symop_operation_xyz
x,y,z
-x,-y,-z
loop_
_atom_site_type_symbol
_atom_site_label
_atom_site_fract_x
_atom_site_fract_y
_atom_site_fract_z
Si Si1 0.104605 0.427156 0.305276
Si Si2 0.974440 0.649222 0.519791
Si Si3 0.409919 0.717081 0.426816
Si Si4 0.675533 0.686098 0.090970
Si Si5 0.747755 0.782734 0.908298
Si Si6 0.886521 0.711312 0.298454
Si Si7 0.012980 0.631364 0.187473
Si Si8 0.265080 0.974129 0.217068
O O1 0.281040 0.596650 0.414640
O O2 0.112134 0.421795 0.435848
O O3 0.087713 0.587739 0.290343
O O4 0.952789 0.094795 0.099170
O O5 0.000000 0.500000 0.500000
O O6 0.843705 0.513840 0.316938
O O7 0.165367 0.990855 0.692083
O O8 0.305660 0.474149 0.216770
O O9 0.500000 0.000000 0.500000
O O10 0.550628 0.803633 0.579125
O O11 0.717245 0.556559 0.114778
O O12 0.500000 0.500000 0.000000
O O13 0.664961 0.698510 0.959147
O O14 0.683621 0.818125 0.791546
O O15 0.991129 0.765735 0.275769
O O16 0.000000 0.000000 0.500000
O O17 0.141177 0.860048 0.216717
O O18 0.827858 0.312592 0.959773
#
# Coordination Sequence:
#
# PCOD8006802 Si02
#       8
#     2   2   2   2   2   2   2   2
#     4  10  21  40  65  92 127 167 206 261 312 377
#     4  10  20  40  65  91 121 164 210 253 305 377
#     4  12  24  38  62 100 125 160 214 261 318 368
#     4  10  24  42  62  91 125 162 207 263 316 365
#     4  10  24  42  63  87 131 168 206 258 316 384
#     4  10  22  38  63  92 123 168 211 253 315 378
#     4  10  20  40  64  91 129 168 209 255 321 382
#     4  10  23  40  64  92 127 170 207 263 317 373
#
# _framework density 20.138878999999999
#
# number of rings (size 3 to 8) (size 9 to 14) (size 15 to 20)
#    0.000    1.750    2.500    0.750    1.750    7.000 
#    0.000    0.625    0.000    0.000    0.000    0.000 
#    0.000    0.000    0.000    0.000    0.000    0.000 
#
# Total GULP energy -198277.261989 kJ/mol
# GULP energy per Si atom -12392.328874 kJ/mol
# Density = 2.009304 g / cm^3
# Si number density = 20.138879 Si / 1000 Ang^3
#
#
#
# Elastic Constant Matrix: (Units=GPa)
#
#
# Indices 1 2 3 4 5 6 
#
# 1 139.3443 62.7805 60.3488 1.5066 -0.1447 7.4636
# 2 62.7805 148.7971 51.7395 -15.7884 10.1042 -0.0336
# 3 60.3488 51.7395 65.5485 -6.1829 -0.3480 8.9548
# 4 1.5066 -15.7884 -6.1829 34.6415 -3.5927 3.2990
# 5 -0.1447 10.1042 -0.3480 -3.5927 30.9776 6.1164
# 6 7.4636 -0.0336 8.9548 3.2990 6.1164 32.4101
#
#
#
# Elastic Compliance Matrix: (Units=1/GPa)
#
#
# Indices 1 2 3 4 5 6 
#
# 1 0.012607 -0.002110 -0.010289 -0.003349 0.000195 0.000242
# 2 -0.002110 0.010391 -0.006348 0.003068 -0.003633 0.002624
# 3 -0.010289 -0.006348 0.031193 0.004289 0.004354 -0.007514
# 4 -0.003349 0.003068 0.004289 0.031963 0.003596 -0.004343
# 5 0.000195 -0.003633 0.004354 0.003596 0.035578 -0.008332
# 6 0.000242 0.002624 -0.007514 -0.004343 -0.008332 0.034892
#
#
# Mechanical properties :
#
#
# Convention : Reuss Voigt Hill
#
# Bulk Modulus (GPa) = 59.88875 78.15863 69.02369
# Shear Modulus (GPa) = 25.03967 31.52723 28.28345
#
# Velocity S-wave (km/s) = 3.52994 3.96092 3.75163
# Velocity P-wave (km/s) = 6.81296 7.73386 7.28797
#
# Compressibility (1/GPa) = 0.01669763
#
# Stress axis : x y z
#
# Youngs Moduli (GPa) = 79.32328 96.23978 32.05824
#
# Poissons Ratio (x) = 0.20305 0.32985
# Poissons Ratio (y) = 0.16736 0.20349
# Poissons Ratio (z) = 0.81616 0.61089
#
# Static dielectric constant tensor:
#      x y z
#    x 3.876650 -0.201650 -0.232830 
#    y -0.201650 3.869250 -0.096930 
#    z -0.232830 -0.096930 3.715230 
# 
# 
# High freq. dielectric constant tensor:
#      x y z
#    x 1.785330 -0.004500 -0.008460 
#    y -0.004500 1.800690 -0.016030 
#    z -0.008460 -0.016030 1.778100 
# 
# From -- ./inp_files/187854.got.cif
#   From: 2010.06.25/outbox.cif.g09.slc.cpg/sg2_94_cif.got.tgz:187854.got - 2010.06.27 13:26:56.
