data_PCOD8006737
_publ_section_title
;
Structure prediction by ZEFSAII (Michael W. Deem and Ramdas Pophale) SiO2 
 PCOD8006737
Probable space group: P -1
;
_chemical_formula_sum "Si O2"
_cell_formula_units_Z 16
_cell_length_a 21.297775
_cell_length_b 12.550919
_cell_length_c 8.885817
_cell_angle_alpha 86.908960
_cell_angle_beta 70.756313
_cell_angle_gamma 149.878578
_cell_volume 786.192787
_symmetry_space_group_name_H-M "P -1"
_symmetry_group_IT_number 2
_symmetry_cell_setting 'triclinic'
loop_
_space_group_symop_operation_xyz
x,y,z
-x,-y,-z
loop_
_atom_site_type_symbol
_atom_site_label
_atom_site_fract_x
_atom_site_fract_y
_atom_site_fract_z
Si Si1 0.746216 0.135295 0.589304
Si Si2 0.280517 0.577470 0.614920
Si Si3 0.147034 0.981393 0.991676
Si Si4 0.886856 0.240749 0.191772
Si Si5 0.902701 0.191824 0.655879
Si Si6 0.547349 0.137527 0.217073
Si Si7 0.850507 0.838296 0.229106
Si Si8 0.055855 0.314369 0.240357
O O1 0.736649 0.068698 0.435937
O O2 0.753565 0.051042 0.712275
O O3 0.928679 0.486159 0.428966
O O4 0.556757 0.919057 0.775333
O O5 0.379294 0.723211 0.687028
O O6 0.274621 0.443902 0.576478
O O7 0.079060 0.334283 0.812726
O O8 0.402054 0.820504 0.373461
O O9 0.203269 0.038141 0.114448
O O10 0.212756 0.979423 0.840314
O O11 0.254058 0.242337 0.806753
O O12 0.033026 0.388616 0.159652
O O13 0.000000 0.500000 0.000000
O O14 0.979266 0.219447 0.475574
O O15 0.719984 0.370334 0.951717
O O16 0.942581 0.046501 0.273903
O O17 0.000000 0.000000 0.000000
#
# Coordination Sequence:
#
# PCOD8006737 Si02
#       8
#     2   2   2   2   2   2   2   2
#     4  10  21  32  52  78 121 143 178 223 283 324
#     4  10  19  32  58  86 112 135 181 239 282 308
#     4  10  17  34  58  79 106 145 187 227 257 330
#     4  10  16  30  52  81 103 142 183 223 266 321
#     4  10  20  36  50  82 114 154 179 217 268 344
#     4  11  19  34  56  89 111 139 176 242 278 314
#     4   9  17  35  56  84 103 147 186 229 266 331
#     4  10  21  33  57  81 114 144 185 223 274 330
#
# _framework density 20.351244000000001
#
# number of rings (size 3 to 8) (size 9 to 14) (size 15 to 20)
#    0.000    2.000    6.250    0.000    1.750    0.500 
#    0.000    2.500    0.000    7.500    0.000    0.000 
#    0.000    0.000    0.000    0.000    0.000    0.000 
#
# Total GULP energy -198248.692537 kJ/mol
# GULP energy per Si atom -12390.543284 kJ/mol
# Density = 2.030492 g / cm^3
# Si number density = 20.351244 Si / 1000 Ang^3
#
#
#
# Elastic Constant Matrix: (Units=GPa)
#
#
# Indices 1 2 3 4 5 6 
#
# 1 132.0935 45.0670 53.1000 8.3637 7.0864 -9.6969
# 2 45.0670 65.7010 40.4414 18.1450 7.5329 -20.8070
# 3 53.1000 40.4414 68.7604 18.4221 2.0562 -3.8889
# 4 8.3637 18.1450 18.4221 34.4574 1.2679 -0.4923
# 5 7.0864 7.5329 2.0562 1.2679 26.0934 -1.6007
# 6 -9.6969 -20.8070 -3.8889 -0.4923 -1.6007 39.0224
#
#
#
# Elastic Compliance Matrix: (Units=1/GPa)
#
#
# Indices 1 2 3 4 5 6 
#
# 1 0.011954 -0.004381 -0.007553 0.003499 -0.001565 -0.000138
# 2 -0.004381 0.034940 -0.013493 -0.009661 -0.006394 0.015813
# 3 -0.007553 -0.013493 0.029794 -0.007208 0.003578 -0.006046
# 4 0.003499 -0.009661 -0.007208 0.037037 0.000330 -0.004519
# 5 -0.001565 -0.006394 0.003578 0.000330 0.040187 -0.001789
# 6 -0.000138 0.015813 -0.006046 -0.004519 -0.001789 0.033290
#
#
# Mechanical properties :
#
#
# Convention : Reuss Voigt Hill
#
# Bulk Modulus (GPa) = 38.70872 60.41906 49.56389
# Shear Modulus (GPa) = 20.27031 28.44439 24.35735
#
# Velocity S-wave (km/s) = 3.15941 3.74260 3.46330
# Velocity P-wave (km/s) = 5.68953 6.95907 6.35608
#
# Compressibility (1/GPa) = 0.02583397
#
# Stress axis : x y z
#
# Youngs Moduli (GPa) = 83.65731 28.62054 33.56386
#
# Poissons Ratio (x) = 0.12539 0.25350
# Poissons Ratio (y) = 0.36652 0.45287
# Poissons Ratio (z) = 0.63185 0.38617
#
# Static dielectric constant tensor:
#      x y z
#    x 4.439190 -0.512610 0.310930 
#    y -0.512610 3.919540 -0.025050 
#    z 0.310930 -0.025050 3.646910 
# 
# 
# High freq. dielectric constant tensor:
#      x y z
#    x 1.815080 -0.014160 0.006170 
#    y -0.014160 1.771180 0.022050 
#    z 0.006170 0.022050 1.761830 
# 
# From -- ./inp_files/345325.got.cif
#   From: 2010.06.25/outbox.cif.g09.slc.cpg/sg2_173_cif.got.tgz:345325.got - 2010.06.27 13:26:56.
