data_PCOD8006703
_publ_section_title
;
Structure prediction by ZEFSAII (Michael W. Deem and Ramdas Pophale) SiO2 
 PCOD8006703
Probable space group: P -1
;
_chemical_formula_sum "Si O2"
_cell_formula_units_Z 16
_cell_length_a 9.628150
_cell_length_b 11.234758
_cell_length_c 8.705104
_cell_angle_alpha 116.574910
_cell_angle_beta 78.022642
_cell_angle_gamma 101.734745
_cell_volume 817.211399
_symmetry_space_group_name_H-M "P -1"
_symmetry_group_IT_number 2
_symmetry_cell_setting 'triclinic'
loop_
_space_group_symop_operation_xyz
x,y,z
-x,-y,-z
loop_
_atom_site_type_symbol
_atom_site_label
_atom_site_fract_x
_atom_site_fract_y
_atom_site_fract_z
Si Si1 0.933977 0.140537 0.457333
Si Si2 0.919838 0.597110 0.971431
Si Si3 0.450463 0.132482 0.449744
Si Si4 0.623897 0.430267 0.859218
Si Si5 0.592921 0.393339 0.483846
Si Si6 0.154520 0.158635 0.667881
Si Si7 0.345304 0.853548 0.314447
Si Si8 0.085173 0.624997 0.640386
O O1 0.824923 0.167598 0.634549
O O2 0.921072 0.238593 0.374115
O O3 0.088758 0.170479 0.518907
O O4 0.902639 0.984724 0.322926
O O5 0.774185 0.516167 0.899962
O O6 0.017329 0.646310 0.832861
O O7 0.886182 0.726046 0.145955
O O8 0.000000 0.500000 0.000000
O O9 0.502631 0.248554 0.381821
O O10 0.324847 0.174306 0.613074
O O11 0.588037 0.118032 0.514844
O O12 0.398329 0.991921 0.289707
O O13 0.601455 0.410598 0.673562
O O14 0.614805 0.281470 0.852915
O O15 0.500000 0.500000 0.000000
O O16 0.500000 0.500000 0.500000
O O17 0.752018 0.404273 0.384124
O O18 0.000000 0.500000 0.500000
#
# Coordination Sequence:
#
# PCOD8006703 Si02
#       8
#     2   2   2   2   2   2   2   2
#     4  10  20  40  63  89 121 157 205 249 312 362
#     4  12  25  38  61  91 123 163 209 250 311 365
#     4   9  18  33  61  84 110 150 198 246 290 356
#     4  11  22  39  60  90 122 155 198 259 300 362
#     4  11  24  40  60  91 121 159 209 248 307 362
#     4  10  22  37  63  95 118 156 204 258 296 374
#     4   9  16  35  57  84 113 151 197 239 296 354
#     4  12  23  41  62  84 126 169 198 257 310 367
#
# _framework density 19.578778
#
# number of rings (size 3 to 8) (size 9 to 14) (size 15 to 20)
#    0.000    1.500    3.750    3.000    5.250    0.500 
#    0.000    0.000    0.000    0.750    0.000    0.000 
#    0.000    0.000    0.000    0.000    0.000    0.000 
#
# Total GULP energy -198333.020785 kJ/mol
# GULP energy per Si atom -12395.813799 kJ/mol
# Density = 1.953422 g / cm^3
# Si number density = 19.578778 Si / 1000 Ang^3
#
#
#
# Elastic Constant Matrix: (Units=GPa)
#
#
# Indices 1 2 3 4 5 6 
#
# 1 108.3969 59.5736 29.2965 3.5180 -14.0550 1.9038
# 2 59.5736 160.2485 45.5270 27.9613 -6.0234 1.4885
# 3 29.2965 45.5270 77.3597 24.7111 -19.0136 4.0270
# 4 3.5180 27.9613 24.7111 34.4756 -7.4342 -2.7340
# 5 -14.0550 -6.0234 -19.0136 -7.4342 28.2408 0.8675
# 6 1.9038 1.4885 4.0270 -2.7340 0.8675 35.2638
#
#
#
# Elastic Compliance Matrix: (Units=1/GPa)
#
#
# Indices 1 2 3 4 5 6 
#
# 1 0.013132 -0.004936 -0.002599 0.005660 0.005220 0.000107
# 2 -0.004936 0.009842 -0.002872 -0.006286 -0.003939 -0.000211
# 3 -0.002599 -0.002872 0.021770 -0.011134 0.009922 -0.003332
# 4 0.005660 -0.006286 -0.011134 0.042971 0.005155 0.004436
# 5 0.005220 -0.003939 0.009922 0.005155 0.045265 -0.001962
# 6 0.000107 -0.000211 -0.003332 0.004436 -0.001962 0.029134
#
#
# Mechanical properties :
#
#
# Convention : Reuss Voigt Hill
#
# Bulk Modulus (GPa) = 41.78881 68.31102 55.04992
# Shear Modulus (GPa) = 26.19134 33.70324 29.94729
#
# Velocity S-wave (km/s) = 3.66148 4.15350 3.91523
# Velocity P-wave (km/s) = 6.26622 7.61368 6.97258
#
# Compressibility (1/GPa) = 0.02392985
#
# Stress axis : x y z
#
# Youngs Moduli (GPa) = 76.15203 101.60582 45.93530
#
# Poissons Ratio (x) = 0.50151 0.11938
# Poissons Ratio (y) = 0.37587 0.13193
# Poissons Ratio (z) = 0.19791 0.29182
#
# Static dielectric constant tensor:
#      x y z
#    x 3.828430 0.148170 -0.036690 
#    y 0.148170 4.341940 0.377310 
#    z -0.036690 0.377310 3.272500 
# 
# 
# High freq. dielectric constant tensor:
#      x y z
#    x 1.788290 0.003180 -0.007220 
#    y 0.003180 1.778980 0.031110 
#    z -0.007220 0.031110 1.719210 
# 
# From -- ./inp_files/182402.got.cif
#   From: 2010.06.25/outbox.cif.g09.slc.cpg/sg2_92_cif.got.tgz:182402.got - 2010.06.27 13:26:56.
