data_PCOD8006199
_publ_section_title
;
Structure prediction by ZEFSAII (Michael W. Deem and Ramdas Pophale) SiO2 
 PCOD8006199
Probable space group: P -1
;
_chemical_formula_sum "Si O2"
_cell_formula_units_Z 14
_cell_length_a 9.880255
_cell_length_b 12.212155
_cell_length_c 11.524735
_cell_angle_alpha 84.220113
_cell_angle_beta 40.412996
_cell_angle_gamma 113.179252
_cell_volume 613.823083
_symmetry_space_group_name_H-M "P -1"
_symmetry_group_IT_number 2
_symmetry_cell_setting 'triclinic'
loop_
_space_group_symop_operation_xyz
x,y,z
-x,-y,-z
loop_
_atom_site_type_symbol
_atom_site_label
_atom_site_fract_x
_atom_site_fract_y
_atom_site_fract_z
Si Si1 0.764727 0.778062 0.756385
Si Si2 0.744198 0.248591 0.220251
Si Si3 0.796884 0.047430 0.756324
Si Si4 0.150598 0.106475 0.719725
Si Si5 0.860955 0.436826 0.917041
Si Si6 0.859954 0.777991 0.952570
Si Si7 0.456808 0.582603 0.429124
O O1 0.836894 0.744422 0.833700
O O2 0.030523 0.843223 0.484801
O O3 0.728872 0.893992 0.792179
O O4 0.429009 0.615298 0.946601
O O5 0.393330 0.122054 0.495300
O O6 0.973439 0.412601 0.125593
O O7 0.841851 0.161070 0.188428
O O8 0.762189 0.290684 0.069587
O O9 0.030149 0.149169 0.700644
O O10 0.500000 0.000000 0.000000
O O11 0.310012 0.230841 0.706366
O O12 0.882447 0.918108 0.951105
O O13 0.108616 0.488591 0.656999
O O14 0.566773 0.605063 0.223116
O O15 0.500000 0.500000 0.500000
#
# Coordination Sequence:
#
# PCOD8006199 Si02
#       7
#     2   2   2   2   2   2   2
#     4  10  23  43  62  96 137 165 217 274 322 392
#     4  10  20  39  66  91 125 170 215 262 329 384
#     4  10  22  41  67  93 129 179 216 258 334 396
#     4  10  22  42  64  95 128 163 223 276 311 389
#     4  10  21  40  64  90 129 173 214 264 319 394
#     4  11  23  41  63  98 131 170 213 271 332 373
#     4  11  23  39  64  94 128 171 220 261 320 389
#
# _framework density 22.807874999999999
#
# number of rings (size 3 to 8) (size 9 to 14) (size 15 to 20)
#    0.000    1.714    2.857    0.857    2.000    1.143 
#   12.857    0.000    0.000    0.000    0.000    0.000 
#    0.000    0.000    0.000    0.000    0.000    0.000 
#
# Total GULP energy -173473.440699 kJ/mol
# GULP energy per Si atom -12390.960050 kJ/mol
# Density = 2.275596 g / cm^3
# Si number density = 22.807875 Si / 1000 Ang^3
#
#
#
# Elastic Constant Matrix: (Units=GPa)
#
#
# Indices 1 2 3 4 5 6 
#
# 1 106.4169 12.9673 51.8298 6.0141 16.5953 1.4954
# 2 12.9673 26.5761 25.9316 12.4215 0.9259 -7.2692
# 3 51.8298 25.9316 154.7979 28.7305 11.1209 2.4515
# 4 6.0141 12.4215 28.7305 36.4731 -2.8734 -5.2077
# 5 16.5953 0.9259 11.1209 -2.8734 45.8298 -1.8078
# 6 1.4954 -7.2692 2.4515 -5.2077 -1.8078 21.9553
#
#
#
# Elastic Compliance Matrix: (Units=1/GPa)
#
#
# Indices 1 2 3 4 5 6 
#
# 1 0.011955 -0.003457 -0.003417 0.001413 -0.003401 -0.001522
# 2 -0.003457 0.055150 -0.006517 -0.010535 0.001724 0.016866
# 3 -0.003417 -0.006517 0.009968 -0.005845 -0.001596 -0.004556
# 4 0.001413 -0.010535 -0.005845 0.036525 0.003648 0.006032
# 5 -0.003401 0.001724 -0.001596 0.003648 0.023783 0.003804
# 6 -0.001522 0.016866 -0.004556 0.006032 0.003804 0.053488
#
#
# Mechanical properties :
#
#
# Convention : Reuss Voigt Hill
#
# Bulk Modulus (GPa) = 19.88449 52.13871 36.01160
# Shear Modulus (GPa) = 21.32984 33.98912 27.65948
#
# Velocity S-wave (km/s) = 3.06142 3.86455 3.48619
# Velocity P-wave (km/s) = 4.60799 6.54389 5.65933
#
# Compressibility (1/GPa) = 0.05029046
#
# Stress axis : x y z
#
# Youngs Moduli (GPa) = 83.64999 18.13223 100.32547
#
# Poissons Ratio (x) = 0.06268 0.34285
# Poissons Ratio (y) = 0.28915 0.65383
# Poissons Ratio (z) = 0.28586 0.11817
#
# Static dielectric constant tensor:
#      x y z
#    x 4.235020 0.049570 0.077720 
#    y 0.049570 3.842270 0.062030 
#    z 0.077720 0.062030 4.274130 
# 
# 
# High freq. dielectric constant tensor:
#      x y z
#    x 1.894820 0.002790 0.005050 
#    y 0.002790 1.878320 0.000090 
#    z 0.005050 0.000090 1.910550 
# 
# From -- ./inp_files/298286.got.cif
#   From: 2010.06.25/outbox.cif.g09.slc.cpg/sg2_150_cif.got.tgz:298286.got - 2010.06.27 13:26:56.
