data_PCOD8006696
_publ_section_title
;
Structure prediction by ZEFSAII (Michael W. Deem and Ramdas Pophale) SiO2 
 PCOD8006696
Probable space group: P -1
;
_chemical_formula_sum "Si O2"
_cell_formula_units_Z 16
_cell_length_a 12.388395
_cell_length_b 11.869288
_cell_length_c 12.412388
_cell_angle_alpha 37.995328
_cell_angle_beta 94.012458
_cell_angle_gamma 66.982648
_cell_volume 770.137426
_symmetry_space_group_name_H-M "P -1"
_symmetry_group_IT_number 2
_symmetry_cell_setting 'triclinic'
loop_
_space_group_symop_operation_xyz
x,y,z
-x,-y,-z
loop_
_atom_site_type_symbol
_atom_site_label
_atom_site_fract_x
_atom_site_fract_y
_atom_site_fract_z
Si Si1 0.674998 0.435713 0.290038
Si Si2 0.822518 0.645942 0.377074
Si Si3 0.324529 0.951692 0.133839
Si Si4 0.680011 0.437674 0.524570
Si Si5 0.266811 0.974054 0.540155
Si Si6 0.587263 0.039984 0.237917
Si Si7 0.064558 0.724321 0.679499
Si Si8 0.306162 0.162620 0.191325
O O1 0.660527 0.367577 0.457874
O O2 0.828912 0.382010 0.340953
O O3 0.697498 0.269451 0.318929
O O4 0.515482 0.740081 0.027898
O O5 0.811053 0.436996 0.529883
O O6 0.000000 0.500000 0.500000
O O7 0.748118 0.785333 0.382875
O O8 0.731609 0.852000 0.116054
O O9 0.514253 0.731899 0.324873
O O10 0.275438 0.797258 0.224347
O O11 0.249984 0.114469 0.118860
O O12 0.297502 0.073033 0.370808
O O13 0.087351 0.218372 0.386608
O O14 0.378457 0.868897 0.728537
O O15 0.488464 0.993004 0.315249
O O16 0.187778 0.481852 0.955603
O O17 0.000000 0.000000 0.500000
#
# Coordination Sequence:
#
# PCOD8006696 Si02
#       8
#     2   2   2   2   2   2   2   2
#     4  10  20  40  63  88 123 163 213 260 307 384
#     4  12  26  42  66  97 136 171 207 272 338 383
#     4  11  23  42  72  96 123 170 226 273 314 386
#     4  11  22  43  71  97 124 167 228 273 312 388
#     4  11  22  38  61  95 122 163 204 261 324 375
#     4  11  23  39  60  90 130 165 207 255 326 389
#     4   9  21  37  60  87 120 161 212 258 315 375
#     4  11  21  40  63  90 125 164 214 266 313 380
#
# _framework density 20.775513
#
# number of rings (size 3 to 8) (size 9 to 14) (size 15 to 20)
#    0.000    1.250    3.750    3.000    3.500    0.500 
#    0.000    0.000    0.000    0.000    0.000    0.000 
#    0.000    0.000    0.000    0.000    0.000    0.000 
#
# Total GULP energy -198231.380145 kJ/mol
# GULP energy per Si atom -12389.461259 kJ/mol
# Density = 2.072823 g / cm^3
# Si number density = 20.775513 Si / 1000 Ang^3
#
#
#
# Elastic Constant Matrix: (Units=GPa)
#
#
# Indices 1 2 3 4 5 6 
#
# 1 139.1365 27.8367 41.2048 -8.3132 0.4208 -6.9637
# 2 27.8367 90.3340 23.9925 0.7876 7.4345 -0.1114
# 3 41.2048 23.9925 51.6073 -8.5784 -1.5887 -12.0364
# 4 -8.3132 0.7876 -8.5784 27.9901 -5.8866 2.1333
# 5 0.4208 7.4345 -1.5887 -5.8866 31.4620 -1.9648
# 6 -6.9637 -0.1114 -12.0364 2.1333 -1.9648 27.1105
#
#
#
# Elastic Compliance Matrix: (Units=1/GPa)
#
#
# Indices 1 2 3 4 5 6 
#
# 1 0.009528 -0.001009 -0.007227 0.000669 -0.000181 -0.000831
# 2 -0.001009 0.013644 -0.007047 -0.003519 -0.004436 -0.003376
# 3 -0.007227 -0.007047 0.032909 0.008401 0.005775 0.012483
# 4 0.000669 -0.003519 0.008401 0.040364 0.008884 0.001355
# 5 -0.000181 -0.004436 0.005775 0.008884 0.035060 0.004341
# 6 -0.000831 -0.003376 0.012483 0.001355 0.004341 0.042409
#
#
# Mechanical properties :
#
#
# Convention : Reuss Voigt Hill
#
# Bulk Modulus (GPa) = 39.19013 51.90511 45.54762
# Shear Modulus (GPa) = 23.47598 29.84877 26.66237
#
# Velocity S-wave (km/s) = 3.36517 3.79453 3.58628
# Velocity P-wave (km/s) = 5.83127 6.65101 6.25459
#
# Compressibility (1/GPa) = 0.02551663
#
# Stress axis : x y z
#
# Youngs Moduli (GPa) = 104.95287 73.29223 30.38700
#
# Poissons Ratio (x) = 0.07393 0.21960
# Poissons Ratio (y) = 0.10586 0.21413
# Poissons Ratio (z) = 0.75847 0.51647
#
# Static dielectric constant tensor:
#      x y z
#    x 4.070470 -0.206350 -0.049670 
#    y -0.206350 3.810280 -0.199630 
#    z -0.049670 -0.199630 3.574960 
# 
# 
# High freq. dielectric constant tensor:
#      x y z
#    x 1.822320 -0.015760 -0.015180 
#    y -0.015760 1.816150 -0.012520 
#    z -0.015180 -0.012520 1.792460 
# 
# From -- ./inp_files/258139.got.cif
#   From: 2010.06.25/outbox.cif.g09.slc.cpg/sg2_130_cif.got.tgz:258139.got - 2010.06.27 13:26:56.
