data_PCOD8006455
_publ_section_title
;
Structure prediction by ZEFSAII (Michael W. Deem and Ramdas Pophale) SiO2 
 PCOD8006455
Probable space group: P -1
;
_chemical_formula_sum "Si O2"
_cell_formula_units_Z 12
_cell_length_a 11.943907
_cell_length_b 8.921907
_cell_length_c 9.000648
_cell_angle_alpha 95.391817
_cell_angle_beta 47.799616
_cell_angle_gamma 61.040400
_cell_volume 474.152762
_symmetry_space_group_name_H-M "P -1"
_symmetry_group_IT_number 2
_symmetry_cell_setting 'triclinic'
loop_
_space_group_symop_operation_xyz
x,y,z
-x,-y,-z
loop_
_atom_site_type_symbol
_atom_site_label
_atom_site_fract_x
_atom_site_fract_y
_atom_site_fract_z
Si Si1 0.363194 0.904663 0.501954
Si Si2 0.991869 0.153074 0.621794
Si Si3 0.554789 0.711297 0.904495
Si Si4 0.474369 0.483950 0.810079
Si Si5 0.167472 0.273865 0.926419
Si Si6 0.150441 0.238550 0.265070
O O1 0.594944 0.821919 0.263568
O O2 0.218162 0.031265 0.494097
O O3 0.220872 0.073710 0.782695
O O4 0.428658 0.677232 0.436803
O O5 0.950491 0.320608 0.557065
O O6 0.794565 0.289508 0.932840
O O7 0.000000 0.000000 0.500000
O O8 0.478345 0.666951 0.109440
O O9 0.771258 0.659244 0.727946
O O10 0.598796 0.553135 0.720698
O O11 0.348301 0.968793 0.062734
O O12 0.055284 0.327823 0.191137
O O13 0.000000 0.500000 0.000000
#
# Coordination Sequence:
#
# PCOD8006455 Si02
#       6
#     2   2   2   2   2   2
#     4  11  23  45  70  97 144 186 229 288 353 422
#     4  12  23  41  75 106 141 178 232 300 353 404
#     4  10  20  39  71 102 144 173 234 301 339 409
#     4  11  20  40  68 108 141 180 218 290 377 398
#     4  11  25  47  71  97 142 196 236 281 350 426
#     4  11  21  43  69 109 133 183 247 289 334 423
#
# _framework density 25.308299999999999
#
# number of rings (size 3 to 8) (size 9 to 14) (size 15 to 20)
#    0.000    1.000    5.000    3.000    0.000    0.667 
#    6.000    1.667    0.000    0.000    0.000    0.000 
#    0.000    0.000    0.000    0.000    0.000    0.000 
#
# Total GULP energy -148684.719855 kJ/mol
# GULP energy per Si atom -12390.393321 kJ/mol
# Density = 2.525070 g / cm^3
# Si number density = 25.308300 Si / 1000 Ang^3
#
#
#
# Elastic Constant Matrix: (Units=GPa)
#
#
# Indices 1 2 3 4 5 6 
#
# 1 177.7439 68.6254 63.8285 14.1443 17.2318 22.6976
# 2 68.6254 111.6532 28.2450 17.3161 3.1837 25.0668
# 3 63.8285 28.2450 96.1564 19.6809 15.3652 24.2581
# 4 14.1443 17.3161 19.6809 49.3787 12.3140 11.3449
# 5 17.2318 3.1837 15.3652 12.3140 40.9838 21.7960
# 6 22.6976 25.0668 24.2581 11.3449 21.7960 58.4120
#
#
#
# Elastic Compliance Matrix: (Units=1/GPa)
#
#
# Indices 1 2 3 4 5 6 
#
# 1 0.009258 -0.004885 -0.004878 0.001405 -0.002795 0.001295
# 2 -0.004885 0.013367 0.000590 -0.003487 0.004558 -0.005106
# 3 -0.004878 0.000590 0.015298 -0.003906 -0.000567 -0.003741
# 4 0.001405 -0.003487 -0.003906 0.024132 -0.006215 0.000205
# 5 -0.002795 0.004558 -0.000567 -0.006215 0.033680 -0.011995
# 6 0.001295 -0.005106 -0.003741 0.000205 -0.011995 0.024797
#
#
# Mechanical properties :
#
#
# Convention : Reuss Voigt Hill
#
# Bulk Modulus (GPa) = 51.08141 78.55013 64.81577
# Shear Modulus (GPa) = 34.38723 44.74520 39.56622
#
# Velocity S-wave (km/s) = 3.69010 4.20933 3.95824
# Velocity P-wave (km/s) = 6.19542 7.39792 6.82321
#
# Compressibility (1/GPa) = 0.01957659
#
# Stress axis : x y z
#
# Youngs Moduli (GPa) = 108.01981 74.81282 65.36719
#
# Poissons Ratio (x) = 0.36545 0.31885
# Poissons Ratio (y) = 0.52767 -0.03856
# Poissons Ratio (z) = 0.52691 -0.04413
#
# Static dielectric constant tensor:
#      x y z
#    x 5.109620 0.365700 0.236240 
#    y 0.365700 4.682160 0.583130 
#    z 0.236240 0.583130 4.760920 
# 
# 
# High freq. dielectric constant tensor:
#      x y z
#    x 2.022110 0.018040 -0.003620 
#    y 0.018040 2.007540 0.056950 
#    z -0.003620 0.056950 2.007100 
# 
# From -- ./inp_files/231858.got.cif
#   From: 2010.06.25/outbox.cif.g09.slc.cpg/sg2_116_cif.got.tgz:231858.got - 2010.06.27 13:26:56.
