data_PCOD8006605
_publ_section_title
;
Structure prediction by ZEFSAII (Michael W. Deem and Ramdas Pophale) SiO2 
 PCOD8006605
Probable space group: P -1
;
_chemical_formula_sum "Si O2"
_cell_formula_units_Z 16
_cell_length_a 14.518356
_cell_length_b 13.205539
_cell_length_c 9.106462
_cell_angle_alpha 67.107979
_cell_angle_beta 28.289085
_cell_angle_gamma 72.170875
_cell_volume 759.609134
_symmetry_space_group_name_H-M "P -1"
_symmetry_group_IT_number 2
_symmetry_cell_setting 'triclinic'
loop_
_space_group_symop_operation_xyz
x,y,z
-x,-y,-z
loop_
_atom_site_type_symbol
_atom_site_label
_atom_site_fract_x
_atom_site_fract_y
_atom_site_fract_z
Si Si1 0.202533 0.983525 0.378069
Si Si2 0.327933 0.747638 0.827171
Si Si3 0.912751 0.146187 0.667546
Si Si4 0.950624 0.644617 0.774304
Si Si5 0.694542 0.361124 0.527664
Si Si6 0.675388 0.603580 0.460627
Si Si7 0.456017 0.849479 0.287855
Si Si8 0.965601 0.403060 0.846561
O O1 0.013940 0.044762 0.657937
O O2 0.156038 0.888301 0.379141
O O3 0.285335 0.925518 0.436159
O O4 0.342550 0.078919 0.051831
O O5 0.487558 0.670633 0.709219
O O6 0.421359 0.818942 0.522394
O O7 0.272316 0.829638 0.987172
O O8 0.125250 0.677306 0.107120
O O9 0.068711 0.254222 0.367964
O O10 0.175092 0.665139 0.501752
O O11 0.938865 0.529315 0.766995
O O12 0.790888 0.645200 0.127687
O O13 0.593576 0.475009 0.630529
O O14 0.538657 0.259953 0.760477
O O15 0.844644 0.380429 0.174996
O O16 0.812185 0.617829 0.406632
#
# Coordination Sequence:
#
# PCOD8006605 Si02
#       8
#     2   2   2   2   2   2   2   2
#     4  10  23  41  61  78 109 151 206 237 280 342
#     4  11  23  37  58  92 121 144 187 240 293 340
#     4  11  23  39  57  86 114 152 188 242 293 335
#     4   9  16  34  60  82 117 158 186 225 279 345
#     4   8  15  32  61  86 113 150 193 230 273 339
#     4   9  18  35  60  89 118 154 188 223 280 353
#     4  10  20  40  62  85 107 149 198 245 277 335
#     4   8  18  34  55  89 121 150 187 226 280 350
#
# _framework density 21.063465999999998
#
# number of rings (size 3 to 8) (size 9 to 14) (size 15 to 20)
#    0.000    2.500    1.250    2.250    0.000    7.000 
#    4.500    2.500    0.000    0.000    0.000    0.000 
#    0.000    0.000    0.000    0.000    0.000    0.000 
#
# Total GULP energy -198302.515724 kJ/mol
# GULP energy per Si atom -12393.907233 kJ/mol
# Density = 2.101552 g / cm^3
# Si number density = 21.063466 Si / 1000 Ang^3
#
#
#
# Elastic Constant Matrix: (Units=GPa)
#
#
# Indices 1 2 3 4 5 6 
#
# 1 47.9425 34.2119 15.3109 15.3411 -14.0258 -12.5086
# 2 34.2119 127.0446 49.3132 11.8815 -5.4613 -9.8185
# 3 15.3109 49.3132 48.7980 14.1715 -10.9670 -1.2969
# 4 15.3411 11.8815 14.1715 45.5701 -0.1084 -7.3015
# 5 -14.0258 -5.4613 -10.9670 -0.1084 17.4897 1.3022
# 6 -12.5086 -9.8185 -1.2969 -7.3015 1.3022 19.2948
#
#
#
# Elastic Compliance Matrix: (Units=1/GPa)
#
#
# Indices 1 2 3 4 5 6 
#
# 1 0.046097 -0.012571 0.011138 -0.012932 0.038700 0.016730
# 2 -0.012571 0.017765 -0.019515 0.006115 -0.016959 0.003038
# 3 0.011138 -0.019515 0.048381 -0.014801 0.033630 -0.007329
# 4 -0.012932 0.006115 -0.014801 0.030291 -0.018032 0.006413
# 5 0.038700 -0.016959 0.033630 -0.018032 0.103527 0.004908
# 6 0.016730 0.003038 -0.007329 0.006413 0.004908 0.065822
#
#
# Mechanical properties :
#
#
# Convention : Reuss Voigt Hill
#
# Bulk Modulus (GPa) = 14.21532 46.82857 30.52195
# Shear Modulus (GPa) = 13.25460 24.80087 19.02773
#
# Velocity S-wave (km/s) = 2.51125 3.43510 3.00884
# Velocity P-wave (km/s) = 3.89512 6.16552 5.15682
#
# Compressibility (1/GPa) = 0.07034662
#
# Stress axis : x y z
#
# Youngs Moduli (GPa) = 21.69355 56.28995 20.66925
#
# Poissons Ratio (x) = 0.70759 -0.23021
# Poissons Ratio (y) = 0.27270 0.40336
# Poissons Ratio (z) = -0.24161 1.09851
#
# Static dielectric constant tensor:
#      x y z
#    x 4.165830 0.402980 -0.355590 
#    y 0.402980 4.453450 -0.327110 
#    z -0.355590 -0.327110 3.446190 
# 
# 
# High freq. dielectric constant tensor:
#      x y z
#    x 1.812930 -0.010760 -0.013470 
#    y -0.010760 1.840490 -0.012150 
#    z -0.013470 -0.012150 1.791190 
# 
# From -- ./inp_files/181885.got.cif
#   From: 2010.06.25/outbox.cif.g09.slc.cpg/sg2_91_cif.got.tgz:181885.got - 2010.06.27 13:26:56.
