data_PCOD8006330
_publ_section_title
;
Structure prediction by ZEFSAII (Michael W. Deem and Ramdas Pophale) SiO2 
 PCOD8006330
Probable space group: P -1
;
_chemical_formula_sum "Si O2"
_cell_formula_units_Z 16
_cell_length_a 14.193333
_cell_length_b 19.348123
_cell_length_c 11.016379
_cell_angle_alpha 150.532790
_cell_angle_beta 130.910240
_cell_angle_gamma 31.341903
_cell_volume 726.060000
_symmetry_space_group_name_H-M "P -1"
_symmetry_group_IT_number 2
_symmetry_cell_setting 'triclinic'
loop_
_space_group_symop_operation_xyz
x,y,z
-x,-y,-z
loop_
_atom_site_type_symbol
_atom_site_label
_atom_site_fract_x
_atom_site_fract_y
_atom_site_fract_z
Si Si1 0.592203 0.083930 0.926441
Si Si2 0.466439 0.648481 0.367953
Si Si3 0.608753 0.759090 0.236269
Si Si4 0.380058 0.767275 0.218100
Si Si5 0.677277 0.296260 0.417982
Si Si6 0.934967 0.634433 0.410326
Si Si7 0.640549 0.765126 0.813501
Si Si8 0.013755 0.116500 0.285686
O O1 0.474631 0.250838 0.967035
O O2 0.755787 0.823215 0.639961
O O3 0.715505 0.100844 0.118511
O O4 0.417463 0.180601 0.010936
O O5 0.344263 0.820271 0.414402
O O6 0.341111 0.679242 0.413823
O O7 0.601148 0.647460 0.542365
O O8 0.602008 0.414502 0.065310
O O9 0.562238 0.706213 0.236174
O O10 0.838336 0.600869 0.187458
O O11 0.500000 0.000000 0.500000
O O12 0.211969 0.962906 0.288353
O O13 0.500000 0.500000 0.500000
O O14 0.857459 0.235293 0.440625
O O15 0.132088 0.394613 0.262565
O O16 0.015216 0.709459 0.536400
O O17 0.500000 0.000000 0.000000
O O18 0.000000 0.000000 0.000000
#
# Coordination Sequence:
#
# PCOD8006330 Si02
#       8
#     2   2   2   2   2   2   2   2
#     4  10  21  41  64  95 134 169 225 283 329 408
#     4  10  25  43  63  97 136 180 216 276 354 398
#     4  10  20  39  67  98 131 173 226 280 337 405
#     4  11  22  43  68  95 139 174 219 284 337 415
#     4  11  21  38  65  96 136 173 223 283 331 401
#     4  11  23  40  67 102 125 179 232 272 350 400
#     4  11  26  44  65  96 138 178 229 285 338 412
#     4  12  20  36  70  97 125 172 224 281 336 407
#
# _framework density 22.036746000000001
#
# number of rings (size 3 to 8) (size 9 to 14) (size 15 to 20)
#    0.000    1.250    3.750    3.750    3.500    1.500 
#    0.000    3.750    0.000    0.000    0.000    0.000 
#    0.000    0.000    0.000    0.000    0.000    0.000 
#
# Total GULP energy -198215.236805 kJ/mol
# GULP energy per Si atom -12388.452300 kJ/mol
# Density = 2.198659 g / cm^3
# Si number density = 22.036746 Si / 1000 Ang^3
#
#
#
# Elastic Constant Matrix: (Units=GPa)
#
#
# Indices 1 2 3 4 5 6 
#
# 1 121.3226 53.1952 28.8098 -12.3090 -13.4853 4.2047
# 2 53.1952 128.0833 37.8439 5.9267 -14.8446 -5.1645
# 3 28.8098 37.8439 57.4301 6.0892 -15.2257 -2.1833
# 4 -12.3090 5.9267 6.0892 29.7774 7.6659 -6.0206
# 5 -13.4853 -14.8446 -15.2257 7.6659 33.7502 -2.7057
# 6 4.2047 -5.1645 -2.1833 -6.0206 -2.7057 46.2137
#
#
#
# Elastic Compliance Matrix: (Units=1/GPa)
#
#
# Indices 1 2 3 4 5 6 
#
# 1 0.011570 -0.004008 -0.003987 0.006331 -0.000448 -0.000890
# 2 -0.004008 0.011228 -0.004412 -0.003330 0.002192 0.001106
# 3 -0.003987 -0.004412 0.025946 -0.008577 0.010165 0.000573
# 4 0.006331 -0.003330 -0.008577 0.042449 -0.012168 0.003464
# 5 -0.000448 0.002192 0.010165 -0.012168 0.037876 0.001398
# 6 -0.000890 0.001106 0.000573 0.003464 0.001398 0.022403
#
#
# Mechanical properties :
#
#
# Convention : Reuss Voigt Hill
#
# Bulk Modulus (GPa) = 41.78790 60.72598 51.25694
# Shear Modulus (GPa) = 27.13494 34.41406 30.77450
#
# Velocity S-wave (km/s) = 3.51287 3.95608 3.74104
# Velocity P-wave (km/s) = 5.95463 6.96304 6.47849
#
# Compressibility (1/GPa) = 0.02393037
#
# Stress axis : x y z
#
# Youngs Moduli (GPa) = 86.43076 89.06048 38.54143
#
# Poissons Ratio (x) = 0.35695 0.15366
# Poissons Ratio (y) = 0.34641 0.17005
# Poissons Ratio (z) = 0.34459 0.39295
#
# Static dielectric constant tensor:
#      x y z
#    x 3.876940 0.235320 -0.133440 
#    y 0.235320 4.437690 -0.429310 
#    z -0.133440 -0.429310 4.140060 
# 
# 
# High freq. dielectric constant tensor:
#      x y z
#    x 1.870430 -0.000660 0.007870 
#    y -0.000660 1.858590 -0.014940 
#    z 0.007870 -0.014940 1.859370 
# 
# From -- ./inp_files/457559.got.cif
#   From: 2010.06.25/outbox.cif.g09.slc.cpg/sg2_229_cif.got.tgz:457559.got - 2010.06.27 13:26:56.
