data_PCOD8006924
_publ_section_title
;
Structure prediction by ZEFSAII (Michael W. Deem and Ramdas Pophale) SiO2 
 PCOD8006924
Probable space group: P -1
;
_chemical_formula_sum "Si O2"
_cell_formula_units_Z 14
_cell_length_a 8.009153
_cell_length_b 18.704129
_cell_length_c 11.129585
_cell_angle_alpha 148.462194
_cell_angle_beta 136.346228
_cell_angle_gamma 53.077769
_cell_volume 601.408738
_symmetry_space_group_name_H-M "P -1"
_symmetry_group_IT_number 2
_symmetry_cell_setting 'triclinic'
loop_
_space_group_symop_operation_xyz
x,y,z
-x,-y,-z
loop_
_atom_site_type_symbol
_atom_site_label
_atom_site_fract_x
_atom_site_fract_y
_atom_site_fract_z
Si Si1 0.699659 0.383415 0.564865
Si Si2 0.078273 0.738130 0.182013
Si Si3 0.228342 0.447782 0.940188
Si Si4 0.558422 0.225788 0.777311
Si Si5 0.717420 0.971492 0.804417
Si Si6 0.511221 0.752889 0.948425
Si Si7 0.545226 0.141858 0.290086
O O1 0.677978 0.525683 0.832678
O O2 0.522022 0.268314 0.369324
O O3 0.619761 0.380233 0.378212
O O4 0.983722 0.350359 0.678217
O O5 0.172662 0.587844 0.045844
O O6 0.179355 0.776969 0.155833
O O7 0.191913 0.846989 0.492343
O O8 0.793885 0.746085 0.057625
O O9 0.429805 0.362044 0.856815
O O10 0.578293 0.238408 0.948828
O O11 0.385762 0.090838 0.464588
O O12 0.584512 0.110097 0.966970
O O13 0.653680 0.853336 0.700732
O O14 0.000000 0.000000 0.000000
O O15 0.500000 0.000000 0.000000
#
# Coordination Sequence:
#
# PCOD8006924 Si02
#       7
#     2   2   2   2   2   2   2
#     4  10  21  39  68  99 120 179 218 268 332 381
#     4  10  25  42  67  99 129 179 218 272 330 382
#     4  10  21  44  71  91 132 172 229 266 318 400
#     4  11  24  42  65 100 134 172 217 272 331 392
#     4  11  25  42  66  94 132 179 221 267 329 397
#     4  12  24  42  65  99 140 168 216 278 336 386
#     4  10  20  40  65  93 124 171 225 262 313 393
#
# _framework density 23.278676999999998
#
# number of rings (size 3 to 8) (size 9 to 14) (size 15 to 20)
#    0.000    1.429    1.429    4.286    2.000    5.714 
#    0.000    4.286    0.000    0.000    0.000    0.000 
#    0.000    0.000    0.000    0.000    0.000    0.000 
#
# Total GULP energy -173447.400956 kJ/mol
# GULP energy per Si atom -12389.100068 kJ/mol
# Density = 2.322569 g / cm^3
# Si number density = 23.278677 Si / 1000 Ang^3
#
#
#
# Elastic Constant Matrix: (Units=GPa)
#
#
# Indices 1 2 3 4 5 6 
#
# 1 122.9360 29.3637 54.4784 -14.2805 1.7165 3.7019
# 2 29.3637 43.6631 30.4078 -1.9786 4.5144 -12.6220
# 3 54.4784 30.4078 167.4937 -20.2584 -1.6881 -1.4524
# 4 -14.2805 -1.9786 -20.2584 32.2171 4.3525 -4.5825
# 5 1.7165 4.5144 -1.6881 4.3525 36.3762 1.0193
# 6 3.7019 -12.6220 -1.4524 -4.5825 1.0193 37.0487
#
#
#
# Elastic Compliance Matrix: (Units=1/GPa)
#
#
# Indices 1 2 3 4 5 6 
#
# 1 0.011092 -0.006810 -0.002066 0.002750 -0.000014 -0.003169
# 2 -0.006810 0.034231 -0.004079 -0.001169 -0.004317 0.012157
# 3 -0.002066 -0.004079 0.007822 0.003615 0.000547 -0.000444
# 4 0.002750 -0.001169 0.003615 0.035592 -0.004187 0.003986
# 5 -0.000014 -0.004317 0.000547 -0.004187 0.028630 -0.002753
# 6 -0.003169 0.012157 -0.000444 0.003986 -0.002753 0.032001
#
#
# Mechanical properties :
#
#
# Convention : Reuss Voigt Hill
#
# Bulk Modulus (GPa) = 36.71933 62.51028 49.61480
# Shear Modulus (GPa) = 27.12132 35.78459 31.45296
#
# Velocity S-wave (km/s) = 3.41702 3.92500 3.67979
# Velocity P-wave (km/s) = 5.60143 6.88855 6.27807
#
# Compressibility (1/GPa) = 0.02723361
#
# Stress axis : x y z
#
# Youngs Moduli (GPa) = 90.15758 29.21355 127.84729
#
# Poissons Ratio (x) = 0.19895 0.26417
# Poissons Ratio (y) = 0.61399 0.52147
# Poissons Ratio (z) = 0.18629 0.11916
#
# Static dielectric constant tensor:
#      x y z
#    x 4.486020 0.216750 -0.245350 
#    y 0.216750 4.145360 0.078430 
#    z -0.245350 0.078430 4.767630 
# 
# 
# High freq. dielectric constant tensor:
#      x y z
#    x 1.921800 0.012320 -0.007580 
#    y 0.012320 1.896410 0.004150 
#    z -0.007580 0.004150 1.942770 
# 
# From -- ./inp_files/405186.got.cif
#   From: 2010.06.25/outbox.cif.g09.slc.cpg/sg2_203_cif.got.tgz:405186.got - 2010.06.27 13:26:56.
