data_PCOD8006831
_publ_section_title
;
Structure prediction by ZEFSAII (Michael W. Deem and Ramdas Pophale) SiO2 
 PCOD8006831
Probable space group: P -1
;
_chemical_formula_sum "Si O2"
_cell_formula_units_Z 14
_cell_length_a 6.699715
_cell_length_b 14.004163
_cell_length_c 12.206367
_cell_angle_alpha 51.378386
_cell_angle_beta 86.487280
_cell_angle_gamma 118.840848
_cell_volume 664.903661
_symmetry_space_group_name_H-M "P -1"
_symmetry_group_IT_number 2
_symmetry_cell_setting 'triclinic'
loop_
_space_group_symop_operation_xyz
x,y,z
-x,-y,-z
loop_
_atom_site_type_symbol
_atom_site_label
_atom_site_fract_x
_atom_site_fract_y
_atom_site_fract_z
Si Si1 0.819842 0.329349 0.411230
Si Si2 0.990235 0.775967 0.344614
Si Si3 0.913034 0.646832 0.195330
Si Si4 0.559018 0.043424 0.090033
Si Si5 0.254928 0.284908 0.056083
Si Si6 0.155651 0.466495 0.089072
Si Si7 0.247935 0.080212 0.680256
O O1 0.804456 0.466983 0.335700
O O2 0.503701 0.161729 0.532410
O O3 0.984262 0.333948 0.502325
O O4 0.972657 0.354891 0.278151
O O5 0.912812 0.707268 0.272646
O O6 0.773051 0.783392 0.391840
O O7 0.277324 0.964313 0.211795
O O8 0.743905 0.662199 0.106371
O O9 0.211914 0.759555 0.049199
O O10 0.677746 0.961693 0.182274
O O11 0.500000 0.000000 0.000000
O O12 0.193654 0.362846 0.090446
O O13 0.556931 0.358859 0.010846
O O14 0.035560 0.090061 0.230172
O O15 0.000000 0.500000 0.000000
#
# Coordination Sequence:
#
# PCOD8006831 Si02
#       7
#     2   2   2   2   2   2   2
#     4  11  24  40  63  94 131 165 207 257 313 368
#     4  10  22  39  61  94 138 168 196 254 316 375
#     4  10  20  40  64  95 128 165 213 252 304 376
#     4   8  18  36  58  88 124 165 212 244 295 367
#     4  10  24  43  68  95 117 164 219 256 309 373
#     4  11  24  45  69  90 121 161 216 269 310 363
#     4  10  23  40  60  96 131 162 205 253 315 376
#
# _framework density 21.055681
#
# number of rings (size 3 to 8) (size 9 to 14) (size 15 to 20)
#    0.000    2.000    1.429    0.429    4.000    7.429 
#    5.143    1.429    0.000    0.000    0.000    0.000 
#    0.000    0.000    0.000    0.000    0.000    0.000 
#
# Total GULP energy -173454.489441 kJ/mol
# GULP energy per Si atom -12389.606389 kJ/mol
# Density = 2.100776 g / cm^3
# Si number density = 21.055681 Si / 1000 Ang^3
#
#
#
# Elastic Constant Matrix: (Units=GPa)
#
#
# Indices 1 2 3 4 5 6 
#
# 1 109.2930 48.0125 52.2188 0.2731 -14.4386 16.2767
# 2 48.0125 92.3736 52.6247 3.3203 -4.7631 19.0121
# 3 52.2188 52.6247 124.8661 0.5309 -10.3079 14.9358
# 4 0.2731 3.3203 0.5309 33.2438 -3.9935 -0.2043
# 5 -14.4386 -4.7631 -10.3079 -3.9935 25.9133 0.1596
# 6 16.2767 19.0121 14.9358 -0.2043 0.1596 33.7205
#
#
#
# Elastic Compliance Matrix: (Units=1/GPa)
#
#
# Indices 1 2 3 4 5 6 
#
# 1 0.013798 -0.004629 -0.003016 0.001080 0.005821 -0.002735
# 2 -0.004629 0.016983 -0.004716 -0.001805 -0.001579 -0.005256
# 3 -0.003016 -0.004716 0.011552 0.000562 0.002141 -0.001009
# 4 0.001080 -0.001805 0.000562 0.030876 0.005249 0.000410
# 5 0.005821 -0.001579 0.002141 0.005249 0.043222 -0.003040
# 6 -0.002735 -0.005256 -0.001009 0.000410 -0.003040 0.034403
#
#
# Mechanical properties :
#
#
# Convention : Reuss Voigt Hill
#
# Bulk Modulus (GPa) = 56.78091 70.24943 63.51517
# Shear Modulus (GPa) = 27.55911 30.15397 28.85654
#
# Velocity S-wave (km/s) = 3.62175 3.78842 3.70603
# Velocity P-wave (km/s) = 6.67196 7.25067 6.96733
#
# Compressibility (1/GPa) = 0.01761155
#
# Stress axis : x y z
#
# Youngs Moduli (GPa) = 72.47408 58.88121 86.56160
#
# Poissons Ratio (x) = 0.27256 0.26110
# Poissons Ratio (y) = 0.33549 0.40821
# Poissons Ratio (z) = 0.21860 0.27767
#
# Static dielectric constant tensor:
#      x y z
#    x 7.062520 1.119370 -3.397060 
#    y 1.119370 3.741170 -0.825150 
#    z -3.397060 -0.825150 7.424150 
# 
# 
# High freq. dielectric constant tensor:
#      x y z
#    x 1.830390 0.017410 -0.005300 
#    y 0.017410 1.811520 -0.006600 
#    z -0.005300 -0.006600 1.834040 
# 
# From -- ./inp_files/36239.got.cif
#   From: 2010.06.25/outbox.cif.g09.slc.cpg/sg2_19_cif.got.tgz:36239.got - 2010.06.27 13:26:56.
