data_PCOD8006853
_publ_section_title
;
Structure prediction by ZEFSAII (Michael W. Deem and Ramdas Pophale) SiO2 
 PCOD8006853
Probable space group: P -1
;
_chemical_formula_sum "Si O2"
_cell_formula_units_Z 16
_cell_length_a 12.352535
_cell_length_b 6.366147
_cell_length_c 21.241111
_cell_angle_alpha 71.893281
_cell_angle_beta 148.362579
_cell_angle_gamma 120.962077
_cell_volume 720.645702
_symmetry_space_group_name_H-M "P -1"
_symmetry_group_IT_number 2
_symmetry_cell_setting 'triclinic'
loop_
_space_group_symop_operation_xyz
x,y,z
-x,-y,-z
loop_
_atom_site_type_symbol
_atom_site_label
_atom_site_fract_x
_atom_site_fract_y
_atom_site_fract_z
Si Si1 0.398747 0.449989 0.595076
Si Si2 0.274429 0.511879 0.654031
Si Si3 0.113251 0.030869 0.191329
Si Si4 0.179674 0.778527 0.040693
Si Si5 0.420989 0.923485 0.276556
Si Si6 0.936916 0.386760 0.343746
Si Si7 0.737516 0.684982 0.138687
Si Si8 0.600330 0.832344 0.178652
O O1 0.235515 0.339676 0.588732
O O2 0.658392 0.702523 0.699562
O O3 0.445803 0.222582 0.619171
O O4 0.212963 0.477432 0.454155
O O5 0.071553 0.524671 0.594893
O O6 0.417977 0.427994 0.779738
O O7 0.419833 0.776548 0.663833
O O8 0.189835 0.840906 0.214098
O O9 0.947993 0.893480 0.181202
O O10 0.963048 0.077632 0.059176
O O11 0.367282 0.901654 0.178095
O O12 0.334038 0.790636 0.054781
O O13 0.000000 0.500000 0.000000
O O14 0.836124 0.517553 0.235531
O O15 0.784005 0.082471 0.285797
O O16 0.677721 0.849177 0.142881
O O17 0.500000 0.500000 0.000000
#
# Coordination Sequence:
#
# PCOD8006853 Si02
#       8
#     2   2   2   2   2   2   2   2
#     4  11  23  42  66 100 133 173 216 269 333 390
#     4  10  20  40  65 102 136 167 212 270 332 395
#     4  11  26  42  65  94 134 175 221 268 321 390
#     4  12  21  40  67  99 132 168 213 274 337 390
#     4  11  22  40  64  98 134 170 213 269 338 387
#     4  11  24  43  68  95 133 176 219 271 324 387
#     4  11  28  47  68  95 129 178 223 270 320 384
#     4  11  24  43  68  99 132 172 222 269 326 391
#
# _framework density 22.202311999999999
#
# number of rings (size 3 to 8) (size 9 to 14) (size 15 to 20)
#    0.000    1.000    3.750    2.250    3.500    9.500 
#    0.000    1.250    0.000    0.000    0.000    0.000 
#    0.000    0.000    0.000    0.000    0.000    0.000 
#
# Total GULP energy -198213.142139 kJ/mol
# GULP energy per Si atom -12388.321384 kJ/mol
# Density = 2.215178 g / cm^3
# Si number density = 22.202312 Si / 1000 Ang^3
#
#
#
# Elastic Constant Matrix: (Units=GPa)
#
#
# Indices 1 2 3 4 5 6 
#
# 1 134.4690 41.3027 33.6721 -9.7984 28.4019 -3.4270
# 2 41.3027 86.5092 30.6281 -10.6962 18.0038 -5.0672
# 3 33.6721 30.6281 112.8508 -16.7570 35.4530 -5.4711
# 4 -9.7984 -10.6962 -16.7570 33.8452 -7.4624 8.5765
# 5 28.4019 18.0038 35.4530 -7.4624 26.0220 -2.4500
# 6 -3.4270 -5.0672 -5.4711 8.5765 -2.4500 34.7058
#
#
#
# Elastic Compliance Matrix: (Units=1/GPa)
#
#
# Indices 1 2 3 4 5 6 
#
# 1 0.010374 -0.003110 0.001124 0.000248 -0.010637 -0.000065
# 2 -0.003110 0.014710 -0.001410 0.001901 -0.004237 0.000850
# 3 0.001124 -0.001410 0.016035 0.003103 -0.021193 0.000170
# 4 0.000248 0.001901 0.003103 0.034385 0.003344 -0.007470
# 5 -0.010637 -0.004237 -0.021193 0.003344 0.082804 0.000009
# 6 -0.000065 0.000850 0.000170 -0.007470 0.000009 0.030805
#
#
# Mechanical properties :
#
#
# Convention : Reuss Voigt Hill
#
# Bulk Modulus (GPa) = 29.13094 60.55941 44.84518
# Shear Modulus (GPa) = 24.11416 34.12968 29.12192
#
# Velocity S-wave (km/s) = 3.29919 3.92498 3.62562
# Velocity P-wave (km/s) = 5.25947 6.91925 6.14565
#
# Compressibility (1/GPa) = 0.03432776
#
# Stress axis : x y z
#
# Youngs Moduli (GPa) = 96.39852 67.98060 62.36227
#
# Poissons Ratio (x) = 0.21143 -0.07012
# Poissons Ratio (y) = 0.29981 0.08792
# Poissons Ratio (z) = -0.10839 0.09584
#
# Static dielectric constant tensor:
#      x y z
#    x 4.141120 -0.199190 0.341930 
#    y -0.199190 4.115770 -0.280670 
#    z 0.341930 -0.280670 3.942970 
# 
# 
# High freq. dielectric constant tensor:
#      x y z
#    x 1.873870 -0.015640 0.021350 
#    y -0.015640 1.872610 -0.012610 
#    z 0.021350 -0.012610 1.877810 
# 
# From -- ./inp_files/77399.got.cif
#   From: 2010.06.25/outbox.cif.g09.slc.cpg/sg2_39_cif.got.tgz:77399.got - 2010.06.27 13:26:56.
