data_PCOD8006838
_publ_section_title
;
Structure prediction by ZEFSAII (Michael W. Deem and Ramdas Pophale) SiO2 
 PCOD8006838
Probable space group: P -1
;
_chemical_formula_sum "Si O2"
_cell_formula_units_Z 16
_cell_length_a 20.992559
_cell_length_b 11.444042
_cell_length_c 9.367054
_cell_angle_alpha 124.259087
_cell_angle_beta 103.138334
_cell_angle_gamma 33.151705
_cell_volume 856.156998
_symmetry_space_group_name_H-M "P -1"
_symmetry_group_IT_number 2
_symmetry_cell_setting 'triclinic'
loop_
_space_group_symop_operation_xyz
x,y,z
-x,-y,-z
loop_
_atom_site_type_symbol
_atom_site_label
_atom_site_fract_x
_atom_site_fract_y
_atom_site_fract_z
Si Si1 0.722624 0.278937 0.693921
Si Si2 0.965427 0.835493 0.706561
Si Si3 0.187158 0.038518 0.742790
Si Si4 0.477007 0.380285 0.928722
Si Si5 0.775506 0.112383 0.025792
Si Si6 0.221859 0.217940 0.286496
Si Si7 0.123524 0.454715 0.096611
Si Si8 0.097321 0.812251 0.282620
O O1 0.706525 0.215496 0.499150
O O2 0.762316 0.366061 0.734365
O O3 0.578667 0.545124 0.888579
O O4 0.846504 0.980703 0.652103
O O5 0.110150 0.476580 0.526246
O O6 0.909323 0.941694 0.914289
O O7 0.980185 0.967210 0.741216
O O8 0.220523 0.891818 0.804676
O O9 0.034583 0.290015 0.784365
O O10 0.203606 0.176429 0.863940
O O11 0.626834 0.020193 0.743923
O O12 0.500000 0.500000 0.000000
O O13 0.365583 0.541792 0.863840
O O14 0.784242 0.936889 0.850532
O O15 0.187748 0.362692 0.221165
O O16 0.135431 0.578345 0.099992
O O17 0.000000 0.000000 0.500000
#
# Coordination Sequence:
#
# PCOD8006838 Si02
#       8
#     2   2   2   2   2   2   2   2
#     4   9  18  33  57  78 102 143 176 212 265 310
#     4   9  17  30  54  77 101 136 180 211 259 309
#     4  10  18  31  55  81 112 129 172 225 272 304
#     4   9  19  35  51  77 108 141 181 217 255 312
#     4   9  19  31  48  78 108 138 169 221 266 313
#     4  10  16  30  53  76 107 132 182 222 251 301
#     4  10  18  31  50  85 108 131 166 227 265 302
#     4  10  16  31  56  77 109 134 178 218 254 320
#
# _framework density 18.688161000000001
#
# number of rings (size 3 to 8) (size 9 to 14) (size 15 to 20)
#    0.750    1.750    3.750    0.375    0.000    0.000 
#    0.000    6.875    0.000    0.000    0.000    4.375 
#    0.000    0.000    0.000    0.000    0.000    0.000 
#
# Total GULP energy -198253.610427 kJ/mol
# GULP energy per Si atom -12390.850652 kJ/mol
# Density = 1.864563 g / cm^3
# Si number density = 18.688161 Si / 1000 Ang^3
#
#
#
# Elastic Constant Matrix: (Units=GPa)
#
#
# Indices 1 2 3 4 5 6 
#
# 1 77.4558 9.7207 29.7674 -1.1578 -9.9285 13.5276
# 2 9.7207 92.5794 41.7342 10.2518 -7.2429 1.7908
# 3 29.7674 41.7342 73.3330 -0.2397 -16.9827 -2.2238
# 4 -1.1578 10.2518 -0.2397 27.4656 -3.1762 -9.6963
# 5 -9.9285 -7.2429 -16.9827 -3.1762 28.2827 0.1148
# 6 13.5276 1.7908 -2.2238 -9.6963 0.1148 21.5586
#
#
#
# Elastic Compliance Matrix: (Units=1/GPa)
#
#
# Indices 1 2 3 4 5 6 
#
# 1 0.019227 0.003651 -0.010179 -0.006267 0.000935 -0.016241
# 2 0.003651 0.016915 -0.012048 -0.009884 -0.002693 -0.009370
# 3 -0.010179 -0.012048 0.027698 0.010929 0.011139 0.015101
# 4 -0.006267 -0.009884 0.010929 0.050940 0.007436 0.028752
# 5 0.000935 -0.002693 0.011139 0.007436 0.042504 0.003904
# 6 -0.016241 -0.009370 0.015101 0.028752 0.003904 0.071824
#
#
# Mechanical properties :
#
#
# Convention : Reuss Voigt Hill
#
# Bulk Modulus (GPa) = 37.47104 45.09032 41.28068
# Shear Modulus (GPa) = 18.17151 26.27108 22.22129
#
# Velocity S-wave (km/s) = 3.12164 3.75342 3.45201
# Velocity P-wave (km/s) = 5.75214 6.55472 6.16650
#
# Compressibility (1/GPa) = 0.02668727
#
# Stress axis : x y z
#
# Youngs Moduli (GPa) = 52.01019 59.12049 36.10308
#
# Poissons Ratio (x) = -0.21585 0.36750
# Poissons Ratio (y) = -0.18989 0.43498
# Poissons Ratio (z) = 0.52942 0.71231
#
# Static dielectric constant tensor:
#      x y z
#    x 3.352410 0.159820 -0.157870 
#    y 0.159820 3.652370 0.121490 
#    z -0.157870 0.121490 3.228950 
# 
# 
# High freq. dielectric constant tensor:
#      x y z
#    x 1.704250 0.016300 -0.019370 
#    y 0.016300 1.712980 -0.003050 
#    z -0.019370 -0.003050 1.698720 
# 
# From -- ./inp_files/353129.got.cif
#   From: 2010.06.25/outbox.cif.g09.slc.cpg/sg2_177_cif.got.tgz:353129.got - 2010.06.27 13:26:56.
