data_PCOD8006912
_publ_section_title
;
Structure prediction by ZEFSAII (Michael W. Deem and Ramdas Pophale) SiO2 
 PCOD8006912
Probable space group: P -1
;
_chemical_formula_sum "Si O2"
_cell_formula_units_Z 16
_cell_length_a 8.893349
_cell_length_b 11.791467
_cell_length_c 20.540644
_cell_angle_alpha 36.796741
_cell_angle_beta 41.728524
_cell_angle_gamma 38.650290
_cell_volume 762.552685
_symmetry_space_group_name_H-M "P -1"
_symmetry_group_IT_number 2
_symmetry_cell_setting 'triclinic'
loop_
_space_group_symop_operation_xyz
x,y,z
-x,-y,-z
loop_
_atom_site_type_symbol
_atom_site_label
_atom_site_fract_x
_atom_site_fract_y
_atom_site_fract_z
Si Si1 0.718682 0.154254 0.541141
Si Si2 0.971491 0.042120 0.097418
Si Si3 0.248301 0.897724 0.298702
Si Si4 0.697320 0.222505 0.294988
Si Si5 0.722421 0.884186 0.351549
Si Si6 0.619975 0.543154 0.586479
Si Si7 0.407829 0.884647 0.930292
Si Si8 0.811057 0.446226 0.044690
O O1 0.718996 0.204993 0.593497
O O2 0.539501 0.038599 0.640612
O O3 0.608799 0.370419 0.433576
O O4 0.000000 0.000000 0.500000
O O5 0.753101 0.092210 0.092443
O O6 0.960085 0.255688 0.033447
O O7 0.940219 0.899498 0.230717
O O8 0.245626 0.917796 0.033086
O O9 0.247756 0.714212 0.335107
O O10 0.481562 0.945360 0.183844
O O11 0.988462 0.116657 0.275442
O O12 0.499187 0.358385 0.351074
O O13 0.652347 0.380691 0.176521
O O14 0.646442 0.031429 0.372707
O O15 0.815197 0.638375 0.458390
O O16 0.629634 0.645721 0.968398
O O17 0.000000 0.500000 0.000000
#
# Coordination Sequence:
#
# PCOD8006912 Si02
#       8
#     2   2   2   2   2   2   2   2
#     4  10  20  40  65  92 124 161 203 259 311 368
#     4  10  23  43  66  92 127 169 209 263 319 367
#     4  12  22  39  65  94 126 161 210 258 309 377
#     4  11  23  41  61  93 125 168 204 259 318 368
#     4   9  21  42  62  90 132 156 209 258 309 381
#     4  10  23  38  66  92 123 161 209 251 316 372
#     4  11  23  42  66  93 128 168 213 263 312 374
#     4  11  24  41  63  93 129 167 214 259 311 375
#
# _framework density 20.982157000000001
#
# number of rings (size 3 to 8) (size 9 to 14) (size 15 to 20)
#    0.750    0.750    3.750    1.125    1.750    3.000 
#    0.000    7.500    0.000    0.000    0.000    0.000 
#    0.000    0.000    0.000    0.000    0.000    0.000 
#
# Total GULP energy -198343.660601 kJ/mol
# GULP energy per Si atom -12396.478788 kJ/mol
# Density = 2.093440 g / cm^3
# Si number density = 20.982157 Si / 1000 Ang^3
#
#
#
# Elastic Constant Matrix: (Units=GPa)
#
#
# Indices 1 2 3 4 5 6 
#
# 1 55.0899 14.8460 13.0421 -1.6716 -3.8556 30.0349
# 2 14.8460 83.9397 38.4924 -0.2411 -1.8763 21.1276
# 3 13.0421 38.4924 86.7973 -1.0366 -5.0173 16.9264
# 4 -1.6716 -0.2411 -1.0366 34.6404 5.3294 4.5882
# 5 -3.8556 -1.8763 -5.0173 5.3294 39.5322 -4.4845
# 6 30.0349 21.1276 16.9264 4.5882 -4.4845 30.5968
#
#
#
# Elastic Compliance Matrix: (Units=1/GPa)
#
#
# Indices 1 2 3 4 5 6 
#
# 1 0.042117 0.003639 0.001011 0.008477 -0.001949 -0.045974
# 2 0.003639 0.017045 -0.005682 0.001999 -0.001266 -0.012685
# 3 0.001011 -0.005682 0.015007 0.001019 0.000986 -0.005380
# 4 0.008477 0.001999 0.001019 0.032202 -0.005087 -0.015840
# 5 -0.001949 -0.001266 0.000986 -0.005087 0.026640 0.006909
# 6 -0.045974 -0.012685 -0.005380 -0.015840 0.006909 0.092936
#
#
# Mechanical properties :
#
#
# Convention : Reuss Voigt Hill
#
# Bulk Modulus (GPa) = 13.86805 39.84310 26.85557
# Shear Modulus (GPa) = 19.83763 31.58362 25.71063
#
# Velocity S-wave (km/s) = 3.07816 3.88398 3.50431
# Velocity P-wave (km/s) = 4.38830 6.25651 5.40376
#
# Compressibility (1/GPa) = 0.07210819
#
# Stress axis : x y z
#
# Youngs Moduli (GPa) = 23.74312 58.66722 66.63514
#
# Poissons Ratio (x) = -0.21351 -0.06739
# Poissons Ratio (y) = -0.08641 0.37860
# Poissons Ratio (z) = -0.02401 0.33333
#
# Static dielectric constant tensor:
#      x y z
#    x 3.938530 0.041330 0.065880 
#    y 0.041330 3.674260 -0.070380 
#    z 0.065880 -0.070380 3.860540 
# 
# 
# High freq. dielectric constant tensor:
#      x y z
#    x 1.833840 0.006930 0.006040 
#    y 0.006930 1.807660 -0.001200 
#    z 0.006040 -0.001200 1.824950 
# 
# From -- ./inp_files/589443.got.cif
#   From: 2010.06.25/outbox.cif.g09.slc.cpg/sg2_295_cif.got.tgz:589443.got - 2010.06.27 13:26:56.
