data_PCOD8006655
_publ_section_title
;
Structure prediction by ZEFSAII (Michael W. Deem and Ramdas Pophale) SiO2 
 PCOD8006655
Probable space group: P -1
;
_chemical_formula_sum "Si O2"
_cell_formula_units_Z 16
_cell_length_a 7.740390
_cell_length_b 8.399143
_cell_length_c 14.800866
_cell_angle_alpha 109.064995
_cell_angle_beta 50.678830
_cell_angle_gamma 106.664577
_cell_volume 699.364757
_symmetry_space_group_name_H-M "P -1"
_symmetry_group_IT_number 2
_symmetry_cell_setting 'triclinic'
loop_
_space_group_symop_operation_xyz
x,y,z
-x,-y,-z
loop_
_atom_site_type_symbol
_atom_site_label
_atom_site_fract_x
_atom_site_fract_y
_atom_site_fract_z
Si Si1 0.989089 0.197490 0.056266
Si Si2 0.694088 0.036539 0.371346
Si Si3 0.688636 0.792247 0.896363
Si Si4 0.191978 0.282023 0.823702
Si Si5 0.745143 0.158839 0.859289
Si Si6 0.562707 0.683039 0.552029
Si Si7 0.539687 0.363760 0.226399
Si Si8 0.979064 0.915673 0.394964
O O1 0.086749 0.251423 0.133638
O O2 0.734725 0.239065 0.134928
O O3 0.147749 0.297741 0.947691
O O4 0.000000 0.000000 0.000000
O O5 0.653022 0.210841 0.368183
O O6 0.500000 0.000000 0.500000
O O7 0.694190 0.888312 0.269324
O O8 0.920232 0.047068 0.359344
O O9 0.626846 0.668349 0.809519
O O10 0.735540 0.984199 0.884571
O O11 0.487600 0.765085 0.032062
O O12 0.358120 0.442044 0.766970
O O13 0.954625 0.283711 0.850891
O O14 0.787713 0.142505 0.732735
O O15 0.500000 0.500000 0.500000
O O16 0.611636 0.675878 0.641450
O O17 0.782566 0.761200 0.438976
O O18 0.000000 0.000000 0.500000
#
# Coordination Sequence:
#
# PCOD8006655 Si02
#       8
#     2   2   2   2   2   2   2   2
#     4  12  23  41  68  98 133 180 224 266 344 405
#     4   9  20  38  66  90 122 173 223 255 326 407
#     4  11  23  39  66  99 131 174 223 273 334 401
#     4  11  22  42  65  93 135 175 216 279 336 397
#     4  10  20  40  62  92 133 172 219 270 331 398
#     4  11  23  44  69  96 128 178 221 271 338 399
#     4  12  25  42  67  98 139 170 223 286 334 394
#     4  10  21  38  65  94 132 171 219 276 329 389
#
# _framework density 22.877903
#
# number of rings (size 3 to 8) (size 9 to 14) (size 15 to 20)
#    0.000    1.250    2.500    4.875    1.750    2.500 
#    0.000    0.625    8.250    0.000    0.000    0.000 
#    0.000    0.000    0.000    0.000    0.000    0.000 
#
# Total GULP energy -198332.185319 kJ/mol
# GULP energy per Si atom -12395.761582 kJ/mol
# Density = 2.282583 g / cm^3
# Si number density = 22.877903 Si / 1000 Ang^3
#
#
#
# Elastic Constant Matrix: (Units=GPa)
#
#
# Indices 1 2 3 4 5 6 
#
# 1 91.7023 28.7547 29.6436 8.5945 25.3848 16.4282
# 2 28.7547 83.8000 5.4344 12.7446 4.0040 -0.2812
# 3 29.6436 5.4344 129.0374 -3.3651 18.0217 -0.7945
# 4 8.5945 12.7446 -3.3651 36.2843 3.8315 1.4512
# 5 25.3848 4.0040 18.0217 3.8315 42.9061 2.4278
# 6 16.4282 -0.2812 -0.7945 1.4512 2.4278 26.5005
#
#
#
# Elastic Compliance Matrix: (Units=1/GPa)
#
#
# Indices 1 2 3 4 5 6 
#
# 1 0.017693 -0.005338 -0.002807 -0.001310 -0.008091 -0.010296
# 2 -0.005338 0.014288 0.000279 -0.004067 0.001872 0.003520
# 3 -0.002807 0.000279 0.008758 0.001537 -0.002301 0.002133
# 4 -0.001310 -0.004067 0.001537 0.029689 -0.002107 -0.000618
# 5 -0.008091 0.001872 -0.002301 -0.002107 0.028936 0.002431
# 6 -0.010296 0.003520 0.002133 -0.000618 0.002431 0.044030
#
#
# Mechanical properties :
#
#
# Convention : Reuss Voigt Hill
#
# Bulk Modulus (GPa) = 39.99134 48.02277 44.00706
# Shear Modulus (GPa) = 29.85767 37.18533 33.52150
#
# Velocity S-wave (km/s) = 3.61652 4.03598 3.83199
# Velocity P-wave (km/s) = 5.91246 6.53875 6.23348
#
# Compressibility (1/GPa) = 0.02500541
#
# Stress axis : x y z
#
# Youngs Moduli (GPa) = 56.51902 69.99119 114.18760
#
# Poissons Ratio (x) = 0.37360 0.32057
# Poissons Ratio (y) = 0.30169 -0.03183
# Poissons Ratio (z) = 0.15867 -0.01951
#
# Static dielectric constant tensor:
#      x y z
#    x -0.962970 0.515260 4.939880 
#    y 0.515260 3.981810 -0.846650 
#    z 4.939880 -0.846650 0.103210 
# 
# 
# High freq. dielectric constant tensor:
#      x y z
#    x 1.886720 0.007610 0.009600 
#    y 0.007610 1.882480 -0.016250 
#    z 0.009600 -0.016250 1.929670 
# 
# From -- ./inp_files/495406.got.cif
#   From: 2010.06.25/outbox.cif.g09.slc.cpg/sg2_248_cif.got.tgz:495406.got - 2010.06.27 13:26:56.
