data_PCOD8006363
_publ_section_title
;
Structure prediction by ZEFSAII (Michael W. Deem and Ramdas Pophale) SiO2 
 PCOD8006363
Probable space group: P -1
;
_chemical_formula_sum "Si O2"
_cell_formula_units_Z 16
_cell_length_a 8.086728
_cell_length_b 11.339050
_cell_length_c 11.438739
_cell_angle_alpha 49.383991
_cell_angle_beta 94.528699
_cell_angle_gamma 114.950010
_cell_volume 692.111657
_symmetry_space_group_name_H-M "P -1"
_symmetry_group_IT_number 2
_symmetry_cell_setting 'triclinic'
loop_
_space_group_symop_operation_xyz
x,y,z
-x,-y,-z
loop_
_atom_site_type_symbol
_atom_site_label
_atom_site_fract_x
_atom_site_fract_y
_atom_site_fract_z
Si Si1 0.154916 0.401620 0.243759
Si Si2 0.591165 0.510285 0.200340
Si Si3 0.092682 0.257541 0.096970
Si Si4 0.638445 0.682404 0.327290
Si Si5 0.111276 0.112988 0.590784
Si Si6 0.561796 0.090693 0.791813
Si Si7 0.504397 0.865349 0.493536
Si Si8 0.217426 0.770902 0.070872
O O1 0.373532 0.454641 0.213739
O O2 0.046661 0.220028 0.430557
O O3 0.137234 0.559401 0.202029
O O4 0.063261 0.366255 0.131791
O O5 0.692659 0.640957 0.230776
O O6 0.609682 0.332710 0.331068
O O7 0.697295 0.618815 0.020841
O O8 0.073598 0.078100 0.270952
O O9 0.937289 0.196304 0.025654
O O10 0.500000 0.500000 0.500000
O O11 0.826483 0.781064 0.352298
O O12 0.537892 0.801638 0.230739
O O13 0.282855 0.085982 0.565109
O O14 0.608253 0.127318 0.633633
O O15 0.752977 0.158608 0.838068
O O16 0.417971 0.880294 0.941945
O O17 0.500000 0.000000 0.500000
#
# Coordination Sequence:
#
# PCOD8006363 Si02
#       8
#     2   2   2   2   2   2   2   2
#     4  11  23  42  69  90 130 181 225 253 326 400
#     4  11  24  40  69  99 128 173 221 268 324 386
#     4  12  25  41  61 101 141 161 217 279 330 374
#     4  11  16  40  73  91 118 171 224 263 305 399
#     4  10  22  43  68  95 125 176 220 266 331 386
#     4  10  20  39  68  94 125 167 224 256 327 387
#     4  10  21  39  68  97 131 170 218 262 323 398
#     4  11  22  40  68  96 125 175 217 268 322 384
#
# _framework density 23.117659
#
# number of rings (size 3 to 8) (size 9 to 14) (size 15 to 20)
#    0.000    1.250    7.500    1.125    1.750    1.500 
#    0.000    0.625    2.750    0.000    0.000    0.000 
#    0.000    0.000    0.000    0.000    0.000    0.000 
#
# Total GULP energy -198368.495309 kJ/mol
# GULP energy per Si atom -12398.030957 kJ/mol
# Density = 2.306504 g / cm^3
# Si number density = 23.117659 Si / 1000 Ang^3
#
#
#
# Elastic Constant Matrix: (Units=GPa)
#
#
# Indices 1 2 3 4 5 6 
#
# 1 11.7259 8.9537 18.8477 -2.4474 1.3189 -4.4967
# 2 8.9537 121.7235 37.7908 6.1968 -3.3302 -19.6256
# 3 18.8477 37.7908 153.1230 -17.9160 -13.1733 -9.7451
# 4 -2.4474 6.1968 -17.9160 40.3237 7.8347 5.7498
# 5 1.3189 -3.3302 -13.1733 7.8347 26.5659 -2.5624
# 6 -4.4967 -19.6256 -9.7451 5.7498 -2.5624 29.3456
#
#
#
# Elastic Compliance Matrix: (Units=1/GPa)
#
#
# Indices 1 2 3 4 5 6 
#
# 1 0.115112 -0.003226 -0.013568 0.002589 -0.012708 0.009359
# 2 -0.003226 0.010461 -0.002032 -0.004137 0.002344 0.006843
# 3 -0.013568 -0.002032 0.009367 0.002921 0.004150 -0.000537
# 4 0.002589 -0.004137 0.002921 0.029726 -0.008736 -0.007988
# 5 -0.012708 0.002344 0.004150 -0.008736 0.043832 0.006538
# 6 0.009359 0.006843 -0.000537 -0.007988 0.006538 0.042044
#
#
# Mechanical properties :
#
#
# Convention : Reuss Voigt Hill
#
# Bulk Modulus (GPa) = 10.27857 46.41743 28.34800
# Shear Modulus (GPa) = 15.59467 33.97905 24.78686
#
# Velocity S-wave (km/s) = 2.60008 3.83800 3.27801
# Velocity P-wave (km/s) = 3.67012 6.30576 5.15909
#
# Compressibility (1/GPa) = 0.09728979
#
# Stress axis : x y z
#
# Youngs Moduli (GPa) = 8.68723 95.58935 106.76036
#
# Poissons Ratio (x) = 0.30833 1.44848
# Poissons Ratio (y) = 0.02802 0.21691
# Poissons Ratio (z) = 0.11786 0.19422
#
# Static dielectric constant tensor:
#      x y z
#    x 3.561360 -0.237380 0.146320 
#    y -0.237380 6.369450 0.514320 
#    z 0.146320 0.514320 4.872760 
# 
# 
# High freq. dielectric constant tensor:
#      x y z
#    x 1.851160 0.011220 0.014270 
#    y 0.011220 1.935150 -0.000260 
#    z 0.014270 -0.000260 1.934730 
# 
# From -- ./inp_files/392122.got.cif
#   From: 2010.06.25/outbox.cif.g09.slc.cpg/sg2_197_cif.got.tgz:392122.got - 2010.06.27 13:26:56.
