data_PCOD8006163
_publ_section_title
;
Structure prediction by ZEFSAII (Michael W. Deem and Ramdas Pophale) SiO2 
 PCOD8006163
Probable space group: P -1
;
_chemical_formula_sum "Si O2"
_cell_formula_units_Z 16
_cell_length_a 12.411899
_cell_length_b 5.380649
_cell_length_c 12.354236
_cell_angle_alpha 103.318031
_cell_angle_beta 81.654649
_cell_angle_gamma 126.363728
_cell_volume 646.493807
_symmetry_space_group_name_H-M "P -1"
_symmetry_group_IT_number 2
_symmetry_cell_setting 'triclinic'
loop_
_space_group_symop_operation_xyz
x,y,z
-x,-y,-z
loop_
_atom_site_type_symbol
_atom_site_label
_atom_site_fract_x
_atom_site_fract_y
_atom_site_fract_z
Si Si1 0.021782 0.943691 0.736660
Si Si2 0.649817 0.131805 0.505217
Si Si3 0.407782 0.608540 0.058630
Si Si4 0.872365 0.172456 0.097728
Si Si5 0.863354 0.178602 0.866850
Si Si6 0.653446 0.289129 0.147939
Si Si7 0.271417 0.331308 0.615157
Si Si8 0.251356 0.633709 0.252639
O O1 0.125183 0.046064 0.833358
O O2 0.906168 0.573630 0.711886
O O3 0.113190 0.068642 0.630106
O O4 0.939643 0.090437 0.769360
O O5 0.730222 0.444142 0.451252
O O6 0.669049 0.198481 0.635763
O O7 0.500000 0.000000 0.500000
O O8 0.670349 0.861171 0.449936
O O9 0.305940 0.449329 0.163307
O O10 0.508410 0.962628 0.124377
O O11 0.500000 0.500000 0.000000
O O12 0.319677 0.551396 0.958671
O O13 0.776010 0.269543 0.161141
O O14 0.028006 0.453283 0.085075
O O15 0.813523 0.995627 0.972297
O O16 0.736405 0.126037 0.816453
O O17 0.648001 0.479298 0.268463
#
# Coordination Sequence:
#
# PCOD8006163 Si02
#       8
#     2   2   2   2   2   2   2   2
#     4  11  25  40  75 109 150 200 246 323 386 461
#     4  12  30  55  82 110 151 211 264 323 375 458
#     4  11  27  44  72 109 151 203 246 323 387 462
#     4  10  20  39  66 107 149 196 247 299 386 461
#     4  10  21  40  65 104 152 192 244 308 385 458
#     4  11  24  44  71 109 150 194 255 317 383 455
#     4  12  28  51  81 114 150 203 267 318 380 457
#     4  11  27  47  71 110 154 201 259 318 393 457
#
# _framework density 24.748881999999998
#
# number of rings (size 3 to 8) (size 9 to 14) (size 15 to 20)
#    0.000    1.000    2.500    2.250   10.500    1.000 
#    0.000    0.000    0.000    0.000    0.000    0.000 
#    0.000    0.000    0.000    0.000    0.000    0.000 
#
# Total GULP energy -198263.546432 kJ/mol
# GULP energy per Si atom -12391.471652 kJ/mol
# Density = 2.469255 g / cm^3
# Si number density = 24.748882 Si / 1000 Ang^3
#
#
#
# Elastic Constant Matrix: (Units=GPa)
#
#
# Indices 1 2 3 4 5 6 
#
# 1 138.0277 24.3080 66.8836 3.8628 1.3215 -8.9291
# 2 24.3080 40.2465 39.4652 -0.7073 2.4309 -16.2563
# 3 66.8836 39.4652 174.3435 15.0839 7.4035 -10.2192
# 4 3.8628 -0.7073 15.0839 43.3987 -1.5341 -7.6550
# 5 1.3215 2.4309 7.4035 -1.5341 49.8205 1.8632
# 6 -8.9291 -16.2563 -10.2192 -7.6550 1.8632 39.0905
#
#
#
# Elastic Compliance Matrix: (Units=1/GPa)
#
#
# Indices 1 2 3 4 5 6 
#
# 1 0.009126 -0.002516 -0.002948 0.000235 0.000315 0.000299
# 2 -0.002516 0.040421 -0.007772 0.006275 -0.001137 0.015486
# 3 -0.002948 -0.007772 0.008823 -0.003352 -0.000874 -0.002214
# 4 0.000235 0.006275 -0.003352 0.025504 0.000719 0.006747
# 5 0.000315 -0.001137 -0.000874 0.000719 0.020326 -0.001457
# 6 0.000299 0.015486 -0.002214 0.006747 -0.001457 0.032902
#
#
# Mechanical properties :
#
#
# Convention : Reuss Voigt Hill
#
# Bulk Modulus (GPa) = 31.34754 68.21460 49.78107
# Shear Modulus (GPa) = 28.70152 41.25934 34.98043
#
# Velocity S-wave (km/s) = 3.40915 4.08747 3.76362
# Velocity P-wave (km/s) = 5.30944 7.06393 6.24857
#
# Compressibility (1/GPa) = 0.03190043
#
# Stress axis : x y z
#
# Youngs Moduli (GPa) = 109.57597 24.73939 113.33545
#
# Poissons Ratio (x) = 0.06223 0.33409
# Poissons Ratio (y) = 0.27564 0.88083
# Poissons Ratio (z) = 0.32301 0.19227
#
# Static dielectric constant tensor:
#      x y z
#    x 4.667530 0.275210 -0.101080 
#    y 0.275210 4.639990 -0.056230 
#    z -0.101080 -0.056230 4.279580 
# 
# 
# High freq. dielectric constant tensor:
#      x y z
#    x 1.995100 0.009290 -0.001260 
#    y 0.009290 1.993180 -0.005380 
#    z -0.001260 -0.005380 1.980340 
# 
# From -- ./inp_files/410788.got.cif
#   From: 2010.06.25/outbox.cif.g09.slc.cpg/sg2_206_cif.got.tgz:410788.got - 2010.06.27 13:26:56.
