data_PCOD8006292
_publ_section_title
;
Structure prediction by ZEFSAII (Michael W. Deem and Ramdas Pophale) SiO2 
 PCOD8006292
Probable space group: P -1
;
_chemical_formula_sum "Si O2"
_cell_formula_units_Z 16
_cell_length_a 12.668894
_cell_length_b 7.914509
_cell_length_c 23.356274
_cell_angle_alpha 129.008406
_cell_angle_beta 26.918659
_cell_angle_gamma 112.875159
_cell_volume 717.999660
_symmetry_space_group_name_H-M "P -1"
_symmetry_group_IT_number 2
_symmetry_cell_setting 'triclinic'
loop_
_space_group_symop_operation_xyz
x,y,z
-x,-y,-z
loop_
_atom_site_type_symbol
_atom_site_label
_atom_site_fract_x
_atom_site_fract_y
_atom_site_fract_z
Si Si1 0.998399 0.445351 0.631491
Si Si2 0.460604 0.435584 0.195739
Si Si3 0.106671 0.934875 0.527129
Si Si4 0.798659 0.441184 0.335747
Si Si5 0.571484 0.979453 0.526072
Si Si6 0.349808 0.177116 0.298524
Si Si7 0.018987 0.374132 0.904415
Si Si8 0.929117 0.810761 0.961461
O O1 0.052729 0.617079 0.686764
O O2 0.209893 0.360687 0.458892
O O3 0.697526 0.617653 0.789719
O O4 0.020665 0.202655 0.599472
O O5 0.310915 0.734658 0.340206
O O6 0.445331 0.314744 0.237057
O O7 0.765154 0.334976 0.007601
O O8 0.850471 0.897887 0.652094
O O9 0.262992 0.886764 0.502267
O O10 0.500000 0.500000 0.500000
O O11 0.776647 0.695643 0.379288
O O12 0.960683 0.225480 0.164833
O O13 0.500000 0.000000 0.500000
O O14 0.281574 0.101404 0.723096
O O15 0.609674 0.927234 0.140596
O O16 0.054482 0.542714 0.874585
O O17 0.000000 0.500000 0.000000
O O18 0.000000 0.000000 0.000000
#
# Coordination Sequence:
#
# PCOD8006292 Si02
#       8
#     2   2   2   2   2   2   2   2
#     4  10  21  42  66  96 128 173 215 267 332 379
#     4  11  22  39  67  98 130 173 216 268 318 388
#     4  10  20  39  67  93 130 168 220 263 320 386
#     4  11  26  43  66  95 136 170 212 272 330 389
#     4  11  24  44  65  97 129 177 214 265 332 375
#     4  11  23  39  67  98 130 169 222 264 322 388
#     4  12  24  42  70  96 133 169 225 265 315 395
#     4  12  26  44  67  98 130 171 220 270 326 388
#
# _framework density 22.284134000000002
#
# number of rings (size 3 to 8) (size 9 to 14) (size 15 to 20)
#    0.000    1.000    2.500    6.000    5.250    2.000 
#    2.250    2.500    0.000    0.000    0.000    0.000 
#    0.000    0.000    0.000    0.000    0.000    0.000 
#
# Total GULP energy -198358.306257 kJ/mol
# GULP energy per Si atom -12397.394141 kJ/mol
# Density = 2.223341 g / cm^3
# Si number density = 22.284134 Si / 1000 Ang^3
#
#
#
# Elastic Constant Matrix: (Units=GPa)
#
#
# Indices 1 2 3 4 5 6 
#
# 1 187.5275 25.4242 51.9245 -18.8545 0.5908 24.7198
# 2 25.4242 63.4133 11.7192 -18.3526 6.2507 4.1893
# 3 51.9245 11.7192 113.1115 -18.2408 -5.4632 23.1694
# 4 -18.8545 -18.3526 -18.2408 32.2495 1.2345 -7.5764
# 5 0.5908 6.2507 -5.4632 1.2345 37.8963 -2.8764
# 6 24.7198 4.1893 23.1694 -7.5764 -2.8764 36.6315
#
#
#
# Elastic Compliance Matrix: (Units=1/GPa)
#
#
# Indices 1 2 3 4 5 6 
#
# 1 0.006631 -0.001743 -0.002155 0.001039 -0.000367 -0.002726
# 2 -0.001743 0.019822 0.000141 0.010651 -0.003512 0.000747
# 3 -0.002155 0.000141 0.011548 0.004153 0.001167 -0.004916
# 4 0.001039 0.010651 0.004153 0.040994 -0.002224 0.003758
# 5 -0.000367 -0.003512 0.001167 -0.002224 0.027335 0.001598
# 6 -0.002726 0.000747 -0.004916 0.003758 0.001598 0.033065
#
#
# Mechanical properties :
#
#
# Convention : Reuss Voigt Hill
#
# Bulk Modulus (GPa) = 32.80027 60.24311 46.52169
# Shear Modulus (GPa) = 31.83293 39.68777 35.76035
#
# Velocity S-wave (km/s) = 3.78365 4.22475 4.01027
# Velocity P-wave (km/s) = 5.81714 7.13378 6.50884
#
# Compressibility (1/GPa) = 0.03048756
#
# Stress axis : x y z
#
# Youngs Moduli (GPa) = 150.81729 50.44994 86.59180
#
# Poissons Ratio (x) = 0.08794 0.18660
# Poissons Ratio (y) = 0.26288 -0.01225
# Poissons Ratio (z) = 0.32500 -0.00714
#
# Static dielectric constant tensor:
#      x y z
#    x 9.188780 -3.559890 -3.218380 
#    y -3.559890 6.977310 2.705170 
#    z -3.218380 2.705170 6.128120 
# 
# 
# High freq. dielectric constant tensor:
#      x y z
#    x 1.895120 0.003230 -0.016090 
#    y 0.003230 1.866290 -0.002670 
#    z -0.016090 -0.002670 1.871160 
# 
# From -- ./inp_files/609868.got.cif
#   From: 2010.06.25/outbox.cif.g09.slc.cpg/sg2_305_cif.got.tgz:609868.got - 2010.06.27 13:26:56.
