data_PCOD8006374
_publ_section_title
;
Structure prediction by ZEFSAII (Michael W. Deem and Ramdas Pophale) SiO2 
 PCOD8006374
Probable space group: P -1
;
_chemical_formula_sum "Si O2"
_cell_formula_units_Z 14
_cell_length_a 11.884248
_cell_length_b 9.331566
_cell_length_c 17.004677
_cell_angle_alpha 99.758958
_cell_angle_beta 38.824483
_cell_angle_gamma 130.732538
_cell_volume 627.899145
_symmetry_space_group_name_H-M "P -1"
_symmetry_group_IT_number 2
_symmetry_cell_setting 'triclinic'
loop_
_space_group_symop_operation_xyz
x,y,z
-x,-y,-z
loop_
_atom_site_type_symbol
_atom_site_label
_atom_site_fract_x
_atom_site_fract_y
_atom_site_fract_z
Si Si1 0.818316 0.599588 0.775646
Si Si2 0.363111 0.903350 0.382423
Si Si3 0.330334 0.197473 0.788879
Si Si4 0.903112 0.935649 0.850464
Si Si5 0.954981 0.804089 0.481868
Si Si6 0.229915 0.723333 0.670498
Si Si7 0.157221 0.337437 0.647972
O O1 0.910911 0.831622 0.761495
O O2 0.037190 0.679282 0.594926
O O3 0.879728 0.558738 0.822319
O O4 0.430384 0.314519 0.939163
O O5 0.481150 0.821524 0.290861
O O6 0.262042 0.918689 0.359885
O O7 0.673543 0.197728 0.282942
O O8 0.598658 0.508957 0.683178
O O9 0.222957 0.120261 0.748311
O O10 0.000000 0.000000 0.000000
O O11 0.904791 0.100430 0.829277
O O12 0.971485 0.798748 0.379403
O O13 0.000000 0.000000 0.500000
O O14 0.201332 0.538274 0.644600
O O15 0.500000 0.000000 0.500000
O O16 0.500000 0.500000 0.500000
#
# Coordination Sequence:
#
# PCOD8006374 Si02
#       7
#     2   2   2   2   2   2   2
#     4  10  21  41  71 101 134 178 230 282 342 410
#     4  11  23  44  72 101 133 185 231 282 348 418
#     4  12  26  45  71 100 140 184 235 288 345 417
#     4  11  23  41  68 104 138 174 232 285 337 414
#     4  12  25  43  69 102 143 183 228 285 355 414
#     4  10  20  39  68  96 129 173 230 275 335 410
#     4  12  23  40  69  99 136 178 226 282 346 409
#
# _framework density 22.296574
#
# number of rings (size 3 to 8) (size 9 to 14) (size 15 to 20)
#    0.000    0.857    2.857    6.429    0.000    2.857 
#    0.000    0.714    0.000    0.000    0.000    0.000 
#    0.000    0.000    0.000    0.000    0.000    0.000 
#
# Total GULP energy -173561.822587 kJ/mol
# GULP energy per Si atom -12397.273042 kJ/mol
# Density = 2.224583 g / cm^3
# Si number density = 22.296574 Si / 1000 Ang^3
#
#
#
# Elastic Constant Matrix: (Units=GPa)
#
#
# Indices 1 2 3 4 5 6 
#
# 1 156.4613 54.2845 20.0957 -6.8626 -15.8083 -3.0286
# 2 54.2845 162.7783 37.5134 -10.9813 -5.6402 -23.1418
# 3 20.0957 37.5134 72.0919 8.3933 -7.8218 -16.0211
# 4 -6.8626 -10.9813 8.3933 31.7517 0.8998 -3.7589
# 5 -15.8083 -5.6402 -7.8218 0.8998 33.0040 -2.3774
# 6 -3.0286 -23.1418 -16.0211 -3.7589 -2.3774 45.5028
#
#
#
# Elastic Compliance Matrix: (Units=1/GPa)
#
#
# Indices 1 2 3 4 5 6 
#
# 1 0.007622 -0.002276 -0.000888 0.000924 0.002974 -0.000731
# 2 -0.002276 0.008400 -0.003503 0.003726 -0.000358 0.003176
# 3 -0.000888 -0.003503 0.017944 -0.005755 0.003688 0.004194
# 4 0.000924 0.003726 -0.005755 0.034859 -0.001036 0.002756
# 5 0.002974 -0.000358 0.003688 -0.001036 0.032777 0.002941
# 6 -0.000731 0.003176 0.004194 0.002756 0.002941 0.025401
#
#
# Mechanical properties :
#
#
# Convention : Reuss Voigt Hill
#
# Bulk Modulus (GPa) = 48.46839 68.34650 58.40745
# Shear Modulus (GPa) = 33.96408 40.68091 37.32249
#
# Velocity S-wave (km/s) = 3.90716 4.27609 4.09579
# Velocity P-wave (km/s) = 6.49152 7.42293 6.97279
#
# Compressibility (1/GPa) = 0.02063200
#
# Stress axis : x y z
#
# Youngs Moduli (GPa) = 131.20318 119.04594 55.72923
#
# Poissons Ratio (x) = 0.27091 0.04948
# Poissons Ratio (y) = 0.29858 0.19524
# Poissons Ratio (z) = 0.11648 0.41706
#
# Static dielectric constant tensor:
#      x y z
#    x 4.741320 0.269340 -0.394690 
#    y 0.269340 4.058900 -0.262660 
#    z -0.394690 -0.262660 3.835200 
# 
# 
# High freq. dielectric constant tensor:
#      x y z
#    x 1.897460 0.007780 -0.021350 
#    y 0.007780 1.888110 -0.011990 
#    z -0.021350 -0.011990 1.849110 
# 
# From -- ./inp_files/566758.got.cif
#   From: 2010.06.25/outbox.cif.g09.slc.cpg/sg2_284_cif.got.tgz:566758.got - 2010.06.27 13:26:56.
