data_PCOD8006426
_publ_section_title
;
Structure prediction by ZEFSAII (Michael W. Deem and Ramdas Pophale) SiO2 
 PCOD8006426
Probable space group: P -1
;
_chemical_formula_sum "Si O2"
_cell_formula_units_Z 14
_cell_length_a 20.250008
_cell_length_b 11.409979
_cell_length_c 22.693981
_cell_angle_alpha 158.546079
_cell_angle_beta 19.430636
_cell_angle_gamma 148.140024
_cell_volume 620.417618
_symmetry_space_group_name_H-M "P -1"
_symmetry_group_IT_number 2
_symmetry_cell_setting 'triclinic'
loop_
_space_group_symop_operation_xyz
x,y,z
-x,-y,-z
loop_
_atom_site_type_symbol
_atom_site_label
_atom_site_fract_x
_atom_site_fract_y
_atom_site_fract_z
Si Si1 0.507082 0.859716 0.141322
Si Si2 0.592884 0.631852 0.731339
Si Si3 0.777408 0.633014 0.450968
Si Si4 0.847126 0.111065 0.925161
Si Si5 0.523267 0.745928 0.529849
Si Si6 0.824415 0.489435 0.006694
Si Si7 0.769644 0.090514 0.413115
O O1 0.316263 0.003648 0.326826
O O2 0.510945 0.122786 0.313521
O O3 0.500000 0.500000 0.000000
O O4 0.709534 0.844398 0.924731
O O5 0.737580 0.620111 0.547645
O O6 0.729324 0.447994 0.584155
O O7 0.408957 0.454022 0.791056
O O8 0.500000 0.000000 0.000000
O O9 0.674161 0.370435 0.381473
O O10 0.019820 0.567513 0.205966
O O11 0.876259 0.181377 0.864487
O O12 0.731924 0.457413 0.214527
O O13 0.064750 0.945980 0.691771
O O14 0.559093 0.041014 0.596103
O O15 0.853792 0.822525 0.167135
#
# Coordination Sequence:
#
# PCOD8006426 Si02
#       7
#     2   2   2   2   2   2   2
#     4  11  22  37  65 102 136 169 216 273 334 394
#     4  12  28  46  63  95 146 177 215 272 333 400
#     4  11  23  45  68  95 132 177 222 274 326 388
#     4  10  20  41  69  99 128 166 226 281 323 380
#     4  10  20  39  69  98 132 164 224 281 323 382
#     4  11  22  45  73  95 128 173 228 278 326 384
#     4  11  22  41  70 100 129 175 225 272 327 391
#
# _framework density 22.565445
#
# number of rings (size 3 to 8) (size 9 to 14) (size 15 to 20)
#    0.000    1.143    4.286    6.429    2.000    2.286 
#    2.571    2.143    0.000    0.000    0.000    0.000 
#    0.000    0.000    0.000    0.000    0.000    0.000 
#
# Total GULP energy -173595.684868 kJ/mol
# GULP energy per Si atom -12399.691776 kJ/mol
# Density = 2.251409 g / cm^3
# Si number density = 22.565445 Si / 1000 Ang^3
#
#
#
# Elastic Constant Matrix: (Units=GPa)
#
#
# Indices 1 2 3 4 5 6 
#
# 1 73.0969 15.3321 20.7021 -6.6130 -4.3758 -27.5352
# 2 15.3321 100.1806 42.1721 -10.6895 2.9670 -34.9689
# 3 20.7021 42.1721 54.3586 -17.0351 -3.2691 -19.0441
# 4 -6.6130 -10.6895 -17.0351 43.8723 -15.6116 2.5219
# 5 -4.3758 2.9670 -3.2691 -15.6116 31.3086 -0.9864
# 6 -27.5352 -34.9689 -19.0441 2.5219 -0.9864 38.9034
#
#
#
# Elastic Compliance Matrix: (Units=1/GPa)
#
#
# Indices 1 2 3 4 5 6 
#
# 1 0.020754 0.004767 -0.004614 0.002953 0.003963 0.016624
# 2 0.004767 0.019610 -0.012235 -0.001006 -0.002498 0.015013
# 3 -0.004614 -0.012235 0.035616 0.014031 0.011310 0.002549
# 4 0.002953 -0.001006 0.014031 0.035077 0.019661 0.006278
# 5 0.003963 -0.002498 0.011310 0.019661 0.043903 0.005934
# 6 0.016624 0.015013 0.002549 0.006278 0.005934 0.051957
#
#
# Mechanical properties :
#
#
# Convention : Reuss Voigt Hill
#
# Bulk Modulus (GPa) = 19.29946 42.67208 30.98577
# Shear Modulus (GPa) = 20.13270 32.77886 26.45578
#
# Velocity S-wave (km/s) = 2.99020 3.81545 3.42775
# Velocity P-wave (km/s) = 4.52691 6.19368 5.42469
#
# Compressibility (1/GPa) = 0.05181492
#
# Stress axis : x y z
#
# Youngs Moduli (GPa) = 48.18310 50.99464 28.07758
#
# Poissons Ratio (x) = -0.24307 0.12955
# Poissons Ratio (y) = -0.22967 0.34353
# Poissons Ratio (z) = 0.22232 0.62391
#
# Static dielectric constant tensor:
#      x y z
#    x 4.131510 -0.242020 -0.080700 
#    y -0.242020 4.253940 -0.119560 
#    z -0.080700 -0.119560 3.849100 
# 
# 
# High freq. dielectric constant tensor:
#      x y z
#    x 1.881150 -0.022290 0.000280 
#    y -0.022290 1.900410 -0.008290 
#    z 0.000280 -0.008290 1.868600 
# 
# From -- ./inp_files/243941.got.cif
#   From: 2010.06.25/outbox.cif.g09.slc.cpg/sg2_122_cif.got.tgz:243941.got - 2010.06.27 13:26:56.
