data_PCOD8006170
_publ_section_title
;
Structure prediction by ZEFSAII (Michael W. Deem and Ramdas Pophale) SiO2 
 PCOD8006170
Probable space group: P -1
;
_chemical_formula_sum "Si O2"
_cell_formula_units_Z 16
_cell_length_a 32.803077
_cell_length_b 16.046677
_cell_length_c 9.676427
_cell_angle_alpha 45.380092
_cell_angle_beta 143.746372
_cell_angle_gamma 163.212918
_cell_volume 794.334942
_symmetry_space_group_name_H-M "P -1"
_symmetry_group_IT_number 2
_symmetry_cell_setting 'triclinic'
loop_
_space_group_symop_operation_xyz
x,y,z
-x,-y,-z
loop_
_atom_site_type_symbol
_atom_site_label
_atom_site_fract_x
_atom_site_fract_y
_atom_site_fract_z
Si Si1 0.312088 0.972876 0.825905
Si Si2 0.436561 0.218272 0.189006
Si Si3 0.958407 0.255478 0.640996
Si Si4 0.097157 0.239596 0.090969
Si Si5 0.505144 0.114556 0.692172
Si Si6 0.002841 0.952871 0.412716
Si Si7 0.413387 0.720690 0.969476
Si Si8 0.201267 0.064640 0.705143
O O1 0.223361 0.958689 0.558920
O O2 0.150281 0.623328 0.770630
O O3 0.388197 0.096339 0.046061
O O4 0.486466 0.221075 0.915415
O O5 0.412142 0.070555 0.398362
O O6 0.641692 0.598535 0.317104
O O7 0.292916 0.093549 0.988606
O O8 0.941376 0.199454 0.496824
O O9 0.965051 0.143212 0.870509
O O10 0.286368 0.580428 0.142059
O O11 0.136991 0.240884 0.344952
O O12 0.000000 0.000000 0.000000
O O13 0.408477 0.835294 0.736682
O O14 0.482962 0.111723 0.795838
O O15 0.797886 0.644936 0.149373
O O16 0.000000 0.000000 0.500000
O O17 0.079371 0.940058 0.633191
#
# Coordination Sequence:
#
# PCOD8006170 Si02
#       8
#     2   2   2   2   2   2   2   2
#     4  10  22  39  63  92 127 155 207 265 306 360
#     4  10  21  39  65  91 116 168 211 251 305 374
#     4  10  20  39  67  90 116 169 211 246 306 383
#     4  12  20  40  67  88 117 171 218 242 305 391
#     4  11  22  39  64  88 121 169 207 244 310 382
#     4  12  25  40  61  94 128 156 206 272 310 353
#     4  11  24  39  60  93 127 159 203 265 310 354
#     4  10  20  39  66  87 124 162 208 254 308 377
#
# _framework density 20.142637000000001
#
# number of rings (size 3 to 8) (size 9 to 14) (size 15 to 20)
#    0.000    1.250    5.000    0.750    1.750    1.500 
#    2.250    1.250    0.000    0.000    0.000    0.000 
#    0.000    0.000    0.000    0.000    0.000    0.000 
#
# Total GULP energy -198353.428541 kJ/mol
# GULP energy per Si atom -12397.089284 kJ/mol
# Density = 2.009679 g / cm^3
# Si number density = 20.142637 Si / 1000 Ang^3
#
#
#
# Elastic Constant Matrix: (Units=GPa)
#
#
# Indices 1 2 3 4 5 6 
#
# 1 151.5499 23.0325 58.3868 -7.2620 22.5630 -1.0921
# 2 23.0325 55.8942 23.2676 -4.8546 0.4467 -5.2640
# 3 58.3868 23.2676 114.7260 -18.1784 21.2890 -1.5279
# 4 -7.2620 -4.8546 -18.1784 36.1242 -4.4803 -1.9430
# 5 22.5630 0.4467 21.2890 -4.4803 42.6146 3.9687
# 6 -1.0921 -5.2640 -1.5279 -1.9430 3.9687 30.6160
#
#
#
# Elastic Compliance Matrix: (Units=1/GPa)
#
#
# Indices 1 2 3 4 5 6 
#
# 1 0.008692 -0.002125 -0.003565 -0.000684 -0.002879 0.000097
# 2 -0.002125 0.020507 -0.003303 0.001128 0.002395 0.003046
# 3 -0.003565 -0.003303 0.012710 0.004781 -0.003995 0.000761
# 4 -0.000684 0.001128 0.004781 0.030338 0.000946 0.002211
# 5 -0.002879 0.002395 -0.003995 0.000946 0.027376 -0.003379
# 6 0.000097 0.003046 0.000761 0.002211 -0.003379 0.033806
#
#
# Mechanical properties :
#
#
# Convention : Reuss Voigt Hill
#
# Bulk Modulus (GPa) = 41.80140 59.06043 50.43092
# Shear Modulus (GPa) = 31.36991 36.36984 33.86987
#
# Velocity S-wave (km/s) = 3.95066 4.25386 4.10506
# Velocity P-wave (km/s) = 6.45043 7.31518 6.89637
#
# Compressibility (1/GPa) = 0.02392264
#
# Stress axis : x y z
#
# Youngs Moduli (GPa) = 115.05397 48.76353 78.67997
#
# Poissons Ratio (x) = 0.10361 0.28051
# Poissons Ratio (y) = 0.24446 0.25987
# Poissons Ratio (z) = 0.41020 0.16106
#
# Static dielectric constant tensor:
#      x y z
#    x 3.792390 -0.354690 0.155340 
#    y -0.354690 3.431970 0.279550 
#    z 0.155340 0.279550 4.104290 
# 
# 
# High freq. dielectric constant tensor:
#      x y z
#    x 1.791550 -0.017450 0.018610 
#    y -0.017450 1.770510 0.009760 
#    z 0.018610 0.009760 1.792340 
# 
# From -- ./inp_files/207647.got.cif
#   From: 2010.06.25/outbox.cif.g09.slc.cpg/sg2_104_cif.got.tgz:207647.got - 2010.06.27 13:26:56.
