data_PCOD8006887
_publ_section_title
;
Structure prediction by ZEFSAII (Michael W. Deem and Ramdas Pophale) SiO2 
 PCOD8006887
Probable space group: P -1
;
_chemical_formula_sum "Si O2"
_cell_formula_units_Z 16
_cell_length_a 8.641244
_cell_length_b 9.601909
_cell_length_c 11.985451
_cell_angle_alpha 123.406120
_cell_angle_beta 111.193192
_cell_angle_gamma 66.712659
_cell_volume 748.996794
_symmetry_space_group_name_H-M "P -1"
_symmetry_group_IT_number 2
_symmetry_cell_setting 'triclinic'
loop_
_space_group_symop_operation_xyz
x,y,z
-x,-y,-z
loop_
_atom_site_type_symbol
_atom_site_label
_atom_site_fract_x
_atom_site_fract_y
_atom_site_fract_z
Si Si1 0.577842 0.069357 0.723361
Si Si2 0.320582 0.330156 0.159242
Si Si3 0.617681 0.187230 0.544531
Si Si4 0.882994 0.879968 0.870479
Si Si5 0.370840 0.385295 0.940302
Si Si6 0.618880 0.449842 0.357948
Si Si7 0.849001 0.360645 0.589192
Si Si8 0.867633 0.484978 0.252754
O O1 0.617042 0.170810 0.669950
O O2 0.462525 0.194121 0.837763
O O3 0.462835 0.944062 0.600139
O O4 0.761959 0.971692 0.778394
O O5 0.245808 0.162630 0.086916
O O6 0.517121 0.302045 0.242218
O O7 0.201658 0.485564 0.265976
O O8 0.316974 0.377384 0.050005
O O9 0.517591 0.378029 0.560555
O O10 0.812417 0.184807 0.553685
O O11 0.009272 0.705177 0.781051
O O12 0.000000 0.000000 0.000000
O O13 0.193064 0.475238 0.872508
O O14 0.500000 0.500000 0.000000
O O15 0.764022 0.391255 0.459983
O O16 0.698146 0.501278 0.287977
O O17 0.047456 0.359013 0.618205
#
# Coordination Sequence:
#
# PCOD8006887 Si02
#       8
#     2   2   2   2   2   2   2   2
#     4  11  23  40  65  88 129 165 205 253 309 375
#     4  10  22  39  67  90 121 170 211 246 306 376
#     4  10  20  40  65  90 121 167 207 248 316 371
#     4  11  25  42  58  93 132 165 200 255 318 361
#     4  12  22  42  66  93 123 161 219 255 293 373
#     4  11  19  40  68  93 120 159 215 258 300 372
#     4  10  21  37  63  96 124 154 208 263 314 362
#     4  11  23  40  65  95 120 163 207 261 311 355
#
# _framework density 21.361906999999999
#
# number of rings (size 3 to 8) (size 9 to 14) (size 15 to 20)
#    0.000    1.250    2.500    5.625    0.000    3.500 
#    2.250    0.625    0.000    0.000    0.000    0.000 
#    0.000    0.000    0.000    0.000    0.000    0.000 
#
# Total GULP energy -198311.575979 kJ/mol
# GULP energy per Si atom -12394.473499 kJ/mol
# Density = 2.131329 g / cm^3
# Si number density = 21.361907 Si / 1000 Ang^3
#
#
#
# Elastic Constant Matrix: (Units=GPa)
#
#
# Indices 1 2 3 4 5 6 
#
# 1 108.9240 26.2095 39.1007 5.3835 32.7078 33.0459
# 2 26.2095 70.1932 31.6337 -6.4132 16.4158 8.8654
# 3 39.1007 31.6337 113.8090 -15.0977 16.7010 13.3597
# 4 5.3835 -6.4132 -15.0977 33.0107 1.6895 5.4097
# 5 32.7078 16.4158 16.7010 1.6895 40.8719 7.0729
# 6 33.0459 8.8654 13.3597 5.4097 7.0729 51.3794
#
#
#
# Elastic Compliance Matrix: (Units=1/GPa)
#
#
# Indices 1 2 3 4 5 6 
#
# 1 0.015948 -0.001635 -0.003096 -0.002607 -0.009417 -0.007599
# 2 -0.001635 0.017706 -0.003273 0.002570 -0.004431 -0.000813
# 3 -0.003096 -0.003273 0.011749 0.005449 -0.001074 -0.000925
# 4 -0.002607 0.002570 0.005449 0.034390 -0.001983 -0.003531
# 5 -0.009417 -0.004431 -0.001074 -0.001983 0.033845 0.002650
# 6 -0.007599 -0.000813 -0.000925 -0.003531 0.002650 0.024738
#
#
# Mechanical properties :
#
#
# Convention : Reuss Voigt Hill
#
# Bulk Modulus (GPa) = 34.02163 54.09044 44.05604
# Shear Modulus (GPa) = 30.45379 38.11789 34.28584
#
# Velocity S-wave (km/s) = 3.77982 4.22878 4.01059
# Velocity P-wave (km/s) = 5.91695 7.01565 6.48960
#
# Compressibility (1/GPa) = 0.02939307
#
# Stress axis : x y z
#
# Youngs Moduli (GPa) = 62.70385 56.47894 85.11205
#
# Poissons Ratio (x) = 0.09237 0.26355
# Poissons Ratio (y) = 0.10255 0.27858
# Poissons Ratio (z) = 0.19416 0.18486
#
# Static dielectric constant tensor:
#      x y z
#    x 4.369960 0.434570 0.255570 
#    y 0.434570 3.937670 -0.002330 
#    z 0.255570 -0.002330 3.911050 
# 
# 
# High freq. dielectric constant tensor:
#      x y z
#    x 1.852610 0.026390 0.015700 
#    y 0.026390 1.822150 -0.011470 
#    z 0.015700 -0.011470 1.844610 
# 
# From -- ./inp_files/242868.got.cif
#   From: 2010.06.25/outbox.cif.g09.slc.cpg/sg2_122_cif.got.tgz:242868.got - 2010.06.27 13:26:56.
