data_PCOD8006916
_publ_section_title
;
Structure prediction by ZEFSAII (Michael W. Deem and Ramdas Pophale) SiO2 
 PCOD8006916
Probable space group: P -1
;
_chemical_formula_sum "Si O2"
_cell_formula_units_Z 16
_cell_length_a 20.421017
_cell_length_b 11.163058
_cell_length_c 13.517109
_cell_angle_alpha 127.636629
_cell_angle_beta 159.538549
_cell_angle_gamma 50.416951
_cell_volume 829.115369
_symmetry_space_group_name_H-M "P -1"
_symmetry_group_IT_number 2
_symmetry_cell_setting 'triclinic'
loop_
_space_group_symop_operation_xyz
x,y,z
-x,-y,-z
loop_
_atom_site_type_symbol
_atom_site_label
_atom_site_fract_x
_atom_site_fract_y
_atom_site_fract_z
Si Si1 0.150216 0.506594 0.076317
Si Si2 0.469633 0.488691 0.118410
Si Si3 0.402291 0.279301 0.467281
Si Si4 0.836558 0.165143 0.031703
Si Si5 0.122363 0.681512 0.635194
Si Si6 0.135846 0.704961 0.447272
Si Si7 0.178665 0.514004 0.893618
Si Si8 0.030989 0.170883 0.919056
O O1 0.323939 0.404948 0.333814
O O2 0.094688 0.685755 0.124425
O O3 0.228803 0.490551 0.068020
O O4 0.957474 0.441596 0.783765
O O5 0.579552 0.627207 0.359432
O O6 0.631277 0.334914 0.245329
O O7 0.316247 0.539025 0.837582
O O8 0.366930 0.470103 0.068785
O O9 0.615672 0.177164 0.689691
O O10 0.255104 0.171349 0.223635
O O11 0.850106 0.190491 0.182300
O O12 0.920341 0.300829 0.166893
O O13 0.967162 0.992883 0.106116
O O14 0.078590 0.762907 0.507085
O O15 0.954925 0.597745 0.387455
O O16 0.059221 0.834770 0.321443
#
# Coordination Sequence:
#
# PCOD8006916 Si02
#       8
#     2   2   2   2   2   2   2   2
#     4  10  18  33  55  75 103 134 165 210 246 297
#     4  10  16  30  53  79  97 124 171 213 247 283
#     4   9  17  33  51  77 101 131 171 200 248 299
#     4  10  21  32  52  77 103 138 163 205 259 297
#     4   9  19  34  53  73  98 131 178 213 239 295
#     4  10  18  32  53  79  97 132 171 210 250 291
#     4   9  20  34  53  74  98 136 175 206 245 296
#     4  11  19  32  51  76 114 129 157 210 258 304
#
# _framework density 19.297675999999999
#
# number of rings (size 3 to 8) (size 9 to 14) (size 15 to 20)
#    0.000    2.500    2.500    3.000    0.000    3.000 
#    0.000    0.000    0.000    3.000    0.000    0.000 
#    0.000    0.000    0.000    0.000    0.000    0.000 
#
# Total GULP energy -198224.603131 kJ/mol
# GULP energy per Si atom -12389.037696 kJ/mol
# Density = 1.925375 g / cm^3
# Si number density = 19.297676 Si / 1000 Ang^3
#
#
#
# Elastic Constant Matrix: (Units=GPa)
#
#
# Indices 1 2 3 4 5 6 
#
# 1 40.9457 13.7292 14.5511 -6.8999 -7.1800 5.0248
# 2 13.7292 85.8336 13.7160 -8.9193 -0.3413 0.3860
# 3 14.5511 13.7160 74.8682 -8.5670 -11.5884 -2.8606
# 4 -6.8999 -8.9193 -8.5670 14.4407 2.2149 -0.2734
# 5 -7.1800 -0.3413 -11.5884 2.2149 23.6949 -0.9364
# 6 5.0248 0.3860 -2.8606 -0.2734 -0.9364 14.7824
#
#
#
# Elastic Compliance Matrix: (Units=1/GPa)
#
#
# Indices 1 2 3 4 5 6 
#
# 1 0.030808 -0.003286 -0.003771 0.009310 0.006157 -0.010554
# 2 -0.003286 0.013003 -0.001351 0.005977 -0.002008 0.000499
# 3 -0.003771 -0.001351 0.016215 0.006096 0.006395 0.004973
# 4 0.009310 0.005977 0.006096 0.081257 -0.001737 -0.000748
# 5 0.006157 -0.002008 0.006395 -0.001737 0.047415 0.002169
# 6 -0.010554 0.000499 0.004973 -0.000748 0.002169 0.072308
#
#
# Mechanical properties :
#
#
# Convention : Reuss Voigt Hill
#
# Bulk Modulus (GPa) = 23.14312 31.73778 27.44045
# Shear Modulus (GPa) = 17.11010 21.22702 19.16856
#
# Velocity S-wave (km/s) = 2.98088 3.32019 3.15510
# Velocity P-wave (km/s) = 4.88531 5.58394 5.24627
#
# Compressibility (1/GPa) = 0.04320939
#
# Stress axis : x y z
#
# Youngs Moduli (GPa) = 32.45920 76.90634 61.67265
#
# Poissons Ratio (x) = 0.25270 0.23255
# Poissons Ratio (y) = 0.10666 0.08334
# Poissons Ratio (z) = 0.12240 0.10393
#
# Static dielectric constant tensor:
#      x y z
#    x 3.308860 0.152380 -0.130470 
#    y 0.152380 3.197880 -0.101320 
#    z -0.130470 -0.101320 3.733790 
# 
# 
# High freq. dielectric constant tensor:
#      x y z
#    x 1.733130 0.009870 -0.012000 
#    y 0.009870 1.716720 -0.010670 
#    z -0.012000 -0.010670 1.762130 
# 
# From -- ./inp_files/542815.got.cif
#   From: 2010.06.25/outbox.cif.g09.slc.cpg/sg2_272_cif.got.tgz:542815.got - 2010.06.27 13:26:56.
