data_PCOD8006052
_publ_section_title
;
Structure prediction by ZEFSAII (Michael W. Deem and Ramdas Pophale) SiO2 
 PCOD8006052
Probable space group: P -1
;
_chemical_formula_sum "Si O2"
_cell_formula_units_Z 16
_cell_length_a 8.983172
_cell_length_b 9.915685
_cell_length_c 12.049461
_cell_angle_alpha 62.447267
_cell_angle_beta 102.837482
_cell_angle_gamma 64.591470
_cell_volume 731.395661
_symmetry_space_group_name_H-M "P -1"
_symmetry_group_IT_number 2
_symmetry_cell_setting 'triclinic'
loop_
_space_group_symop_operation_xyz
x,y,z
-x,-y,-z
loop_
_atom_site_type_symbol
_atom_site_label
_atom_site_fract_x
_atom_site_fract_y
_atom_site_fract_z
Si Si1 0.969808 0.480509 0.130597
Si Si2 0.254760 0.776386 0.193817
Si Si3 0.729919 0.213654 0.463546
Si Si4 0.699287 0.596821 0.645730
Si Si5 0.846382 0.029503 0.116233
Si Si6 0.708904 0.800897 0.136433
Si Si7 0.333490 0.422046 0.598274
Si Si8 0.118516 0.807167 0.735173
O O1 0.811788 0.689956 0.080551
O O2 0.884933 0.364781 0.165470
O O3 0.174338 0.363859 0.275360
O O4 0.000000 0.500000 0.000000
O O5 0.236292 0.610170 0.227503
O O6 0.434612 0.703988 0.330396
O O7 0.290683 0.840005 0.058998
O O8 0.063819 0.954314 0.155182
O O9 0.529789 0.244027 0.432352
O O10 0.748709 0.356812 0.484298
O O11 0.744065 0.256452 0.322652
O O12 0.900753 0.996398 0.606630
O O13 0.747843 0.595382 0.523839
O O14 0.776868 0.158127 0.165436
O O15 0.835133 0.854904 0.196478
O O16 0.715743 0.655480 0.277279
O O17 0.500000 0.000000 0.000000
#
# Coordination Sequence:
#
# PCOD8006052 Si02
#       8
#     2   2   2   2   2   2   2   2
#     4  12  28  48  68 101 145 180 225 285 347 407
#     4  10  20  39  65 101 128 169 235 276 329 399
#     4  10  23  42  66 101 138 176 226 280 340 409
#     4  11  23  42  69  98 132 182 226 277 344 399
#     4  11  22  39  70  96 132 182 227 275 339 406
#     4  12  26  46  69 106 136 178 231 285 338 403
#     4  11  22  42  69  99 136 170 231 285 330 405
#     4  11  24  43  67  99 141 180 224 280 345 402
#
# _framework density 21.875986000000001
#
# number of rings (size 3 to 8) (size 9 to 14) (size 15 to 20)
#    0.000    1.000    3.750    3.750    1.750    5.000 
#    0.000    2.500    0.000    0.000    0.000    0.000 
#    0.000    0.000    0.000    0.000    0.000    0.000 
#
# Total GULP energy -198446.783921 kJ/mol
# GULP energy per Si atom -12402.923995 kJ/mol
# Density = 2.182619 g / cm^3
# Si number density = 21.875986 Si / 1000 Ang^3
#
#
#
# Elastic Constant Matrix: (Units=GPa)
#
#
# Indices 1 2 3 4 5 6 
#
# 1 75.5890 44.1833 20.9671 12.3401 -5.1398 -4.1936
# 2 44.1833 111.4367 35.7332 23.3189 0.8497 0.5594
# 3 20.9671 35.7332 67.5371 20.4001 -5.5932 -8.0170
# 4 12.3401 23.3189 20.4001 41.8731 -0.2181 -1.1114
# 5 -5.1398 0.8497 -5.5932 -0.2181 31.7377 -0.4191
# 6 -4.1936 0.5594 -8.0170 -1.1114 -0.4191 40.0439
#
#
#
# Elastic Compliance Matrix: (Units=1/GPa)
#
#
# Indices 1 2 3 4 5 6 
#
# 1 0.017828 -0.006456 -0.001410 -0.000913 0.002828 0.001679
# 2 -0.006456 0.013795 -0.004627 -0.003588 -0.002280 -0.001919
# 3 -0.001410 -0.004627 0.020523 -0.006885 0.003516 0.003872
# 4 -0.000913 -0.003588 -0.006885 0.029481 -0.001071 -0.000617
# 5 0.002828 -0.002280 0.003516 -0.001071 0.032657 0.001344
# 6 0.001679 -0.001919 0.003872 -0.000617 0.001344 0.025947
#
#
# Mechanical properties :
#
#
# Convention : Reuss Voigt Hill
#
# Bulk Modulus (GPa) = 36.81819 50.70332 43.76075
# Shear Modulus (GPa) = 28.69074 32.97620 30.83347
#
# Velocity S-wave (km/s) = 3.62542 3.88676 3.75836
# Velocity P-wave (km/s) = 5.86445 6.58562 6.23547
#
# Compressibility (1/GPa) = 0.02716049
#
# Stress axis : x y z
#
# Youngs Moduli (GPa) = 56.09017 72.49025 48.72526
#
# Poissons Ratio (x) = 0.46797 0.06871
# Poissons Ratio (y) = 0.36209 0.22547
# Poissons Ratio (z) = 0.07909 0.33544
#
# Static dielectric constant tensor:
#      x y z
#    x 4.035450 -0.071490 -0.066390 
#    y -0.071490 3.908710 0.068790 
#    z -0.066390 0.068790 3.961050 
# 
# 
# High freq. dielectric constant tensor:
#      x y z
#    x 1.863420 -0.005690 -0.006440 
#    y -0.005690 1.854220 0.002190 
#    z -0.006440 0.002190 1.866860 
# 
# From -- ./inp_files/297807.got.cif
#   From: 2010.06.25/outbox.cif.g09.slc.cpg/sg2_149_cif.got.tgz:297807.got - 2010.06.27 13:26:56.
