data_PCOD8006797
_publ_section_title
;
Structure prediction by ZEFSAII (Michael W. Deem and Ramdas Pophale) SiO2 
 PCOD8006797
Probable space group: P -1
;
_chemical_formula_sum "Si O2"
_cell_formula_units_Z 16
_cell_length_a 18.776760
_cell_length_b 5.036772
_cell_length_c 9.675292
_cell_angle_alpha 94.818468
_cell_angle_beta 54.508814
_cell_angle_gamma 119.262340
_cell_volume 623.711854
_symmetry_space_group_name_H-M "P -1"
_symmetry_group_IT_number 2
_symmetry_cell_setting 'triclinic'
loop_
_space_group_symop_operation_xyz
x,y,z
-x,-y,-z
loop_
_atom_site_type_symbol
_atom_site_label
_atom_site_fract_x
_atom_site_fract_y
_atom_site_fract_z
Si Si1 0.589554 0.129573 0.794821
Si Si2 0.920413 0.379839 0.268213
Si Si3 0.292197 0.168458 0.247952
Si Si4 0.874227 0.700181 0.533842
Si Si5 0.448024 0.836063 0.694537
Si Si6 0.073621 0.269984 0.235952
Si Si7 0.119212 0.942006 0.964099
Si Si8 0.316563 0.134643 0.900094
O O1 0.631040 0.497569 0.747819
O O2 0.682523 0.087815 0.740054
O O3 0.543714 0.946571 0.695483
O O4 0.500000 0.000000 0.000000
O O5 0.835432 0.416783 0.450661
O O6 0.003004 0.399488 0.283881
O O7 0.994737 0.684599 0.101382
O O8 0.859281 0.061473 0.225662
O O9 0.177768 0.092214 0.418422
O O10 0.304677 0.224022 0.072139
O O11 0.850836 0.542807 0.709037
O O12 0.997790 0.915973 0.370297
O O13 0.379583 0.452369 0.748691
O O14 0.500000 0.000000 0.500000
O O15 0.375021 0.952569 0.833705
O O16 0.135290 0.261536 0.029886
O O17 0.201229 0.890995 0.953943
#
# Coordination Sequence:
#
# PCOD8006797 Si02
#       8
#     2   2   2   2   2   2   2   2
#     4  12  24  46  76 101 137 179 231 297 364 417
#     4  10  22  41  63  93 145 183 226 283 345 412
#     4  12  24  42  75 107 137 180 243 292 338 433
#     4  10  23  38  60 103 133 177 231 281 344 395
#     4  12  28  50  72 103 142 182 228 297 374 427
#     4  10  20  40  64  90 140 181 221 284 341 406
#     4  10  23  40  66  99 131 188 235 276 346 412
#     4  12  24  46  75 104 137 183 243 287 345 441
#
# _framework density 25.652875000000002
#
# number of rings (size 3 to 8) (size 9 to 14) (size 15 to 20)
#    0.000    1.000    3.750    2.250    3.500    2.000 
#    2.250    0.000    0.000    0.000    0.000    0.000 
#    0.000    0.000    0.000    0.000    0.000    0.000 
#
# Total GULP energy -198252.193107 kJ/mol
# GULP energy per Si atom -12390.762069 kJ/mol
# Density = 2.559449 g / cm^3
# Si number density = 25.652875 Si / 1000 Ang^3
#
#
#
# Elastic Constant Matrix: (Units=GPa)
#
#
# Indices 1 2 3 4 5 6 
#
# 1 130.2652 11.1213 47.6789 28.0513 -6.9127 -0.6241
# 2 11.1213 58.5718 31.1333 19.8320 1.3690 -0.2850
# 3 47.6789 31.1333 127.5822 43.1149 0.3093 7.0473
# 4 28.0513 19.8320 43.1149 44.9992 1.6369 -4.9379
# 5 -6.9127 1.3690 0.3093 1.6369 35.1429 5.4519
# 6 -0.6241 -0.2850 7.0473 -4.9379 5.4519 47.2461
#
#
#
# Elastic Compliance Matrix: (Units=1/GPa)
#
#
# Indices 1 2 3 4 5 6 
#
# 1 0.009456 0.000784 -0.002334 -0.004100 0.002070 -0.000190
# 2 0.000784 0.020852 -0.003117 -0.006688 -0.000309 -0.000062
# 3 -0.002334 -0.003117 0.013022 -0.010005 0.000494 -0.003095
# 4 -0.004100 -0.006688 -0.010005 0.038055 -0.003120 0.005735
# 5 0.002070 -0.000309 0.000494 -0.003120 0.029604 -0.003790
# 6 -0.000190 -0.000062 -0.003095 0.005735 -0.003790 0.022661
#
#
# Mechanical properties :
#
#
# Convention : Reuss Voigt Hill
#
# Bulk Modulus (GPa) = 29.41565 55.14291 42.27928
# Shear Modulus (GPa) = 32.40085 40.57668 36.48877
#
# Velocity S-wave (km/s) = 3.55780 3.98145 3.77557
# Velocity P-wave (km/s) = 5.32625 6.53287 5.96017
#
# Compressibility (1/GPa) = 0.03399551
#
# Stress axis : x y z
#
# Youngs Moduli (GPa) = 105.75463 47.95590 76.79273
#
# Poissons Ratio (x) = -0.03760 0.17925
# Poissons Ratio (y) = -0.08293 0.23939
# Poissons Ratio (z) = 0.24685 0.14950
#
# Static dielectric constant tensor:
#      x y z
#    x 4.300820 0.091380 -0.077620 
#    y 0.091380 4.657640 0.302160 
#    z -0.077620 0.302160 5.024700 
# 
# 
# High freq. dielectric constant tensor:
#      x y z
#    x 2.018780 0.000810 -0.004690 
#    y 0.000810 2.021680 0.018170 
#    z -0.004690 0.018170 2.031240 
# 
# From -- ./inp_files/323849.got.cif
#   From: 2010.06.25/outbox.cif.g09.slc.cpg/sg2_162_cif.got.tgz:323849.got - 2010.06.27 13:26:56.
