data_PCOD8006346
_publ_section_title
;
Structure prediction by ZEFSAII (Michael W. Deem and Ramdas Pophale) SiO2 
 PCOD8006346
Probable space group: P -1
;
_chemical_formula_sum "Si O2"
_cell_formula_units_Z 16
_cell_length_a 8.007101
_cell_length_b 18.301102
_cell_length_c 11.542613
_cell_angle_alpha 142.894699
_cell_angle_beta 125.687802
_cell_angle_gamma 44.575150
_cell_volume 715.706845
_symmetry_space_group_name_H-M "P -1"
_symmetry_group_IT_number 2
_symmetry_cell_setting 'triclinic'
loop_
_space_group_symop_operation_xyz
x,y,z
-x,-y,-z
loop_
_atom_site_type_symbol
_atom_site_label
_atom_site_fract_x
_atom_site_fract_y
_atom_site_fract_z
Si Si1 0.649302 0.235790 0.955603
Si Si2 0.231683 0.596826 0.973371
Si Si3 0.855236 0.596446 0.459389
Si Si4 0.074019 0.084052 0.398349
Si Si5 0.418822 0.838440 0.686959
Si Si6 0.446253 0.939218 0.054076
Si Si7 0.032276 0.811800 0.761731
Si Si8 0.787791 0.763530 0.171155
O O1 0.759076 0.301891 0.994483
O O2 0.355671 0.316311 0.943131
O O3 0.737650 0.235995 0.123425
O O4 0.735496 0.077607 0.750225
O O5 0.046926 0.675916 0.104313
O O6 0.500000 0.500000 0.000000
O O7 0.131369 0.500788 0.763212
O O8 0.579927 0.690714 0.503552
O O9 0.000000 0.500000 0.500000
O O10 0.955082 0.696103 0.592665
O O11 0.845729 0.099875 0.393405
O O12 0.936257 0.177902 0.348793
O O13 0.195301 0.155108 0.608385
O O14 0.475154 0.958402 0.834898
O O15 0.468415 0.819810 0.822919
O O16 0.598373 0.876105 0.149732
O O17 0.165183 0.032292 0.081798
#
# Coordination Sequence:
#
# PCOD8006346 Si02
#       8
#     2   2   2   2   2   2   2   2
#     4  12  25  47  75 103 142 181 230 300 352 413
#     4  12  29  50  71  98 145 195 235 284 342 415
#     4  11  23  45  68  98 136 188 244 279 330 417
#     4  12  24  43  68 109 140 175 228 293 368 415
#     4  10  21  37  70  97 138 178 232 288 349 406
#     4  10  20  39  68 106 136 177 223 292 357 414
#     4  11  23  43  71 103 145 175 224 302 348 406
#     4  12  27  44  70 106 142 185 233 283 358 421
#
# _framework density 22.355523999999999
#
# number of rings (size 3 to 8) (size 9 to 14) (size 15 to 20)
#    0.000    0.750    3.750    3.750    3.500    3.500 
#    2.250    1.250    0.000    0.000    0.000    0.000 
#    0.000    0.000    0.000    0.000    0.000    0.000 
#
# Total GULP energy -198233.453789 kJ/mol
# GULP energy per Si atom -12389.590862 kJ/mol
# Density = 2.230464 g / cm^3
# Si number density = 22.355524 Si / 1000 Ang^3
#
#
#
# Elastic Constant Matrix: (Units=GPa)
#
#
# Indices 1 2 3 4 5 6 
#
# 1 143.1093 -18.1507 32.9432 5.9171 59.2980 -18.6565
# 2 -18.1507 148.8615 33.9837 -16.5965 -75.0696 -25.8020
# 3 32.9432 33.9837 130.4806 -13.9554 -6.7524 -4.3787
# 4 5.9171 -16.5965 -13.9554 38.0993 6.5592 6.1334
# 5 59.2980 -75.0696 -6.7524 6.5592 109.4997 4.8684
# 6 -18.6565 -25.8020 -4.3787 6.1334 4.8684 39.0296
#
#
#
# Elastic Compliance Matrix: (Units=1/GPa)
#
#
# Indices 1 2 3 4 5 6 
#
# 1 0.011407 -0.000667 -0.003184 -0.003002 -0.006918 0.005989
# 2 -0.000667 0.012900 -0.002274 0.002356 0.008635 0.006507
# 3 -0.003184 -0.002274 0.009354 0.003229 0.000663 -0.002566
# 4 -0.003002 0.002356 0.003229 0.029300 0.001879 -0.004354
# 5 -0.006918 0.008635 0.000663 0.001879 0.018734 -0.000156
# 6 0.005989 0.006507 -0.002566 -0.004354 -0.000156 0.033202
#
#
# Mechanical properties :
#
#
# Convention : Reuss Voigt Hill
#
# Bulk Modulus (GPa) = 46.70764 57.77821 52.24293
# Shear Modulus (GPa) = 37.23400 62.23740 49.73570
#
# Velocity S-wave (km/s) = 4.08553 5.28207 4.72185
# Velocity P-wave (km/s) = 6.57220 7.94365 7.29025
#
# Compressibility (1/GPa) = 0.02140977
#
# Stress axis : x y z
#
# Youngs Moduli (GPa) = 87.66260 77.51639 106.90823
#
# Poissons Ratio (x) = 0.05173 0.34043
# Poissons Ratio (y) = 0.05850 0.24313
# Poissons Ratio (z) = 0.27915 0.17629
#
# Static dielectric constant tensor:
#      x y z
#    x 5.081500 -0.030950 -0.135540 
#    y -0.030950 3.998100 -0.072500 
#    z -0.135540 -0.072500 3.977710 
# 
# 
# High freq. dielectric constant tensor:
#      x y z
#    x 1.904340 -0.006490 0.010370 
#    y -0.006490 1.871210 -0.016740 
#    z 0.010370 -0.016740 1.882190 
# 
# From -- ./inp_files/187768.got.cif
#   From: 2010.06.25/outbox.cif.g09.slc.cpg/sg2_94_cif.got.tgz:187768.got - 2010.06.27 13:26:56.
