data_PCOD8006999
_publ_section_title
;
Structure prediction by ZEFSAII (Michael W. Deem and Ramdas Pophale) SiO2 
 PCOD8006999
Probable space group: P -1
;
_chemical_formula_sum "Si O2"
_cell_formula_units_Z 16
_cell_length_a 9.311545
_cell_length_b 25.335005
_cell_length_c 9.658720
_cell_angle_alpha 135.477085
_cell_angle_beta 122.539681
_cell_angle_gamma 28.401944
_cell_volume 732.236048
_symmetry_space_group_name_H-M "P -1"
_symmetry_group_IT_number 2
_symmetry_cell_setting 'triclinic'
loop_
_space_group_symop_operation_xyz
x,y,z
-x,-y,-z
loop_
_atom_site_type_symbol
_atom_site_label
_atom_site_fract_x
_atom_site_fract_y
_atom_site_fract_z
Si Si1 0.643003 0.746800 0.085965
Si Si2 0.532959 0.946107 0.767642
Si Si3 0.332072 0.334444 0.339934
Si Si4 0.187810 0.038136 0.495759
Si Si5 0.673969 0.465245 0.889421
Si Si6 0.900564 0.232459 0.459254
Si Si7 0.564336 0.187044 0.456987
Si Si8 0.363712 0.368529 0.921118
O O1 0.480681 0.738121 0.072749
O O2 0.009742 0.611301 0.048345
O O3 0.498603 0.881403 0.305308
O O4 0.629618 0.737088 0.899375
O O5 0.539946 0.854020 0.615340
O O6 0.854655 0.859260 0.710995
O O7 0.259903 0.055600 0.711532
O O8 0.500000 0.000000 0.000000
O O9 0.608020 0.290617 0.378305
O O10 0.408642 0.249748 0.344475
O O11 0.000000 0.500000 0.500000
O O12 0.067693 0.145285 0.525757
O O13 0.938730 0.061981 0.422453
O O14 0.747501 0.370917 0.648150
O O15 0.500000 0.500000 0.000000
O O16 0.493983 0.598950 0.960159
O O17 0.417818 0.309334 0.693059
O O18 0.000000 0.500000 0.000000
#
# Coordination Sequence:
#
# PCOD8006999 Si02
#       8
#     2   2   2   2   2   2   2   2
#     4  11  23  40  69  91 130 182 227 268 332 410
#     4  12  26  42  65 104 141 167 220 287 345 390
#     4  11  25  44  68  98 135 178 232 277 335 404
#     4  11  24  45  69  95 136 185 229 262 343 424
#     4  11  21  40  68  98 129 172 229 280 336 395
#     4  11  25  44  67  99 143 175 220 287 341 398
#     4  11  24  44  68  96 136 179 229 275 328 416
#     4  10  20  40  66  91 124 177 227 263 321 402
#
# _framework density 21.850876
#
# number of rings (size 3 to 8) (size 9 to 14) (size 15 to 20)
#    0.000    1.000    2.500    5.250    3.500    1.000 
#    0.000    5.000    0.000    0.000    0.000    0.000 
#    0.000    0.000    0.000    0.000    0.000    0.000 
#
# Total GULP energy -198239.340388 kJ/mol
# GULP energy per Si atom -12389.958774 kJ/mol
# Density = 2.180114 g / cm^3
# Si number density = 21.850876 Si / 1000 Ang^3
#
#
#
# Elastic Constant Matrix: (Units=GPa)
#
#
# Indices 1 2 3 4 5 6 
#
# 1 599.0337 462.2072 306.1767 -131.7278 -5.1216 250.0078
# 2 462.2072 464.7719 300.4869 -134.1526 -4.4328 217.4326
# 3 306.1767 300.4869 298.1601 -92.6227 -12.6128 168.0845
# 4 -131.7278 -134.1526 -92.6227 73.2243 6.6374 -73.7246
# 5 -5.1216 -4.4328 -12.6128 6.6374 39.0482 5.5118
# 6 250.0078 217.4326 168.0845 -73.7246 5.5118 154.9058
#
#
#
# Elastic Compliance Matrix: (Units=1/GPa)
#
#
# Indices 1 2 3 4 5 6 
#
# 1 0.008915 -0.007141 0.001352 -0.002879 0.002313 -0.007284
# 2 -0.007141 0.014966 -0.005697 0.008400 -0.002617 0.000790
# 3 0.001352 -0.005697 0.012030 -0.001306 0.004772 -0.008031
# 4 -0.002879 0.008400 -0.001306 0.033274 -0.006963 0.010356
# 5 0.002313 -0.002617 0.004772 -0.006963 0.029697 -0.009608
# 6 -0.007284 0.000790 -0.008031 0.010356 -0.009608 0.031087
#
#
# Mechanical properties :
#
#
# Convention : Reuss Voigt Hill
#
# Bulk Modulus (GPa) = 77.27992 388.85637 233.06814
# Shear Modulus (GPa) = 31.79544 72.97532 52.38538
#
# Velocity S-wave (km/s) = 3.81873 5.78528 4.90164
# Velocity P-wave (km/s) = 7.40860 14.93223 11.78683
#
# Compressibility (1/GPa) = 0.01293997
#
# Stress axis : x y z
#
# Youngs Moduli (GPa) = 112.16664 66.81630 83.12294
#
# Poissons Ratio (x) = 0.47715 -0.11239
# Poissons Ratio (y) = 0.80101 0.47354
# Poissons Ratio (z) = -0.15166 0.38064
#
# Static dielectric constant tensor:
#      x y z
#    x 4.676170 0.151220 0.034460 
#    y 0.151220 3.894050 -0.025210 
#    z 0.034460 -0.025210 4.114630 
# 
# 
# High freq. dielectric constant tensor:
#      x y z
#    x 1.883060 0.006400 -0.006890 
#    y 0.006400 1.849490 0.008220 
#    z -0.006890 0.008220 1.859280 
# 
# From -- ./inp_files/226545.got.cif
#   From: 2010.06.25/outbox.cif.g09.slc.cpg/sg2_114_cif.got.tgz:226545.got - 2010.06.27 13:26:56.
