data_PCOD8006140
_publ_section_title
;
Structure prediction by ZEFSAII (Michael W. Deem and Ramdas Pophale) SiO2 
 PCOD8006140
Probable space group: P -1
;
_chemical_formula_sum "Si O2"
_cell_formula_units_Z 14
_cell_length_a 8.230180
_cell_length_b 8.189341
_cell_length_c 18.930564
_cell_angle_alpha 122.447164
_cell_angle_beta 79.423859
_cell_angle_gamma 54.917728
_cell_volume 618.418028
_symmetry_space_group_name_H-M "P -1"
_symmetry_group_IT_number 2
_symmetry_cell_setting 'triclinic'
loop_
_space_group_symop_operation_xyz
x,y,z
-x,-y,-z
loop_
_atom_site_type_symbol
_atom_site_label
_atom_site_fract_x
_atom_site_fract_y
_atom_site_fract_z
Si Si1 0.967948 0.669414 0.976128
Si Si2 0.534916 0.568694 0.087876
Si Si3 0.804710 0.371969 0.604740
Si Si4 0.056932 0.320415 0.300510
Si Si5 0.256472 0.395840 0.478046
Si Si6 0.605673 0.591411 0.817542
Si Si7 0.136491 0.348128 0.742356
O O1 0.131388 0.711515 0.992896
O O2 0.129021 0.427649 0.840860
O O3 0.000000 0.500000 0.000000
O O4 0.643181 0.015142 0.061142
O O5 0.422961 0.552385 0.158291
O O6 0.369054 0.931051 0.186495
O O7 0.500000 0.500000 0.000000
O O8 0.946678 0.445225 0.628238
O O9 0.675804 0.513325 0.568593
O O10 0.583994 0.539707 0.725346
O O11 0.000000 0.000000 0.500000
O O12 0.853346 0.404664 0.393143
O O13 0.935983 0.411591 0.251881
O O14 0.000000 0.500000 0.500000
O O15 0.544804 0.014125 0.384079
O O16 0.912470 0.388319 0.760671
#
# Coordination Sequence:
#
# PCOD8006140 Si02
#       7
#     2   2   2   2   2   2   2
#     4  12  23  42  69  96 130 176 221 272 328 389
#     4  12  25  44  67  98 133 172 219 273 328 393
#     4  10  21  40  65  93 127 169 217 270 323 383
#     4  10  22  41  64  94 129 169 217 270 325 384
#     4  10  20  39  65  96 128 170 217 267 323 386
#     4  11  24  41  61  98 135 173 220 271 326 390
#     4  11  22  41  66  95 131 175 220 271 326 389
#
# _framework density 22.63841
#
# number of rings (size 3 to 8) (size 9 to 14) (size 15 to 20)
#    0.000    1.143    0.000    8.143    0.000    1.143 
#    0.000   12.143    0.000    0.000    0.000    0.000 
#    0.000    0.000    0.000    0.000    0.000    0.000 
#
# Total GULP energy -173487.923256 kJ/mol
# GULP energy per Si atom -12391.994518 kJ/mol
# Density = 2.258688 g / cm^3
# Si number density = 22.638410 Si / 1000 Ang^3
#
#
#
# Elastic Constant Matrix: (Units=GPa)
#
#
# Indices 1 2 3 4 5 6 
#
# 1 79.5370 37.4037 34.1667 -0.5491 -12.5030 -1.8281
# 2 37.4037 165.8285 54.7362 -26.1162 -11.2476 10.9327
# 3 34.1667 54.7362 129.1871 -14.0068 -8.2431 2.2282
# 4 -0.5491 -26.1162 -14.0068 75.4096 -0.0487 -7.7331
# 5 -12.5030 -11.2476 -8.2431 -0.0487 36.9701 7.2531
# 6 -1.8281 10.9327 2.2282 -7.7331 7.2531 27.9683
#
#
#
# Elastic Compliance Matrix: (Units=1/GPa)
#
#
# Indices 1 2 3 4 5 6 
#
# 1 0.015639 -0.002556 -0.002969 -0.001221 0.003657 0.000972
# 2 -0.002556 0.008004 -0.002341 0.002014 0.001635 -0.002976
# 3 -0.002969 -0.002341 0.009648 0.000971 0.000414 0.000114
# 4 -0.001221 0.002014 0.000971 0.014447 -0.000171 0.003094
# 5 0.003657 0.001635 0.000414 -0.000171 0.030522 -0.008396
# 6 0.000972 -0.002976 0.000114 0.003094 -0.008396 0.040006
#
#
# Mechanical properties :
#
#
# Convention : Reuss Voigt Hill
#
# Bulk Modulus (GPa) = 56.95224 69.68509 63.31866
# Shear Modulus (GPa) = 35.75242 44.61931 40.18586
#
# Velocity S-wave (km/s) = 3.97833 4.44436 4.21779
# Velocity P-wave (km/s) = 6.80549 7.56208 7.19374
#
# Compressibility (1/GPa) = 0.01755857
#
# Stress axis : x y z
#
# Youngs Moduli (GPa) = 63.94341 124.93812 103.65191
#
# Poissons Ratio (x) = 0.31931 0.30774
# Poissons Ratio (y) = 0.16342 0.24268
# Poissons Ratio (z) = 0.18985 0.29251
#
# Static dielectric constant tensor:
#      x y z
#    x 3.838100 0.084590 -0.332010 
#    y 0.084590 4.851820 -0.777790 
#    z -0.332010 -0.777790 4.903690 
# 
# 
# High freq. dielectric constant tensor:
#      x y z
#    x 1.853520 0.002660 -0.009920 
#    y 0.002660 1.921950 -0.021970 
#    z -0.009920 -0.021970 1.911810 
# 
# From -- ./inp_files/429149.got.cif
#   From: 2010.06.25/outbox.cif.g09.slc.cpg/sg2_215_cif.got.tgz:429149.got - 2010.06.27 13:26:56.
