data_PCOD8006725
_publ_section_title
;
Structure prediction by ZEFSAII (Michael W. Deem and Ramdas Pophale) SiO2 
 PCOD8006725
Probable space group: P -1
;
_chemical_formula_sum "Si O2"
_cell_formula_units_Z 16
_cell_length_a 8.659134
_cell_length_b 11.549821
_cell_length_c 18.015422
_cell_angle_alpha 29.402101
_cell_angle_beta 119.292214
_cell_angle_gamma 113.135005
_cell_volume 769.098144
_symmetry_space_group_name_H-M "P -1"
_symmetry_group_IT_number 2
_symmetry_cell_setting 'triclinic'
loop_
_space_group_symop_operation_xyz
x,y,z
-x,-y,-z
loop_
_atom_site_type_symbol
_atom_site_label
_atom_site_fract_x
_atom_site_fract_y
_atom_site_fract_z
Si Si1 0.325634 0.393362 0.982903
Si Si2 0.471785 0.118276 0.506274
Si Si3 0.807927 0.019654 0.734672
Si Si4 0.833199 0.942684 0.286702
Si Si5 0.497015 0.628536 0.242577
Si Si6 0.460417 0.093698 0.046310
Si Si7 0.167367 0.882913 0.648766
Si Si8 0.685326 0.478716 0.511535
O O1 0.193915 0.600554 0.800756
O O2 0.500000 0.500000 0.000000
O O3 0.219948 0.249983 0.098572
O O4 0.365472 0.198613 0.037809
O O5 0.392601 0.394983 0.330083
O O6 0.500000 0.000000 0.500000
O O7 0.668337 0.098590 0.594916
O O8 0.345423 0.987776 0.603869
O O9 0.776873 0.211437 0.687967
O O10 0.002387 0.034592 0.740642
O O11 0.813216 0.674137 0.461431
O O12 0.667355 0.046284 0.141321
O O13 0.857070 0.090807 0.283808
O O14 0.658575 0.542199 0.382789
O O15 0.384748 0.845509 0.138645
O O16 0.569803 0.719035 0.131620
O O17 0.000000 0.000000 0.500000
O O18 0.500000 0.500000 0.500000
#
# Coordination Sequence:
#
# PCOD8006725 Si02
#       8
#     2   2   2   2   2   2   2   2
#     4  12  23  43  65  88 125 176 221 266 328 399
#     4  11  21  38  62  90 127 172 217 266 329 393
#     4  11  23  38  62  94 121 167 221 264 326 390
#     4  11  22  39  63  92 131 167 214 275 326 390
#     4   9  20  34  64  94 120 162 216 265 319 382
#     4  10  20  40  63  91 127 169 217 268 326 398
#     4  12  26  42  61  93 128 167 220 276 333 389
#     4  10  20  40  67  93 126 171 217 265 326 397
#
# _framework density 20.803585999999999
#
# number of rings (size 3 to 8) (size 9 to 14) (size 15 to 20)
#    0.000    1.250    2.500    4.875    0.000    2.500 
#    0.000    1.250    0.000    9.000    0.000    0.000 
#    0.000    0.000    0.000    0.000    0.000    0.000 
#
# Total GULP energy -198265.683368 kJ/mol
# GULP energy per Si atom -12391.605211 kJ/mol
# Density = 2.075624 g / cm^3
# Si number density = 20.803586 Si / 1000 Ang^3
#
#
#
# Elastic Constant Matrix: (Units=GPa)
#
#
# Indices 1 2 3 4 5 6 
#
# 1 127.8933 42.4232 46.2358 -18.4339 -5.0941 -8.3501
# 2 42.4232 101.5708 40.9282 -22.8229 -3.3106 -16.3040
# 3 46.2358 40.9282 133.8418 -25.6742 -8.7334 2.9443
# 4 -18.4339 -22.8229 -25.6742 46.2954 6.7779 0.2327
# 5 -5.0941 -3.3106 -8.7334 6.7779 32.9073 -2.2953
# 6 -8.3501 -16.3040 2.9443 0.2327 -2.2953 29.1945
#
#
#
# Elastic Compliance Matrix: (Units=1/GPa)
#
#
# Indices 1 2 3 4 5 6 
#
# 1 0.009844 -0.002599 -0.002371 0.001243 0.000491 0.001632
# 2 -0.002599 0.014235 -0.002778 0.004419 -0.000098 0.007443
# 3 -0.002371 -0.002778 0.009860 0.003005 0.001131 -0.003159
# 4 0.001243 0.004419 0.003005 0.026499 -0.003884 0.002004
# 5 0.000491 -0.000098 0.001131 -0.003884 0.031729 0.002497
# 6 0.001632 0.007443 -0.003159 0.002004 0.002497 0.039376
#
#
# Mechanical properties :
#
#
# Convention : Reuss Voigt Hill
#
# Bulk Modulus (GPa) = 54.22089 69.16448 61.69268
# Shear Modulus (GPa) = 32.64060 37.26068 34.95064
#
# Velocity S-wave (km/s) = 3.96534 4.23669 4.10326
# Velocity P-wave (km/s) = 6.86186 7.56646 7.22276
#
# Compressibility (1/GPa) = 0.01844308
#
# Stress axis : x y z
#
# Youngs Moduli (GPa) = 101.58970 70.25166 101.42298
#
# Poissons Ratio (x) = 0.18255 0.24049
# Poissons Ratio (y) = 0.26398 0.28172
# Poissons Ratio (z) = 0.24089 0.19513
#
# Static dielectric constant tensor:
#      x y z
#    x 3.442700 -0.091810 -0.051230 
#    y -0.091810 4.164550 -0.425690 
#    z -0.051230 -0.425690 4.232440 
# 
# 
# High freq. dielectric constant tensor:
#      x y z
#    x 1.786750 -0.015570 -0.017010 
#    y -0.015570 1.825870 -0.020660 
#    z -0.017010 -0.020660 1.826580 
# 
# From -- ./inp_files/559552.got.cif
#   From: 2010.06.25/outbox.cif.g09.slc.cpg/sg2_280_cif.got.tgz:559552.got - 2010.06.27 13:26:56.
