data_PCOD8006941
_publ_section_title
;
Structure prediction by ZEFSAII (Michael W. Deem and Ramdas Pophale) SiO2 
 PCOD8006941
Probable space group: P -1
;
_chemical_formula_sum "Si O2"
_cell_formula_units_Z 16
_cell_length_a 15.450941
_cell_length_b 7.693253
_cell_length_c 8.363425
_cell_angle_alpha 124.057011
_cell_angle_beta 98.349734
_cell_angle_gamma 60.290919
_cell_volume 703.165257
_symmetry_space_group_name_H-M "P -1"
_symmetry_group_IT_number 2
_symmetry_cell_setting 'triclinic'
loop_
_space_group_symop_operation_xyz
x,y,z
-x,-y,-z
loop_
_atom_site_type_symbol
_atom_site_label
_atom_site_fract_x
_atom_site_fract_y
_atom_site_fract_z
Si Si1 0.252131 0.483308 0.465126
Si Si2 0.411989 0.003647 0.576927
Si Si3 0.629201 0.340627 0.796437
Si Si4 0.102390 0.373597 0.562511
Si Si5 0.696142 0.447961 0.161799
Si Si6 0.157172 0.829737 0.344856
Si Si7 0.541790 0.770298 0.781969
Si Si8 0.085591 0.763043 0.984588
O O1 0.194428 0.361953 0.476551
O O2 0.306968 0.570315 0.655816
O O3 0.165117 0.717134 0.465354
O O4 0.346770 0.292232 0.284604
O O5 0.359655 0.910374 0.388341
O O6 0.459434 0.827768 0.650738
O O7 0.500000 0.000000 0.500000
O O8 0.331217 0.276778 0.750476
O O9 0.732549 0.337991 0.786941
O O10 0.543145 0.558275 0.780461
O O11 0.617281 0.389472 0.012743
O O12 0.083800 0.526674 0.799848
O O13 0.000000 0.500000 0.500000
O O14 0.127448 0.109096 0.489532
O O15 0.810079 0.250955 0.043483
O O16 0.078125 0.794043 0.192810
O O17 0.500000 0.000000 0.000000
O O18 0.000000 0.000000 0.000000
#
# Coordination Sequence:
#
# PCOD8006941 Si02
#       8
#     2   2   2   2   2   2   2   2
#     4  10  23  43  67  99 135 171 228 272 324 404
#     4  12  23  40  63  93 132 172 220 272 329 395
#     4  10  22  40  65  89 129 173 219 267 330 387
#     4  11  22  42  71  94 131 176 213 273 342 387
#     4  10  21  41  64  90 129 172 216 269 330 382
#     4  10  22  42  66  94 132 173 214 275 328 389
#     4  11  22  42  65  96 131 175 222 276 324 387
#     4  10  20  40  65  94 129 168 217 274 324 393
#
# _framework density 22.754254
#
# number of rings (size 3 to 8) (size 9 to 14) (size 15 to 20)
#    0.000    1.500    3.750    1.875    0.000    1.000 
#    0.000    5.625    2.750    0.000    0.000    0.000 
#    0.000    0.000    0.000    0.000    0.000    0.000 
#
# Total GULP energy -198227.106085 kJ/mol
# GULP energy per Si atom -12389.194130 kJ/mol
# Density = 2.270246 g / cm^3
# Si number density = 22.754254 Si / 1000 Ang^3
#
#
#
# Elastic Constant Matrix: (Units=GPa)
#
#
# Indices 1 2 3 4 5 6 
#
# 1 53.6462 20.6743 32.7149 -3.7452 4.9802 -7.5070
# 2 20.6743 169.8059 74.7611 -15.8780 9.1843 -17.7049
# 3 32.7149 74.7611 179.6701 -14.1040 34.5750 -6.2579
# 4 -3.7452 -15.8780 -14.1040 48.5194 -10.9090 4.9423
# 5 4.9802 9.1843 34.5750 -10.9090 35.3884 -0.1886
# 6 -7.5070 -17.7049 -6.2579 4.9423 -0.1886 22.9480
#
#
#
# Elastic Compliance Matrix: (Units=1/GPa)
#
#
# Indices 1 2 3 4 5 6 
#
# 1 0.021828 -0.000453 -0.003721 0.000029 0.000721 0.005776
# 2 -0.000453 0.007923 -0.003252 0.001503 0.001674 0.004768
# 3 -0.003721 -0.003252 0.008971 -0.000299 -0.007496 -0.001277
# 4 0.000029 0.001503 -0.000299 0.022969 0.006958 -0.003802
# 5 0.000721 0.001674 -0.007496 0.006958 0.037182 -0.001710
# 6 0.005776 0.004768 -0.001277 -0.003802 -0.001710 0.049601
#
#
# Mechanical properties :
#
#
# Convention : Reuss Voigt Hill
#
# Bulk Modulus (GPa) = 41.89614 73.26921 57.58267
# Shear Modulus (GPa) = 29.19112 39.70264 34.44688
#
# Velocity S-wave (km/s) = 3.58563 4.18167 3.89506
# Velocity P-wave (km/s) = 5.96613 7.45555 6.75203
#
# Compressibility (1/GPa) = 0.02386855
#
# Stress axis : x y z
#
# Youngs Moduli (GPa) = 45.81283 126.20872 111.46723
#
# Poissons Ratio (x) = 0.05722 0.41479
# Poissons Ratio (y) = 0.02077 0.36254
# Poissons Ratio (z) = 0.17048 0.41049
#
# Static dielectric constant tensor:
#      x y z
#    x 3.738760 -0.358690 0.012840 
#    y -0.358690 4.983960 -0.547320 
#    z 0.012840 -0.547320 4.509440 
# 
# 
# High freq. dielectric constant tensor:
#      x y z
#    x 1.858940 -0.031570 0.005770 
#    y -0.031570 1.914980 -0.010110 
#    z 0.005770 -0.010110 1.913070 
# 
# From -- ./inp_files/328076.got.cif
#   From: 2010.06.25/outbox.cif.g09.slc.cpg/sg2_165_cif.got.tgz:328076.got - 2010.06.27 13:26:56.
