data_PCOD8006572
_publ_section_title
;
Structure prediction by ZEFSAII (Michael W. Deem and Ramdas Pophale) SiO2 
 PCOD8006572
Probable space group: P -1
;
_chemical_formula_sum "Si O2"
_cell_formula_units_Z 16
_cell_length_a 12.392410
_cell_length_b 11.110435
_cell_length_c 14.457695
_cell_angle_alpha 106.975180
_cell_angle_beta 103.090522
_cell_angle_gamma 23.330846
_cell_volume 749.452728
_symmetry_space_group_name_H-M "P -1"
_symmetry_group_IT_number 2
_symmetry_cell_setting 'triclinic'
loop_
_space_group_symop_operation_xyz
x,y,z
-x,-y,-z
loop_
_atom_site_type_symbol
_atom_site_label
_atom_site_fract_x
_atom_site_fract_y
_atom_site_fract_z
Si Si1 0.318248 0.848375 0.723770
Si Si2 0.763358 0.145930 0.485385
Si Si3 0.732759 0.352303 0.041281
Si Si4 0.956102 0.620553 0.842838
Si Si5 0.400041 0.252171 0.971687
Si Si6 0.211392 0.470955 0.184585
Si Si7 0.570623 0.310050 0.677758
Si Si8 0.086422 0.706833 0.756754
O O1 0.211767 0.972067 0.624478
O O2 0.568807 0.683120 0.747281
O O3 0.422649 0.600631 0.714918
O O4 0.054919 0.163690 0.805209
O O5 0.500000 0.500000 0.500000
O O6 0.734582 0.105854 0.569289
O O7 0.000000 0.000000 0.500000
O O8 0.725775 0.478629 0.001252
O O9 0.743457 0.386078 0.156858
O O10 0.500000 0.500000 0.000000
O O11 0.000000 0.000000 0.000000
O O12 0.886300 0.551163 0.782484
O O13 0.230163 0.330867 0.893400
O O14 0.012543 0.646008 0.768406
O O15 0.714283 0.931899 0.927969
O O16 0.357463 0.262876 0.073622
O O17 0.327884 0.456448 0.670010
O O18 0.801790 0.064755 0.748110
#
# Coordination Sequence:
#
# PCOD8006572 Si02
#       8
#     2   2   2   2   2   2   2   2
#     4  11  24  38  61  97 121 149 195 257 319 350
#     4  10  20  40  61  89 127 158 186 241 312 373
#     4  11  23  36  53  83 127 157 184 249 301 344
#     4  11  23  44  59  83 120 165 215 245 294 341
#     4  11  23  40  58  85 115 167 212 242 298 351
#     4  12  24  39  65  87 119 159 208 265 287 354
#     4  11  22  39  65  91 122 156 197 241 301 392
#     4  11  23  38  62  87 118 164 206 238 289 372
#
# _framework density 21.34891
#
# number of rings (size 3 to 8) (size 9 to 14) (size 15 to 20)
#    0.000    1.000    0.000    9.750    5.250    0.000 
#    0.000    0.000    0.000    4.500    0.000    0.000 
#    0.000    0.000    0.000    0.000    0.000    0.000 
#
# Total GULP energy -198304.550297 kJ/mol
# GULP energy per Si atom -12394.034394 kJ/mol
# Density = 2.130032 g / cm^3
# Si number density = 21.348910 Si / 1000 Ang^3
#
#
#
# Elastic Constant Matrix: (Units=GPa)
#
#
# Indices 1 2 3 4 5 6 
#
# 1 128.6018 40.6262 50.6928 -10.9714 -14.8116 -29.3158
# 2 40.6262 118.2518 25.0197 -8.5313 -8.2876 -31.2870
# 3 50.6928 25.0197 73.3249 -7.4827 -13.9262 -12.3802
# 4 -10.9714 -8.5313 -7.4827 35.4480 -10.1819 -0.8859
# 5 -14.8116 -8.2876 -13.9262 -10.1819 30.0517 -0.8252
# 6 -29.3158 -31.2870 -12.3802 -0.8859 -0.8252 36.7935
#
#
#
# Elastic Compliance Matrix: (Units=1/GPa)
#
#
# Indices 1 2 3 4 5 6 
#
# 1 0.013205 -0.000319 -0.006136 0.004452 0.005316 0.008412
# 2 -0.000319 0.011956 -0.000969 0.004064 0.004337 0.009782
# 3 -0.006136 -0.000969 0.020356 0.004404 0.007672 0.001414
# 4 0.004452 0.004064 0.004404 0.036952 0.018144 0.009782
# 5 0.005316 0.004337 0.007672 0.018144 0.047125 0.011999
# 6 0.008412 0.009782 0.001414 0.009782 0.011999 0.043179
#
#
# Mechanical properties :
#
#
# Convention : Reuss Voigt Hill
#
# Bulk Modulus (GPa) = 32.60618 61.42845 47.01732
# Shear Modulus (GPa) = 25.27215 34.04795 29.66005
#
# Velocity S-wave (km/s) = 3.44433 3.99787 3.73138
# Velocity P-wave (km/s) = 5.57889 7.08143 6.37458
#
# Compressibility (1/GPa) = 0.03066903
#
# Stress axis : x y z
#
# Youngs Moduli (GPa) = 75.72760 83.63709 49.12498
#
# Poissons Ratio (x) = 0.02668 0.30144
# Poissons Ratio (y) = 0.02416 0.04761
# Poissons Ratio (z) = 0.46468 0.08107
#
# Static dielectric constant tensor:
#      x y z
#    x 3.919620 -0.153700 -0.150890 
#    y -0.153700 4.105320 -0.068320 
#    z -0.150890 -0.068320 3.317820 
# 
# 
# High freq. dielectric constant tensor:
#      x y z
#    x 1.831490 -0.019240 -0.013380 
#    y -0.019240 1.863520 -0.006700 
#    z -0.013380 -0.006700 1.816170 
# 
# From -- ./inp_files/437275.got.cif
#   From: 2010.06.25/outbox.cif.g09.slc.cpg/sg2_219_cif.got.tgz:437275.got - 2010.06.27 13:26:56.
