data_PCOD8006014
_publ_section_title
;
Structure prediction by ZEFSAII (Michael W. Deem and Ramdas Pophale) SiO2 
 PCOD8006014
Probable space group: P -1
;
_chemical_formula_sum "Si O2"
_cell_formula_units_Z 16
_cell_length_a 13.433792
_cell_length_b 10.639162
_cell_length_c 19.797041
_cell_angle_alpha 27.372754
_cell_angle_beta 140.465415
_cell_angle_gamma 139.160241
_cell_volume 802.897301
_symmetry_space_group_name_H-M "P -1"
_symmetry_group_IT_number 2
_symmetry_cell_setting 'triclinic'
loop_
_space_group_symop_operation_xyz
x,y,z
-x,-y,-z
loop_
_atom_site_type_symbol
_atom_site_label
_atom_site_fract_x
_atom_site_fract_y
_atom_site_fract_z
Si Si1 0.151581 0.465876 0.639161
Si Si2 0.680505 0.914962 0.592038
Si Si3 0.882728 0.493335 0.879546
Si Si4 0.621486 0.047335 0.643769
Si Si5 0.925084 0.613683 0.090304
Si Si6 0.041992 0.740412 0.233514
Si Si7 0.369348 0.069590 0.950933
Si Si8 0.558452 0.504032 0.952174
O O1 0.243798 0.230717 0.772854
O O2 0.000000 0.500000 0.500000
O O3 0.094639 0.388146 0.722615
O O4 0.281416 0.760439 0.565245
O O5 0.819937 0.773943 0.710752
O O6 0.511448 0.781877 0.528435
O O7 0.662132 0.878125 0.680454
O O8 0.982393 0.531180 0.845196
O O9 0.000000 0.500000 0.000000
O O10 0.732346 0.223762 0.931839
O O11 0.780798 0.280191 0.639492
O O12 0.557051 0.816113 0.777500
O O13 0.997785 0.573005 0.220833
O O14 0.737664 0.457565 0.066019
O O15 0.955152 0.935714 0.930238
O O16 0.450291 0.260279 0.965512
O O17 0.500000 0.000000 0.000000
O O18 0.500000 0.500000 0.000000
#
# Coordination Sequence:
#
# PCOD8006014 Si02
#       8
#     2   2   2   2   2   2   2   2
#     4  12  22  39  65  97 125 170 219 265 324 398
#     4  11  23  39  64  94 133 168 208 273 332 392
#     4  12  24  42  64  96 132 169 213 276 336 388
#     4  10  21  39  63  90 129 165 214 259 326 381
#     4  10  22  39  64  92 128 161 216 267 331 370
#     4  10  20  39  64  94 119 168 216 268 309 402
#     4  12  25  41  66 100 132 168 225 279 324 385
#     4  11  23  41  68  96 129 171 221 272 320 396
#
# _framework density 19.927828999999999
#
# number of rings (size 3 to 8) (size 9 to 14) (size 15 to 20)
#    0.000    1.000    3.750    4.500    5.250    0.000 
#    0.000    1.250    2.750    0.000    0.000    0.000 
#    0.000    0.000    0.000    0.000    0.000    0.000 
#
# Total GULP energy -198383.094976 kJ/mol
# GULP energy per Si atom -12398.943436 kJ/mol
# Density = 1.988247 g / cm^3
# Si number density = 19.927829 Si / 1000 Ang^3
#
#
#
# Elastic Constant Matrix: (Units=GPa)
#
#
# Indices 1 2 3 4 5 6 
#
# 1 163.4571 37.9123 53.2323 13.8155 4.4188 -8.8909
# 2 37.9123 91.6933 22.7770 28.8762 5.3622 -0.7428
# 3 53.2323 22.7770 81.2739 14.2582 13.9464 -2.1038
# 4 13.8155 28.8762 14.2582 37.8273 9.0625 -2.7009
# 5 4.4188 5.3622 13.9464 9.0625 42.6994 -0.5181
# 6 -8.8909 -0.7428 -2.1038 -2.7009 -0.5181 31.4835
#
#
#
# Elastic Compliance Matrix: (Units=1/GPa)
#
#
# Indices 1 2 3 4 5 6 
#
# 1 0.008346 -0.002442 -0.005004 0.000614 0.000972 0.002034
# 2 -0.002442 0.015540 -0.001039 -0.010898 0.000938 -0.001312
# 3 -0.005004 -0.001039 0.017098 -0.002827 -0.004344 -0.000609
# 4 0.000614 -0.010898 -0.002827 0.037144 -0.005621 0.002822
# 5 0.000972 0.000938 -0.004344 -0.005621 0.025812 -0.000051
# 6 0.002034 -0.001312 -0.000609 0.002822 -0.000051 0.032507
#
#
# Mechanical properties :
#
#
# Convention : Reuss Voigt Hill
#
# Bulk Modulus (GPa) = 41.64022 62.69638 52.16830
# Shear Modulus (GPa) = 30.97467 37.23554 34.10510
#
# Velocity S-wave (km/s) = 3.94679 4.32733 4.14143
# Velocity P-wave (km/s) = 6.45836 7.51650 7.00743
#
# Compressibility (1/GPa) = 0.02401525
#
# Stress axis : x y z
#
# Youngs Moduli (GPa) = 119.81440 64.35007 58.48513
#
# Poissons Ratio (x) = 0.15712 0.29267
# Poissons Ratio (y) = 0.29254 0.06076
# Poissons Ratio (z) = 0.59957 0.06685
#
# Static dielectric constant tensor:
#      x y z
#    x 3.821530 0.218870 -0.029710 
#    y 0.218870 3.861310 0.203000 
#    z -0.029710 0.203000 3.565760 
# 
# 
# High freq. dielectric constant tensor:
#      x y z
#    x 1.789380 0.020910 -0.006350 
#    y 0.020910 1.780840 0.021400 
#    z -0.006350 0.021400 1.764380 
# 
# From -- ./inp_files/256341.got.cif
#   From: 2010.06.25/outbox.cif.g09.slc.cpg/sg2_129_cif.got.tgz:256341.got - 2010.06.27 13:26:56.
