data_PCOD8006514
_publ_section_title
;
Structure prediction by ZEFSAII (Michael W. Deem and Ramdas Pophale) SiO2 
 PCOD8006514
Probable space group: P -1
;
_chemical_formula_sum "Si O2"
_cell_formula_units_Z 16
_cell_length_a 9.722184
_cell_length_b 11.663226
_cell_length_c 11.446181
_cell_angle_alpha 72.091431
_cell_angle_beta 55.374852
_cell_angle_gamma 107.074580
_cell_volume 814.454514
_symmetry_space_group_name_H-M "P -1"
_symmetry_group_IT_number 2
_symmetry_cell_setting 'triclinic'
loop_
_space_group_symop_operation_xyz
x,y,z
-x,-y,-z
loop_
_atom_site_type_symbol
_atom_site_label
_atom_site_fract_x
_atom_site_fract_y
_atom_site_fract_z
Si Si1 0.445588 0.727096 0.967168
Si Si2 0.523723 0.324247 0.491797
Si Si3 0.756369 0.912935 0.130213
Si Si4 0.227609 0.543259 0.897562
Si Si5 0.380172 0.349813 0.901102
Si Si6 0.724133 0.561840 0.500405
Si Si7 0.862544 0.328971 0.663873
Si Si8 0.527027 0.021952 0.844045
O O1 0.601335 0.694489 0.960900
O O2 0.278396 0.686865 0.158253
O O3 0.329170 0.624632 0.944373
O O4 0.564977 0.902242 0.814815
O O5 0.374943 0.153942 0.664248
O O6 0.628417 0.341431 0.311768
O O7 0.699508 0.433230 0.469259
O O8 0.361824 0.363592 0.552087
O O9 0.689525 0.786233 0.107295
O O10 0.690827 0.018123 0.086976
O O11 0.000000 0.000000 0.000000
O O12 0.219933 0.393456 0.952276
O O13 0.000000 0.500000 0.000000
O O14 0.606458 0.492300 0.702804
O O15 0.967342 0.693165 0.364797
O O16 0.722056 0.199090 0.673509
O O17 0.000000 0.500000 0.500000
O O18 0.500000 0.000000 0.000000
#
# Coordination Sequence:
#
# PCOD8006514 Si02
#       8
#     2   2   2   2   2   2   2   2
#     4  11  22  38  60  87 129 161 193 254 307 365
#     4   9  20  36  54  88 123 148 205 249 299 358
#     4  11  22  37  66  89 120 159 201 258 317 356
#     4  11  24  39  62  86 123 170 207 244 302 376
#     4  10  20  40  59  93 118 155 211 255 303 359
#     4   9  17  32  59  88 116 146 194 269 299 343
#     4  11  18  33  63  91 119 150 204 256 310 349
#     4  10  22  37  57  95 124 151 197 255 309 366
#
# _framework density 19.645050999999999
#
# number of rings (size 3 to 8) (size 9 to 14) (size 15 to 20)
#    0.000    1.750    3.750    2.625    5.250    0.000 
#    0.000    0.625    2.750    3.750    0.000    0.000 
#    0.000    0.000    0.000    0.000    0.000    0.000 
#
# Total GULP energy -198217.410726 kJ/mol
# GULP energy per Si atom -12388.588170 kJ/mol
# Density = 1.960034 g / cm^3
# Si number density = 19.645051 Si / 1000 Ang^3
#
#
#
# Elastic Constant Matrix: (Units=GPa)
#
#
# Indices 1 2 3 4 5 6 
#
# 1 143.9646 28.7867 41.5977 -4.2232 -3.4616 -7.4234
# 2 28.7867 61.5394 19.7090 -0.5904 10.8045 -4.5693
# 3 41.5977 19.7090 76.7642 -4.5658 1.7525 -0.0584
# 4 -4.2232 -0.5904 -4.5658 25.7383 0.2669 2.4308
# 5 -3.4616 10.8045 1.7525 0.2669 33.7030 -2.6459
# 6 -7.4234 -4.5693 -0.0584 2.4308 -2.6459 31.4780
#
#
#
# Elastic Compliance Matrix: (Units=1/GPa)
#
#
# Indices 1 2 3 4 5 6 
#
# 1 0.008900 -0.003129 -0.004042 0.000479 0.002264 0.001791
# 2 -0.003129 0.020031 -0.003343 -0.000739 -0.006431 0.001680
# 3 -0.004042 -0.003343 0.016218 0.002293 -0.000331 -0.001613
# 4 0.000479 -0.000739 0.002293 0.039616 -0.000389 -0.003082
# 5 0.002264 -0.006431 -0.000331 -0.000389 0.032169 0.002334
# 6 0.001791 0.001680 -0.001613 -0.003082 0.002334 0.032866
#
#
# Mechanical properties :
#
#
# Convention : Reuss Voigt Hill
#
# Bulk Modulus (GPa) = 41.45591 51.38388 46.41989
# Shear Modulus (GPa) = 27.95361 30.99551 29.47456
#
# Velocity S-wave (km/s) = 3.77627 3.97643 3.87764
# Velocity P-wave (km/s) = 6.33734 6.87718 6.61277
#
# Compressibility (1/GPa) = 0.02412201
#
# Stress axis : x y z
#
# Youngs Moduli (GPa) = 112.35434 49.92280 61.65983
#
# Poissons Ratio (x) = 0.15621 0.24920
# Poissons Ratio (y) = 0.35156 0.20614
# Poissons Ratio (z) = 0.45408 0.16690
#
# Static dielectric constant tensor:
#      x y z
#    x 4.204710 -0.015110 -0.091940 
#    y -0.015110 4.366670 -0.950210 
#    z -0.091940 -0.950210 4.256920 
# 
# 
# High freq. dielectric constant tensor:
#      x y z
#    x 1.791950 -0.003300 0.009260 
#    y -0.003300 1.739470 -0.013320 
#    z 0.009260 -0.013320 1.742930 
# 
# From -- ./inp_files/389729.got.cif
#   From: 2010.06.25/outbox.cif.g09.slc.cpg/sg2_195_cif.got.tgz:389729.got - 2010.06.27 13:26:56.
