data_PCOD8006338
_publ_section_title
;
Structure prediction by ZEFSAII (Michael W. Deem and Ramdas Pophale) SiO2 
 PCOD8006338
Probable space group: P -1
;
_chemical_formula_sum "Si O2"
_cell_formula_units_Z 14
_cell_length_a 18.317407
_cell_length_b 9.161505
_cell_length_c 13.097194
_cell_angle_alpha 106.992745
_cell_angle_beta 158.801261
_cell_angle_gamma 62.165992
_cell_volume 628.553650
_symmetry_space_group_name_H-M "P -1"
_symmetry_group_IT_number 2
_symmetry_cell_setting 'triclinic'
loop_
_space_group_symop_operation_xyz
x,y,z
-x,-y,-z
loop_
_atom_site_type_symbol
_atom_site_label
_atom_site_fract_x
_atom_site_fract_y
_atom_site_fract_z
Si Si1 0.278230 0.504637 0.659982
Si Si2 0.966946 0.120193 0.239257
Si Si3 0.817853 0.868634 0.078682
Si Si4 0.673164 0.478825 0.809409
Si Si5 0.545299 0.153748 0.278332
Si Si6 0.198946 0.301972 0.674860
Si Si7 0.009646 0.545576 0.138972
O O1 0.273494 0.339956 0.670654
O O2 0.030042 0.710035 0.398806
O O3 0.275280 0.476852 0.524926
O O4 0.500000 0.500000 0.000000
O O5 0.091202 0.179788 0.494687
O O6 0.162920 0.978328 0.381520
O O7 0.849236 0.033524 0.133242
O O8 0.748297 0.297679 0.932982
O O9 0.835084 0.768631 0.972187
O O10 0.557144 0.943518 0.806762
O O11 0.500000 0.500000 0.500000
O O12 0.526591 0.654658 0.727611
O O13 0.910773 0.453993 0.064507
O O14 0.437616 0.189627 0.031849
O O15 0.000000 0.500000 0.500000
O O16 0.000000 0.500000 0.000000
#
# Coordination Sequence:
#
# PCOD8006338 Si02
#       7
#     2   2   2   2   2   2   2
#     4  10  20  39  68 100 140 184 234 284 358 418
#     4  12  24  45  71 101 141 187 232 293 362 410
#     4   9  22  43  63 106 141 176 241 290 345 430
#     4  11  25  47  69 102 136 188 241 289 358 426
#     4  11  24  46  68 100 150 179 233 294 350 431
#     4  12  20  44  69  96 142 186 223 290 354 419
#     4   9  20  44  66  95 144 181 231 293 348 420
#
# _framework density 22.273358000000002
#
# number of rings (size 3 to 8) (size 9 to 14) (size 15 to 20)
#    0.857    0.571    4.286    1.286    2.000    1.143 
#    5.143    1.429    0.000    0.000    0.000    0.000 
#    0.000    0.000    0.000    0.000    0.000    0.000 
#
# Total GULP energy -173443.009124 kJ/mol
# GULP energy per Si atom -12388.786366 kJ/mol
# Density = 2.222266 g / cm^3
# Si number density = 22.273358 Si / 1000 Ang^3
#
#
#
# Elastic Constant Matrix: (Units=GPa)
#
#
# Indices 1 2 3 4 5 6 
#
# 1 101.5525 63.5268 32.6004 6.5573 -13.1423 -4.4526
# 2 63.5268 132.8400 42.1086 -0.0558 -12.2777 25.3779
# 3 32.6004 42.1086 94.6450 14.9373 -19.2395 -10.0705
# 4 6.5573 -0.0558 14.9373 29.5279 -15.7525 1.2143
# 5 -13.1423 -12.2777 -19.2395 -15.7525 43.1849 11.7292
# 6 -4.4526 25.3779 -10.0705 1.2143 11.7292 43.5003
#
#
#
# Elastic Compliance Matrix: (Units=1/GPa)
#
#
# Indices 1 2 3 4 5 6 
#
# 1 0.016111 -0.009207 -0.000241 -0.004604 -0.001541 0.007509
# 2 -0.009207 0.017297 -0.006185 0.009400 0.006739 -0.014545
# 3 -0.000241 -0.006185 0.015477 -0.008013 0.000144 0.007352
# 4 -0.004604 0.009400 -0.008013 0.050223 0.019987 -0.014601
# 5 -0.001541 0.006739 0.000144 0.019987 0.035835 -0.014276
# 6 0.007509 -0.014545 0.007352 -0.014601 -0.014276 0.038201
#
#
# Mechanical properties :
#
#
# Convention : Reuss Voigt Hill
#
# Bulk Modulus (GPa) = 56.75885 67.27880 62.01882
# Shear Modulus (GPa) = 23.77732 35.96274 29.87003
#
# Velocity S-wave (km/s) = 3.27084 4.02258 3.66603
# Velocity P-wave (km/s) = 6.30894 7.20044 6.76938
#
# Compressibility (1/GPa) = 0.01761840
#
# Stress axis : x y z
#
# Youngs Moduli (GPa) = 62.06885 57.81302 64.61281
#
# Poissons Ratio (x) = 0.53230 0.01555
# Poissons Ratio (y) = 0.57148 0.39966
# Poissons Ratio (z) = 0.01494 0.35760
#
# Static dielectric constant tensor:
#      x y z
#    x 4.047570 0.181630 -0.061970 
#    y 0.181630 4.351220 0.132540 
#    z -0.061970 0.132540 3.885720 
# 
# 
# High freq. dielectric constant tensor:
#      x y z
#    x 1.867660 0.004650 -0.005980 
#    y 0.004650 1.882720 0.011080 
#    z -0.005980 0.011080 1.863200 
# 
# From -- ./inp_files/539937.got.cif
#   From: 2010.06.25/outbox.cif.g09.slc.cpg/sg2_270_cif.got.tgz:539937.got - 2010.06.27 13:26:56.
