data_PCOD8006063
_publ_section_title
;
Structure prediction by ZEFSAII (Michael W. Deem and Ramdas Pophale) SiO2 
 PCOD8006063
Probable space group: P -1
;
_chemical_formula_sum "Si O2"
_cell_formula_units_Z 12
_cell_length_a 4.908811
_cell_length_b 13.735631
_cell_length_c 16.063021
_cell_angle_alpha 32.871063
_cell_angle_beta 104.013216
_cell_angle_gamma 110.109943
_cell_volume 549.678290
_symmetry_space_group_name_H-M "P -1"
_symmetry_group_IT_number 2
_symmetry_cell_setting 'triclinic'
loop_
_space_group_symop_operation_xyz
x,y,z
-x,-y,-z
loop_
_atom_site_type_symbol
_atom_site_label
_atom_site_fract_x
_atom_site_fract_y
_atom_site_fract_z
Si Si1 0.529984 0.545283 0.339739
Si Si2 0.334660 0.061023 0.868024
Si Si3 0.046693 0.697695 0.508438
Si Si4 0.866430 0.537031 0.773073
Si Si5 0.722088 0.960091 0.833145
Si Si6 0.431628 0.446037 0.939375
O O1 0.681119 0.727138 0.272479
O O2 0.761805 0.440804 0.401413
O O3 0.279375 0.402060 0.478759
O O4 0.368102 0.606301 0.201787
O O5 0.503116 0.046479 0.806297
O O6 0.997710 0.941129 0.922747
O O7 0.500000 0.000000 0.000000
O O8 0.022418 0.711483 0.598784
O O9 0.161913 0.903239 0.334023
O O10 0.104673 0.446541 0.893814
O O11 0.675834 0.587372 0.798749
O O12 0.543670 0.762645 0.925051
O O13 0.500000 0.500000 0.000000
#
# Coordination Sequence:
#
# PCOD8006063 Si02
#       6
#     2   2   2   2   2   2
#     4  10  20  39  65  87 129 168 200 228 323 356
#     4  12  25  38  63  96 128 167 204 251 300 363
#     4  10  22  40  65  88 131 167 197 252 307 358
#     4  10  21  43  65  90 123 164 202 250 310 371
#     4  12  26  41  62  95 128 154 220 259 293 365
#     4  12  24  43  68  90 119 164 207 262 317 362
#
# _framework density 21.830949
#
# number of rings (size 3 to 8) (size 9 to 14) (size 15 to 20)
#    1.000    0.000    1.667    6.000    0.000    4.000 
#    0.000    1.667    0.000    0.000    0.000    0.000 
#    0.000    0.000    0.000    0.000    0.000    0.000 
#
# Total GULP energy -148714.253181 kJ/mol
# GULP energy per Si atom -12392.854432 kJ/mol
# Density = 2.178126 g / cm^3
# Si number density = 21.830949 Si / 1000 Ang^3
#
#
#
# Elastic Constant Matrix: (Units=GPa)
#
#
# Indices 1 2 3 4 5 6 
#
# 1 128.5849 32.3234 11.2474 3.9625 -8.2405 -12.1473
# 2 32.3234 101.4140 37.7094 8.6807 4.3653 -10.3800
# 3 11.2474 37.7094 66.1440 6.0167 -2.0487 -6.4563
# 4 3.9625 8.6807 6.0167 14.1709 -0.4235 -6.4825
# 5 -8.2405 4.3653 -2.0487 -0.4235 28.3291 8.4038
# 6 -12.1473 -10.3800 -6.4563 -6.4825 8.4038 22.9262
#
#
#
# Elastic Compliance Matrix: (Units=1/GPa)
#
#
# Indices 1 2 3 4 5 6 
#
# 1 0.008844 -0.002810 0.000404 0.000445 0.002197 0.002848
# 2 -0.002810 0.014284 -0.007140 -0.003363 -0.004694 0.003737
# 3 0.000404 -0.007140 0.019589 -0.003728 0.002413 0.000559
# 4 0.000445 -0.003363 -0.003728 0.084711 -0.005350 0.023577
# 5 0.002197 -0.004694 0.002413 -0.005350 0.041838 -0.017130
# 6 0.002848 0.003737 0.000559 0.023577 -0.017130 0.059922
#
#
# Mechanical properties :
#
#
# Convention : Reuss Voigt Hill
#
# Bulk Modulus (GPa) = 42.33035 50.96702 46.64869
# Shear Modulus (GPa) = 19.51938 27.40941 23.46439
#
# Velocity S-wave (km/s) = 2.99342 3.54719 3.28201
# Velocity P-wave (km/s) = 5.60175 6.33827 5.98136
#
# Compressibility (1/GPa) = 0.02362371
#
# Stress axis : x y z
#
# Youngs Moduli (GPa) = 113.06888 70.01058 51.04919
#
# Poissons Ratio (x) = 0.19674 -0.02061
# Poissons Ratio (y) = 0.31774 0.36449
# Poissons Ratio (z) = -0.04565 0.49988
#
# Static dielectric constant tensor:
#      x y z
#    x 4.152380 0.006110 -0.227470 
#    y 0.006110 3.721450 0.251170 
#    z -0.227470 0.251170 3.851480 
# 
# 
# High freq. dielectric constant tensor:
#      x y z
#    x 1.882780 -0.002320 -0.010310 
#    y -0.002320 1.825670 0.027580 
#    z -0.010310 0.027580 1.848750 
# 
# From -- ./inp_files/50512.got.cif
#   From: 2010.06.25/outbox.cif.g09.slc.cpg/sg2_26_cif.got.tgz:50512.got - 2010.06.27 13:26:56.
