data_PCOD8006543
_publ_section_title
;
Structure prediction by ZEFSAII (Michael W. Deem and Ramdas Pophale) SiO2 
 PCOD8006543
Probable space group: P -1
;
_chemical_formula_sum "Si O2"
_cell_formula_units_Z 16
_cell_length_a 8.054990
_cell_length_b 8.997339
_cell_length_c 22.001485
_cell_angle_alpha 37.337998
_cell_angle_beta 114.605337
_cell_angle_gamma 127.151563
_cell_volume 764.079157
_symmetry_space_group_name_H-M "P -1"
_symmetry_group_IT_number 2
_symmetry_cell_setting 'triclinic'
loop_
_space_group_symop_operation_xyz
x,y,z
-x,-y,-z
loop_
_atom_site_type_symbol
_atom_site_label
_atom_site_fract_x
_atom_site_fract_y
_atom_site_fract_z
Si Si1 0.566232 0.131797 0.689062
Si Si2 0.347419 0.823264 0.588810
Si Si3 0.844325 0.038752 0.378854
Si Si4 0.493589 0.397360 0.208321
Si Si5 0.078231 0.047472 0.928952
Si Si6 0.818413 0.306467 0.786833
Si Si7 0.957392 0.571523 0.536870
Si Si8 0.293636 0.744084 0.077564
O O1 0.644172 0.260620 0.725637
O O2 0.723203 0.343159 0.593707
O O3 0.332578 0.085344 0.660537
O O4 0.559296 0.835277 0.775491
O O5 0.281437 0.011854 0.559888
O O6 0.464766 0.698320 0.688283
O O7 0.132014 0.572218 0.608458
O O8 0.500000 0.000000 0.500000
O O9 0.997225 0.370828 0.285943
O O10 0.978298 0.880172 0.445649
O O11 0.694319 0.679953 0.126513
O O12 0.293163 0.450185 0.162885
O O13 0.918811 0.109166 0.845395
O O14 0.101823 0.769910 0.006991
O O15 0.000000 0.000000 0.000000
O O16 0.705145 0.208081 0.865673
O O17 0.000000 0.500000 0.500000
O O18 0.500000 0.000000 0.000000
#
# Coordination Sequence:
#
# PCOD8006543 Si02
#       8
#     2   2   2   2   2   2   2   2
#     4  11  23  40  63  95 127 166 218 266 316 386
#     4  11  23  40  65  91 130 178 212 262 321 382
#     4  11  24  43  63  91 132 175 218 264 321 382
#     4  10  20  40  60  92 131 160 210 263 320 375
#     4   9  17  38  64  90 117 162 206 254 318 381
#     4  11  21  40  69  88 124 170 208 262 329 384
#     4  12  25  40  60  95 132 171 223 272 311 379
#     4   9  21  37  68  92 123 167 207 262 328 389
#
# _framework density 20.940238999999998
#
# number of rings (size 3 to 8) (size 9 to 14) (size 15 to 20)
#    0.000    1.500    3.750    2.250    3.500    1.000 
#    0.000    6.250    0.000    0.000    0.000    0.000 
#    0.000    0.000    0.000    0.000    0.000    0.000 
#
# Total GULP energy -198227.896601 kJ/mol
# GULP energy per Si atom -12389.243538 kJ/mol
# Density = 2.089258 g / cm^3
# Si number density = 20.940239 Si / 1000 Ang^3
#
#
#
# Elastic Constant Matrix: (Units=GPa)
#
#
# Indices 1 2 3 4 5 6 
#
# 1 88.8229 20.8023 47.2352 -2.5145 -0.8603 -10.3120
# 2 20.8023 77.4654 26.2885 10.4045 -4.1790 15.1098
# 3 47.2352 26.2885 101.7581 -5.7822 -5.2214 -3.7593
# 4 -2.5145 10.4045 -5.7822 18.8060 -9.4335 5.6482
# 5 -0.8603 -4.1790 -5.2214 -9.4335 43.2853 -3.1873
# 6 -10.3120 15.1098 -3.7593 5.6482 -3.1873 32.7424
#
#
#
# Elastic Compliance Matrix: (Units=1/GPa)
#
#
# Indices 1 2 3 4 5 6 
#
# 1 0.016128 -0.003318 -0.006425 0.000106 -0.000323 0.005823
# 2 -0.003318 0.018057 -0.004081 -0.010008 -0.001606 -0.008276
# 3 -0.006425 -0.004081 0.014430 0.007070 0.002802 0.000570
# 4 0.000106 -0.010008 0.007070 0.069835 0.014729 -0.005149
# 5 -0.000323 -0.001606 0.002802 0.014729 0.026563 0.001006
# 6 0.005823 -0.008276 0.000570 -0.005149 0.001006 0.037246
#
#
# Mechanical properties :
#
#
# Convention : Reuss Voigt Hill
#
# Bulk Modulus (GPa) = 47.69426 50.74425 49.21925
# Shear Modulus (GPa) = 23.05237 30.54811 26.80024
#
# Velocity S-wave (km/s) = 3.32153 3.82360 3.58137
# Velocity P-wave (km/s) = 6.12665 6.61655 6.37631
#
# Compressibility (1/GPa) = 0.02096688
#
# Stress axis : x y z
#
# Youngs Moduli (GPa) = 62.00403 55.37992 69.29780
#
# Poissons Ratio (x) = 0.18376 0.44521
# Poissons Ratio (y) = 0.20574 0.28284
# Poissons Ratio (z) = 0.39835 0.22603
#
# Static dielectric constant tensor:
#      x y z
#    x 4.395760 -0.051930 0.454360 
#    y -0.051930 3.621390 0.005090 
#    z 0.454360 0.005090 4.290540 
# 
# 
# High freq. dielectric constant tensor:
#      x y z
#    x 1.835820 0.004030 0.006470 
#    y 0.004030 1.785300 -0.001710 
#    z 0.006470 -0.001710 1.832880 
# 
# From -- ./inp_files/557091.got.cif
#   From: 2010.06.25/outbox.cif.g09.slc.cpg/sg2_279_cif.got.tgz:557091.got - 2010.06.27 13:26:56.
