data_PCOD8006193
_publ_section_title
;
Structure prediction by ZEFSAII (Michael W. Deem and Ramdas Pophale) SiO2 
 PCOD8006193
Probable space group: P -1
;
_chemical_formula_sum "Si O2"
_cell_formula_units_Z 16
_cell_length_a 9.187679
_cell_length_b 14.300116
_cell_length_c 8.894673
_cell_angle_alpha 67.940161
_cell_angle_beta 53.697328
_cell_angle_gamma 99.820464
_cell_volume 742.308553
_symmetry_space_group_name_H-M "P -1"
_symmetry_group_IT_number 2
_symmetry_cell_setting 'triclinic'
loop_
_space_group_symop_operation_xyz
x,y,z
-x,-y,-z
loop_
_atom_site_type_symbol
_atom_site_label
_atom_site_fract_x
_atom_site_fract_y
_atom_site_fract_z
Si Si1 0.362931 0.554206 0.594816
Si Si2 0.099312 0.598492 0.507867
Si Si3 0.677215 0.148271 0.884108
Si Si4 0.311387 0.101213 0.355420
Si Si5 0.525362 0.230506 0.436260
Si Si6 0.077010 0.139810 0.223659
Si Si7 0.338279 0.068540 0.907818
Si Si8 0.983289 0.645151 0.866125
O O1 0.500000 0.500000 0.500000
O O2 0.298744 0.596506 0.457322
O O3 0.514516 0.669788 0.532777
O O4 0.152326 0.464484 0.872374
O O5 0.158090 0.712350 0.300866
O O6 0.000000 0.500000 0.500000
O O7 0.958490 0.594877 0.739805
O O8 0.574453 0.117793 0.799543
O O9 0.485154 0.103046 0.143167
O O10 0.792412 0.075002 0.899049
O O11 0.442904 0.203387 0.334541
O O12 0.156774 0.133032 0.344859
O O13 0.166132 0.967358 0.589071
O O14 0.379066 0.105324 0.687087
O O15 0.775389 0.282304 0.267958
O O16 0.104149 0.267379 0.119048
O O17 0.221967 0.129215 0.016400
#
# Coordination Sequence:
#
# PCOD8006193 Si02
#       8
#     2   2   2   2   2   2   2   2
#     4  11  25  46  65  93 130 171 214 269 320 372
#     4  11  25  43  66  97 126 169 219 260 314 385
#     4  10  21  38  64  91 127 169 206 257 317 380
#     4  10  24  38  65  92 134 161 211 260 322 379
#     4  11  22  43  65  96 126 170 216 261 320 379
#     4  10  23  43  62  98 131 167 208 264 325 377
#     4  10  20  39  66  90 129 165 209 261 318 377
#     4  11  24  42  70  90 130 172 214 263 319 379
#
# _framework density 21.554379999999998
#
# number of rings (size 3 to 8) (size 9 to 14) (size 15 to 20)
#    0.000    1.500    2.500    3.000   10.500    3.500 
#    0.000    1.250    0.000    0.000    0.000    0.000 
#    0.000    0.000    0.000    0.000    0.000    0.000 
#
# Total GULP energy -198313.152811 kJ/mol
# GULP energy per Si atom -12394.572051 kJ/mol
# Density = 2.150532 g / cm^3
# Si number density = 21.554380 Si / 1000 Ang^3
#
#
#
# Elastic Constant Matrix: (Units=GPa)
#
#
# Indices 1 2 3 4 5 6 
#
# 1 61.0213 58.4088 20.2210 5.0951 5.5522 4.1070
# 2 58.4088 140.2019 27.8939 -11.6228 1.9390 -3.0576
# 3 20.2210 27.8939 97.8682 -11.2450 1.8168 -0.7236
# 4 5.0951 -11.6228 -11.2450 33.7125 -9.8304 0.2466
# 5 5.5522 1.9390 1.8168 -9.8304 16.6145 -2.5381
# 6 4.1070 -3.0576 -0.7236 0.2466 -2.5381 48.2081
#
#
#
# Elastic Compliance Matrix: (Units=1/GPa)
#
#
# Indices 1 2 3 4 5 6 
#
# 1 0.037310 -0.015954 -0.005001 -0.019263 -0.022273 -0.005340
# 2 -0.015954 0.014527 0.000186 0.010440 0.010216 0.002768
# 3 -0.005001 0.000186 0.011809 0.005913 0.003978 0.000794
# 4 -0.019263 0.010440 0.005913 0.047886 0.033503 0.003911
# 5 -0.022273 0.010216 0.003978 0.033503 0.086898 0.007009
# 6 -0.005340 0.002768 0.000794 0.003911 0.007009 0.021735
#
#
# Mechanical properties :
#
#
# Convention : Reuss Voigt Hill
#
# Bulk Modulus (GPa) = 45.23022 56.90429 51.06725
# Shear Modulus (GPa) = 18.58241 32.54487 25.56364
#
# Velocity S-wave (km/s) = 2.93937 3.88995 3.44758
# Velocity P-wave (km/s) = 5.70523 6.82886 6.29218
#
# Compressibility (1/GPa) = 0.02210911
#
# Stress axis : x y z
#
# Youngs Moduli (GPa) = 26.80238 68.83952 84.67800
#
# Poissons Ratio (x) = 1.09826 0.42347
# Poissons Ratio (y) = 0.42760 -0.01579
# Poissons Ratio (z) = 0.13404 -0.01283
#
# Static dielectric constant tensor:
#      x y z
#    x 3.746160 -0.118610 0.207020 
#    y -0.118610 4.092300 -0.127020 
#    z 0.207020 -0.127020 3.990320 
# 
# 
# High freq. dielectric constant tensor:
#      x y z
#    x 1.819810 -0.013910 0.012080 
#    y -0.013910 1.859100 -0.003100 
#    z 0.012080 -0.003100 1.853570 
# 
# From -- ./inp_files/205845.got.cif
#   From: 2010.06.25/outbox.cif.g09.slc.cpg/sg2_103_cif.got.tgz:205845.got - 2010.06.27 13:26:56.
