data_PCOD8006154
_publ_section_title
;
Structure prediction by ZEFSAII (Michael W. Deem and Ramdas Pophale) SiO2 
 PCOD8006154
Probable space group: P -1
;
_chemical_formula_sum "Si O2"
_cell_formula_units_Z 16
_cell_length_a 9.353228
_cell_length_b 14.788436
_cell_length_c 9.259285
_cell_angle_alpha 92.326296
_cell_angle_beta 51.483490
_cell_angle_gamma 60.438562
_cell_volume 749.211513
_symmetry_space_group_name_H-M "P -1"
_symmetry_group_IT_number 2
_symmetry_cell_setting 'triclinic'
loop_
_space_group_symop_operation_xyz
x,y,z
-x,-y,-z
loop_
_atom_site_type_symbol
_atom_site_label
_atom_site_fract_x
_atom_site_fract_y
_atom_site_fract_z
Si Si1 0.899743 0.710907 0.000040
Si Si2 0.295695 0.509546 0.545953
Si Si3 0.652215 0.114636 0.327868
Si Si4 0.915089 0.168405 0.654261
Si Si5 0.257351 0.578322 0.252685
Si Si6 0.342276 0.900797 0.349200
Si Si7 0.164193 0.353434 0.668854
Si Si8 0.039197 0.848628 0.041164
O O1 0.625018 0.830938 0.144553
O O2 0.919670 0.631170 0.111605
O O3 0.053473 0.747976 0.949649
O O4 0.025257 0.628703 0.773930
O O5 0.500000 0.500000 0.500000
O O6 0.325110 0.510821 0.356975
O O7 0.314484 0.397128 0.562945
O O8 0.717968 0.115485 0.453036
O O9 0.358440 0.208863 0.500570
O O10 0.765569 0.979906 0.207745
O O11 0.763649 0.153007 0.157089
O O12 0.853700 0.286255 0.633593
O O13 0.718200 0.159479 0.726822
O O14 0.885809 0.189284 0.844074
O O15 0.182794 0.044014 0.428765
O O16 0.061479 0.579580 0.293746
O O17 0.500000 0.500000 0.000000
#
# Coordination Sequence:
#
# PCOD8006154 Si02
#       8
#     2   2   2   2   2   2   2   2
#     4  11  23  40  69  97 127 166 214 266 319 386
#     4  12  28  45  67  93 129 171 220 271 319 381
#     4   9  21  37  69  94 130 168 214 260 313 388
#     4  10  22  41  65  91 133 167 211 254 328 371
#     4  12  28  44  68  93 128 174 216 266 323 386
#     4   9  22  40  66  96 129 168 208 265 315 386
#     4  11  24  44  66  93 129 168 219 266 322 377
#     4  10  20  39  65  98 129 168 211 257 324 379
#
# _framework density 21.355784
#
# number of rings (size 3 to 8) (size 9 to 14) (size 15 to 20)
#    0.000    1.500    1.250    2.250   10.500    2.500 
#    0.000    0.625    0.000    0.000    0.000    0.000 
#    0.000    0.000    0.000    0.000    0.000    0.000 
#
# Total GULP energy -198425.762703 kJ/mol
# GULP energy per Si atom -12401.610169 kJ/mol
# Density = 2.130718 g / cm^3
# Si number density = 21.355784 Si / 1000 Ang^3
#
#
#
# Elastic Constant Matrix: (Units=GPa)
#
#
# Indices 1 2 3 4 5 6 
#
# 1 84.5983 13.3981 5.8822 7.7638 -3.6164 -9.5795
# 2 13.3981 85.0893 14.0059 -1.6719 -0.8327 5.7755
# 3 5.8822 14.0059 92.6069 3.0692 1.1764 -9.9811
# 4 7.7638 -1.6719 3.0692 29.3144 1.1120 1.3587
# 5 -3.6164 -0.8327 1.1764 1.1120 24.5487 6.1555
# 6 -9.5795 5.7755 -9.9811 1.3587 6.1555 31.9668
#
#
#
# Elastic Compliance Matrix: (Units=1/GPa)
#
#
# Indices 1 2 3 4 5 6 
#
# 1 0.013090 -0.002447 0.000128 -0.003858 0.000912 0.004393
# 2 -0.002447 0.012837 -0.002297 0.001766 0.001123 -0.004061
# 3 0.000128 -0.002297 0.011694 -0.001534 -0.001676 0.004493
# 4 -0.003858 0.001766 -0.001534 0.035593 -0.001238 -0.003229
# 5 0.000912 0.001123 -0.001676 -0.001238 0.043232 -0.008725
# 6 0.004393 -0.004061 0.004493 -0.003229 -0.008725 0.036553
#
#
# Mechanical properties :
#
#
# Convention : Reuss Voigt Hill
#
# Bulk Modulus (GPa) = 35.22386 36.54079 35.88232
# Shear Modulus (GPa) = 29.12192 32.43322 30.77757
#
# Velocity S-wave (km/s) = 3.69678 3.90129 3.80041
# Velocity P-wave (km/s) = 5.89501 6.11891 6.00800
#
# Compressibility (1/GPa) = 0.02838985
#
# Stress axis : x y z
#
# Youngs Moduli (GPa) = 76.39571 77.89933 85.51511
#
# Poissons Ratio (x) = 0.19064 -0.01098
# Poissons Ratio (y) = 0.18696 0.19639
# Poissons Ratio (z) = -0.00981 0.17890
#
# Static dielectric constant tensor:
#      x y z
#    x 3.715940 -0.052180 0.035000 
#    y -0.052180 3.941820 0.155400 
#    z 0.035000 0.155400 3.931680 
# 
# 
# High freq. dielectric constant tensor:
#      x y z
#    x 1.830370 -0.002140 -0.001100 
#    y -0.002140 1.842860 0.011560 
#    z -0.001100 0.011560 1.845710 
# 
# From -- ./inp_files/179488.got.cif
#   From: 2010.06.25/outbox.cif.g09.slc.cpg/sg2_90_cif.got.tgz:179488.got - 2010.06.27 13:26:56.
