data_PCOD8006061
_publ_section_title
;
Structure prediction by ZEFSAII (Michael W. Deem and Ramdas Pophale) SiO2 
 PCOD8006061
Probable space group: P -1
;
_chemical_formula_sum "Si O2"
_cell_formula_units_Z 16
_cell_length_a 16.290805
_cell_length_b 5.331312
_cell_length_c 8.779829
_cell_angle_alpha 98.452619
_cell_angle_beta 82.629049
_cell_angle_gamma 109.253023
_cell_volume 709.466509
_symmetry_space_group_name_H-M "P -1"
_symmetry_group_IT_number 2
_symmetry_cell_setting 'triclinic'
loop_
_space_group_symop_operation_xyz
x,y,z
-x,-y,-z
loop_
_atom_site_type_symbol
_atom_site_label
_atom_site_fract_x
_atom_site_fract_y
_atom_site_fract_z
Si Si1 0.720549 0.187124 0.936487
Si Si2 0.598027 0.783673 0.143219
Si Si3 0.828696 0.481952 0.194384
Si Si4 0.596155 0.413321 0.834476
Si Si5 0.738134 0.801092 0.670838
Si Si6 0.091422 0.307589 0.363826
Si Si7 0.995119 0.300666 0.702318
Si Si8 0.747425 0.927654 0.342110
O O1 0.667565 0.263100 0.818593
O O2 0.767427 0.994188 0.828745
O O3 0.794400 0.426188 0.023658
O O4 0.648520 0.054567 0.069658
O O5 0.499639 0.775608 0.209065
O O6 0.651242 0.775026 0.283828
O O7 0.591964 0.533955 0.013928
O O8 0.933879 0.564046 0.172214
O O9 0.806344 0.738483 0.284017
O O10 0.790200 0.218877 0.285041
O O11 0.636715 0.626667 0.709950
O O12 0.804299 0.625985 0.636678
O O13 0.741652 0.962635 0.527841
O O14 0.050280 0.325609 0.537550
O O15 0.073126 0.531673 0.279429
O O16 0.053438 0.009005 0.276367
#
# Coordination Sequence:
#
# PCOD8006061 Si02
#       8
#     2   2   2   2   2   2   2   2
#     4  10  22  39  64  91 125 170 208 260 312 375
#     4   9  20  40  62  93 118 171 219 250 299 382
#     4  11  22  42  66  92 123 168 218 250 310 379
#     4  10  20  39  65  86 129 166 211 253 317 373
#     4  11  25  38  60  97 128 165 200 269 325 363
#     4  10  22  37  60  92 127 156 209 256 314 367
#     4  10  21  38  63  90 118 167 209 256 300 380
#     4  11  23  39  65  95 128 163 211 264 305 371
#
# _framework density 22.552157000000001
#
# number of rings (size 3 to 8) (size 9 to 14) (size 15 to 20)
#    0.000    1.750    2.500    1.125    7.000    0.500 
#    0.000    1.875    0.000    0.000    0.000    0.000 
#    0.000    0.000    0.000    0.000    0.000    0.000 
#
# Total GULP energy -198321.535383 kJ/mol
# GULP energy per Si atom -12395.095961 kJ/mol
# Density = 2.250083 g / cm^3
# Si number density = 22.552157 Si / 1000 Ang^3
#
#
#
# Elastic Constant Matrix: (Units=GPa)
#
#
# Indices 1 2 3 4 5 6 
#
# 1 113.1008 22.6448 27.0982 -1.1651 18.3646 1.7376
# 2 22.6448 84.3535 13.1106 4.7422 -0.0585 -11.0813
# 3 27.0982 13.1106 57.6241 -5.5558 -1.5571 3.3239
# 4 -1.1651 4.7422 -5.5558 16.3818 1.7980 6.2951
# 5 18.3646 -0.0585 -1.5571 1.7980 26.6788 3.0865
# 6 1.7376 -11.0813 3.3239 6.2951 3.0865 38.1848
#
#
#
# Elastic Compliance Matrix: (Units=1/GPa)
#
#
# Indices 1 2 3 4 5 6 
#
# 1 0.011999 -0.002500 -0.005208 0.000856 -0.008596 -0.000265
# 2 -0.002500 0.014176 -0.003073 -0.007649 0.001436 0.005640
# 3 -0.005208 -0.003073 0.021762 0.009081 0.004749 -0.004430
# 4 0.000856 -0.007649 0.009081 0.072413 -0.003253 -0.014724
# 5 -0.008596 0.001436 0.004749 -0.003253 0.044205 -0.002642
# 6 -0.000265 0.005640 -0.004430 -0.014724 -0.002642 0.030864
#
#
# Mechanical properties :
#
#
# Convention : Reuss Voigt Hill
#
# Bulk Modulus (GPa) = 37.91858 42.30950 40.11404
# Shear Modulus (GPa) = 22.14615 29.06407 25.60511
#
# Velocity S-wave (km/s) = 3.13708 3.59381 3.37318
# Velocity P-wave (km/s) = 5.47466 6.00184 5.74430
#
# Compressibility (1/GPa) = 0.02637229
#
# Stress axis : x y z
#
# Youngs Moduli (GPa) = 83.34178 70.54319 45.95244
#
# Poissons Ratio (x) = 0.17639 0.23932
# Poissons Ratio (y) = 0.20839 0.14123
# Poissons Ratio (z) = 0.43405 0.21680
#
# Static dielectric constant tensor:
#      x y z
#    x 4.301340 -0.006460 0.137180 
#    y -0.006460 4.029350 0.036260 
#    z 0.137180 0.036260 3.856550 
# 
# 
# High freq. dielectric constant tensor:
#      x y z
#    x 1.896870 0.000340 0.002490 
#    y 0.000340 1.886940 0.002150 
#    z 0.002490 0.002150 1.864180 
# 
# From -- ./inp_files/53805.got.cif
#   From: 2010.06.25/outbox.cif.g09.slc.cpg/sg2_27_cif.got.tgz:53805.got - 2010.06.27 13:26:56.
