data_PCOD8006695
_publ_section_title
;
Structure prediction by ZEFSAII (Michael W. Deem and Ramdas Pophale) SiO2 
 PCOD8006695
Probable space group: P -1
;
_chemical_formula_sum "Si O2"
_cell_formula_units_Z 16
_cell_length_a 9.230224
_cell_length_b 8.772563
_cell_length_c 14.317022
_cell_angle_alpha 110.424381
_cell_angle_beta 88.101437
_cell_angle_gamma 131.501939
_cell_volume 780.559275
_symmetry_space_group_name_H-M "P -1"
_symmetry_group_IT_number 2
_symmetry_cell_setting 'triclinic'
loop_
_space_group_symop_operation_xyz
x,y,z
-x,-y,-z
loop_
_atom_site_type_symbol
_atom_site_label
_atom_site_fract_x
_atom_site_fract_y
_atom_site_fract_z
Si Si1 0.384658 0.607653 0.892578
Si Si2 0.887530 0.199298 0.359535
Si Si3 0.876006 0.322832 0.580245
Si Si4 0.304302 0.683689 0.708593
Si Si5 0.822979 0.931640 0.926048
Si Si6 0.220131 0.740702 0.053533
Si Si7 0.704021 0.060226 0.705716
Si Si8 0.973034 0.914120 0.234936
O O1 0.356629 0.687972 0.815083
O O2 0.218820 0.337908 0.850481
O O3 0.603130 0.688036 0.906423
O O4 0.371975 0.729052 0.002109
O O5 0.799164 0.164762 0.457744
O O6 0.735349 0.152540 0.273518
O O7 0.099996 0.465317 0.400440
O O8 0.904265 0.021011 0.311694
O O9 0.714642 0.176806 0.636303
O O10 0.101348 0.430822 0.627304
O O11 0.497784 0.794266 0.662165
O O12 0.788223 0.098224 0.969969
O O13 0.881963 0.925736 0.819397
O O14 0.000000 0.000000 0.000000
O O15 0.279616 0.813543 0.175708
O O16 0.000000 0.500000 0.000000
O O17 0.894482 0.088880 0.697813
#
# Coordination Sequence:
#
# PCOD8006695 Si02
#       8
#     2   2   2   2   2   2   2   2
#     4  12  22  43  64  84 130 168 205 240 303 369
#     4   9  22  41  65  87 125 154 200 256 309 353
#     4   9  20  44  63  88 120 159 200 250 307 365
#     4  10  20  40  63  88 113 166 203 240 298 369
#     4  11  26  40  59  91 127 159 207 257 299 350
#     4  11  21  40  63  89 118 170 205 238 296 369
#     4  11  21  37  65  88 123 154 208 248 293 370
#     4  11  22  42  57  94 124 154 205 255 303 355
#
# _framework density 20.498124000000001
#
# number of rings (size 3 to 8) (size 9 to 14) (size 15 to 20)
#    0.750    0.750    6.250    0.375    1.750    1.500 
#    4.500    0.625    0.000    0.000    0.000    0.000 
#    0.000    0.000    0.000    0.000    0.000    0.000 
#
# Total GULP energy -198229.262099 kJ/mol
# GULP energy per Si atom -12389.328881 kJ/mol
# Density = 2.045147 g / cm^3
# Si number density = 20.498124 Si / 1000 Ang^3
#
#
#
# Elastic Constant Matrix: (Units=GPa)
#
#
# Indices 1 2 3 4 5 6 
#
# 1 82.1587 25.4040 43.6442 5.0889 -9.0972 4.1017
# 2 25.4040 69.1884 30.6521 -14.0498 -16.4435 11.2067
# 3 43.6442 30.6521 95.3964 -14.6441 -13.6250 -13.4580
# 4 5.0889 -14.0498 -14.6441 33.8486 -3.2688 -1.5460
# 5 -9.0972 -16.4435 -13.6250 -3.2688 24.8558 6.5076
# 6 4.1017 11.2067 -13.4580 -1.5460 6.5076 35.7960
#
#
#
# Elastic Compliance Matrix: (Units=1/GPa)
#
#
# Indices 1 2 3 4 5 6 
#
# 1 0.019303 -0.004048 -0.009735 -0.009100 -0.000880 -0.004838
# 2 -0.004048 0.026254 -0.003988 0.010997 0.018318 -0.012110
# 3 -0.009735 -0.003988 0.019367 0.008920 0.003109 0.009465
# 4 -0.009100 0.010997 0.008920 0.040708 0.014151 0.000139
# 5 -0.000880 0.018318 0.003109 0.014151 0.059432 -0.014658
# 6 -0.004838 -0.012110 0.009465 0.000139 -0.014658 0.038511
#
#
# Mechanical properties :
#
#
# Convention : Reuss Voigt Hill
#
# Bulk Modulus (GPa) = 34.03563 49.57157 41.80360
# Shear Modulus (GPa) = 20.08751 28.70295 24.39523
#
# Velocity S-wave (km/s) = 3.13384 3.74608 3.45355
# Velocity P-wave (km/s) = 5.45297 6.55338 6.02834
#
# Compressibility (1/GPa) = 0.02938098
#
# Stress axis : x y z
#
# Youngs Moduli (GPa) = 51.80661 38.08884 51.63505
#
# Poissons Ratio (x) = 0.15417 0.50269
# Poissons Ratio (y) = 0.20970 0.20593
# Poissons Ratio (z) = 0.50436 0.15191
#
# Static dielectric constant tensor:
#      x y z
#    x 3.676120 0.170130 0.142870 
#    y 0.170130 3.994810 -0.050030 
#    z 0.142870 -0.050030 3.860350 
# 
# 
# High freq. dielectric constant tensor:
#      x y z
#    x 1.783690 0.016430 0.012710 
#    y 0.016430 1.805930 -0.016860 
#    z 0.012710 -0.016860 1.784900 
# 
# From -- ./inp_files/495435.got.cif
#   From: 2010.06.25/outbox.cif.g09.slc.cpg/sg2_248_cif.got.tgz:495435.got - 2010.06.27 13:26:56.
