data_PCOD8006308
_publ_section_title
;
Structure prediction by ZEFSAII (Michael W. Deem and Ramdas Pophale) SiO2 
 PCOD8006308
Probable space group: P -1
;
_chemical_formula_sum "Si O2"
_cell_formula_units_Z 16
_cell_length_a 9.450077
_cell_length_b 14.238969
_cell_length_c 21.882748
_cell_angle_alpha 153.652540
_cell_angle_beta 46.329129
_cell_angle_gamma 142.901487
_cell_volume 785.023037
_symmetry_space_group_name_H-M "P -1"
_symmetry_group_IT_number 2
_symmetry_cell_setting 'triclinic'
loop_
_space_group_symop_operation_xyz
x,y,z
-x,-y,-z
loop_
_atom_site_type_symbol
_atom_site_label
_atom_site_fract_x
_atom_site_fract_y
_atom_site_fract_z
Si Si1 0.205324 0.990576 0.964601
Si Si2 0.453792 0.504553 0.243677
Si Si3 0.311015 0.898507 0.133535
Si Si4 0.274275 0.656817 0.498468
Si Si5 0.075294 0.424395 0.842455
Si Si6 0.443560 0.858729 0.369972
Si Si7 0.966353 0.566929 0.278458
Si Si8 0.502021 0.534528 0.591788
O O1 0.439359 0.060774 0.897049
O O2 0.089420 0.712320 0.862229
O O3 0.309513 0.199004 0.108795
O O4 0.000000 0.000000 0.000000
O O5 0.326635 0.564768 0.367399
O O6 0.725579 0.635337 0.255053
O O7 0.449817 0.611319 0.239124
O O8 0.141730 0.785816 0.175845
O O9 0.347819 0.166332 0.260824
O O10 0.189420 0.709234 0.001421
O O11 0.390696 0.611990 0.495647
O O12 0.000000 0.500000 0.500000
O O13 0.375513 0.955592 0.629222
O O14 0.971711 0.378538 0.779171
O O15 0.185130 0.768061 0.371753
O O16 0.500000 0.000000 0.500000
O O17 0.758200 0.594148 0.378494
O O18 0.500000 0.500000 0.500000
#
# Coordination Sequence:
#
# PCOD8006308 Si02
#       8
#     2   2   2   2   2   2   2   2
#     4  10  20  39  67  95 127 164 203 260 329 383
#     4  10  21  42  67  90 128 170 208 262 331 379
#     4   9  23  40  66  95 133 160 216 266 331 370
#     4  11  26  42  61  93 126 171 217 262 315 383
#     4  10  21  42  69  96 123 166 217 274 319 384
#     4  10  24  42  61  89 127 169 210 259 319 380
#     4  11  23  42  69  95 125 167 226 265 314 396
#     4  11  26  40  63  95 130 176 212 266 319 376
#
# _framework density 20.381567
#
# number of rings (size 3 to 8) (size 9 to 14) (size 15 to 20)
#    0.000    1.750    2.500    0.000    8.750    3.000 
#    0.000    0.625    0.000    0.000    0.000    0.000 
#    0.000    0.000    0.000    0.000    0.000    0.000 
#
# Total GULP energy -198277.029459 kJ/mol
# GULP energy per Si atom -12392.314341 kJ/mol
# Density = 2.033518 g / cm^3
# Si number density = 20.381567 Si / 1000 Ang^3
#
#
#
# Elastic Constant Matrix: (Units=GPa)
#
#
# Indices 1 2 3 4 5 6 
#
# 1 142.4389 63.1018 29.2431 2.4295 0.2746 -0.5583
# 2 63.1018 132.5784 36.0794 0.2388 4.5241 5.4590
# 3 29.2431 36.0794 59.7914 -0.7091 1.8841 -1.8808
# 4 2.4295 0.2388 -0.7091 29.9436 1.6878 3.1885
# 5 0.2746 4.5241 1.8841 1.6878 29.9848 0.1549
# 6 -0.5583 5.4590 -1.8808 3.1885 0.1549 36.0052
#
#
#
# Elastic Compliance Matrix: (Units=1/GPa)
#
#
# Indices 1 2 3 4 5 6 
#
# 1 0.009181 -0.003822 -0.002194 -0.000877 0.000676 0.000682
# 2 -0.003822 0.010747 -0.004631 0.000397 -0.001308 -0.001960
# 3 -0.002194 -0.004631 0.020672 0.000558 -0.000620 0.001701
# 4 -0.000877 0.000397 0.000558 0.033913 -0.001980 -0.003039
# 5 0.000676 -0.001308 -0.000620 -0.001980 0.033691 0.000207
# 6 0.000682 -0.001960 0.001701 -0.003039 0.000207 0.028439
#
#
# Mechanical properties :
#
#
# Convention : Reuss Voigt Hill
#
# Bulk Modulus (GPa) = 51.80059 65.73971 58.77015
# Shear Modulus (GPa) = 30.41898 32.94568 31.68233
#
# Velocity S-wave (km/s) = 3.86745 4.02487 3.94694
# Velocity P-wave (km/s) = 6.73895 7.34329 7.04760
#
# Compressibility (1/GPa) = 0.01930480
#
# Stress axis : x y z
#
# Youngs Moduli (GPa) = 108.92613 93.05092 48.37424
#
# Poissons Ratio (x) = 0.35565 0.10613
# Poissons Ratio (y) = 0.41632 0.22403
# Poissons Ratio (z) = 0.23899 0.43094
#
# Static dielectric constant tensor:
#      x y z
#    x 3.202670 0.045650 -0.073240 
#    y 0.045650 4.006470 0.383350 
#    z -0.073240 0.383350 4.020570 
# 
# 
# High freq. dielectric constant tensor:
#      x y z
#    x 1.797350 0.008340 -0.003810 
#    y 0.008340 1.800290 0.015230 
#    z -0.003810 0.015230 1.798720 
# 
# From -- ./inp_files/189240.got.cif
#   From: 2010.06.25/outbox.cif.g09.slc.cpg/sg2_95_cif.got.tgz:189240.got - 2010.06.27 13:26:56.
