data_PCOD8006085
_publ_section_title
;
Structure prediction by ZEFSAII (Michael W. Deem and Ramdas Pophale) SiO2 
 PCOD8006085
Probable space group: P -1
;
_chemical_formula_sum "Si O2"
_cell_formula_units_Z 12
_cell_length_a 9.470165
_cell_length_b 8.726108
_cell_length_c 11.526067
_cell_angle_alpha 118.610874
_cell_angle_beta 125.973234
_cell_angle_gamma 50.445350
_cell_volume 585.890239
_symmetry_space_group_name_H-M "P -1"
_symmetry_group_IT_number 2
_symmetry_cell_setting 'triclinic'
loop_
_space_group_symop_operation_xyz
x,y,z
-x,-y,-z
loop_
_atom_site_type_symbol
_atom_site_label
_atom_site_fract_x
_atom_site_fract_y
_atom_site_fract_z
Si Si1 0.337952 0.065976 0.740016
Si Si2 0.600266 0.263991 0.954667
Si Si3 0.142397 0.908876 0.761597
Si Si4 0.953931 0.373034 0.523737
Si Si5 0.288420 0.895047 0.300686
Si Si6 0.371735 0.239199 0.410349
O O1 0.433200 0.200184 0.874584
O O2 0.158070 0.194239 0.610591
O O3 0.260274 0.008576 0.795560
O O4 0.505511 0.860335 0.684080
O O5 0.697436 0.198838 0.851819
O O6 0.500000 0.500000 0.000000
O O7 0.776207 0.162250 0.096306
O O8 0.168180 0.722641 0.629816
O O9 0.908403 0.079495 0.720616
O O10 0.808121 0.529612 0.609775
O O11 0.000000 0.500000 0.500000
O O12 0.484209 0.750261 0.417900
O O13 0.268753 0.114072 0.362026
#
# Coordination Sequence:
#
# PCOD8006085 Si02
#       6
#     2   2   2   2   2   2
#     4  11  25  43  62  95 134 159 203 270 317 362
#     4  11  24  43  65  89 123 173 217 249 308 384
#     4  12  23  41  64  94 131 163 204 266 319 356
#     4  12  21  39  70  94 123 166 216 249 302 387
#     4  10  20  39  65  91 125 163 211 258 307 370
#     4  10  20  39  65  95 123 164 209 253 311 370
#
# _framework density 20.481650999999999
#
# number of rings (size 3 to 8) (size 9 to 14) (size 15 to 20)
#    0.000    1.000    3.333    5.500    0.000    0.667 
#    3.000    0.833    0.000    0.000    0.000    0.000 
#    0.000    0.000    0.000    0.000    0.000    0.000 
#
# Total GULP energy -148841.951195 kJ/mol
# GULP energy per Si atom -12403.495933 kJ/mol
# Density = 2.043503 g / cm^3
# Si number density = 20.481651 Si / 1000 Ang^3
#
#
#
# Elastic Constant Matrix: (Units=GPa)
#
#
# Indices 1 2 3 4 5 6 
#
# 1 116.3213 41.4701 9.8392 16.7188 9.7955 -15.2739
# 2 41.4701 90.2109 30.8604 20.6324 -0.2746 -18.8871
# 3 9.8392 30.8604 92.1192 13.3348 10.0980 -10.2064
# 4 16.7188 20.6324 13.3348 29.4262 4.3776 -1.1086
# 5 9.7955 -0.2746 10.0980 4.3776 24.8823 0.7458
# 6 -15.2739 -18.8871 -10.2064 -1.1086 0.7458 29.1401
#
#
#
# Elastic Compliance Matrix: (Units=1/GPa)
#
#
# Indices 1 2 3 4 5 6 
#
# 1 0.011340 -0.004220 0.001623 -0.003380 -0.004688 0.003768
# 2 -0.004220 0.018025 -0.003989 -0.008862 0.004810 0.007614
# 3 0.001623 -0.003989 0.013442 -0.003263 -0.005654 0.002994
# 4 -0.003380 -0.008862 -0.003263 0.044080 -0.004993 -0.006854
# 5 -0.004688 0.004810 -0.005654 -0.004993 0.045341 -0.002670
# 6 0.003768 0.007614 0.002994 -0.006854 -0.002670 0.042083
#
#
# Mechanical properties :
#
#
# Convention : Reuss Voigt Hill
#
# Bulk Modulus (GPa) = 33.74349 51.44342 42.59346
# Shear Modulus (GPa) = 25.33421 31.12182 28.22802
#
# Velocity S-wave (km/s) = 3.52081 3.90230 3.71645
# Velocity P-wave (km/s) = 5.74794 6.74354 6.26555
#
# Compressibility (1/GPa) = 0.02963535
#
# Stress axis : x y z
#
# Youngs Moduli (GPa) = 88.18705 55.47759 74.39237
#
# Poissons Ratio (x) = 0.23414 -0.12076
# Poissons Ratio (y) = 0.37219 0.29673
# Poissons Ratio (z) = -0.14315 0.22128
#
# Static dielectric constant tensor:
#      x y z
#    x 3.766990 -0.210000 -0.034790 
#    y -0.210000 3.857960 0.123370 
#    z -0.034790 0.123370 4.080270 
# 
# 
# High freq. dielectric constant tensor:
#      x y z
#    x 1.800750 -0.016580 0.006810 
#    y -0.016580 1.795530 0.007110 
#    z 0.006810 0.007110 1.805090 
# 
# From -- ./inp_files/145848.got.cif
#   From: 2010.06.25/outbox.cif.g09.slc.cpg/sg2_73_cif.got.tgz:145848.got - 2010.06.27 13:26:56.
