data_PCOD8006745
_publ_section_title
;
Structure prediction by ZEFSAII (Michael W. Deem and Ramdas Pophale) SiO2 
 PCOD8006745
Probable space group: P -1
;
_chemical_formula_sum "Si O2"
_cell_formula_units_Z 16
_cell_length_a 12.988351
_cell_length_b 11.994316
_cell_length_c 9.592719
_cell_angle_alpha 87.737533
_cell_angle_beta 126.053067
_cell_angle_gamma 131.059984
_cell_volume 748.910183
_symmetry_space_group_name_H-M "P -1"
_symmetry_group_IT_number 2
_symmetry_cell_setting 'triclinic'
loop_
_space_group_symop_operation_xyz
x,y,z
-x,-y,-z
loop_
_atom_site_type_symbol
_atom_site_label
_atom_site_fract_x
_atom_site_fract_y
_atom_site_fract_z
Si Si1 0.421674 0.699226 0.215537
Si Si2 0.679770 0.303662 0.166960
Si Si3 0.009859 0.920935 0.698473
Si Si4 0.469166 0.465923 0.638537
Si Si5 0.605953 0.190964 0.540830
Si Si6 0.111936 0.692867 0.473072
Si Si7 0.615101 0.803121 0.845068
Si Si8 0.125573 0.945657 0.500664
O O1 0.392377 0.544536 0.197917
O O2 0.322204 0.693642 0.269055
O O3 0.662478 0.876418 0.408553
O O4 0.339153 0.707282 0.013661
O O5 0.710142 0.201748 0.269191
O O6 0.497765 0.245854 0.097417
O O7 0.895054 0.506496 0.370071
O O8 0.126221 0.931222 0.669706
O O9 0.776542 0.716677 0.528137
O O10 0.033000 0.067215 0.667547
O O11 0.141509 0.005020 0.942712
O O12 0.500000 0.500000 0.500000
O O13 0.559372 0.636378 0.778430
O O14 0.811118 0.316479 0.605659
O O15 0.445982 0.159606 0.332891
O O16 0.500000 0.000000 0.500000
O O17 0.072936 0.793058 0.395688
#
# Coordination Sequence:
#
# PCOD8006745 Si02
#       8
#     2   2   2   2   2   2   2   2
#     4  11  22  41  64  92 129 165 212 264 323 369
#     4  10  23  40  64  96 120 167 218 263 317 377
#     4  10  23  40  67  98 126 167 216 262 321 382
#     4  11  24  43  63  96 140 164 206 271 317 390
#     4  11  23  42  64  93 130 171 212 263 316 389
#     4  10  22  40  64  89 130 166 211 269 314 378
#     4  11  23  44  70  95 127 171 217 258 329 376
#     4  10  20  40  63  95 125 159 214 269 311 373
#
# _framework density 21.364379
#
# number of rings (size 3 to 8) (size 9 to 14) (size 15 to 20)
#    0.000    1.500    3.750    0.750    1.750    3.000 
#    2.250    0.000    0.000    0.000    0.000    0.000 
#    0.000    0.000    0.000    0.000    0.000    0.000 
#
# Total GULP energy -198235.970718 kJ/mol
# GULP energy per Si atom -12389.748170 kJ/mol
# Density = 2.131575 g / cm^3
# Si number density = 21.364379 Si / 1000 Ang^3
#
#
#
# Elastic Constant Matrix: (Units=GPa)
#
#
# Indices 1 2 3 4 5 6 
#
# 1 99.1005 26.4314 32.1860 -10.2031 -9.2202 -8.2840
# 2 26.4314 72.6212 11.5408 -10.5479 -1.7001 -9.6425
# 3 32.1860 11.5408 91.5654 -12.2638 -15.1734 -0.8777
# 4 -10.2031 -10.5479 -12.2638 32.7481 8.9124 -4.6039
# 5 -9.2202 -1.7001 -15.1734 8.9124 21.9689 -3.3890
# 6 -8.2840 -9.6425 -0.8777 -4.6039 -3.3890 37.1172
#
#
#
# Elastic Compliance Matrix: (Units=1/GPa)
#
#
# Indices 1 2 3 4 5 6 
#
# 1 0.012688 -0.003558 -0.003412 0.001140 0.002571 0.002203
# 2 -0.003558 0.016340 -0.000419 0.005084 -0.001980 0.003891
# 3 -0.003412 -0.000419 0.013637 0.002000 0.007198 0.000358
# 4 0.001140 0.005084 0.002000 0.037289 -0.012080 0.005144
# 5 0.002571 -0.001980 0.007198 -0.012080 0.056923 0.003929
# 6 0.002203 0.003891 0.000358 0.005144 0.003929 0.029449
#
#
# Mechanical properties :
#
#
# Convention : Reuss Voigt Hill
#
# Bulk Modulus (GPa) = 35.85629 44.84481 40.35055
# Shear Modulus (GPa) = 26.26042 31.24211 28.75126
#
# Velocity S-wave (km/s) = 3.50975 3.82821 3.67244
# Velocity P-wave (km/s) = 5.76577 6.36995 6.07538
#
# Compressibility (1/GPa) = 0.02788911
#
# Stress axis : x y z
#
# Youngs Moduli (GPa) = 78.81179 61.19900 73.32752
#
# Poissons Ratio (x) = 0.21773 0.25019
# Poissons Ratio (y) = 0.28039 0.03072
# Poissons Ratio (z) = 0.26890 0.02564
#
# Static dielectric constant tensor:
#      x y z
#    x 4.750540 -0.811520 0.092860 
#    y -0.811520 4.809650 -0.034160 
#    z 0.092860 -0.034160 4.471690 
# 
# 
# High freq. dielectric constant tensor:
#      x y z
#    x 1.848380 -0.000970 0.004350 
#    y -0.000970 1.840020 -0.016320 
#    z 0.004350 -0.016320 1.823170 
# 
# From -- ./inp_files/262579.got.cif
#   From: 2010.06.25/outbox.cif.g09.slc.cpg/sg2_132_cif.got.tgz:262579.got - 2010.06.27 13:26:56.
