data_PCOD8006208
_publ_section_title
;
Structure prediction by ZEFSAII (Michael W. Deem and Ramdas Pophale) SiO2 
 PCOD8006208
Probable space group: P -1
;
_chemical_formula_sum "Si O2"
_cell_formula_units_Z 16
_cell_length_a 9.338108
_cell_length_b 12.468098
_cell_length_c 14.448627
_cell_angle_alpha 30.199133
_cell_angle_beta 100.314710
_cell_angle_gamma 113.711320
_cell_volume 721.027506
_symmetry_space_group_name_H-M "P -1"
_symmetry_group_IT_number 2
_symmetry_cell_setting 'triclinic'
loop_
_space_group_symop_operation_xyz
x,y,z
-x,-y,-z
loop_
_atom_site_type_symbol
_atom_site_label
_atom_site_fract_x
_atom_site_fract_y
_atom_site_fract_z
Si Si1 0.543357 0.595261 0.189031
Si Si2 0.689872 0.074848 0.940466
Si Si3 0.812907 0.051136 0.164966
Si Si4 0.612768 0.158530 0.479043
Si Si5 0.603915 0.227297 0.113179
Si Si6 0.918550 0.714895 0.824589
Si Si7 0.245521 0.430852 0.411321
Si Si8 0.065311 0.804527 0.580214
O O1 0.695512 0.873950 0.023148
O O2 0.601548 0.399600 0.321344
O O3 0.425046 0.509867 0.328415
O O4 0.452567 0.618161 0.071523
O O5 0.814470 0.125370 0.003886
O O6 0.500000 0.000000 0.000000
O O7 0.760378 0.346804 0.700701
O O8 0.789953 0.779631 0.362567
O O9 0.656387 0.056396 0.189839
O O10 0.982680 0.226974 0.109954
O O11 0.807954 0.269081 0.396252
O O12 0.500000 0.000000 0.500000
O O13 0.551324 0.962179 0.701416
O O14 0.764334 0.440355 0.027344
O O15 0.042364 0.736759 0.737552
O O16 0.855158 0.904008 0.648087
O O17 0.116755 0.340330 0.378601
#
# Coordination Sequence:
#
# PCOD8006208 Si02
#       8
#     2   2   2   2   2   2   2   2
#     4  11  23  42  65  94 129 171 215 267 316 384
#     4  10  21  38  63  98 124 162 220 277 309 366
#     4  11  20  34  64 100 122 162 218 271 317 368
#     4  12  27  41  62  96 138 172 204 261 334 384
#     4  12  22  40  64  95 130 173 211 260 322 389
#     4  10  21  37  68  96 127 169 220 261 314 387
#     4  10  20  39  66  93 123 167 217 266 311 373
#     4  10  21  41  64  94 135 168 209 271 322 377
#
# _framework density 22.190553999999999
#
# number of rings (size 3 to 8) (size 9 to 14) (size 15 to 20)
#    0.000    1.250    5.000    1.875    1.750    6.000 
#    0.000    3.125    0.000    3.750    0.000    0.000 
#    0.000    0.000    0.000    0.000    0.000    0.000 
#
# Total GULP energy -198283.414084 kJ/mol
# GULP energy per Si atom -12392.713380 kJ/mol
# Density = 2.214005 g / cm^3
# Si number density = 22.190554 Si / 1000 Ang^3
#
#
#
# Elastic Constant Matrix: (Units=GPa)
#
#
# Indices 1 2 3 4 5 6 
#
# 1 80.9471 24.9429 38.7131 -10.3420 10.6812 -8.1523
# 2 24.9429 73.6994 39.1126 -19.4758 10.0199 0.8074
# 3 38.7131 39.1126 123.7625 -35.6551 22.0745 -3.4806
# 4 -10.3420 -19.4758 -35.6551 40.3685 -5.0266 14.3079
# 5 10.6812 10.0199 22.0745 -5.0266 24.3940 -1.1593
# 6 -8.1523 0.8074 -3.4806 14.3079 -1.1593 26.7888
#
#
#
# Elastic Compliance Matrix: (Units=1/GPa)
#
#
# Indices 1 2 3 4 5 6 
#
# 1 0.016121 -0.004046 -0.004509 -0.004426 -0.001908 0.006723
# 2 -0.004046 0.018574 -0.001945 0.008183 -0.002722 -0.006532
# 3 -0.004509 -0.001945 0.015010 0.012339 -0.008568 -0.006324
# 4 -0.004426 0.008183 0.012339 0.046911 -0.004121 -0.025224
# 5 -0.001908 -0.002722 -0.008568 -0.004121 0.049982 0.002752
# 6 0.006723 -0.006532 -0.006324 -0.025224 0.002752 0.052341
#
#
# Mechanical properties :
#
#
# Convention : Reuss Voigt Hill
#
# Bulk Modulus (GPa) = 34.83900 53.77179 44.30540
# Shear Modulus (GPa) = 21.78568 30.01961 25.90264
#
# Velocity S-wave (km/s) = 3.13670 3.68205 3.42026
# Velocity P-wave (km/s) = 5.37145 6.50854 5.96714
#
# Compressibility (1/GPa) = 0.02870347
#
# Stress axis : x y z
#
# Youngs Moduli (GPa) = 62.03216 53.83755 66.62151
#
# Poissons Ratio (x) = 0.21785 0.30041
# Poissons Ratio (y) = 0.25101 0.12959
# Poissons Ratio (z) = 0.27972 0.10472
#
# Static dielectric constant tensor:
#      x y z
#    x 3.956080 0.028230 0.244930 
#    y 0.028230 4.150320 -0.369570 
#    z 0.244930 -0.369570 4.403940 
# 
# 
# High freq. dielectric constant tensor:
#      x y z
#    x 1.838800 0.018260 0.026950 
#    y 0.018260 1.863110 -0.018480 
#    z 0.026950 -0.018480 1.895700 
# 
# From -- ./inp_files/469998.got.cif
#   From: 2010.06.25/outbox.cif.g09.slc.cpg/sg2_235_cif.got.tgz:469998.got - 2010.06.27 13:26:56.
