data_PCOD8006336
_publ_section_title
;
Structure prediction by ZEFSAII (Michael W. Deem and Ramdas Pophale) SiO2 
 PCOD8006336
Probable space group: P -1
;
_chemical_formula_sum "Si O2"
_cell_formula_units_Z 12
_cell_length_a 9.011900
_cell_length_b 8.098396
_cell_length_c 12.194070
_cell_angle_alpha 99.014313
_cell_angle_beta 141.825162
_cell_angle_gamma 104.697250
_cell_volume 427.344585
_symmetry_space_group_name_H-M "P -1"
_symmetry_group_IT_number 2
_symmetry_cell_setting 'triclinic'
loop_
_space_group_symop_operation_xyz
x,y,z
-x,-y,-z
loop_
_atom_site_type_symbol
_atom_site_label
_atom_site_fract_x
_atom_site_fract_y
_atom_site_fract_z
Si Si1 0.180816 0.073945 0.373150
Si Si2 0.993776 0.688596 0.829202
Si Si3 0.749744 0.141606 0.785418
Si Si4 0.416072 0.196731 0.888793
Si Si5 0.685570 0.527330 0.265265
Si Si6 0.711051 0.332292 0.463679
O O1 0.511886 0.189839 0.631644
O O2 0.934894 0.012904 0.319269
O O3 0.097693 0.862129 0.239422
O O4 0.196732 0.233531 0.313412
O O5 0.842275 0.454416 0.669741
O O6 0.351382 0.852675 0.013713
O O7 0.993875 0.685925 0.961839
O O8 0.584002 0.906411 0.714496
O O9 0.443510 0.344732 0.822776
O O10 0.510992 0.311077 0.072950
O O11 0.640117 0.464956 0.360870
O O12 0.042369 0.678167 0.455144
#
# Coordination Sequence:
#
# PCOD8006336 Si02
#       6
#     2   2   2   2   2   2
#     4  11  24  44  66  96 137 174 213 267 333 390
#     4  11  25  41  69 103 124 172 226 270 319 384
#     4  11  25  46  67  94 137 178 209 268 332 390
#     4  10  20  39  68 100 130 167 222 272 324 382
#     4   9  19  36  66  99 131 170 212 275 330 374
#     4  10  21  42  66  96 133 169 219 270 323 386
#
# _framework density 28.080385
#
# number of rings (size 3 to 8) (size 9 to 14) (size 15 to 20)
#    0.000    1.667    1.667    2.000    2.333    4.000 
#    0.000    3.333    0.000    0.000    0.000    0.000 
#    0.000    0.000    0.000    0.000    0.000    0.000 
#
# Total GULP energy -148826.219861 kJ/mol
# GULP energy per Si atom -12402.184988 kJ/mol
# Density = 2.801647 g / cm^3
# Si number density = 28.080385 Si / 1000 Ang^3
#
#
#
# Elastic Constant Matrix: (Units=GPa)
#
#
# Indices 1 2 3 4 5 6 
#
# 1 69.6394 3.1010 18.3040 -0.6501 5.0754 -11.4696
# 2 3.1010 69.6780 39.0272 -33.2892 5.4217 -7.2917
# 3 18.3040 39.0272 104.0742 -24.3588 -31.8669 -3.0211
# 4 -0.6501 -33.2892 -24.3588 37.1144 -4.9720 4.6441
# 5 5.0754 5.4217 -31.8669 -4.9720 49.7042 0.3415
# 6 -11.4696 -7.2917 -3.0211 4.6441 0.3415 31.8257
#
#
#
# Elastic Compliance Matrix: (Units=1/GPa)
#
#
# Indices 1 2 3 4 5 6 
#
# 1 0.017639 0.002530 -0.006811 -0.003674 -0.006859 0.006900
# 2 0.002530 0.029460 -0.009276 0.018853 -0.007561 0.004111
# 3 -0.006811 -0.009276 0.020894 0.007897 0.015920 -0.003920
# 4 -0.003674 0.018853 0.007897 0.050573 0.008466 -0.003725
# 5 -0.006859 -0.007561 0.015920 0.008466 0.032727 -0.004280
# 6 0.006900 0.004111 -0.003920 -0.003725 -0.004280 0.035067
#
#
# Mechanical properties :
#
#
# Convention : Reuss Voigt Hill
#
# Bulk Modulus (GPa) = 24.46120 40.47291 32.46706
# Shear Modulus (GPa) = 22.01677 35.92615 28.97146
#
# Velocity S-wave (km/s) = 2.80315 3.58076 3.21554
# Velocity P-wave (km/s) = 4.38257 5.61607 5.03722
#
# Compressibility (1/GPa) = 0.04088106
#
# Stress axis : x y z
#
# Youngs Moduli (GPa) = 56.69211 33.94392 47.86111
#
# Poissons Ratio (x) = -0.08589 0.32597
# Poissons Ratio (y) = -0.14345 0.44394
# Poissons Ratio (z) = 0.38612 0.31485
#
# Static dielectric constant tensor:
#      x y z
#    x 5.209140 -0.153370 -0.058650 
#    y -0.153370 4.555570 -0.331490 
#    z -0.058650 -0.331490 5.128970 
# 
# 
# High freq. dielectric constant tensor:
#      x y z
#    x 2.136250 -0.008510 0.000370 
#    y -0.008510 2.115280 -0.020850 
#    z 0.000370 -0.020850 2.134510 
# 
# From -- ./inp_files/173293.got.cif
#   From: 2010.06.25/outbox.cif.g09.slc.cpg/sg2_87_cif.got.tgz:173293.got - 2010.06.27 13:26:56.
