data_PCOD8006666
_publ_section_title
;
Structure prediction by ZEFSAII (Michael W. Deem and Ramdas Pophale) SiO2 
 PCOD8006666
Probable space group: P -1
;
_chemical_formula_sum "Si O2"
_cell_formula_units_Z 16
_cell_length_a 10.052420
_cell_length_b 16.749911
_cell_length_c 5.351415
_cell_angle_alpha 53.636671
_cell_angle_beta 91.803338
_cell_angle_gamma 92.205385
_cell_volume 725.017057
_symmetry_space_group_name_H-M "P -1"
_symmetry_group_IT_number 2
_symmetry_cell_setting 'triclinic'
loop_
_space_group_symop_operation_xyz
x,y,z
-x,-y,-z
loop_
_atom_site_type_symbol
_atom_site_label
_atom_site_fract_x
_atom_site_fract_y
_atom_site_fract_z
Si Si1 0.542848 0.157302 0.257679
Si Si2 0.698612 0.831312 0.476613
Si Si3 0.835684 0.648398 0.706584
Si Si4 0.097911 0.091967 0.289532
Si Si5 0.361617 0.023519 0.174654
Si Si6 0.707079 0.343364 0.779762
Si Si7 0.987361 0.697042 0.142983
Si Si8 0.354180 0.540469 0.940052
O O1 0.414054 0.212308 0.259963
O O2 0.488536 0.075679 0.214322
O O3 0.630569 0.095539 0.580703
O O4 0.638504 0.234887 0.980717
O O5 0.734843 0.738968 0.471469
O O6 0.838672 0.870016 0.520443
O O7 0.628917 0.930978 0.186041
O O8 0.933555 0.638467 0.494132
O O9 0.906097 0.667445 0.943012
O O10 0.755044 0.546578 0.913938
O O11 0.216997 0.060700 0.177188
O O12 0.018046 0.185793 0.005559
O O13 0.000000 0.000000 0.500000
O O14 0.671347 0.387935 0.427249
O O15 0.863782 0.334577 0.835653
O O16 0.653575 0.404678 0.896822
O O17 0.500000 0.500000 0.000000
#
# Coordination Sequence:
#
# PCOD8006666 Si02
#       8
#     2   2   2   2   2   2   2   2
#     4  10  23  38  64  94 136 172 223 278 327 401
#     4  10  21  39  64  94 127 180 223 275 333 390
#     4  11  24  45  72  95 135 179 226 279 325 413
#     4  10  21  38  60  95 134 176 225 272 324 398
#     4  10  20  40  62  94 127 183 224 261 342 387
#     4  12  27  46  68 105 138 172 220 287 333 396
#     4  11  24  45  68 100 136 181 224 267 342 390
#     4  12  28  47  73 103 131 175 225 277 348 392
#
# _framework density 22.068445000000001
#
# number of rings (size 3 to 8) (size 9 to 14) (size 15 to 20)
#    0.000    1.250    1.250    3.750    3.500    3.500 
#    4.500    0.000    0.000    0.000    0.000    0.000 
#    0.000    0.000    0.000    0.000    0.000    0.000 
#
# Total GULP energy -198283.500457 kJ/mol
# GULP energy per Si atom -12392.718779 kJ/mol
# Density = 2.201822 g / cm^3
# Si number density = 22.068445 Si / 1000 Ang^3
#
#
#
# Elastic Constant Matrix: (Units=GPa)
#
#
# Indices 1 2 3 4 5 6 
#
# 1 106.5942 30.0692 41.0529 -13.6824 -10.9786 -5.4089
# 2 30.0692 60.0313 30.0811 -3.0628 -18.0107 -6.8348
# 3 41.0529 30.0811 129.2111 -14.9613 -16.3722 7.9977
# 4 -13.6824 -3.0628 -14.9613 40.2477 0.9811 -3.9025
# 5 -10.9786 -18.0107 -16.3722 0.9811 37.7995 -4.0695
# 6 -5.4089 -6.8348 7.9977 -3.9025 -4.0695 28.4164
#
#
#
# Elastic Compliance Matrix: (Units=1/GPa)
#
#
# Indices 1 2 3 4 5 6 
#
# 1 0.012146 -0.004136 -0.002621 0.003074 0.000618 0.002565
# 2 -0.004136 0.024237 -0.003620 -0.000426 0.009584 0.007375
# 3 -0.002621 -0.003620 0.010077 0.002186 0.001424 -0.003702
# 4 0.003074 -0.000426 0.002186 0.027004 0.001341 0.003768
# 5 0.000618 0.009584 0.001424 0.001341 0.032523 0.006864
# 6 0.002565 0.007375 -0.003702 0.003768 0.006864 0.039995
#
#
# Mechanical properties :
#
#
# Convention : Reuss Voigt Hill
#
# Bulk Modulus (GPa) = 38.89990 55.36034 47.13012
# Shear Modulus (GPa) = 28.52185 34.26826 31.39505
#
# Velocity S-wave (km/s) = 3.59893 3.94485 3.77586
# Velocity P-wave (km/s) = 5.91058 6.77417 6.35706
#
# Compressibility (1/GPa) = 0.02570701
#
# Stress axis : x y z
#
# Youngs Moduli (GPa) = 82.33280 41.25902 99.23390
#
# Poissons Ratio (x) = 0.17066 0.26005
# Poissons Ratio (y) = 0.34055 0.35920
# Poissons Ratio (z) = 0.21576 0.14935
#
# Static dielectric constant tensor:
#      x y z
#    x 4.210010 -0.199990 0.160590 
#    y -0.199990 4.152540 0.049970 
#    z 0.160590 0.049970 4.559890 
# 
# 
# High freq. dielectric constant tensor:
#      x y z
#    x 1.882370 -0.011790 -0.001840 
#    y -0.011790 1.860020 -0.005110 
#    z -0.001840 -0.005110 1.881480 
# 
# From -- ./inp_files/46292.got.cif
#   From: 2010.06.25/outbox.cif.g09.slc.cpg/sg2_24_cif.got.tgz:46292.got - 2010.06.27 13:26:56.
