data_PCOD8006130
_publ_section_title
;
Structure prediction by ZEFSAII (Michael W. Deem and Ramdas Pophale) SiO2 
 PCOD8006130
Probable space group: P -1
;
_chemical_formula_sum "Si O2"
_cell_formula_units_Z 16
_cell_length_a 12.311679
_cell_length_b 8.889620
_cell_length_c 10.884972
_cell_angle_alpha 127.560091
_cell_angle_beta 121.040915
_cell_angle_gamma 55.012553
_cell_volume 747.970100
_symmetry_space_group_name_H-M "P -1"
_symmetry_group_IT_number 2
_symmetry_cell_setting 'triclinic'
loop_
_space_group_symop_operation_xyz
x,y,z
-x,-y,-z
loop_
_atom_site_type_symbol
_atom_site_label
_atom_site_fract_x
_atom_site_fract_y
_atom_site_fract_z
Si Si1 0.624327 0.335325 0.799495
Si Si2 0.726947 0.973381 0.070121
Si Si3 0.578006 0.843095 0.360991
Si Si4 0.555144 0.730055 0.831808
Si Si5 0.144824 0.831416 0.962965
Si Si6 0.877153 0.570625 0.366886
Si Si7 0.123287 0.068663 0.625918
Si Si8 0.604622 0.203180 0.446109
O O1 0.506787 0.298809 0.793815
O O2 0.600376 0.573007 0.894018
O O3 0.606760 0.272740 0.619896
O O4 0.771523 0.214291 0.883653
O O5 0.854062 0.888933 0.196963
O O6 0.589010 0.099762 0.127152
O O7 0.771511 0.089887 0.046586
O O8 0.684748 0.790444 0.903000
O O9 0.732767 0.691663 0.412941
O O10 0.500000 0.000000 0.500000
O O11 0.580460 0.985424 0.318566
O O12 0.515786 0.642482 0.636273
O O13 0.127320 0.629160 0.802628
O O14 0.000000 0.000000 0.000000
O O15 0.901256 0.724185 0.360191
O O16 0.000000 0.500000 0.500000
O O17 0.244488 0.858503 0.549851
O O18 0.000000 0.000000 0.500000
#
# Coordination Sequence:
#
# PCOD8006130 Si02
#       8
#     2   2   2   2   2   2   2   2
#     4  11  22  38  63  94 131 162 221 270 337 390
#     4  10  22  41  64  88 129 168 216 274 338 393
#     4   9  20  38  68  94 129 168 214 272 332 391
#     4  10  20  39  65  95 121 160 218 277 341 395
#     4  12  28  43  64  94 139 184 226 277 332 396
#     4  11  24  43  68  99 135 177 231 270 332 406
#     4  10  21  39  65  90 125 174 219 269 332 392
#     4   9  20  37  61  93 126 163 206 272 331 396
#
# _framework density 21.391227000000001
#
# number of rings (size 3 to 8) (size 9 to 14) (size 15 to 20)
#    0.000    1.750    0.000    3.375    7.000    5.000 
#    2.250    1.250    0.000    0.000    0.000    0.000 
#    0.000    0.000    0.000    0.000    0.000    0.000 
#
# Total GULP energy -198221.619412 kJ/mol
# GULP energy per Si atom -12388.851213 kJ/mol
# Density = 2.134254 g / cm^3
# Si number density = 21.391227 Si / 1000 Ang^3
#
#
#
# Elastic Constant Matrix: (Units=GPa)
#
#
# Indices 1 2 3 4 5 6 
#
# 1 102.0645 44.4765 55.9341 -4.6231 25.8740 -0.3547
# 2 44.4765 122.3724 56.3073 -26.8335 18.5332 3.8094
# 3 55.9341 56.3073 127.9405 -20.2430 25.6016 5.0057
# 4 -4.6231 -26.8335 -20.2430 45.1226 2.1213 4.1170
# 5 25.8740 18.5332 25.6016 2.1213 39.1591 2.0891
# 6 -0.3547 3.8094 5.0057 4.1170 2.0891 37.2977
#
#
#
# Elastic Compliance Matrix: (Units=1/GPa)
#
#
# Indices 1 2 3 4 5 6 
#
# 1 0.014861 -0.003050 -0.004481 -0.002193 -0.005412 0.001600
# 2 -0.003050 0.012172 -0.002547 0.006027 -0.002329 -0.001465
# 3 -0.004481 -0.002547 0.012395 0.003929 -0.004062 -0.001652
# 4 -0.002193 0.006027 0.003929 0.027892 -0.005272 -0.003947
# 5 -0.005412 -0.002329 -0.004062 -0.005272 0.033186 -0.000545
# 6 0.001600 -0.001465 -0.001652 -0.003947 -0.000545 0.027664
#
#
# Mechanical properties :
#
#
# Convention : Reuss Voigt Hill
#
# Bulk Modulus (GPa) = 51.88827 73.97926 62.93377
# Shear Modulus (GPa) = 32.31017 37.35983 34.83500
#
# Velocity S-wave (km/s) = 3.89065 4.18365 4.03981
# Velocity P-wave (km/s) = 6.67026 7.61553 7.15851
#
# Compressibility (1/GPa) = 0.01927218
#
# Stress axis : x y z
#
# Youngs Moduli (GPa) = 67.28992 82.15600 80.67652
#
# Poissons Ratio (x) = 0.25061 0.36152
# Poissons Ratio (y) = 0.20526 0.20544
# Poissons Ratio (z) = 0.30154 0.20921
#
# Static dielectric constant tensor:
#      x y z
#    x 4.069660 0.425370 0.337370 
#    y 0.425370 4.386820 0.100450 
#    z 0.337370 0.100450 4.083540 
# 
# 
# High freq. dielectric constant tensor:
#      x y z
#    x 1.833530 0.015920 0.017030 
#    y 0.015920 1.849360 -0.006080 
#    z 0.017030 -0.006080 1.848240 
# 
# From -- ./inp_files/420129.got.cif
#   From: 2010.06.25/outbox.cif.g09.slc.cpg/sg2_211_cif.got.tgz:420129.got - 2010.06.27 13:26:56.
