data_PCOD8006702
_publ_section_title
;
Structure prediction by ZEFSAII (Michael W. Deem and Ramdas Pophale) SiO2 
 PCOD8006702
Probable space group: P -1
;
_chemical_formula_sum "Si O2"
_cell_formula_units_Z 16
_cell_length_a 22.919824
_cell_length_b 13.651879
_cell_length_c 20.084151
_cell_angle_alpha 155.542103
_cell_angle_beta 162.322760
_cell_angle_gamma 33.499755
_cell_volume 761.679436
_symmetry_space_group_name_H-M "P -1"
_symmetry_group_IT_number 2
_symmetry_cell_setting 'triclinic'
loop_
_space_group_symop_operation_xyz
x,y,z
-x,-y,-z
loop_
_atom_site_type_symbol
_atom_site_label
_atom_site_fract_x
_atom_site_fract_y
_atom_site_fract_z
Si Si1 0.186599 0.193581 0.615914
Si Si2 0.215395 0.662088 0.313442
Si Si3 0.096779 0.785629 0.785566
Si Si4 0.883432 0.449435 0.006005
Si Si5 0.464321 0.631976 0.109056
Si Si6 0.734197 0.795251 0.145824
Si Si7 0.119430 0.019676 0.210082
Si Si8 0.691489 0.335845 0.442633
O O1 0.164306 0.257424 0.708025
O O2 0.970768 0.119314 0.298841
O O3 0.262513 0.954050 0.543825
O O4 0.349296 0.424583 0.906191
O O5 0.254532 0.589233 0.235216
O O6 0.352613 0.622220 0.500499
O O7 0.000000 0.500000 0.000000
O O8 0.000000 0.500000 0.500000
O O9 0.010035 0.899804 0.823800
O O10 0.334730 0.828953 0.076238
O O11 0.822781 0.226467 0.855069
O O12 0.858285 0.701520 0.165805
O O13 0.112627 0.462077 0.244340
O O14 0.676094 0.777703 0.458308
O O15 0.500000 0.500000 0.000000
O O16 0.744112 0.079738 0.325657
O O17 0.501098 0.641041 0.793258
O O18 0.000000 0.000000 0.000000
#
# Coordination Sequence:
#
# PCOD8006702 Si02
#       8
#     2   2   2   2   2   2   2   2
#     4  10  20  40  63  89 120 166 211 248 309 381
#     4   9  18  38  65  87 120 158 201 259 310 369
#     4  10  21  42  66  84 124 165 217 253 311 374
#     4  11  22  39  62  88 127 156 203 256 320 359
#     4  11  22  41  67  88 122 168 222 253 302 386
#     4  10  22  38  63  92 122 156 209 249 314 381
#     4  12  27  41  61 100 132 163 211 271 315 367
#     4   9  21  41  62  88 121 163 200 255 308 379
#
# _framework density 21.006211
#
# number of rings (size 3 to 8) (size 9 to 14) (size 15 to 20)
#    0.000    1.750    3.750    0.375    5.250    2.000 
#    0.000    0.000    8.250    0.000    0.000    0.000 
#    0.000    0.000    0.000    0.000    0.000    0.000 
#
# Total GULP energy -198217.843877 kJ/mol
# GULP energy per Si atom -12388.615242 kJ/mol
# Density = 2.095840 g / cm^3
# Si number density = 21.006211 Si / 1000 Ang^3
#
#
#
# Elastic Constant Matrix: (Units=GPa)
#
#
# Indices 1 2 3 4 5 6 
#
# 1 123.6126 46.3254 37.6360 -17.1408 -34.9663 7.1907
# 2 46.3254 59.1879 27.6925 -11.8925 -5.8198 8.4864
# 3 37.6360 27.6925 108.9265 -16.8490 -10.6961 8.5094
# 4 -17.1408 -11.8925 -16.8490 34.9653 4.0480 3.2002
# 5 -34.9663 -5.8198 -10.6961 4.0480 40.5514 -3.5229
# 6 7.1907 8.4864 8.5094 3.2002 -3.5229 28.8619
#
#
#
# Elastic Compliance Matrix: (Units=1/GPa)
#
#
# Indices 1 2 3 4 5 6 
#
# 1 0.016005 -0.010342 -0.001457 0.002202 0.011771 0.000676
# 2 -0.010342 0.027385 -0.002946 0.004137 -0.006689 -0.005882
# 3 -0.001457 -0.002946 0.011291 0.003867 0.000701 -0.002443
# 4 0.002202 0.004137 0.003867 0.033611 -0.000424 -0.006684
# 5 0.011771 -0.006689 0.000701 -0.000424 0.034343 0.003066
# 6 0.000676 -0.005882 -0.002443 -0.006684 0.003066 0.038045
#
#
# Mechanical properties :
#
#
# Convention : Reuss Voigt Hill
#
# Bulk Modulus (GPa) = 39.69764 57.22611 48.46187
# Shear Modulus (GPa) = 25.18042 32.88057 29.03049
#
# Velocity S-wave (km/s) = 3.46600 3.96065 3.72155
# Velocity P-wave (km/s) = 5.91241 6.94387 6.44879
#
# Compressibility (1/GPa) = 0.02519041
#
# Stress axis : x y z
#
# Youngs Moduli (GPa) = 62.48085 36.51574 88.56834
#
# Poissons Ratio (x) = 0.37765 0.12905
# Poissons Ratio (y) = 0.64619 0.26093
# Poissons Ratio (z) = 0.09104 0.10758
#
# Static dielectric constant tensor:
#      x y z
#    x 3.775140 -0.043070 -0.381410 
#    y -0.043070 6.131510 -1.217240 
#    z -0.381410 -1.217240 4.295550 
# 
# 
# High freq. dielectric constant tensor:
#      x y z
#    x 1.820410 0.008680 -0.021510 
#    y 0.008680 1.814090 0.004000 
#    z -0.021510 0.004000 1.826810 
# 
# From -- ./inp_files/398235.got.cif
#   From: 2010.06.25/outbox.cif.g09.slc.cpg/sg2_200_cif.got.tgz:398235.got - 2010.06.27 13:26:56.
