data_PCOD8006090
_publ_section_title
;
Structure prediction by ZEFSAII (Michael W. Deem and Ramdas Pophale) SiO2 
 PCOD8006090
Probable space group: P -1
;
_chemical_formula_sum "Si O2"
_cell_formula_units_Z 16
_cell_length_a 9.750289
_cell_length_b 14.179024
_cell_length_c 8.344300
_cell_angle_alpha 137.774666
_cell_angle_beta 103.939341
_cell_angle_gamma 86.950012
_cell_volume 738.454713
_symmetry_space_group_name_H-M "P -1"
_symmetry_group_IT_number 2
_symmetry_cell_setting 'triclinic'
loop_
_space_group_symop_operation_xyz
x,y,z
-x,-y,-z
loop_
_atom_site_type_symbol
_atom_site_label
_atom_site_fract_x
_atom_site_fract_y
_atom_site_fract_z
Si Si1 0.333493 0.123966 0.596483
Si Si2 0.100966 0.524852 0.205970
Si Si3 0.348482 0.389603 0.130953
Si Si4 0.655533 0.439895 0.358825
Si Si5 0.877011 0.322755 0.076577
Si Si6 0.712493 0.209615 0.311435
Si Si7 0.366143 0.836761 0.412092
Si Si8 0.134237 0.955932 0.074601
O O1 0.482898 0.200233 0.651004
O O2 0.357775 0.992314 0.542665
O O3 0.208792 0.081440 0.373949
O O4 0.284579 0.232282 0.847326
O O5 0.256747 0.495554 0.154412
O O6 0.130587 0.687024 0.482521
O O7 0.030767 0.413216 0.181791
O O8 0.000000 0.500000 0.000000
O O9 0.518738 0.433057 0.194478
O O10 0.324882 0.413925 0.346804
O O11 0.799841 0.431012 0.292790
O O12 0.619075 0.298381 0.286481
O O13 0.772225 0.272478 0.832481
O O14 0.911714 0.190118 0.020903
O O15 0.631582 0.160407 0.391419
O O16 0.745111 0.070400 0.053191
O O17 0.000000 0.000000 0.000000
#
# Coordination Sequence:
#
# PCOD8006090 Si02
#       8
#     2   2   2   2   2   2   2   2
#     4  10  22  40  65  89 124 170 210 251 316 377
#     4  11  23  39  66  92 122 168 208 256 315 375
#     4  10  21  39  64  90 122 157 213 256 306 370
#     4   9  20  41  64  88 125 162 202 269 309 360
#     4  10  20  42  68  90 127 168 206 256 319 375
#     4  10  22  40  62  89 128 161 212 261 311 368
#     4  10  20  39  65  92 122 167 209 257 310 375
#     4  10  24  41  62  93 130 164 208 261 310 374
#
# _framework density 21.666868999999998
#
# number of rings (size 3 to 8) (size 9 to 14) (size 15 to 20)
#    0.000    2.000    2.500    0.000    3.500    6.000 
#    2.250    9.375    0.000    0.000    0.000    0.000 
#    0.000    0.000    0.000    0.000    0.000    0.000 
#
# Total GULP energy -198246.957737 kJ/mol
# GULP energy per Si atom -12390.434859 kJ/mol
# Density = 2.161755 g / cm^3
# Si number density = 21.666869 Si / 1000 Ang^3
#
#
#
# Elastic Constant Matrix: (Units=GPa)
#
#
# Indices 1 2 3 4 5 6 
#
# 1 99.2707 44.6533 38.4579 -6.1707 1.2641 -18.9283
# 2 44.6533 73.3338 17.9791 -19.8687 -0.9905 -0.8555
# 3 38.4579 17.9791 149.7869 -5.7013 -13.9461 -9.5360
# 4 -6.1707 -19.8687 -5.7013 23.3234 -1.9692 5.9916
# 5 1.2641 -0.9905 -13.9461 -1.9692 38.5174 -6.0193
# 6 -18.9283 -0.8555 -9.5360 5.9916 -6.0193 38.2910
#
#
#
# Elastic Compliance Matrix: (Units=1/GPa)
#
#
# Indices 1 2 3 4 5 6 
#
# 1 0.018159 -0.012730 -0.002995 -0.009230 -0.001038 0.009227
# 2 -0.012730 0.027252 0.000371 0.022316 0.000999 -0.008926
# 3 -0.002995 0.000371 0.007794 0.001507 0.003120 0.000724
# 4 -0.009230 0.022316 0.001507 0.063424 0.002601 -0.013204
# 5 -0.001038 0.000999 0.003120 0.002601 0.027953 0.004273
# 6 0.009227 -0.008926 0.000724 -0.013204 0.004273 0.033396
#
#
# Mechanical properties :
#
#
# Convention : Reuss Voigt Hill
#
# Bulk Modulus (GPa) = 44.44687 58.28577 51.36632
# Shear Modulus (GPa) = 23.12857 34.77974 28.95416
#
# Velocity S-wave (km/s) = 3.27075 4.01085 3.65955
# Velocity P-wave (km/s) = 5.90102 6.95762 6.45099
#
# Compressibility (1/GPa) = 0.02249877
#
# Stress axis : x y z
#
# Youngs Moduli (GPa) = 55.07052 36.69469 128.29709
#
# Poissons Ratio (x) = 0.46711 0.38422
# Poissons Ratio (y) = 0.70103 -0.04766
# Poissons Ratio (z) = 0.16492 -0.01363
#
# Static dielectric constant tensor:
#      x y z
#    x 4.062450 -0.107930 -0.154800 
#    y -0.107930 3.622950 -0.323560 
#    z -0.154800 -0.323560 3.970820 
# 
# 
# High freq. dielectric constant tensor:
#      x y z
#    x 1.843710 -0.012550 -0.000530 
#    y -0.012550 1.826130 -0.017280 
#    z -0.000530 -0.017280 1.868280 
# 
# From -- ./inp_files/209484.got.cif
#   From: 2010.06.25/outbox.cif.g09.slc.cpg/sg2_105_cif.got.tgz:209484.got - 2010.06.27 13:26:56.
