data_PCOD8006045
_publ_section_title
;
Structure prediction by ZEFSAII (Michael W. Deem and Ramdas Pophale) SiO2 
 PCOD8006045
Probable space group: P -1
;
_chemical_formula_sum "Si O2"
_cell_formula_units_Z 16
_cell_length_a 8.757778
_cell_length_b 12.742987
_cell_length_c 10.314191
_cell_angle_alpha 50.526145
_cell_angle_beta 103.965109
_cell_angle_gamma 122.078820
_cell_volume 744.659578
_symmetry_space_group_name_H-M "P -1"
_symmetry_group_IT_number 2
_symmetry_cell_setting 'triclinic'
loop_
_space_group_symop_operation_xyz
x,y,z
-x,-y,-z
loop_
_atom_site_type_symbol
_atom_site_label
_atom_site_fract_x
_atom_site_fract_y
_atom_site_fract_z
Si Si1 0.567800 0.889701 0.931028
Si Si2 0.095925 0.625717 0.308949
Si Si3 0.844151 0.851142 0.420018
Si Si4 0.088091 0.472729 0.914105
Si Si5 0.038754 0.885978 0.182477
Si Si6 0.486240 0.656541 0.879295
Si Si7 0.479496 0.147299 0.757587
Si Si8 0.862082 0.795336 0.746948
O O1 0.478400 0.722951 0.968954
O O2 0.756564 0.008443 0.804831
O O3 0.448136 0.976485 0.840554
O O4 0.604776 0.865572 0.106721
O O5 0.021718 0.747012 0.197996
O O6 0.311625 0.714317 0.306714
O O7 0.000000 0.500000 0.500000
O O8 0.042718 0.548306 0.216580
O O9 0.634428 0.807911 0.398527
O O10 0.863702 0.762301 0.619020
O O11 0.904796 0.799727 0.343368
O O12 0.971572 0.037049 0.314467
O O13 0.292259 0.617707 0.808182
O O14 0.111761 0.324125 0.065365
O O15 0.000000 0.500000 0.000000
O O16 0.000000 0.000000 0.000000
O O17 0.667796 0.787037 0.740568
O O18 0.500000 0.500000 0.000000
#
# Coordination Sequence:
#
# PCOD8006045 Si02
#       8
#     2   2   2   2   2   2   2   2
#     4  10  20  39  64  99 126 166 229 266 336 395
#     4  11  27  45  65 102 138 170 224 275 337 397
#     4  11  22  40  66  95 130 165 219 282 323 382
#     4  11  25  43  69  89 136 181 214 261 332 402
#     4  11  21  40  71  94 129 174 219 278 329 389
#     4  10  22  40  64  90 129 172 219 261 322 403
#     4  10  23  39  69  95 129 169 216 287 330 390
#     4  10  24  41  61  96 131 169 223 261 326 399
#
# _framework density 21.486328
#
# number of rings (size 3 to 8) (size 9 to 14) (size 15 to 20)
#    0.000    1.500    2.500    1.500   10.500    0.000 
#    0.000    1.250    0.000    0.000    0.000    0.000 
#    0.000    0.000    0.000    0.000    0.000    0.000 
#
# Total GULP energy -198293.449470 kJ/mol
# GULP energy per Si atom -12393.340592 kJ/mol
# Density = 2.143742 g / cm^3
# Si number density = 21.486328 Si / 1000 Ang^3
#
#
#
# Elastic Constant Matrix: (Units=GPa)
#
#
# Indices 1 2 3 4 5 6 
#
# 1 113.2298 48.0873 29.2521 9.8229 -14.6484 17.1657
# 2 48.0873 119.4393 27.2028 14.4202 -3.7139 0.1349
# 3 29.2521 27.2028 89.2610 11.5353 -10.1589 8.8660
# 4 9.8229 14.4202 11.5353 27.7848 -2.6462 -2.9189
# 5 -14.6484 -3.7139 -10.1589 -2.6462 27.2516 4.2391
# 6 17.1657 0.1349 8.8660 -2.9189 4.2391 35.6681
#
#
#
# Elastic Compliance Matrix: (Units=1/GPa)
#
#
# Indices 1 2 3 4 5 6 
#
# 1 0.013220 -0.004600 -0.001202 -0.001864 0.006943 -0.007024
# 2 -0.004600 0.010981 -0.001970 -0.003205 -0.002440 0.002690
# 3 -0.001202 -0.001970 0.013589 -0.004167 0.004314 -0.003646
# 4 -0.001864 -0.003205 -0.004167 0.040608 0.000134 0.005252
# 5 0.006943 -0.002440 0.004314 0.000134 0.043198 -0.009527
# 6 -0.007024 0.002690 -0.003646 0.005252 -0.009527 0.033875
#
#
# Mechanical properties :
#
#
# Convention : Reuss Voigt Hill
#
# Bulk Modulus (GPa) = 44.94981 59.00159 51.97570
# Shear Modulus (GPa) = 28.02229 32.63342 30.32786
#
# Velocity S-wave (km/s) = 3.61528 3.90141 3.76106
# Velocity P-wave (km/s) = 6.19617 6.91479 6.56532
#
# Compressibility (1/GPa) = 0.02224703
#
# Stress axis : x y z
#
# Youngs Moduli (GPa) = 75.64042 91.06534 73.59033
#
# Poissons Ratio (x) = 0.41890 0.08845
# Poissons Ratio (y) = 0.34795 0.14495
# Poissons Ratio (z) = 0.09091 0.17937
#
# Static dielectric constant tensor:
#      x y z
#    x 4.410770 0.134420 -0.270580 
#    y 0.134420 3.997020 0.078790 
#    z -0.270580 0.078790 3.709470 
# 
# 
# High freq. dielectric constant tensor:
#      x y z
#    x 1.858570 0.004960 -0.016600 
#    y 0.004960 1.845410 0.008560 
#    z -0.016600 0.008560 1.818450 
# 
# From -- ./inp_files/185132.got.cif
#   From: 2010.06.25/outbox.cif.g09.slc.cpg/sg2_93_cif.got.tgz:185132.got - 2010.06.27 13:26:56.
