data_PCOD8006071
_publ_section_title
;
Structure prediction by ZEFSAII (Michael W. Deem and Ramdas Pophale) SiO2 
 PCOD8006071
Probable space group: P -1
;
_chemical_formula_sum "Si O2"
_cell_formula_units_Z 16
_cell_length_a 10.385951
_cell_length_b 18.900516
_cell_length_c 13.005421
_cell_angle_alpha 34.247571
_cell_angle_beta 146.572160
_cell_angle_gamma 146.646903
_cell_volume 698.998926
_symmetry_space_group_name_H-M "P -1"
_symmetry_group_IT_number 2
_symmetry_cell_setting 'triclinic'
loop_
_space_group_symop_operation_xyz
x,y,z
-x,-y,-z
loop_
_atom_site_type_symbol
_atom_site_label
_atom_site_fract_x
_atom_site_fract_y
_atom_site_fract_z
Si Si1 0.714805 0.941085 0.114226
Si Si2 0.389909 0.854326 0.726074
Si Si3 0.324086 0.336111 0.096022
Si Si4 0.926410 0.125257 0.697401
Si Si5 0.747499 0.225056 0.855528
Si Si6 0.669248 0.682727 0.107587
Si Si7 0.491162 0.351427 0.398953
Si Si8 0.997514 0.895580 0.537746
O O1 0.440918 0.808505 0.130086
O O2 0.946424 0.966006 0.318677
O O3 0.828477 0.908874 0.124124
O O4 0.674876 0.080819 0.916054
O O5 0.173891 0.813816 0.538072
O O6 0.272711 0.889994 0.708807
O O7 0.674608 0.985457 0.735826
O O8 0.437601 0.719551 0.944625
O O9 0.459999 0.289997 0.334075
O O10 0.500000 0.500000 0.000000
O O11 0.275600 0.259465 0.044809
O O12 0.044752 0.303666 0.999788
O O13 0.057096 0.241301 0.736255
O O14 0.725894 0.334037 0.629694
O O15 0.557306 0.514980 0.244575
O O16 0.229087 0.263261 0.398357
O O17 0.000000 0.000000 0.500000
#
# Coordination Sequence:
#
# PCOD8006071 Si02
#       8
#     2   2   2   2   2   2   2   2
#     4   9  20  38  63  94 120 157 212 259 309 375
#     4  10  23  41  66  93 126 166 204 264 321 367
#     4  10  23  40  58  88 125 164 215 255 300 373
#     4  10  22  42  64  91 125 164 213 258 314 381
#     4  10  20  39  65  89 123 164 203 263 319 355
#     4  11  24  40  61  91 127 168 212 257 314 384
#     4  10  24  41  61  93 127 165 215 262 311 374
#     4  10  21  40  65  95 124 160 215 262 310 379
#
# _framework density 22.889878
#
# number of rings (size 3 to 8) (size 9 to 14) (size 15 to 20)
#    0.000    2.000    0.000    1.875    0.000   13.500 
#    0.000    6.875    0.000    0.000    0.000    0.000 
#    0.000    0.000    0.000    0.000    0.000    0.000 
#
# Total GULP energy -198277.236754 kJ/mol
# GULP energy per Si atom -12392.327297 kJ/mol
# Density = 2.283778 g / cm^3
# Si number density = 22.889878 Si / 1000 Ang^3
#
#
#
# Elastic Constant Matrix: (Units=GPa)
#
#
# Indices 1 2 3 4 5 6 
#
# 1 103.8813 37.7766 24.0340 6.3797 7.3867 -5.3504
# 2 37.7766 94.1766 28.5733 4.3646 4.2322 -5.9739
# 3 24.0340 28.5733 97.3728 -18.9508 2.1523 -13.1882
# 4 6.3797 4.3646 -18.9508 31.1122 0.8001 -0.2883
# 5 7.3867 4.2322 2.1523 0.8001 34.5245 9.1255
# 6 -5.3504 -5.9739 -13.1882 -0.2883 9.1255 32.0374
#
#
#
# Elastic Compliance Matrix: (Units=1/GPa)
#
#
# Indices 1 2 3 4 5 6 
#
# 1 0.011931 -0.003786 -0.002296 -0.003252 -0.002112 0.000914
# 2 -0.003786 0.013430 -0.003544 -0.003243 -0.000694 0.000582
# 3 -0.002296 -0.003544 0.014601 0.009956 -0.001678 0.005534
# 4 -0.003252 -0.003243 0.009956 0.039399 -0.001421 0.003710
# 5 -0.002112 -0.000694 -0.001678 -0.001421 0.032391 -0.010412
# 6 0.000914 0.000582 0.005534 0.003710 -0.010412 0.036752
#
#
# Mechanical properties :
#
#
# Convention : Reuss Voigt Hill
#
# Bulk Modulus (GPa) = 48.28406 52.91096 50.59751
# Shear Modulus (GPa) = 28.62720 33.20461 30.91591
#
# Velocity S-wave (km/s) = 3.54029 3.81284 3.67909
# Velocity P-wave (km/s) = 6.15235 6.52298 6.34037
#
# Compressibility (1/GPa) = 0.02071077
#
# Stress axis : x y z
#
# Youngs Moduli (GPa) = 83.81366 74.45784 68.48991
#
# Poissons Ratio (x) = 0.28187 0.15728
# Poissons Ratio (y) = 0.31729 0.24271
# Poissons Ratio (z) = 0.19247 0.26386
#
# Static dielectric constant tensor:
#      x y z
#    x 4.805020 -0.051590 -0.236440 
#    y -0.051590 3.986240 0.234120 
#    z -0.236440 0.234120 4.431950 
# 
# 
# High freq. dielectric constant tensor:
#      x y z
#    x 1.903960 0.010240 -0.009310 
#    y 0.010240 1.890210 0.014740 
#    z -0.009310 0.014740 1.916310 
# 
# From -- ./inp_files/402916.got.cif
#   From: 2010.06.25/outbox.cif.g09.slc.cpg/sg2_202_cif.got.tgz:402916.got - 2010.06.27 13:26:56.
