data_PCOD8006380
_publ_section_title
;
Structure prediction by ZEFSAII (Michael W. Deem and Ramdas Pophale) SiO2 
 PCOD8006380
Probable space group: P -1
;
_chemical_formula_sum "Si O2"
_cell_formula_units_Z 16
_cell_length_a 7.350570
_cell_length_b 5.319045
_cell_length_c 23.040899
_cell_angle_alpha 121.988529
_cell_angle_beta 50.871263
_cell_angle_gamma 116.044495
_cell_volume 585.144319
_symmetry_space_group_name_H-M "P -1"
_symmetry_group_IT_number 2
_symmetry_cell_setting 'triclinic'
loop_
_space_group_symop_operation_xyz
x,y,z
-x,-y,-z
loop_
_atom_site_type_symbol
_atom_site_label
_atom_site_fract_x
_atom_site_fract_y
_atom_site_fract_z
Si Si1 0.686483 0.605704 0.712095
Si Si2 0.643454 0.353462 0.576342
Si Si3 0.195873 0.367379 0.813563
Si Si4 0.399342 0.641758 0.919229
Si Si5 0.766044 0.300413 0.298533
Si Si6 0.213089 0.694919 0.225011
Si Si7 0.686426 0.274491 0.435202
Si Si8 0.324541 0.734759 0.068967
O O1 0.794213 0.433104 0.615134
O O2 0.393014 0.568229 0.756925
O O3 0.702038 0.425072 0.745749
O O4 0.794715 0.954234 0.732314
O O5 0.500900 0.635412 0.632568
O O6 0.804308 0.314497 0.481691
O O7 0.447727 0.060948 0.587400
O O8 0.213513 0.493518 0.891051
O O9 0.913297 0.359141 0.854052
O O10 0.244007 0.028414 0.764477
O O11 0.586745 0.408195 0.871698
O O12 0.559054 0.933246 0.893196
O O13 0.255029 0.750011 0.015900
O O14 0.869307 0.332780 0.350384
O O15 0.939538 0.533702 0.251788
O O16 0.500000 0.500000 0.500000
O O17 0.500000 0.500000 0.000000
#
# Coordination Sequence:
#
# PCOD8006380 Si02
#       8
#     2   2   2   2   2   2   2   2
#     4  11  25  44  69 104 140 183 234 294 351 417
#     4  10  20  39  68  97 133 184 237 283 350 418
#     4  11  23  46  71  99 137 185 236 284 354 415
#     4  10  24  45  65 101 139 178 228 289 352 414
#     4  11  22  42  70 102 133 187 239 287 350 417
#     4  11  26  44  70 101 147 177 233 300 352 412
#     4   9  20  37  65  97 138 175 236 285 343 421
#     4  11  25  45  69 100 140 181 230 289 352 420
#
# _framework density 27.343682000000001
#
# number of rings (size 3 to 8) (size 9 to 14) (size 15 to 20)
#    0.000    1.500    2.500    1.875    7.000    1.500 
#    9.000    1.250    0.000    0.000    0.000    0.000 
#    0.000    0.000    0.000    0.000    0.000    0.000 
#
# Total GULP energy -198321.149138 kJ/mol
# GULP energy per Si atom -12395.071821 kJ/mol
# Density = 2.728145 g / cm^3
# Si number density = 27.343682 Si / 1000 Ang^3
#
#
#
# Elastic Constant Matrix: (Units=GPa)
#
#
# Indices 1 2 3 4 5 6 
#
# 1 36.6419 7.5907 6.7666 15.4890 1.9362 4.3199
# 2 7.5907 141.7002 63.8156 2.8776 5.1618 9.5382
# 3 6.7666 63.8156 149.0110 -7.0938 30.1641 4.0782
# 4 15.4890 2.8776 -7.0938 63.5708 -0.5836 -3.0251
# 5 1.9362 5.1618 30.1641 -0.5836 53.6983 2.5391
# 6 4.3199 9.5382 4.0782 -3.0251 2.5391 33.9300
#
#
#
# Elastic Compliance Matrix: (Units=1/GPa)
#
#
# Indices 1 2 3 4 5 6 
#
# 1 0.031600 -0.000593 -0.001409 -0.008040 -0.000171 -0.004391
# 2 -0.000593 0.009065 -0.004154 -0.000818 0.001577 -0.002164
# 3 -0.001409 -0.004154 0.009616 0.001592 -0.004968 0.000705
# 4 -0.008040 -0.000818 0.001592 0.018029 -0.000458 0.002704
# 5 -0.000171 0.001577 -0.004968 -0.000458 0.021332 -0.001462
# 6 -0.004391 -0.002164 0.000705 0.002704 -0.001462 0.030906
#
#
# Mechanical properties :
#
#
# Convention : Reuss Voigt Hill
#
# Bulk Modulus (GPa) = 26.33798 53.74432 40.04115
# Shear Modulus (GPa) = 34.36089 46.85183 40.60636
#
# Velocity S-wave (km/s) = 3.54874 4.14387 3.85780
# Velocity P-wave (km/s) = 5.14243 6.52635 5.87528
#
# Compressibility (1/GPa) = 0.03796798
#
# Stress axis : x y z
#
# Youngs Moduli (GPa) = 31.64592 110.31988 103.99373
#
# Poissons Ratio (x) = 0.06544 0.14652
# Poissons Ratio (y) = 0.01877 0.43199
# Poissons Ratio (z) = 0.04459 0.45827
#
# Static dielectric constant tensor:
#      x y z
#    x 5.466430 -0.303830 0.588900 
#    y -0.303830 5.230720 -0.386450 
#    z 0.588900 -0.386450 6.523950 
# 
# 
# High freq. dielectric constant tensor:
#      x y z
#    x 2.117640 -0.011380 0.036130 
#    y -0.011380 2.101300 -0.015010 
#    z 0.036130 -0.015010 2.137200 
# 
# From -- ./inp_files/616392.got.cif
#   From: 2010.06.25/outbox.cif.g09.slc.cpg/sg2_309_cif.got.tgz:616392.got - 2010.06.27 13:26:56.
