data_PCOD8006556
_publ_section_title
;
Structure prediction by ZEFSAII (Michael W. Deem and Ramdas Pophale) SiO2 
 PCOD8006556
Probable space group: P -1
;
_chemical_formula_sum "Si O2"
_cell_formula_units_Z 16
_cell_length_a 8.798515
_cell_length_b 13.137860
_cell_length_c 15.340366
_cell_angle_alpha 29.297743
_cell_angle_beta 88.448114
_cell_angle_gamma 86.227577
_cell_volume 864.187690
_symmetry_space_group_name_H-M "P -1"
_symmetry_group_IT_number 2
_symmetry_cell_setting 'triclinic'
loop_
_space_group_symop_operation_xyz
x,y,z
-x,-y,-z
loop_
_atom_site_type_symbol
_atom_site_label
_atom_site_fract_x
_atom_site_fract_y
_atom_site_fract_z
Si Si1 0.630773 0.941836 0.303080
Si Si2 0.825352 0.398163 0.423798
Si Si3 0.332822 0.442040 0.865415
Si Si4 0.316761 0.602947 0.080118
Si Si5 0.339596 0.410529 0.557450
Si Si6 0.821317 0.558854 0.632363
Si Si7 0.175300 0.417248 0.056648
Si Si8 0.711209 0.966235 0.752270
O O1 0.631303 0.834042 0.286930
O O2 0.738267 0.791756 0.477411
O O3 0.700664 0.161879 0.130580
O O4 0.460358 0.960337 0.331663
O O5 0.741308 0.432759 0.307608
O O6 0.755575 0.565017 0.370450
O O7 0.000386 0.428318 0.388348
O O8 0.801297 0.163011 0.631662
O O9 0.511120 0.474339 0.839461
O O10 0.256957 0.532422 0.889584
O O11 0.305555 0.193342 0.046209
O O12 0.210825 0.592140 0.174762
O O13 0.257742 0.456181 0.116468
O O14 0.500000 0.500000 0.500000
O O15 0.245049 0.531105 0.389560
O O16 0.196845 0.165813 0.227406
O O17 0.000000 0.500000 0.000000
#
# Coordination Sequence:
#
# PCOD8006556 Si02
#       8
#     2   2   2   2   2   2   2   2
#     4   9  21  39  61  89 111 160 200 234 296 343
#     4  12  20  41  60  86 130 148 193 251 292 343
#     4   9  22  38  61  88 114 158 201 234 292 350
#     4  11  20  43  59  83 125 152 200 245 283 355
#     4  10  20  40  61  87 119 153 202 239 285 358
#     4  10  24  36  60  92 116 156 195 246 293 342
#     4  10  22  38  60  91 120 150 196 247 297 342
#     4   9  21  39  60  88 115 158 197 236 296 350
#
# _framework density 18.514498
#
# number of rings (size 3 to 8) (size 9 to 14) (size 15 to 20)
#    1.500    0.500    1.250    3.000    1.750    0.000 
#    4.500    5.000    0.000    0.000    0.000    0.000 
#    0.000    0.000    0.000    0.000    0.000    0.000 
#
# Total GULP energy -198278.323365 kJ/mol
# GULP energy per Si atom -12392.395210 kJ/mol
# Density = 1.847236 g / cm^3
# Si number density = 18.514498 Si / 1000 Ang^3
#
#
#
# Elastic Constant Matrix: (Units=GPa)
#
#
# Indices 1 2 3 4 5 6 
#
# 1 138.3664 41.1184 31.4485 1.4905 2.9848 -13.2166
# 2 41.1184 78.1630 14.4932 6.2226 7.4475 -4.0688
# 3 31.4485 14.4932 46.1842 7.1839 3.2889 1.4763
# 4 1.4905 6.2226 7.1839 34.8955 -1.9445 2.2194
# 5 2.9848 7.4475 3.2889 -1.9445 30.4442 0.2464
# 6 -13.2166 -4.0688 1.4763 2.2194 0.2464 35.9656
#
#
#
# Elastic Compliance Matrix: (Units=1/GPa)
#
#
# Indices 1 2 3 4 5 6 
#
# 1 0.010129 -0.004229 -0.005945 0.001371 0.000744 0.003398
# 2 -0.004229 0.015850 -0.001463 -0.002569 -0.003473 0.000481
# 3 -0.005945 -0.001463 0.027203 -0.005013 -0.002293 -0.003142
# 4 0.001371 -0.002569 -0.005013 0.030349 0.002986 -0.001474
# 5 0.000744 -0.003473 -0.002293 0.002986 0.034066 -0.000443
# 6 0.003398 0.000481 -0.003142 -0.001474 -0.000443 0.029330
#
#
# Mechanical properties :
#
#
# Convention : Reuss Voigt Hill
#
# Bulk Modulus (GPa) = 33.43499 48.53711 40.98605
# Shear Modulus (GPa) = 27.75159 31.97130 29.86144
#
# Velocity S-wave (km/s) = 3.87578 4.16002 4.02041
# Velocity P-wave (km/s) = 6.17470 7.02474 6.61339
#
# Compressibility (1/GPa) = 0.02990879
#
# Stress axis : x y z
#
# Youngs Moduli (GPa) = 98.72740 63.09046 36.76072
#
# Poissons Ratio (x) = 0.26682 0.21853
# Poissons Ratio (y) = 0.41754 0.05377
# Poissons Ratio (z) = 0.58691 0.09228
#
# Static dielectric constant tensor:
#      x y z
#    x 3.596570 0.393040 0.269710 
#    y 0.393040 4.748100 0.576260 
#    z 0.269710 0.576260 3.516640 
# 
# 
# High freq. dielectric constant tensor:
#      x y z
#    x 1.730700 -0.008770 0.003840 
#    y -0.008770 1.707710 -0.002540 
#    z 0.003840 -0.002540 1.698850 
# 
# From -- ./inp_files/502529.got.cif
#   From: 2010.06.25/outbox.cif.g09.slc.cpg/sg2_252_cif.got.tgz:502529.got - 2010.06.27 13:26:56.
