data_PCOD8006860
_publ_section_title
;
Structure prediction by ZEFSAII (Michael W. Deem and Ramdas Pophale) SiO2 
 PCOD8006860
Probable space group: P -1
;
_chemical_formula_sum "Si O2"
_cell_formula_units_Z 14
_cell_length_a 11.982429
_cell_length_b 11.377816
_cell_length_c 11.650173
_cell_angle_alpha 119.076589
_cell_angle_beta 45.681835
_cell_angle_gamma 82.568244
_cell_volume 657.113000
_symmetry_space_group_name_H-M "P -1"
_symmetry_group_IT_number 2
_symmetry_cell_setting 'triclinic'
loop_
_space_group_symop_operation_xyz
x,y,z
-x,-y,-z
loop_
_atom_site_type_symbol
_atom_site_label
_atom_site_fract_x
_atom_site_fract_y
_atom_site_fract_z
Si Si1 0.081640 0.112791 0.682388
Si Si2 0.982609 0.690799 0.412534
Si Si3 0.704546 0.533157 0.261697
Si Si4 0.385491 0.291466 0.348967
Si Si5 0.918401 0.931392 0.773819
Si Si6 0.350565 0.597918 0.431393
Si Si7 0.431071 0.314324 0.802853
O O1 0.063583 0.182336 0.601257
O O2 0.944611 0.060121 0.758347
O O3 0.357653 0.921128 0.425122
O O4 0.950284 0.294695 0.953746
O O5 0.763131 0.733431 0.608702
O O6 0.012350 0.758806 0.536833
O O7 0.220152 0.448234 0.110184
O O8 0.724509 0.598366 0.396891
O O9 0.476672 0.577842 0.445908
O O10 0.667178 0.662056 0.242972
O O11 0.375332 0.421653 0.328940
O O12 0.652893 0.071714 0.067919
O O13 0.075192 0.817525 0.723413
O O14 0.480595 0.585653 0.222965
#
# Coordination Sequence:
#
# PCOD8006860 Si02
#       7
#     2   2   2   2   2   2   2
#     4  10  20  40  65  86 108 153 198 242 280 331
#     4  11  24  38  57  89 120 153 187 232 295 341
#     4   9  20  39  61  89 110 148 198 235 289 332
#     4  12  23  38  59  86 125 150 182 242 288 348
#     4  11  23  39  61  85 115 156 197 230 280 345
#     4   9  21  38  61  86 108 153 195 238 280 331
#     4   8  20  39  60  86 112 148 197 238 279 334
#
# _framework density 21.305315
#
# number of rings (size 3 to 8) (size 9 to 14) (size 15 to 20)
#    0.857    1.143    1.429    1.286    0.000    9.143 
#    0.000    1.429    0.000    0.000    0.000    0.000 
#    0.000    0.000    0.000    0.000    0.000    0.000 
#
# Total GULP energy -173504.001975 kJ/mol
# GULP energy per Si atom -12393.142998 kJ/mol
# Density = 2.125682 g / cm^3
# Si number density = 21.305315 Si / 1000 Ang^3
#
#
#
# Elastic Constant Matrix: (Units=GPa)
#
#
# Indices 1 2 3 4 5 6 
#
# 1 35.9918 8.9792 16.7409 7.9617 0.2238 -1.9202
# 2 8.9792 39.7096 19.8109 12.3062 -4.2486 -8.4747
# 3 16.7409 19.8109 121.9176 18.0193 -18.4046 -18.6522
# 4 7.9617 12.3062 18.0193 25.5947 -5.4328 -11.4541
# 5 0.2238 -4.2486 -18.4046 -5.4328 35.7787 -3.1755
# 6 -1.9202 -8.4747 -18.6522 -11.4541 -3.1755 20.6386
#
#
#
# Elastic Compliance Matrix: (Units=1/GPa)
#
#
# Indices 1 2 3 4 5 6 
#
# 1 0.032818 -0.004603 -0.004517 -0.010186 -0.005457 -0.009411
# 2 -0.004603 0.031538 -0.001927 -0.009340 0.001887 0.005888
# 3 -0.004517 -0.001927 0.011749 0.000249 0.006822 0.010595
# 4 -0.010186 -0.009340 0.000249 0.063570 0.011621 0.032510
# 5 -0.005457 0.001887 0.006822 0.011621 0.035104 0.018283
# 6 -0.009411 0.005888 0.010595 0.032510 0.018283 0.080426
#
#
# Mechanical properties :
#
#
# Convention : Reuss Voigt Hill
#
# Bulk Modulus (GPa) = 18.51424 32.07567 25.29495
# Shear Modulus (GPa) = 16.93173 26.54158 21.73666
#
# Velocity S-wave (km/s) = 2.82213 3.53338 3.19759
# Velocity P-wave (km/s) = 4.39637 5.63332 5.05284
#
# Compressibility (1/GPa) = 0.05401249
#
# Stress axis : x y z
#
# Youngs Moduli (GPa) = 30.47070 31.70794 85.11043
#
# Poissons Ratio (x) = 0.14597 0.38441
# Poissons Ratio (y) = 0.14027 0.16397
# Poissons Ratio (z) = 0.13762 0.06109
#
# Static dielectric constant tensor:
#      x y z
#    x 3.624380 -0.021010 -0.296650 
#    y -0.021010 3.704170 0.126080 
#    z -0.296650 0.126080 3.844580 
# 
# 
# High freq. dielectric constant tensor:
#      x y z
#    x 1.818280 -0.002320 -0.022680 
#    y -0.002320 1.823390 0.008940 
#    z -0.022680 0.008940 1.836430 
# 
# From -- ./inp_files/281532.got.cif
#   From: 2010.06.25/outbox.cif.g09.slc.cpg/sg2_141_cif.got.tgz:281532.got - 2010.06.27 13:26:56.
