data_PCOD8006810
_publ_section_title
;
Structure prediction by ZEFSAII (Michael W. Deem and Ramdas Pophale) SiO2 
 PCOD8006810
Probable space group: P -1
;
_chemical_formula_sum "Si O2"
_cell_formula_units_Z 14
_cell_length_a 11.580324
_cell_length_b 9.170620
_cell_length_c 8.207025
_cell_angle_alpha 57.883224
_cell_angle_beta 105.138975
_cell_angle_gamma 124.661506
_cell_volume 606.122302
_symmetry_space_group_name_H-M "P -1"
_symmetry_group_IT_number 2
_symmetry_cell_setting 'triclinic'
loop_
_space_group_symop_operation_xyz
x,y,z
-x,-y,-z
loop_
_atom_site_type_symbol
_atom_site_label
_atom_site_fract_x
_atom_site_fract_y
_atom_site_fract_z
Si Si1 0.952659 0.496120 0.740103
Si Si2 0.704815 0.827386 0.139829
Si Si3 0.205765 0.785446 0.874632
Si Si4 0.940741 0.727419 0.306589
Si Si5 0.641829 0.194557 0.383189
Si Si6 0.497620 0.422028 0.223662
Si Si7 0.756716 0.975860 0.720888
O O1 0.892968 0.578572 0.532389
O O2 0.061336 0.683681 0.780779
O O3 0.028942 0.381548 0.766745
O O4 0.818778 0.338195 0.893996
O O5 0.823111 0.773066 0.185907
O O6 0.552636 0.618899 0.244422
O O7 0.743904 0.981520 0.210165
O O8 0.692553 0.925231 0.908554
O O9 0.328550 0.792280 0.807753
O O10 0.079355 0.949473 0.264716
O O11 0.625527 0.380744 0.313375
O O12 0.500000 0.000000 0.500000
O O13 0.760993 0.178447 0.536250
O O14 0.341760 0.221105 0.316134
O O15 0.500000 0.500000 0.000000
#
# Coordination Sequence:
#
# PCOD8006810 Si02
#       7
#     2   2   2   2   2   2   2
#     4  10  23  38  63  90 134 165 215 257 326 377
#     4  11  23  37  66  97 132 164 216 269 320 371
#     4  11  22  40  59 100 132 161 213 274 320 373
#     4  11  21  41  67  95 125 176 215 257 319 393
#     4  10  21  43  69  84 125 178 215 255 316 391
#     4   9  21  41  63  92 121 169 217 255 316 384
#     4  10  20  40  64  92 126 173 216 253 314 393
#
# _framework density 23.097648
#
# number of rings (size 3 to 8) (size 9 to 14) (size 15 to 20)
#    0.000    1.714    2.857    1.286    2.000    0.571 
#    2.571   10.714    0.000    0.000    0.000    0.000 
#    0.000    0.000    0.000    0.000    0.000    0.000 
#
# Total GULP energy -173452.211496 kJ/mol
# GULP energy per Si atom -12389.443678 kJ/mol
# Density = 2.304508 g / cm^3
# Si number density = 23.097648 Si / 1000 Ang^3
#
#
#
# Elastic Constant Matrix: (Units=GPa)
#
#
# Indices 1 2 3 4 5 6 
#
# 1 32.0317 33.1773 16.9769 -3.0675 -9.7784 5.3047
# 2 33.1773 186.8325 25.1732 -20.2685 -7.0718 14.4689
# 3 16.9769 25.1732 106.8230 -4.5596 -10.4551 -7.1155
# 4 -3.0675 -20.2685 -4.5596 24.0311 -0.2453 -2.6330
# 5 -9.7784 -7.0718 -10.4551 -0.2453 36.7425 1.5123
# 6 5.3047 14.4689 -7.1155 -2.6330 1.5123 25.1348
#
#
#
# Elastic Compliance Matrix: (Units=1/GPa)
#
#
# Indices 1 2 3 4 5 6 
#
# 1 0.044729 -0.006419 -0.005261 -0.001478 0.009489 -0.007960
# 2 -0.006419 0.007300 -0.000692 0.004928 -0.000364 -0.002506
# 3 -0.005261 -0.000692 0.010861 0.001328 0.001375 0.004640
# 4 -0.001478 0.004928 0.001328 0.046131 0.001133 0.002615
# 5 0.009489 -0.000364 0.001375 0.001133 0.030198 -0.003102
# 6 -0.007960 -0.002506 0.004640 0.002615 -0.003102 0.044682
#
#
# Mechanical properties :
#
#
# Convention : Reuss Voigt Hill
#
# Bulk Modulus (GPa) = 26.21450 52.92687 39.57069
# Shear Modulus (GPa) = 22.58758 33.87233 28.22996
#
# Velocity S-wave (km/s) = 3.13056 3.83362 3.49979
# Velocity P-wave (km/s) = 4.94381 6.52378 5.78796
#
# Compressibility (1/GPa) = 0.03814682
#
# Stress axis : x y z
#
# Youngs Moduli (GPa) = 22.35682 136.97807 92.07421
#
# Poissons Ratio (x) = 0.87923 0.48436
# Poissons Ratio (y) = 0.14350 0.06376
# Poissons Ratio (z) = 0.11761 0.09485
#
# Static dielectric constant tensor:
#      x y z
#    x 5.306340 0.310200 1.026950 
#    y 0.310200 4.674500 -0.327650 
#    z 1.026950 -0.327650 5.129820 
# 
# 
# High freq. dielectric constant tensor:
#      x y z
#    x 1.873380 0.026930 0.005380 
#    y 0.026930 1.927510 -0.021390 
#    z 0.005380 -0.021390 1.920060 
# 
# From -- ./inp_files/189780.got.cif
#   From: 2010.06.25/outbox.cif.g09.slc.cpg/sg2_95_cif.got.tgz:189780.got - 2010.06.27 13:26:56.
