data_PCOD8006388
_publ_section_title
;
Structure prediction by ZEFSAII (Michael W. Deem and Ramdas Pophale) SiO2 
 PCOD8006388
Probable space group: P -1
;
_chemical_formula_sum "Si O2"
_cell_formula_units_Z 16
_cell_length_a 9.047719
_cell_length_b 18.429926
_cell_length_c 11.344563
_cell_angle_alpha 144.411254
_cell_angle_beta 41.248454
_cell_angle_gamma 140.491836
_cell_volume 659.634753
_symmetry_space_group_name_H-M "P -1"
_symmetry_group_IT_number 2
_symmetry_cell_setting 'triclinic'
loop_
_space_group_symop_operation_xyz
x,y,z
-x,-y,-z
loop_
_atom_site_type_symbol
_atom_site_label
_atom_site_fract_x
_atom_site_fract_y
_atom_site_fract_z
Si Si1 0.932795 0.740597 0.314618
Si Si2 0.828209 0.347889 0.159564
Si Si3 0.495101 0.788750 0.616117
Si Si4 0.295819 0.797411 0.388546
Si Si5 0.279540 0.535502 0.835292
Si Si6 0.763567 0.066115 0.165688
Si Si7 0.309549 0.565683 0.229679
Si Si8 0.309077 0.173915 0.961798
O O1 0.793188 0.840220 0.509623
O O2 0.694811 0.600498 0.315293
O O3 0.128662 0.787040 0.362165
O O4 0.068786 0.728727 0.098261
O O5 0.615558 0.239531 0.223824
O O6 0.718166 0.441488 0.276982
O O7 0.043801 0.440232 0.241161
O O8 0.443994 0.915619 0.763906
O O9 0.379408 0.658991 0.426865
O O10 0.217214 0.872032 0.634743
O O11 0.279298 0.650020 0.246913
O O12 0.578192 0.884062 0.288885
O O13 0.504234 0.666796 0.928215
O O14 0.000000 0.500000 0.000000
O O15 0.700621 0.905705 0.013377
O O16 0.033853 0.149649 0.056147
O O17 0.500000 0.500000 0.000000
#
# Coordination Sequence:
#
# PCOD8006388 Si02
#       8
#     2   2   2   2   2   2   2   2
#     4  11  22  40  66 102 131 163 217 272 330 387
#     4  11  21  38  59  92 132 172 209 257 336 375
#     4  11  26  39  61  95 137 169 217 262 322 397
#     4  11  22  42  71  94 129 174 221 268 322 390
#     4  10  20  39  68  99 123 170 215 267 331 380
#     4  10  27  44  64 101 125 178 224 261 322 384
#     4  11  22  38  60  95 139 167 210 267 326 394
#     4  11  22  45  72  89 133 169 225 273 314 386
#
# _framework density 24.255845000000001
#
# number of rings (size 3 to 8) (size 9 to 14) (size 15 to 20)
#    0.000    1.250    5.000    1.500    3.500    2.500 
#    0.000    1.250    0.000    0.000    0.000    0.000 
#    0.000    0.000    0.000    0.000    0.000    0.000 
#
# Total GULP energy -198262.454557 kJ/mol
# GULP energy per Si atom -12391.403410 kJ/mol
# Density = 2.420064 g / cm^3
# Si number density = 24.255845 Si / 1000 Ang^3
#
#
#
# Elastic Constant Matrix: (Units=GPa)
#
#
# Indices 1 2 3 4 5 6 
#
# 1 107.2931 6.2130 46.7680 -12.2046 -16.9158 -11.2595
# 2 6.2130 69.6305 25.4090 -17.5150 -3.1699 -0.1345
# 3 46.7680 25.4090 80.1515 -25.2533 -13.7597 -6.4260
# 4 -12.2046 -17.5150 -25.2533 32.3934 -4.9420 -2.5608
# 5 -16.9158 -3.1699 -13.7597 -4.9420 45.9835 -3.3353
# 6 -11.2595 -0.1345 -6.4260 -2.5608 -3.3353 30.9199
#
#
#
# Elastic Compliance Matrix: (Units=1/GPa)
#
#
# Indices 1 2 3 4 5 6 
#
# 1 0.013399 0.001899 -0.007104 0.001357 0.003362 0.003886
# 2 0.001899 0.017592 -0.004042 0.007368 0.001545 0.000705
# 3 -0.007104 -0.004042 0.024139 0.015260 0.006287 0.004354
# 4 0.001357 0.007368 0.015260 0.049745 0.011577 0.009066
# 5 0.003362 0.001545 0.006287 0.011577 0.026678 0.006374
# 6 0.003886 0.000705 0.004354 0.009066 0.006374 0.036103
#
#
# Mechanical properties :
#
#
# Convention : Reuss Voigt Hill
#
# Bulk Modulus (GPa) = 27.29538 45.98389 36.63963
# Shear Modulus (GPa) = 25.20640 33.77171 29.48905
#
# Velocity S-wave (km/s) = 3.22714 3.73542 3.49054
# Velocity P-wave (km/s) = 5.01632 6.13217 5.60210
#
# Compressibility (1/GPa) = 0.03663623
#
# Stress axis : x y z
#
# Youngs Moduli (GPa) = 74.63209 56.84417 41.42654
#
# Poissons Ratio (x) = -0.10792 0.29429
# Poissons Ratio (y) = -0.14170 0.16743
# Poissons Ratio (z) = 0.53018 0.22974
#
# Static dielectric constant tensor:
#      x y z
#    x 4.469220 -0.329450 -0.286690 
#    y -0.329450 4.640740 0.040010 
#    z -0.286690 0.040010 4.547760 
# 
# 
# High freq. dielectric constant tensor:
#      x y z
#    x 1.966010 -0.009460 -0.010770 
#    y -0.009460 1.953020 -0.014010 
#    z -0.010770 -0.014010 1.955400 
# 
# From -- ./inp_files/403323.got.cif
#   From: 2010.06.25/outbox.cif.g09.slc.cpg/sg2_202_cif.got.tgz:403323.got - 2010.06.27 13:26:56.
