data_PCOD8006606
_publ_section_title
;
Structure prediction by ZEFSAII (Michael W. Deem and Ramdas Pophale) SiO2 
 PCOD8006606
Probable space group: P -1
;
_chemical_formula_sum "Si O2"
_cell_formula_units_Z 16
_cell_length_a 9.219072
_cell_length_b 12.469252
_cell_length_c 15.176422
_cell_angle_alpha 153.846939
_cell_angle_beta 84.305188
_cell_angle_gamma 87.114243
_cell_volume 725.489551
_symmetry_space_group_name_H-M "P -1"
_symmetry_group_IT_number 2
_symmetry_cell_setting 'triclinic'
loop_
_space_group_symop_operation_xyz
x,y,z
-x,-y,-z
loop_
_atom_site_type_symbol
_atom_site_label
_atom_site_fract_x
_atom_site_fract_y
_atom_site_fract_z
Si Si1 0.264973 0.499857 0.380306
Si Si2 0.138756 0.083101 0.016463
Si Si3 0.565161 0.676748 0.936323
Si Si4 0.466460 0.842211 0.803844
Si Si5 0.207651 0.691563 0.231831
Si Si6 0.863903 0.806858 0.287107
Si Si7 0.072314 0.080348 0.826921
Si Si8 0.255961 0.649192 0.005441
O O1 0.357576 0.484442 0.272861
O O2 0.395439 0.431176 0.401727
O O3 0.146043 0.775708 0.607254
O O4 0.165971 0.303190 0.238886
O O5 0.108670 0.200143 0.004852
O O6 0.293051 0.832298 0.820380
O O7 0.000000 0.000000 0.000000
O O8 0.681132 0.579451 0.939170
O O9 0.406052 0.621754 0.919886
O O10 0.533070 0.984426 0.155287
O O11 0.500000 0.000000 0.000000
O O12 0.035754 0.678496 0.219975
O O13 0.212219 0.911146 0.461845
O O14 0.272060 0.750438 0.177605
O O15 0.866596 0.814631 0.186287
O O16 0.764842 0.630576 0.193421
O O17 0.888594 0.145169 0.880754
#
# Coordination Sequence:
#
# PCOD8006606 Si02
#       8
#     2   2   2   2   2   2   2   2
#     4  10  23  44  66  85 126 168 200 254 312 369
#     4  10  23  39  66  93 121 157 209 255 304 365
#     4  10  20  40  63  90 125 163 197 253 316 355
#     4   8  20  39  65  84 122 165 194 249 314 362
#     4  10  20  40  62  86 127 162 210 245 307 359
#     4  10  23  39  63  92 124 164 209 253 297 371
#     4  11  23  39  67  93 121 166 206 247 315 364
#     4  11  25  36  64  96 126 157 213 258 293 367
#
# _framework density 22.054072999999999
#
# number of rings (size 3 to 8) (size 9 to 14) (size 15 to 20)
#    0.000    2.250    1.250    1.875   12.250    1.500 
#    0.000    0.000    0.000    0.000    0.000    0.000 
#    0.000    0.000    0.000    0.000    0.000    0.000 
#
# Total GULP energy -198317.731704 kJ/mol
# GULP energy per Si atom -12394.858232 kJ/mol
# Density = 2.200388 g / cm^3
# Si number density = 22.054073 Si / 1000 Ang^3
#
#
#
# Elastic Constant Matrix: (Units=GPa)
#
#
# Indices 1 2 3 4 5 6 
#
# 1 152.0281 67.2190 29.6986 17.9292 -15.8536 10.4377
# 2 67.2190 81.4812 21.8440 15.3735 -13.5823 -13.9571
# 3 29.6986 21.8440 60.7121 17.2234 -10.3943 -2.4050
# 4 17.9292 15.3735 17.2234 38.1515 -11.4848 -5.8208
# 5 -15.8536 -13.5823 -10.3943 -11.4848 17.9985 8.9232
# 6 10.4377 -13.9571 -2.4050 -5.8208 8.9232 54.6514
#
#
#
# Elastic Compliance Matrix: (Units=1/GPa)
#
#
# Indices 1 2 3 4 5 6 
#
# 1 0.012123 -0.009604 -0.001728 -0.000413 0.004997 -0.005704
# 2 -0.009604 0.022790 -0.002238 -0.001727 0.002926 0.006894
# 3 -0.001728 -0.002238 0.020744 -0.006206 0.005227 -0.000843
# 4 -0.000413 -0.001727 -0.006206 0.035058 0.016955 0.000330
# 5 0.004997 0.002926 0.005227 0.016955 0.081716 -0.011513
# 6 -0.005704 0.006894 -0.000843 0.000330 -0.011513 0.023026
#
#
# Mechanical properties :
#
#
# Convention : Reuss Voigt Hill
#
# Bulk Modulus (GPa) = 35.06620 59.08273 47.07447
# Shear Modulus (GPa) = 21.54230 33.85760 27.69995
#
# Velocity S-wave (km/s) = 3.12876 3.92242 3.54786
# Velocity P-wave (km/s) = 5.38394 6.88200 6.17854
#
# Compressibility (1/GPa) = 0.02851749
#
# Stress axis : x y z
#
# Youngs Moduli (GPa) = 82.48695 43.87850 48.20750
#
# Poissons Ratio (x) = 0.42141 0.08330
# Poissons Ratio (y) = 0.79220 0.10788
# Poissons Ratio (z) = 0.14254 0.09819
#
# Static dielectric constant tensor:
#      x y z
#    x 4.105190 -0.559420 -0.268720 
#    y -0.559420 4.339500 0.217650 
#    z -0.268720 0.217650 3.993390 
# 
# 
# High freq. dielectric constant tensor:
#      x y z
#    x 1.871480 -0.026060 -0.005840 
#    y -0.026060 1.869750 0.006270 
#    z -0.005840 0.006270 1.854290 
# 
# From -- ./inp_files/454569.got.cif
#   From: 2010.06.25/outbox.cif.g09.slc.cpg/sg2_228_cif.got.tgz:454569.got - 2010.06.27 13:26:56.
