data_PCOD8006517
_publ_section_title
;
Structure prediction by ZEFSAII (Michael W. Deem and Ramdas Pophale) SiO2 
 PCOD8006517
Probable space group: P -1
;
_chemical_formula_sum "Si O2"
_cell_formula_units_Z 16
_cell_length_a 11.876653
_cell_length_b 20.559709
_cell_length_c 8.713654
_cell_angle_alpha 29.206568
_cell_angle_beta 128.174274
_cell_angle_gamma 129.352835
_cell_volume 790.975639
_symmetry_space_group_name_H-M "P -1"
_symmetry_group_IT_number 2
_symmetry_cell_setting 'triclinic'
loop_
_space_group_symop_operation_xyz
x,y,z
-x,-y,-z
loop_
_atom_site_type_symbol
_atom_site_label
_atom_site_fract_x
_atom_site_fract_y
_atom_site_fract_z
Si Si1 0.648565 0.785511 0.375147
Si Si2 0.388263 0.872613 0.097939
Si Si3 0.914518 0.102724 0.298129
Si Si4 0.568103 0.520055 0.686340
Si Si5 0.056685 0.002541 0.874633
Si Si6 0.241506 0.610170 0.697341
Si Si7 0.976297 0.710183 0.245302
Si Si8 0.303152 0.403348 0.925778
O O1 0.482976 0.808306 0.188304
O O2 0.650581 0.679713 0.454921
O O3 0.769077 0.928216 0.146452
O O4 0.682399 0.727427 0.690515
O O5 0.321101 0.765499 0.396268
O O6 0.263201 0.935595 0.782637
O O7 0.500000 0.000000 0.000000
O O8 0.000000 0.000000 0.500000
O O9 0.962981 0.101961 0.515665
O O10 0.971654 0.253095 0.962940
O O11 0.500000 0.500000 0.500000
O O12 0.456946 0.477831 0.823436
O O13 0.687675 0.430098 0.001613
O O14 0.012711 0.847442 0.094910
O O15 0.000000 0.000000 0.000000
O O16 0.248072 0.508945 0.770572
O O17 0.069708 0.605141 0.601916
O O18 0.802778 0.640451 0.223091
#
# Coordination Sequence:
#
# PCOD8006517 Si02
#       8
#     2   2   2   2   2   2   2   2
#     4  11  21  42  61  91 119 164 211 253 301 368
#     4  11  20  34  66  93 120 155 210 259 294 356
#     4   9  19  37  58  89 116 157 204 244 298 360
#     4  11  24  41  62  90 127 164 200 250 316 372
#     4  11  24  41  59  89 130 165 201 252 323 368
#     4  10  20  40  59  95 119 154 210 257 299 361
#     4  10  21  37  65  90 116 157 209 255 297 369
#     4  11  20  39  68  87 120 157 209 252 304 362
#
# _framework density 20.228183000000001
#
# number of rings (size 3 to 8) (size 9 to 14) (size 15 to 20)
#    0.000    1.500    3.750    3.375    3.500    0.000 
#    2.250    1.250    0.000    0.000    0.000    0.000 
#    0.000    0.000    0.000    0.000    0.000    0.000 
#
# Total GULP energy -198263.987878 kJ/mol
# GULP energy per Si atom -12391.499242 kJ/mol
# Density = 2.018214 g / cm^3
# Si number density = 20.228183 Si / 1000 Ang^3
#
#
#
# Elastic Constant Matrix: (Units=GPa)
#
#
# Indices 1 2 3 4 5 6 
#
# 1 67.7669 21.4214 39.1450 17.0242 12.4177 5.5363
# 2 21.4214 102.1588 38.5957 9.6230 8.8077 1.2740
# 3 39.1450 38.5957 94.1507 22.1014 22.4205 -5.1846
# 4 17.0242 9.6230 22.1014 40.2531 6.5733 -0.0578
# 5 12.4177 8.8077 22.4205 6.5733 37.0592 10.4346
# 6 5.5363 1.2740 -5.1846 -0.0578 10.4346 34.4672
#
#
#
# Elastic Compliance Matrix: (Units=1/GPa)
#
#
# Indices 1 2 3 4 5 6 
#
# 1 0.020885 -0.001101 -0.007353 -0.004495 -0.000267 -0.004347
# 2 -0.001101 0.011699 -0.004577 0.000071 0.000667 -0.001146
# 3 -0.007353 -0.004577 0.019283 -0.004866 -0.009233 0.007038
# 4 -0.004495 0.000071 -0.004866 0.029545 -0.000894 0.000308
# 5 -0.000267 0.000667 -0.009233 -0.000894 0.036125 -0.012309
# 6 -0.004347 -0.001146 0.007038 0.000308 -0.012309 0.034539
#
#
# Mechanical properties :
#
#
# Convention : Reuss Voigt Hill
#
# Bulk Modulus (GPa) = 38.75035 51.37782 45.06409
# Shear Modulus (GPa) = 26.77547 33.35017 30.06282
#
# Velocity S-wave (km/s) = 3.64218 4.06482 3.85929
# Velocity P-wave (km/s) = 6.07334 6.89091 6.49500
#
# Compressibility (1/GPa) = 0.02580622
#
# Stress axis : x y z
#
# Youngs Moduli (GPa) = 47.88140 85.47988 51.85930
#
# Poissons Ratio (x) = 0.09410 0.38130
# Poissons Ratio (y) = 0.05271 0.23735
# Poissons Ratio (z) = 0.35205 0.39122
#
# Static dielectric constant tensor:
#      x y z
#    x 3.226710 -0.453280 -1.091400 
#    y -0.453280 2.890850 -1.542680 
#    z -1.091400 -1.542680 0.599600 
# 
# 
# High freq. dielectric constant tensor:
#      x y z
#    x 1.769030 0.021510 0.020540 
#    y 0.021510 1.792540 -0.001320 
#    z 0.020540 -0.001320 1.789250 
# 
# From -- ./inp_files/179051.got.cif
#   From: 2010.06.25/outbox.cif.g09.slc.cpg/sg2_90_cif.got.tgz:179051.got - 2010.06.27 13:26:56.
