data_PCOD8006064
_publ_section_title
;
Structure prediction by ZEFSAII (Michael W. Deem and Ramdas Pophale) SiO2 
 PCOD8006064
Probable space group: P -1
;
_chemical_formula_sum "Si O2"
_cell_formula_units_Z 14
_cell_length_a 14.076759
_cell_length_b 9.942540
_cell_length_c 10.509789
_cell_angle_alpha 28.197393
_cell_angle_beta 75.780341
_cell_angle_gamma 72.068924
_cell_volume 660.192786
_symmetry_space_group_name_H-M "P -1"
_symmetry_group_IT_number 2
_symmetry_cell_setting 'triclinic'
loop_
_space_group_symop_operation_xyz
x,y,z
-x,-y,-z
loop_
_atom_site_type_symbol
_atom_site_label
_atom_site_fract_x
_atom_site_fract_y
_atom_site_fract_z
Si Si1 0.884087 0.342038 0.741326
Si Si2 0.022811 0.117079 0.101145
Si Si3 0.189071 0.247724 0.111639
Si Si4 0.400440 0.229122 0.699859
Si Si5 0.622015 0.143201 0.738543
Si Si6 0.238175 0.041579 0.756792
Si Si7 0.841354 0.105311 0.346740
O O1 0.062508 0.812727 0.271630
O O2 0.846947 0.671491 0.436822
O O3 0.962162 0.340779 0.832411
O O4 0.791985 0.197412 0.939572
O O5 0.950814 0.073804 0.276661
O O6 0.116002 0.236857 0.025974
O O7 0.296190 0.041377 0.226025
O O8 0.146387 0.143513 0.343158
O O9 0.199824 0.579603 0.842355
O O10 0.516433 0.214161 0.637819
O O11 0.346377 0.557194 0.479932
O O12 0.346178 0.108532 0.699573
O O13 0.390246 0.032778 0.986004
O O14 0.240217 0.940935 0.693581
#
# Coordination Sequence:
#
# PCOD8006064 Si02
#       7
#     2   2   2   2   2   2   2
#     4  10  23  36  60  88 111 142 194 240 282 334
#     4  10  22  39  58  83 114 151 191 237 281 323
#     4  12  23  39  57  81 118 156 187 228 274 335
#     4  10  20  39  65  88 112 140 180 245 292 326
#     4  10  22  38  62  92 111 139 190 232 287 343
#     4  11  21  40  58  84 116 149 185 236 286 326
#     4  11  25  37  54  81 117 158 195 220 266 344
#
# _framework density 21.205926000000002
#
# number of rings (size 3 to 8) (size 9 to 14) (size 15 to 20)
#    0.000    1.429    0.000    6.000    0.000    9.714 
#    0.000    1.429    0.000    0.000    0.000    0.000 
#    0.000    0.000    0.000    0.000    0.000    0.000 
#
# Total GULP energy -173659.680977 kJ/mol
# GULP energy per Si atom -12404.262927 kJ/mol
# Density = 2.115766 g / cm^3
# Si number density = 21.205926 Si / 1000 Ang^3
#
#
#
# Elastic Constant Matrix: (Units=GPa)
#
#
# Indices 1 2 3 4 5 6 
#
# 1 125.6398 48.5578 2.5200 -8.1600 -0.5825 18.3920
# 2 48.5578 83.5461 7.5862 -7.1536 -4.3797 6.9800
# 3 2.5200 7.5862 73.9773 -10.8054 -8.3954 8.6280
# 4 -8.1600 -7.1536 -10.8054 27.9794 -0.1155 -0.2965
# 5 -0.5825 -4.3797 -8.3954 -0.1155 23.5862 1.3794
# 6 18.3920 6.9800 8.6280 -0.2965 1.3794 24.3428
#
#
#
# Elastic Compliance Matrix: (Units=1/GPa)
#
#
# Indices 1 2 3 4 5 6 
#
# 1 0.011481 -0.005978 0.001442 0.002299 0.000134 -0.007451
# 2 -0.005978 0.015807 -0.000868 0.001975 0.002478 0.000175
# 3 0.001442 -0.000868 0.015945 0.006309 0.005976 -0.006754
# 4 0.002299 0.001975 0.006309 0.039320 0.003110 -0.004237
# 5 0.000134 0.002478 0.005976 0.003110 0.045323 -0.005460
# 6 -0.007451 0.000175 -0.006754 -0.004237 -0.005460 0.049311
#
#
# Mechanical properties :
#
#
# Convention : Reuss Voigt Hill
#
# Bulk Modulus (GPa) = 30.83998 44.49903 37.66950
# Shear Modulus (GPa) = 25.15048 30.14830 27.64939
#
# Velocity S-wave (km/s) = 3.44759 3.77462 3.61481
# Velocity P-wave (km/s) = 5.51566 6.32668 5.93504
#
# Compressibility (1/GPa) = 0.03242545
#
# Stress axis : x y z
#
# Youngs Moduli (GPa) = 87.09850 63.26359 62.71557
#
# Poissons Ratio (x) = 0.37816 -0.09043
# Poissons Ratio (y) = 0.52064 0.05444
# Poissons Ratio (z) = -0.12558 0.05492
#
# Static dielectric constant tensor:
#      x y z
#    x 4.095110 0.149230 -0.022370 
#    y 0.149230 3.768720 -0.086860 
#    z -0.022370 -0.086860 3.797180 
# 
# 
# High freq. dielectric constant tensor:
#      x y z
#    x 1.829730 0.013030 0.000080 
#    y 0.013030 1.821230 -0.008990 
#    z 0.000080 -0.008990 1.842240 
# 
# From -- ./inp_files/439730.got.cif
#   From: 2010.06.25/outbox.cif.g09.slc.cpg/sg2_220_cif.got.tgz:439730.got - 2010.06.27 13:26:56.
