data_PCOD8006650
_publ_section_title
;
Structure prediction by ZEFSAII (Michael W. Deem and Ramdas Pophale) SiO2 
 PCOD8006650
Probable space group: P -1
;
_chemical_formula_sum "Si O2"
_cell_formula_units_Z 16
_cell_length_a 5.184107
_cell_length_b 16.855770
_cell_length_c 11.489427
_cell_angle_alpha 80.982998
_cell_angle_beta 116.030035
_cell_angle_gamma 107.507869
_cell_volume 859.983458
_symmetry_space_group_name_H-M "P -1"
_symmetry_group_IT_number 2
_symmetry_cell_setting 'triclinic'
loop_
_space_group_symop_operation_xyz
x,y,z
-x,-y,-z
loop_
_atom_site_type_symbol
_atom_site_label
_atom_site_fract_x
_atom_site_fract_y
_atom_site_fract_z
Si Si1 0.407212 0.779780 0.624921
Si Si2 0.601487 0.971213 0.649882
Si Si3 0.936603 0.401181 0.014170
Si Si4 0.894910 0.519200 0.349517
Si Si5 0.255547 0.229038 0.544324
Si Si6 0.160414 0.043985 0.637268
Si Si7 0.578571 0.381248 0.723810
Si Si8 0.445609 0.635815 0.826675
O O1 0.484832 0.873107 0.667215
O O2 0.597325 0.775440 0.549616
O O3 0.499119 0.724615 0.755496
O O4 0.056255 0.747500 0.537018
O O5 0.500000 0.000000 0.500000
O O6 0.471121 0.018709 0.715183
O O7 0.959395 0.004374 0.717713
O O8 0.242217 0.375543 0.063936
O O9 0.778522 0.366822 0.110807
O O10 0.000000 0.500000 0.000000
O O11 0.725444 0.359803 0.876007
O O12 0.705754 0.586359 0.306489
O O13 0.688198 0.434977 0.276841
O O14 0.000000 0.500000 0.500000
O O15 0.181695 0.550522 0.317511
O O16 0.205696 0.142257 0.621373
O O17 0.477612 0.297868 0.648690
O O18 0.000000 0.000000 0.500000
#
# Coordination Sequence:
#
# PCOD8006650 Si02
#       8
#     2   2   2   2   2   2   2   2
#     4  12  22  35  56  90 128 140 182 236 295 350
#     4  10  16  31  52  81 115 152 179 210 273 361
#     4  12  23  45  63  76 105 155 224 233 264 330
#     4  12  23  40  57  85 120 146 182 223 307 356
#     4  12  21  35  54  89 124 144 180 230 295 348
#     4  10  16  30  52  77 116 148 181 209 268 360
#     4  12  25  38  60  82 109 159 190 241 272 329
#     4  12  24  39  62  85 108 158 192 248 281 318
#
# _framework density 18.60501
#
# number of rings (size 3 to 8) (size 9 to 14) (size 15 to 20)
#    0.000    0.500    7.500    4.500    0.000    0.000 
#    0.000    0.000    0.000    0.000    0.000    5.250 
#    0.000    0.000    0.000    0.000    0.000    0.000 
#
# Total GULP energy -198429.952709 kJ/mol
# GULP energy per Si atom -12401.872044 kJ/mol
# Density = 1.856266 g / cm^3
# Si number density = 18.605010 Si / 1000 Ang^3
#
#
#
# Elastic Constant Matrix: (Units=GPa)
#
#
# Indices 1 2 3 4 5 6 
#
# 1 120.5483 7.0862 10.5635 -2.9572 7.1996 3.5776
# 2 7.0862 91.4641 21.8829 -18.0047 11.2734 -1.6717
# 3 10.5635 21.8829 71.8466 -3.6255 6.9412 3.3152
# 4 -2.9572 -18.0047 -3.6255 8.7593 -1.8392 2.7308
# 5 7.1996 11.2734 6.9412 -1.8392 24.1244 0.2794
# 6 3.5776 -1.6717 3.3152 2.7308 0.2794 19.3553
#
#
#
# Elastic Compliance Matrix: (Units=1/GPa)
#
#
# Indices 1 2 3 4 5 6 
#
# 1 0.008628 0.000535 -0.000939 0.003738 -0.002248 -0.001883
# 2 0.000535 0.020292 -0.003538 0.040313 -0.005512 -0.003348
# 3 -0.000939 -0.003538 0.015455 -0.000913 -0.002553 -0.002614
# 4 0.003738 0.040313 -0.000913 0.205217 -0.003745 -0.025953
# 5 -0.002248 -0.005512 -0.002553 -0.003745 0.045144 0.000253
# 6 -0.001883 -0.003348 -0.002614 -0.025953 0.000253 0.055830
#
#
# Mechanical properties :
#
#
# Convention : Reuss Voigt Hill
#
# Bulk Modulus (GPa) = 27.40354 40.32490 33.86422
# Shear Modulus (GPa) = 13.49112 26.73623 20.11367
#
# Velocity S-wave (km/s) = 2.69575 3.79495 3.29156
# Velocity P-wave (km/s) = 4.94475 6.39714 5.71725
#
# Compressibility (1/GPa) = 0.03649164
#
# Stress axis : x y z
#
# Youngs Moduli (GPa) = 115.90039 49.28043 64.70288
#
# Poissons Ratio (x) = -0.02635 0.06074
# Poissons Ratio (y) = -0.06197 0.22891
# Poissons Ratio (z) = 0.10880 0.17435
#
# Static dielectric constant tensor:
#      x y z
#    x 2.658940 0.149080 0.293580 
#    y 0.149080 3.481170 -0.049510 
#    z 0.293580 -0.049510 3.163940 
# 
# 
# High freq. dielectric constant tensor:
#      x y z
#    x 1.758150 0.000140 0.001550 
#    y 0.000140 1.724190 -0.006050 
#    z 0.001550 -0.006050 1.678150 
# 
# From -- ./inp_files/322609.got.cif
#   From: 2010.06.25/outbox.cif.g09.slc.cpg/sg2_162_cif.got.tgz:322609.got - 2010.06.27 13:26:56.
