data_PCOD8006086
_publ_section_title
;
Structure prediction by ZEFSAII (Michael W. Deem and Ramdas Pophale) SiO2 
 PCOD8006086
Probable space group: P -1
;
_chemical_formula_sum "Si O2"
_cell_formula_units_Z 12
_cell_length_a 15.847833
_cell_length_b 9.527536
_cell_length_c 14.374648
_cell_angle_alpha 150.031542
_cell_angle_beta 150.642251
_cell_angle_gamma 39.082460
_cell_volume 529.539683
_symmetry_space_group_name_H-M "P -1"
_symmetry_group_IT_number 2
_symmetry_cell_setting 'triclinic'
loop_
_space_group_symop_operation_xyz
x,y,z
-x,-y,-z
loop_
_atom_site_type_symbol
_atom_site_label
_atom_site_fract_x
_atom_site_fract_y
_atom_site_fract_z
Si Si1 0.695094 0.314227 0.890230
Si Si2 0.816792 0.162273 0.384146
Si Si3 0.177341 0.746783 0.365555
Si Si4 0.807261 0.607334 0.986086
Si Si5 0.301578 0.301611 0.518432
Si Si6 0.171199 0.347906 0.618487
O O1 0.794776 0.454097 0.984089
O O2 0.490976 0.377638 0.714389
O O3 0.747130 0.978284 0.742669
O O4 0.745514 0.437931 0.108793
O O5 0.711534 0.240682 0.424447
O O6 0.833753 0.440238 0.497861
O O7 0.000000 0.000000 0.500000
O O8 0.723129 0.931400 0.100735
O O9 0.281783 0.557491 0.278126
O O10 0.127058 0.062583 0.462487
O O11 0.008935 0.595108 0.147258
O O12 0.297885 0.267705 0.607047
O O13 0.000000 0.500000 0.500000
#
# Coordination Sequence:
#
# PCOD8006086 Si02
#       6
#     2   2   2   2   2   2
#     4  11  25  45  68  96 141 179 219 269 339 405
#     4  10  21  40  65  94 129 168 219 276 323 384
#     4  10  21  38  63  96 130 162 226 277 320 390
#     4  10  20  39  65  91 129 173 215 273 327 385
#     4  11  26  45  67  99 138 180 220 270 335 404
#     4  12  24  41  70 102 129 176 227 281 329 388
#
# _framework density 22.661192
#
# number of rings (size 3 to 8) (size 9 to 14) (size 15 to 20)
#    0.000    1.333    3.333    2.500    2.333    6.667 
#    0.000    0.833    0.000    0.000    0.000    0.000 
#    0.000    0.000    0.000    0.000    0.000    0.000 
#
# Total GULP energy -148710.517596 kJ/mol
# GULP energy per Si atom -12392.543133 kJ/mol
# Density = 2.260961 g / cm^3
# Si number density = 22.661192 Si / 1000 Ang^3
#
#
#
# Elastic Constant Matrix: (Units=GPa)
#
#
# Indices 1 2 3 4 5 6 
#
# 1 137.3500 33.2613 59.1889 15.9497 -32.1833 9.8570
# 2 33.2613 72.7771 42.2334 26.0829 5.9882 9.2350
# 3 59.1889 42.2334 116.3221 31.3075 -24.4303 -3.5156
# 4 15.9497 26.0829 31.3075 29.3226 -4.7582 -2.1147
# 5 -32.1833 5.9882 -24.4303 -4.7582 58.3368 14.1415
# 6 9.8570 9.2350 -3.5156 -2.1147 14.1415 30.1019
#
#
#
# Elastic Compliance Matrix: (Units=1/GPa)
#
#
# Indices 1 2 3 4 5 6 
#
# 1 0.011632 -0.003342 -0.003845 0.001398 0.006798 -0.006328
# 2 -0.003342 0.025196 -0.004230 -0.017492 -0.006322 -0.005388
# 3 -0.003845 -0.004230 0.015610 -0.010093 0.003540 0.002008
# 4 0.001398 -0.017492 -0.010093 0.060448 0.001509 0.007268
# 5 0.006798 -0.006322 0.003540 0.001509 0.026058 -0.012008
# 6 -0.006328 -0.005388 0.002008 0.007268 -0.012008 0.043332
#
#
# Mechanical properties :
#
#
# Convention : Reuss Voigt Hill
#
# Bulk Modulus (GPa) = 33.78019 66.20181 49.99100
# Shear Modulus (GPa) = 23.25834 36.33663 29.79749
#
# Velocity S-wave (km/s) = 3.20715 4.00868 3.63011
# Velocity P-wave (km/s) = 5.35289 7.12062 6.29907
#
# Compressibility (1/GPa) = 0.02960315
#
# Stress axis : x y z
#
# Youngs Moduli (GPa) = 85.97339 39.68908 64.06246
#
# Poissons Ratio (x) = 0.13264 0.24632
# Poissons Ratio (y) = 0.28733 0.27098
# Poissons Ratio (z) = 0.33056 0.16788
#
# Static dielectric constant tensor:
#      x y z
#    x 5.472160 -0.106040 -1.131940 
#    y -0.106040 3.712030 0.501730 
#    z -1.131940 0.501730 4.933650 
# 
# 
# High freq. dielectric constant tensor:
#      x y z
#    x 1.925590 0.005230 -0.021580 
#    y 0.005230 1.860640 0.036590 
#    z -0.021580 0.036590 1.893980 
# 
# From -- ./inp_files/158946.got.cif
#   From: 2010.06.25/outbox.cif.g09.slc.cpg/sg2_80_cif.got.tgz:158946.got - 2010.06.27 13:26:56.
