data_PCOD8006667
_publ_section_title
;
Structure prediction by ZEFSAII (Michael W. Deem and Ramdas Pophale) SiO2 
 PCOD8006667
Probable space group: P -1
;
_chemical_formula_sum "Si O2"
_cell_formula_units_Z 16
_cell_length_a 23.380467
_cell_length_b 24.828836
_cell_length_c 14.908844
_cell_angle_alpha 18.441577
_cell_angle_beta 25.935810
_cell_angle_gamma 16.393128
_cell_volume 767.012015
_symmetry_space_group_name_H-M "P -1"
_symmetry_group_IT_number 2
_symmetry_cell_setting 'triclinic'
loop_
_space_group_symop_operation_xyz
x,y,z
-x,-y,-z
loop_
_atom_site_type_symbol
_atom_site_label
_atom_site_fract_x
_atom_site_fract_y
_atom_site_fract_z
Si Si1 0.679017 0.616788 0.436695
Si Si2 0.548418 0.772358 0.687297
Si Si3 0.436574 0.374983 0.763024
Si Si4 0.773383 0.756215 0.245946
Si Si5 0.758200 0.621653 0.807175
Si Si6 0.184683 0.497803 0.773241
Si Si7 0.664553 0.276847 0.049794
Si Si8 0.777841 0.918577 0.599225
O O1 0.759128 0.685057 0.280690
O O2 0.722781 0.628324 0.256017
O O3 0.437331 0.831972 0.445781
O O4 0.783640 0.327555 0.768053
O O5 0.694774 0.698491 0.520044
O O6 0.684139 0.600360 0.855156
O O7 0.449132 0.694688 0.919196
O O8 0.360959 0.082849 0.483376
O O9 0.500000 0.500000 0.500000
O O10 0.309818 0.508846 0.637218
O O11 0.287220 0.454046 0.925437
O O12 0.637218 0.061096 0.962353
O O13 0.003297 0.579621 0.220640
O O14 0.952251 0.794731 0.620810
O O15 0.196421 0.304788 0.113363
O O16 0.808998 0.995004 0.342353
O O17 0.500000 0.500000 0.000000
#
# Coordination Sequence:
#
# PCOD8006667 Si02
#       8
#     2   2   2   2   2   2   2   2
#     4  11  23  38  66  96 127 169 201 269 324 372
#     4  10  20  43  63  93 129 162 212 263 313 382
#     4  11  26  46  60  90 133 165 215 272 303 376
#     4  11  22  42  68  91 126 165 218 257 327 383
#     4  10  24  40  69  90 121 178 211 256 316 377
#     4  11  24  39  66  93 125 170 215 250 323 383
#     4  10  20  40  62  94 134 161 201 273 325 365
#     4  10  21  41  63  93 127 164 206 261 315 383
#
# _framework density 20.860168999999999
#
# number of rings (size 3 to 8) (size 9 to 14) (size 15 to 20)
#    0.000    1.500    3.750    1.500    7.000    1.000 
#    4.500    0.000    0.000    0.000    0.000    0.000 
#    0.000    0.000    0.000    0.000    0.000    0.000 
#
# Total GULP energy -198407.801100 kJ/mol
# GULP energy per Si atom -12400.487569 kJ/mol
# Density = 2.081269 g / cm^3
# Si number density = 20.860169 Si / 1000 Ang^3
#
#
#
# Elastic Constant Matrix: (Units=GPa)
#
#
# Indices 1 2 3 4 5 6 
#
# 1 148.2381 20.6288 49.6313 -3.6297 -6.2136 -12.3180
# 2 20.6288 70.5531 32.7614 -1.2396 8.0117 -18.2557
# 3 49.6313 32.7614 101.8629 -1.3742 -9.8788 -11.8593
# 4 -3.6297 -1.2396 -1.3742 12.9517 -6.6052 4.7500
# 5 -6.2136 8.0117 -9.8788 -6.6052 33.6578 3.2197
# 6 -12.3180 -18.2557 -11.8593 4.7500 3.2197 27.3581
#
#
#
# Elastic Compliance Matrix: (Units=1/GPa)
#
#
# Indices 1 2 3 4 5 6 
#
# 1 0.008203 -0.000398 -0.003601 0.001717 0.000748 0.001481
# 2 -0.000398 0.022028 -0.006323 -0.009345 -0.010406 0.014626
# 3 -0.003601 -0.006323 0.014088 0.003123 0.005679 -0.000944
# 4 0.001717 -0.009345 0.003123 0.098856 0.025176 -0.024236
# 5 0.000748 -0.010406 0.005679 0.025176 0.040201 -0.013248
# 6 0.001481 0.014626 -0.000944 -0.024236 -0.013248 0.052336
#
#
# Mechanical properties :
#
#
# Convention : Reuss Voigt Hill
#
# Bulk Modulus (GPa) = 42.23773 58.52191 50.37982
# Shear Modulus (GPa) = 18.92156 29.30238 24.11197
#
# Velocity S-wave (km/s) = 3.01502 3.75200 3.40352
# Velocity P-wave (km/s) = 5.69319 6.84729 6.29674
#
# Compressibility (1/GPa) = 0.02367552
#
# Stress axis : x y z
#
# Youngs Moduli (GPa) = 121.90183 45.39615 70.98136
#
# Poissons Ratio (x) = 0.01807 0.25559
# Poissons Ratio (y) = 0.04852 0.44884
# Poissons Ratio (z) = 0.43895 0.28705
#
# Static dielectric constant tensor:
#      x y z
#    x 3.829230 -0.060930 0.281180 
#    y -0.060930 3.721630 -0.039100 
#    z 0.281180 -0.039100 4.147960 
# 
# 
# High freq. dielectric constant tensor:
#      x y z
#    x 1.821950 -0.005490 0.007160 
#    y -0.005490 1.817640 0.001690 
#    z 0.007160 0.001690 1.812580 
# 
# From -- ./inp_files/541748.got.cif
#   From: 2010.06.25/outbox.cif.g09.slc.cpg/sg2_271_cif.got.tgz:541748.got - 2010.06.27 13:26:56.
