data_PCOD8006060
_publ_section_title
;
Structure prediction by ZEFSAII (Michael W. Deem and Ramdas Pophale) SiO2 
 PCOD8006060
Probable space group: P -1
;
_chemical_formula_sum "Si O2"
_cell_formula_units_Z 16
_cell_length_a 9.217806
_cell_length_b 22.730229
_cell_length_c 12.758968
_cell_angle_alpha 28.790108
_cell_angle_beta 142.847105
_cell_angle_gamma 133.207049
_cell_volume 776.672546
_symmetry_space_group_name_H-M "P -1"
_symmetry_group_IT_number 2
_symmetry_cell_setting 'triclinic'
loop_
_space_group_symop_operation_xyz
x,y,z
-x,-y,-z
loop_
_atom_site_type_symbol
_atom_site_label
_atom_site_fract_x
_atom_site_fract_y
_atom_site_fract_z
Si Si1 0.564281 0.801944 0.035958
Si Si2 0.807169 0.375706 0.830763
Si Si3 0.510355 0.408866 0.405045
Si Si4 0.414007 0.646528 0.873456
Si Si5 0.865390 0.611428 0.615379
Si Si6 0.617060 0.871687 0.736160
Si Si7 0.751727 0.959742 0.467031
Si Si8 0.356222 0.282866 0.311583
O O1 0.348294 0.708191 0.051348
O O2 0.769124 0.749025 0.315061
O O3 0.706881 0.813092 0.989454
O O4 0.448897 0.930692 0.809597
O O5 0.714874 0.362496 0.678130
O O6 0.769375 0.516757 0.622184
O O7 0.082115 0.332589 0.068449
O O8 0.246821 0.422183 0.285467
O O9 0.486113 0.309094 0.454957
O O10 0.577486 0.541033 0.191366
O O11 0.425783 0.779489 0.724551
O O12 0.493275 0.648752 0.795615
O O13 0.148032 0.601666 0.798344
O O14 0.806646 0.896010 0.713366
O O15 0.500000 0.000000 0.500000
O O16 0.636807 0.862897 0.474260
O O17 0.000000 0.000000 0.500000
#
# Coordination Sequence:
#
# PCOD8006060 Si02
#       8
#     2   2   2   2   2   2   2   2
#     4  10  20  40  62  90 121 157 210 252 300 362
#     4  11  22  39  65  91 125 159 208 253 303 359
#     4  11  23  39  63  92 123 164 206 246 313 358
#     4  11  22  39  59  90 129 158 203 250 309 365
#     4  11  23  38  63  92 122 161 202 259 299 361
#     4   9  20  36  61  88 114 159 206 242 303 355
#     4  10  20  39  65  86 122 164 203 253 305 365
#     4  11  24  41  60  92 125 162 204 253 307 367
#
# _framework density 20.600702999999999
#
# number of rings (size 3 to 8) (size 9 to 14) (size 15 to 20)
#    0.000    1.500    2.500    3.750    1.750    0.500 
#    4.500    8.125    2.750    0.000    0.000    0.000 
#    0.000    0.000    0.000    0.000    0.000    0.000 
#
# Total GULP energy -198293.555912 kJ/mol
# GULP energy per Si atom -12393.347245 kJ/mol
# Density = 2.055381 g / cm^3
# Si number density = 20.600703 Si / 1000 Ang^3
#
#
#
# Elastic Constant Matrix: (Units=GPa)
#
#
# Indices 1 2 3 4 5 6 
#
# 1 97.5971 39.9464 30.2121 -5.7082 -24.3204 -14.6086
# 2 39.9464 101.9804 39.3718 -22.1638 -17.9728 -17.8256
# 3 30.2121 39.3718 85.6323 -15.8672 -13.8991 -9.3609
# 4 -5.7082 -22.1638 -15.8672 29.8431 -0.7398 0.3006
# 5 -24.3204 -17.9728 -13.8991 -0.7398 30.1227 1.3060
# 6 -14.6086 -17.8256 -9.3609 0.3006 1.3060 30.5058
#
#
#
# Elastic Compliance Matrix: (Units=1/GPa)
#
#
# Indices 1 2 3 4 5 6 
#
# 1 0.014983 -0.002608 -0.002053 0.000023 0.009394 0.004618
# 2 -0.002608 0.016596 -0.002981 0.010327 0.006364 0.007159
# 3 -0.002053 -0.002981 0.015679 0.005807 0.003860 0.001864
# 4 0.000023 0.010327 0.005807 0.044439 0.009649 0.006976
# 5 0.009394 0.006364 0.003860 0.009649 0.046279 0.007325
# 6 0.004618 0.007159 0.001864 0.006976 0.007325 0.039365
#
#
# Mechanical properties :
#
#
# Convention : Reuss Voigt Hill
#
# Bulk Modulus (GPa) = 31.27659 56.03005 43.65332
# Shear Modulus (GPa) = 24.59623 29.80631 27.20127
#
# Velocity S-wave (km/s) = 3.45911 3.80789 3.63768
# Velocity P-wave (km/s) = 5.58293 6.82572 6.23537
#
# Compressibility (1/GPa) = 0.03197280
#
# Stress axis : x y z
#
# Youngs Moduli (GPa) = 66.74319 60.25625 63.77979
#
# Poissons Ratio (x) = 0.15717 0.13094
# Poissons Ratio (y) = 0.17409 0.19013
# Poissons Ratio (z) = 0.13702 0.17962
#
# Static dielectric constant tensor:
#      x y z
#    x 4.145980 -0.146550 -0.276820 
#    y -0.146550 3.722550 -0.324710 
#    z -0.276820 -0.324710 3.672030 
# 
# 
# High freq. dielectric constant tensor:
#      x y z
#    x 1.819160 -0.008190 -0.016900 
#    y -0.008190 1.799620 -0.024950 
#    z -0.016900 -0.024950 1.797820 
# 
# From -- ./inp_files/181543.got.cif
#   From: 2010.06.25/outbox.cif.g09.slc.cpg/sg2_91_cif.got.tgz:181543.got - 2010.06.27 13:26:56.
