data_PCOD8006595
_publ_section_title
;
Structure prediction by ZEFSAII (Michael W. Deem and Ramdas Pophale) SiO2 
 PCOD8006595
Probable space group: P -1
;
_chemical_formula_sum "Si O2"
_cell_formula_units_Z 16
_cell_length_a 14.692726
_cell_length_b 10.884658
_cell_length_c 9.778463
_cell_angle_alpha 95.405944
_cell_angle_beta 27.495943
_cell_angle_gamma 98.587541
_cell_volume 711.391474
_symmetry_space_group_name_H-M "P -1"
_symmetry_group_IT_number 2
_symmetry_cell_setting 'triclinic'
loop_
_space_group_symop_operation_xyz
x,y,z
-x,-y,-z
loop_
_atom_site_type_symbol
_atom_site_label
_atom_site_fract_x
_atom_site_fract_y
_atom_site_fract_z
Si Si1 0.603075 0.423438 0.067528
Si Si2 0.193374 0.575912 0.481941
Si Si3 0.169108 0.320627 0.607293
Si Si4 0.467827 0.864200 0.589511
Si Si5 0.135915 0.767769 0.207803
Si Si6 0.500299 0.681386 0.289256
Si Si7 0.943472 0.762945 0.733474
Si Si8 0.900264 0.862256 0.086609
O O1 0.406945 0.320346 0.295532
O O2 0.535513 0.538075 0.255968
O O3 0.690855 0.472544 0.807885
O O4 0.766381 0.360362 0.926963
O O5 0.128397 0.464571 0.665068
O O6 0.346149 0.682962 0.368693
O O7 0.997421 0.627770 0.693303
O O8 0.050984 0.246197 0.885026
O O9 0.076555 0.254448 0.586394
O O10 0.414512 0.750750 0.539977
O O11 0.662912 0.845398 0.410608
O O12 0.500000 0.000000 0.500000
O O13 0.286497 0.868104 0.936108
O O14 0.097043 0.818831 0.416430
O O15 0.719913 0.755066 0.973147
O O16 0.977689 0.848210 0.829284
O O17 0.000000 0.000000 0.000000
#
# Coordination Sequence:
#
# PCOD8006595 Si02
#       8
#     2   2   2   2   2   2   2   2
#     4  10  20  40  62 101 136 165 207 259 320 386
#     4  10  21  37  66  99 136 166 205 261 318 390
#     4  11  21  38  66  95 128 170 207 254 323 373
#     4  11  25  45  65  92 125 171 222 271 314 371
#     4  11  22  41  67  94 131 168 207 262 318 385
#     4  10  21  39  64  92 129 169 205 259 316 375
#     4  10  23  42  63  97 129 168 211 256 324 379
#     4  11  25  46  66  91 128 168 221 275 308 375
#
# _framework density 22.491130999999999
#
# number of rings (size 3 to 8) (size 9 to 14) (size 15 to 20)
#    0.000    1.500    1.250    4.500    3.500    3.000 
#    4.500    8.750    0.000    0.000    0.000    0.000 
#    0.000    0.000    0.000    0.000    0.000    0.000 
#
# Total GULP energy -198268.985879 kJ/mol
# GULP energy per Si atom -12391.811617 kJ/mol
# Density = 2.243994 g / cm^3
# Si number density = 22.491131 Si / 1000 Ang^3
#
#
#
# Elastic Constant Matrix: (Units=GPa)
#
#
# Indices 1 2 3 4 5 6 
#
# 1 98.6781 39.3730 44.3313 -5.0473 15.9541 7.5793
# 2 39.3730 97.1660 54.8247 -15.1253 22.8625 12.3361
# 3 44.3313 54.8247 128.2910 -5.7032 28.3113 7.3093
# 4 -5.0473 -15.1253 -5.7032 25.4139 -8.0120 3.3648
# 5 15.9541 22.8625 28.3113 -8.0120 27.6312 4.7432
# 6 7.5793 12.3361 7.3093 3.3648 4.7432 30.6413
#
#
#
# Elastic Compliance Matrix: (Units=1/GPa)
#
#
# Indices 1 2 3 4 5 6 
#
# 1 0.012989 -0.003261 -0.002595 -0.000497 -0.002133 -0.000896
# 2 -0.003261 0.017099 -0.004558 0.007785 -0.004453 -0.005156
# 3 -0.002595 -0.004558 0.012299 -0.003310 -0.008501 0.001223
# 4 -0.000497 0.007785 -0.003310 0.048482 0.012934 -0.009548
# 5 -0.002133 -0.004453 -0.008501 0.012934 0.054514 -0.005511
# 6 -0.000896 -0.005156 0.001223 -0.009548 -0.005511 0.036543
#
#
# Mechanical properties :
#
#
# Convention : Reuss Voigt Hill
#
# Bulk Modulus (GPa) = 46.38498 66.79923 56.59211
# Shear Modulus (GPa) = 23.81635 29.11100 26.46368
#
# Velocity S-wave (km/s) = 3.25764 3.60159 3.43392
# Velocity P-wave (km/s) = 5.90068 6.86003 6.39836
#
# Compressibility (1/GPa) = 0.02155870
#
# Stress axis : x y z
#
# Youngs Moduli (GPa) = 76.98678 58.48368 81.30970
#
# Poissons Ratio (x) = 0.19070 0.21102
# Poissons Ratio (y) = 0.25104 0.37060
# Poissons Ratio (z) = 0.19980 0.26656
#
# Static dielectric constant tensor:
#      x y z
#    x 4.359240 -0.010200 -0.149870 
#    y -0.010200 3.666220 0.057300 
#    z -0.149870 0.057300 4.105480 
# 
# 
# High freq. dielectric constant tensor:
#      x y z
#    x 1.903090 -0.003160 -0.011600 
#    y -0.003160 1.853830 0.000080 
#    z -0.011600 0.000080 1.883550 
# 
# From -- ./inp_files/307460.got.cif
#   From: 2010.06.25/outbox.cif.g09.slc.cpg/sg2_154_cif.got.tgz:307460.got - 2010.06.27 13:26:56.
