data_PCOD8006307
_publ_section_title
;
Structure prediction by ZEFSAII (Michael W. Deem and Ramdas Pophale) SiO2 
 PCOD8006307
Probable space group: P -1
;
_chemical_formula_sum "Si O2"
_cell_formula_units_Z 16
_cell_length_a 22.817642
_cell_length_b 9.083576
_cell_length_c 6.050627
_cell_angle_alpha 51.989494
_cell_angle_beta 75.415377
_cell_angle_gamma 51.613963
_cell_volume 757.001837
_symmetry_space_group_name_H-M "P -1"
_symmetry_group_IT_number 2
_symmetry_cell_setting 'triclinic'
loop_
_space_group_symop_operation_xyz
x,y,z
-x,-y,-z
loop_
_atom_site_type_symbol
_atom_site_label
_atom_site_fract_x
_atom_site_fract_y
_atom_site_fract_z
Si Si1 0.939594 0.965463 0.322576
Si Si2 0.584345 0.320910 0.681833
Si Si3 0.456347 0.981247 0.860841
Si Si4 0.892551 0.345778 0.674571
Si Si5 0.173465 0.839746 0.368684
Si Si6 0.708012 0.271491 0.308134
Si Si7 0.839340 0.866367 0.273118
Si Si8 0.407289 0.389242 0.232838
O O1 0.912773 0.845464 0.302977
O O2 0.030875 0.785404 0.424918
O O3 0.904899 0.005290 0.561198
O O4 0.912847 0.214288 0.013242
O O5 0.500000 0.500000 0.500000
O O6 0.644394 0.266554 0.490211
O O7 0.593109 0.416866 0.812370
O O8 0.599265 0.074517 0.943224
O O9 0.515673 0.771411 0.832788
O O10 0.402141 0.229876 0.558454
O O11 0.500000 0.000000 0.000000
O O12 0.829444 0.335103 0.624667
O O13 0.857096 0.615236 0.487799
O O14 0.247497 0.681632 0.602360
O O15 0.182035 0.015978 0.058711
O O16 0.768625 0.023167 0.361704
O O17 0.666883 0.481847 0.973220
#
# Coordination Sequence:
#
# PCOD8006307 Si02
#       8
#     2   2   2   2   2   2   2   2
#     4   9  20  38  65  97 128 163 212 268 311 364
#     4  12  23  43  70  91 122 160 211 269 320 383
#     4  11  23  41  67 100 120 152 206 268 321 384
#     4  10  20  39  67  95 126 168 214 261 313 368
#     4  10  22  41  60  89 133 167 213 257 313 382
#     4  11  24  43  61  87 131 174 204 261 327 373
#     4  10  22  40  61  91 132 168 212 258 317 383
#     4  11  23  42  67  91 127 158 206 264 325 380
#
# _framework density 21.136011
#
# number of rings (size 3 to 8) (size 9 to 14) (size 15 to 20)
#    0.000    1.500    2.500    1.875    0.000    2.500 
#    0.000   23.750    0.000    0.000    0.000    0.000 
#    0.000    0.000    0.000    0.000    0.000    0.000 
#
# Total GULP energy -198450.700830 kJ/mol
# GULP energy per Si atom -12403.168802 kJ/mol
# Density = 2.108790 g / cm^3
# Si number density = 21.136011 Si / 1000 Ang^3
#
#
#
# Elastic Constant Matrix: (Units=GPa)
#
#
# Indices 1 2 3 4 5 6 
#
# 1 111.3556 52.9155 69.4261 -11.6300 1.7989 -3.6736
# 2 52.9155 84.8819 60.9897 -4.1100 -10.8494 4.2160
# 3 69.4261 60.9897 133.3738 -11.0531 -4.9428 12.2522
# 4 -11.6300 -4.1100 -11.0531 41.3416 -0.1883 -9.5383
# 5 1.7989 -10.8494 -4.9428 -0.1883 40.1291 2.8141
# 6 -3.6736 4.2160 12.2522 -9.5383 2.8141 36.3930
#
#
#
# Elastic Compliance Matrix: (Units=1/GPa)
#
#
# Indices 1 2 3 4 5 6 
#
# 1 0.016389 -0.006555 -0.005881 0.003670 -0.003609 0.005635
# 2 -0.006555 0.020764 -0.005852 -0.001775 0.005317 -0.001973
# 3 -0.005881 -0.005852 0.013705 0.000398 0.000686 -0.004478
# 4 0.003670 -0.001775 0.000398 0.026893 -0.001000 0.007568
# 5 -0.003609 0.005317 0.000686 -0.001000 0.026847 -0.003549
# 6 0.005635 -0.001973 -0.004478 0.007568 -0.003549 0.032041
#
#
# Mechanical properties :
#
#
# Convention : Reuss Voigt Hill
#
# Bulk Modulus (GPa) = 70.01594 77.36377 73.68986
# Shear Modulus (GPa) = 28.09405 33.32474 30.70940
#
# Velocity S-wave (km/s) = 3.64978 3.97505 3.81588
# Velocity P-wave (km/s) = 7.13859 7.59936 7.37258
#
# Compressibility (1/GPa) = 0.01428246
#
# Stress axis : x y z
#
# Youngs Moduli (GPa) = 61.01613 48.16134 72.96837
#
# Poissons Ratio (x) = 0.31569 0.42912
# Poissons Ratio (y) = 0.39995 0.42698
# Poissons Ratio (z) = 0.35883 0.28182
#
# Static dielectric constant tensor:
#      x y z
#    x 3.984570 -0.028800 -0.055770 
#    y -0.028800 3.741890 0.166480 
#    z -0.055770 0.166480 4.092790 
# 
# 
# High freq. dielectric constant tensor:
#      x y z
#    x 1.831400 0.000100 0.000280 
#    y 0.000100 1.820060 0.014850 
#    z 0.000280 0.014850 1.836650 
# 
# From -- ./inp_files/122766.got.cif
#   From: 2010.06.25/outbox.cif.g09.slc.cpg/sg2_62_cif.got.tgz:122766.got - 2010.06.27 13:26:56.
