data_PCOD8006515
_publ_section_title
;
Structure prediction by ZEFSAII (Michael W. Deem and Ramdas Pophale) SiO2 
 PCOD8006515
Probable space group: P -1
;
_chemical_formula_sum "Si O2"
_cell_formula_units_Z 16
_cell_length_a 15.183447
_cell_length_b 12.181103
_cell_length_c 9.977985
_cell_angle_alpha 82.357892
_cell_angle_beta 27.892249
_cell_angle_gamma 71.237177
_cell_volume 768.272680
_symmetry_space_group_name_H-M "P -1"
_symmetry_group_IT_number 2
_symmetry_cell_setting 'triclinic'
loop_
_space_group_symop_operation_xyz
x,y,z
-x,-y,-z
loop_
_atom_site_type_symbol
_atom_site_label
_atom_site_fract_x
_atom_site_fract_y
_atom_site_fract_z
Si Si1 0.966887 0.301464 0.796281
Si Si2 0.415117 0.138456 0.140470
Si Si3 0.170585 0.400486 0.692768
Si Si4 0.715184 0.040734 0.285610
Si Si5 0.586057 0.320240 0.806067
Si Si6 0.868744 0.191666 0.213381
Si Si7 0.395363 0.591303 0.953629
Si Si8 0.461509 0.136138 0.375499
O O1 0.163230 0.188643 0.480895
O O2 0.054159 0.401087 0.707595
O O3 0.902557 0.258344 0.027245
O O4 0.770901 0.353992 0.951486
O O5 0.519079 0.142745 0.143211
O O6 0.482224 0.225399 0.945156
O O7 0.500000 0.000000 0.000000
O O8 0.373531 0.425270 0.396488
O O9 0.251178 0.262384 0.671450
O O10 0.000000 0.500000 0.000000
O O11 0.719398 0.129262 0.382480
O O12 0.646406 0.124371 0.229285
O O13 0.552709 0.991727 0.563673
O O14 0.926057 0.920993 0.988716
O O15 0.767934 0.285919 0.455778
O O16 0.408693 0.457838 0.991472
O O17 0.680672 0.321191 0.826794
#
# Coordination Sequence:
#
# PCOD8006515 Si02
#       8
#     2   2   2   2   2   2   2   2
#     4  11  24  45  72  97 131 181 229 269 338 396
#     4  11  23  44  67  96 137 178 221 274 338 403
#     4  11  22  42  67  97 134 173 224 280 327 391
#     4  10  21  36  64  92 130 163 222 276 321 391
#     4  11  25  44  66  97 141 170 220 283 335 390
#     4  11  22  39  65 101 126 172 221 276 330 392
#     4  11  25  46  69  98 137 177 225 278 329 407
#     4  10  20  40  59  93 127 172 217 270 330 391
#
# _framework density 20.825939999999999
#
# number of rings (size 3 to 8) (size 9 to 14) (size 15 to 20)
#    0.000    1.250    5.000    2.250    1.750    4.500 
#    0.000    1.250    0.000    0.000    0.000    0.000 
#    0.000    0.000    0.000    0.000    0.000    0.000 
#
# Total GULP energy -198253.421730 kJ/mol
# GULP energy per Si atom -12390.838858 kJ/mol
# Density = 2.077854 g / cm^3
# Si number density = 20.825940 Si / 1000 Ang^3
#
#
#
# Elastic Constant Matrix: (Units=GPa)
#
#
# Indices 1 2 3 4 5 6 
#
# 1 131.8563 48.1728 77.5438 20.5525 -9.2184 -16.5495
# 2 48.1728 113.8127 40.1207 4.1782 -1.8915 7.0474
# 3 77.5438 40.1207 111.1143 8.7305 9.1715 4.8441
# 4 20.5525 4.1782 8.7305 34.0828 5.4639 7.0964
# 5 -9.2184 -1.8915 9.1715 5.4639 27.8508 8.9466
# 6 -16.5495 7.0474 4.8441 7.0964 8.9466 27.6379
#
#
#
# Elastic Compliance Matrix: (Units=1/GPa)
#
#
# Indices 1 2 3 4 5 6 
#
# 1 0.023895 -0.005226 -0.015194 -0.015384 0.009405 0.019210
# 2 -0.005226 0.011520 -0.000527 0.003209 0.000871 -0.007080
# 3 -0.015194 -0.000527 0.020470 0.007920 -0.009681 -0.011451
# 4 -0.015384 0.003209 0.007920 0.041688 -0.009547 -0.019032
# 5 0.009405 0.000871 -0.009681 -0.009547 0.045835 -0.005279
# 6 0.019210 -0.007080 -0.011451 -0.019032 -0.005279 0.058093
#
#
# Mechanical properties :
#
#
# Convention : Reuss Voigt Hill
#
# Bulk Modulus (GPa) = 71.48385 76.49531 73.98958
# Shear Modulus (GPa) = 20.15655 30.64405 25.40030
#
# Velocity S-wave (km/s) = 3.11442 3.84009 3.49613
# Velocity P-wave (km/s) = 6.87981 7.51480 7.20430
#
# Compressibility (1/GPa) = 0.01398917
#
# Stress axis : x y z
#
# Youngs Moduli (GPa) = 41.84930 86.80919 48.85302
#
# Poissons Ratio (x) = 0.45370 0.74226
# Poissons Ratio (y) = 0.21872 0.02577
# Poissons Ratio (z) = 0.63585 0.04579
#
# Static dielectric constant tensor:
#      x y z
#    x 3.999910 0.103740 -0.097360 
#    y 0.103740 4.168980 -0.089700 
#    z -0.097360 -0.089700 3.592420 
# 
# 
# High freq. dielectric constant tensor:
#      x y z
#    x 1.814650 0.007190 -0.000690 
#    y 0.007190 1.830930 -0.005060 
#    z -0.000690 -0.005060 1.798070 
# 
# From -- ./inp_files/465079.got.cif
#   From: 2010.06.25/outbox.cif.g09.slc.cpg/sg2_233_cif.got.tgz:465079.got - 2010.06.27 13:26:56.
