data_PCOD8006986
_publ_section_title
;
Structure prediction by ZEFSAII (Michael W. Deem and Ramdas Pophale) SiO2 
 PCOD8006986
Probable space group: P -1
;
_chemical_formula_sum "Si O2"
_cell_formula_units_Z 14
_cell_length_a 15.647445
_cell_length_b 22.389924
_cell_length_c 12.636160
_cell_angle_alpha 151.276395
_cell_angle_beta 38.161563
_cell_angle_gamma 162.060767
_cell_volume 619.830023
_symmetry_space_group_name_H-M "P -1"
_symmetry_group_IT_number 2
_symmetry_cell_setting 'triclinic'
loop_
_space_group_symop_operation_xyz
x,y,z
-x,-y,-z
loop_
_atom_site_type_symbol
_atom_site_label
_atom_site_fract_x
_atom_site_fract_y
_atom_site_fract_z
Si Si1 0.292139 0.251517 0.170981
Si Si2 0.169570 0.415776 0.516009
Si Si3 0.213439 0.694247 0.189179
Si Si4 0.792057 0.452321 0.635602
Si Si5 0.568041 0.909472 0.776460
Si Si6 0.784731 0.518697 0.975324
Si Si7 0.183077 0.925420 0.870234
O O1 0.302205 0.404020 0.436101
O O2 0.558836 0.434399 0.116512
O O3 0.301072 0.161984 0.123356
O O4 0.000000 0.000000 0.000000
O O5 0.420332 0.718452 0.722325
O O6 0.877843 0.240407 0.582484
O O7 0.064635 0.279320 0.295587
O O8 0.548267 0.956616 0.231195
O O9 0.157478 0.554588 0.121644
O O10 0.000000 0.500000 0.000000
O O11 0.540861 0.232633 0.450912
O O12 0.000000 0.500000 0.500000
O O13 0.006740 0.742631 0.861193
O O14 0.659528 0.368373 0.751093
O O15 0.915996 0.167144 0.842357
O O16 0.500000 0.000000 0.000000
#
# Coordination Sequence:
#
# PCOD8006986 Si02
#       7
#     2   2   2   2   2   2   2
#     4   9  21  44  67  87 130 172 214 263 317 383
#     4  10  20  40  66  90 124 173 211 262 318 381
#     4  11  23  38  64  95 125 167 213 267 321 373
#     4  11  22  37  70  96 127 171 209 266 330 370
#     4  11  21  39  64 100 133 161 216 269 315 379
#     4  11  23  43  66  97 130 168 213 269 319 381
#     4   9  21  40  61  94 125 160 214 265 315 378
#
# _framework density 22.586838
#
# number of rings (size 3 to 8) (size 9 to 14) (size 15 to 20)
#    0.000    1.714    2.857    1.286    4.000    2.857 
#    0.000    9.286    3.143    0.000    0.000    0.000 
#    0.000    0.000    0.000    0.000    0.000    0.000 
#
# Total GULP energy -173495.855371 kJ/mol
# GULP energy per Si atom -12392.561098 kJ/mol
# Density = 2.253543 g / cm^3
# Si number density = 22.586838 Si / 1000 Ang^3
#
#
#
# Elastic Constant Matrix: (Units=GPa)
#
#
# Indices 1 2 3 4 5 6 
#
# 1 82.8528 42.6095 52.4021 -12.7951 -21.7543 -11.0079
# 2 42.6095 104.7759 35.0806 5.9227 -18.0640 13.5390
# 3 52.4021 35.0806 90.6753 2.7232 -23.5578 0.1113
# 4 -12.7951 5.9227 2.7232 32.9328 9.9667 -4.3039
# 5 -21.7543 -18.0640 -23.5578 9.9667 46.9976 -6.5496
# 6 -11.0079 13.5390 0.1113 -4.3039 -6.5496 34.2889
#
#
#
# Elastic Compliance Matrix: (Units=1/GPa)
#
#
# Indices 1 2 3 4 5 6 
#
# 1 0.032716 -0.011343 -0.014481 0.017573 0.002261 0.017666
# 2 -0.011343 0.016033 0.001164 -0.009396 0.001986 -0.010776
# 3 -0.014481 0.001164 0.020668 -0.009897 0.005454 -0.005376
# 4 0.017573 -0.009396 -0.009897 0.043831 -0.007869 0.013382
# 5 0.002261 0.001986 0.005454 -0.007869 0.028090 0.004302
# 6 0.017666 -0.010776 -0.005376 0.013382 0.004302 0.041609
#
#
# Mechanical properties :
#
#
# Convention : Reuss Voigt Hill
#
# Bulk Modulus (GPa) = 49.75830 59.83205 54.79517
# Shear Modulus (GPa) = 20.92349 32.72464 26.82406
#
# Velocity S-wave (km/s) = 3.04691 3.81049 3.44989
# Velocity P-wave (km/s) = 5.86991 6.77547 6.33888
#
# Compressibility (1/GPa) = 0.02009715
#
# Stress axis : x y z
#
# Youngs Moduli (GPa) = 30.56583 62.36952 48.38502
#
# Poissons Ratio (x) = 0.70745 0.70065
# Poissons Ratio (y) = 0.34670 -0.05630
# Poissons Ratio (z) = 0.44262 -0.07257
#
# Static dielectric constant tensor:
#      x y z
#    x 1.251950 -3.633130 1.892870 
#    y -3.633130 0.909060 2.671540 
#    z 1.892870 2.671540 2.786270 
# 
# 
# High freq. dielectric constant tensor:
#      x y z
#    x 1.891530 -0.002210 -0.005590 
#    y -0.002210 1.888990 0.015850 
#    z -0.005590 0.015850 1.880110 
# 
# From -- ./inp_files/400196.got.cif
#   From: 2010.06.25/outbox.cif.g09.slc.cpg/sg2_201_cif.got.tgz:400196.got - 2010.06.27 13:26:56.
