data_PCOD8006607
_publ_section_title
;
Structure prediction by ZEFSAII (Michael W. Deem and Ramdas Pophale) SiO2 
 PCOD8006607
Probable space group: P -1
;
_chemical_formula_sum "Si O2"
_cell_formula_units_Z 16
_cell_length_a 12.617228
_cell_length_b 15.301684
_cell_length_c 20.537714
_cell_angle_alpha 157.399848
_cell_angle_beta 33.955282
_cell_angle_gamma 152.660116
_cell_volume 698.833895
_symmetry_space_group_name_H-M "P -1"
_symmetry_group_IT_number 2
_symmetry_cell_setting 'triclinic'
loop_
_space_group_symop_operation_xyz
x,y,z
-x,-y,-z
loop_
_atom_site_type_symbol
_atom_site_label
_atom_site_fract_x
_atom_site_fract_y
_atom_site_fract_z
Si Si1 0.400860 0.459731 0.242074
Si Si2 0.375786 0.951401 0.421846
Si Si3 0.853443 0.290007 0.988245
Si Si4 0.696036 0.346514 0.933331
Si Si5 0.258029 0.089453 0.440296
Si Si6 0.438595 0.320481 0.264494
Si Si7 0.332115 0.131561 0.868707
Si Si8 0.102516 0.370575 0.211735
O O1 0.318413 0.358114 0.288416
O O2 0.192824 0.334165 0.210197
O O3 0.538011 0.792833 0.397963
O O4 0.568830 0.364431 0.073331
O O5 0.589499 0.921265 0.276784
O O6 0.174088 0.678459 0.374758
O O7 0.269575 0.985229 0.434164
O O8 0.751118 0.969178 0.802717
O O9 0.652541 0.318230 0.130607
O O10 0.000000 0.500000 0.000000
O O11 0.036401 0.389844 0.023201
O O12 0.570611 0.348919 0.934237
O O13 0.684833 0.062857 0.747564
O O14 0.455064 0.419522 0.561638
O O15 0.000000 0.000000 0.500000
O O16 0.192455 0.274854 0.039277
O O17 0.175526 0.836665 0.784030
#
# Coordination Sequence:
#
# PCOD8006607 Si02
#       8
#     2   2   2   2   2   2   2   2
#     4  10  21  40  61  91 126 159 210 256 304 372
#     4  10  21  39  62  88 126 162 206 257 306 365
#     4  11  21  40  65  88 125 163 206 257 305 368
#     4  10  20  40  62  86 129 161 202 257 307 367
#     4  10  20  40  62  92 128 163 208 255 310 375
#     4  10  22  40  62  92 122 164 207 252 310 367
#     4   9  21  40  59  89 125 159 205 255 308 373
#     4  10  20  41  62  90 122 161 210 256 306 363
#
# _framework density 22.895282999999999
#
# number of rings (size 3 to 8) (size 9 to 14) (size 15 to 20)
#    0.000    2.000    2.500    0.750    0.000    0.500 
#   27.000    0.625    0.000    0.000    0.000    0.000 
#    0.000    0.000    0.000    0.000    0.000    0.000 
#
# Total GULP energy -198269.768638 kJ/mol
# GULP energy per Si atom -12391.860540 kJ/mol
# Density = 2.284317 g / cm^3
# Si number density = 22.895283 Si / 1000 Ang^3
#
#
#
# Elastic Constant Matrix: (Units=GPa)
#
#
# Indices 1 2 3 4 5 6 
#
# 1 53.0944 28.3757 11.0436 10.9891 4.1682 9.9164
# 2 28.3757 90.9778 51.1843 36.6178 -1.9902 -1.3359
# 3 11.0436 51.1843 153.1864 27.7735 11.3107 -5.3447
# 4 10.9891 36.6178 27.7735 45.7183 -4.3051 -3.2717
# 5 4.1682 -1.9902 11.3107 -4.3051 26.3101 6.9856
# 6 9.9164 -1.3359 -5.3447 -3.2717 6.9856 27.0932
#
#
#
# Elastic Compliance Matrix: (Units=1/GPa)
#
#
# Indices 1 2 3 4 5 6 
#
# 1 0.025059 -0.008181 0.001010 -0.000981 -0.002858 -0.008757
# 2 -0.008181 0.020794 -0.004387 -0.011706 0.002552 0.001083
# 3 0.001010 -0.004387 0.008828 -0.002430 -0.005275 0.002222
# 4 -0.000981 -0.011706 -0.002430 0.033602 0.005282 0.001998
# 5 -0.002858 0.002552 -0.005275 0.005282 0.044638 -0.010740
# 6 -0.008757 0.001083 0.002222 0.001998 -0.010740 0.043617
#
#
# Mechanical properties :
#
#
# Convention : Reuss Voigt Hill
#
# Bulk Modulus (GPa) = 31.67748 53.16287 42.42017
# Shear Modulus (GPa) = 23.78963 33.60132 28.69547
#
# Velocity S-wave (km/s) = 3.22695 3.83509 3.54409
# Velocity P-wave (km/s) = 5.26784 6.54836 5.94269
#
# Compressibility (1/GPa) = 0.03156817
#
# Stress axis : x y z
#
# Youngs Moduli (GPa) = 39.90538 48.08964 113.26952
#
# Poissons Ratio (x) = 0.39340 -0.11441
# Poissons Ratio (y) = 0.32645 0.49686
# Poissons Ratio (z) = -0.04031 0.21095
#
# Static dielectric constant tensor:
#      x y z
#    x 4.007830 0.345900 0.145370 
#    y 0.345900 4.108300 0.212820 
#    z 0.145370 0.212820 4.670870 
# 
# 
# High freq. dielectric constant tensor:
#      x y z
#    x 1.884900 0.021590 0.003340 
#    y 0.021590 1.883170 0.011040 
#    z 0.003340 0.011040 1.922010 
# 
# From -- ./inp_files/201805.got.cif
#   From: 2010.06.25/outbox.cif.g09.slc.cpg/sg2_101_cif.got.tgz:201805.got - 2010.06.27 13:26:56.
