data_PCOD8006594
_publ_section_title
;
Structure prediction by ZEFSAII (Michael W. Deem and Ramdas Pophale) SiO2 
 PCOD8006594
Probable space group: P -1
;
_chemical_formula_sum "Si O2"
_cell_formula_units_Z 16
_cell_length_a 9.450066
_cell_length_b 11.562579
_cell_length_c 11.946657
_cell_angle_alpha 125.415056
_cell_angle_beta 90.062207
_cell_angle_gamma 129.193770
_cell_volume 670.758322
_symmetry_space_group_name_H-M "P -1"
_symmetry_group_IT_number 2
_symmetry_cell_setting 'triclinic'
loop_
_space_group_symop_operation_xyz
x,y,z
-x,-y,-z
loop_
_atom_site_type_symbol
_atom_site_label
_atom_site_fract_x
_atom_site_fract_y
_atom_site_fract_z
Si Si1 0.923244 0.779599 0.160760
Si Si2 0.780837 0.235947 0.825864
Si Si3 0.703011 0.407197 0.765926
Si Si4 0.455734 0.892180 0.821377
Si Si5 0.635828 0.486015 0.426737
Si Si6 0.609322 0.596994 0.263582
Si Si7 0.848305 0.921353 0.058594
Si Si8 0.993835 0.332555 0.303541
O O1 0.779686 0.715774 0.229909
O O2 0.977909 0.964950 0.194937
O O3 0.143277 0.867777 0.255954
O O4 0.793850 0.574196 0.960929
O O5 0.660430 0.214949 0.706169
O O6 0.604162 0.096212 0.848220
O O7 0.000000 0.500000 0.000000
O O8 0.472947 0.302944 0.665280
O O9 0.878782 0.530654 0.734138
O O10 0.517442 0.771684 0.751076
O O11 0.186336 0.685879 0.674114
O O12 0.500000 0.000000 0.000000
O O13 0.500000 0.500000 0.500000
O O14 0.727411 0.633385 0.397072
O O15 0.837184 0.581984 0.552932
O O16 0.396150 0.333936 0.091434
O O17 0.822300 0.068837 0.139013
O O18 0.000000 0.000000 0.000000
#
# Coordination Sequence:
#
# PCOD8006594 Si02
#       8
#     2   2   2   2   2   2   2   2
#     4  10  22  37  65 103 140 181 245 299 356 411
#     4  10  24  40  66 106 145 176 233 311 362 412
#     4  10  20  40  62 100 142 182 228 298 364 416
#     4  12  28  46  79 110 139 192 256 299 353 432
#     4  12  27  50  73 104 154 196 239 298 370 437
#     4  11  23  40  71  99 138 193 244 295 357 430
#     4  11  20  38  70 106 139 180 247 302 350 426
#     4  12  25  43  72 105 147 190 238 299 371 430
#
# _framework density 23.853598999999999
#
# number of rings (size 3 to 8) (size 9 to 14) (size 15 to 20)
#    0.000    1.000    3.750    4.125   14.000    0.000 
#    0.000    1.250    0.000    0.000    0.000    0.000 
#    0.000    0.000    0.000    0.000    0.000    0.000 
#
# Total GULP energy -198286.416016 kJ/mol
# GULP energy per Si atom -12392.901001 kJ/mol
# Density = 2.379931 g / cm^3
# Si number density = 23.853599 Si / 1000 Ang^3
#
#
#
# Elastic Constant Matrix: (Units=GPa)
#
#
# Indices 1 2 3 4 5 6 
#
# 1 156.4730 88.6112 35.4317 -21.0101 4.3548 1.3011
# 2 88.6112 208.8344 32.6588 -48.4588 4.8811 4.9984
# 3 35.4317 32.6588 57.9952 -15.3501 10.1608 1.0786
# 4 -21.0101 -48.4588 -15.3501 28.1955 -4.9467 8.1594
# 5 4.3548 4.8811 10.1608 -4.9467 26.6222 -8.0424
# 6 1.3011 4.9984 1.0786 8.1594 -8.0424 45.0851
#
#
#
# Elastic Compliance Matrix: (Units=1/GPa)
#
#
# Indices 1 2 3 4 5 6 
#
# 1 0.009146 -0.003707 -0.004123 -0.001893 0.000616 0.000698
# 2 -0.003707 0.010071 0.000919 0.016224 0.000238 -0.003925
# 3 -0.004123 0.000919 0.023605 0.011158 -0.007616 -0.003925
# 4 -0.001893 0.016224 0.011158 0.072663 0.002112 -0.014785
# 5 0.000616 0.000238 -0.007616 0.002112 0.042959 0.007419
# 6 0.000698 -0.003925 -0.003925 -0.014785 0.007419 0.026688
#
#
# Mechanical properties :
#
#
# Convention : Reuss Voigt Hill
#
# Bulk Modulus (GPa) = 34.48170 81.85623 58.16897
# Shear Modulus (GPa) = 23.96709 37.75394 30.86051
#
# Velocity S-wave (km/s) = 3.17323 3.98268 3.60077
# Velocity P-wave (km/s) = 5.28326 7.45249 6.45958
#
# Compressibility (1/GPa) = 0.02900089
#
# Stress axis : x y z
#
# Youngs Moduli (GPa) = 109.33377 99.29841 42.36469
#
# Poissons Ratio (x) = 0.36807 0.17465
# Poissons Ratio (y) = 0.40526 -0.03893
# Poissons Ratio (z) = 0.45074 -0.09125
#
# Static dielectric constant tensor:
#      x y z
#    x 5.735170 -0.776720 0.213860 
#    y -0.776720 4.490320 -0.291390 
#    z 0.213860 -0.291390 4.071420 
# 
# 
# High freq. dielectric constant tensor:
#      x y z
#    x 1.974450 -0.015780 0.005070 
#    y -0.015780 1.951200 -0.017540 
#    z 0.005070 -0.017540 1.918270 
# 
# From -- ./inp_files/392860.got.cif
#   From: 2010.06.25/outbox.cif.g09.slc.cpg/sg2_197_cif.got.tgz:392860.got - 2010.06.27 13:26:56.
