data_PCOD8006585
_publ_section_title
;
Structure prediction by ZEFSAII (Michael W. Deem and Ramdas Pophale) SiO2 
 PCOD8006585
Probable space group: P -1
;
_chemical_formula_sum "Si O2"
_cell_formula_units_Z 16
_cell_length_a 8.506830
_cell_length_b 17.555583
_cell_length_c 11.747068
_cell_angle_alpha 120.902081
_cell_angle_beta 128.222325
_cell_angle_gamma 100.188134
_cell_volume 803.438112
_symmetry_space_group_name_H-M "P -1"
_symmetry_group_IT_number 2
_symmetry_cell_setting 'triclinic'
loop_
_space_group_symop_operation_xyz
x,y,z
-x,-y,-z
loop_
_atom_site_type_symbol
_atom_site_label
_atom_site_fract_x
_atom_site_fract_y
_atom_site_fract_z
Si Si1 0.829463 0.840701 0.537182
Si Si2 0.863361 0.231429 0.312122
Si Si3 0.333730 0.587224 0.251351
Si Si4 0.272783 0.130092 0.964077
Si Si5 0.440665 0.258636 0.900165
Si Si6 0.417411 0.496103 0.833616
Si Si7 0.460330 0.360970 0.357779
Si Si8 0.963042 0.638788 0.745682
O O1 0.533017 0.727861 0.388951
O O2 0.778697 0.814809 0.360005
O O3 0.076301 0.848883 0.684932
O O4 0.959498 0.980406 0.731362
O O5 0.064985 0.368646 0.573964
O O6 0.950668 0.270633 0.250059
O O7 0.526539 0.142639 0.118192
O O8 0.421612 0.518641 0.192337
O O9 0.394279 0.609301 0.430190
O O10 0.000000 0.500000 0.000000
O O11 0.290808 0.160245 0.862678
O O12 0.307761 0.224378 0.135084
O O13 0.498402 0.376594 0.061060
O O14 0.743059 0.310428 0.033974
O O15 0.500000 0.500000 0.000000
O O16 0.727335 0.483389 0.490537
O O17 0.201260 0.350511 0.230280
#
# Coordination Sequence:
#
# PCOD8006585 Si02
#       8
#     2   2   2   2   2   2   2   2
#     4  11  22  43  60  89 125 159 206 251 292 365
#     4  10  20  40  61  92 117 157 203 255 296 351
#     4  11  24  40  64  92 125 156 196 257 313 351
#     4  11  25  37  65  88 122 168 203 237 308 363
#     4  11  22  40  65  88 120 157 206 258 297 350
#     4  11  20  37  64  93 118 146 206 256 299 343
#     4  11  22  39  60  90 129 157 199 247 302 371
#     4  10  21  39  61  89 122 156 198 255 306 345
#
# _framework density 19.914414000000001
#
# number of rings (size 3 to 8) (size 9 to 14) (size 15 to 20)
#    0.000    1.250    5.000    3.000    3.500    2.500 
#    0.000    0.625    2.750    0.000    0.000    0.000 
#    0.000    0.000    0.000    0.000    0.000    0.000 
#
# Total GULP energy -198361.648732 kJ/mol
# GULP energy per Si atom -12397.603046 kJ/mol
# Density = 1.986909 g / cm^3
# Si number density = 19.914414 Si / 1000 Ang^3
#
#
#
# Elastic Constant Matrix: (Units=GPa)
#
#
# Indices 1 2 3 4 5 6 
#
# 1 77.4766 43.6746 44.0889 7.5477 1.1945 -2.4030
# 2 43.6746 95.1776 63.0471 11.2179 5.6939 -19.1291
# 3 44.0889 63.0471 91.8739 21.6441 -4.9606 -2.7323
# 4 7.5477 11.2179 21.6441 39.9070 -0.7238 -4.6906
# 5 1.1945 5.6939 -4.9606 -0.7238 32.5171 3.2954
# 6 -2.4030 -19.1291 -2.7323 -4.6906 3.2954 19.6230
#
#
#
# Elastic Compliance Matrix: (Units=1/GPa)
#
#
# Indices 1 2 3 4 5 6 
#
# 1 0.019225 -0.006509 -0.004971 0.000349 0.000152 -0.004625
# 2 -0.006509 0.034966 -0.022242 0.007238 -0.012564 0.034031
# 3 -0.004971 -0.022242 0.031338 -0.012273 0.010884 -0.022689
# 4 0.000349 0.007238 -0.012273 0.031129 -0.003825 0.013472
# 5 0.000152 -0.012564 0.010884 -0.003825 0.036319 -0.017728
# 6 -0.004625 0.034031 -0.022689 0.013472 -0.017728 0.086607
#
#
# Mechanical properties :
#
#
# Convention : Reuss Voigt Hill
#
# Bulk Modulus (GPa) = 55.29686 62.90546 59.10116
# Shear Modulus (GPa) = 15.97159 25.99058 20.98108
#
# Velocity S-wave (km/s) = 2.83505 3.61656 3.24938
# Velocity P-wave (km/s) = 6.20840 7.00684 6.61967
#
# Compressibility (1/GPa) = 0.01808421
#
# Stress axis : x y z
#
# Youngs Moduli (GPa) = 52.01500 28.59951 31.91059
#
# Poissons Ratio (x) = 0.18616 0.15861
# Poissons Ratio (y) = 0.33858 0.70977
# Poissons Ratio (z) = 0.25854 0.63612
#
# Static dielectric constant tensor:
#      x y z
#    x 3.466050 -0.124540 -0.007940 
#    y -0.124540 3.793330 -0.067360 
#    z -0.007940 -0.067360 3.803440 
# 
# 
# High freq. dielectric constant tensor:
#      x y z
#    x 1.759230 -0.002190 0.004150 
#    y -0.002190 1.793060 -0.008100 
#    z 0.004150 -0.008100 1.776190 
# 
# From -- ./inp_files/256628.got.cif
#   From: 2010.06.25/outbox.cif.g09.slc.cpg/sg2_129_cif.got.tgz:256628.got - 2010.06.27 13:26:56.
