data_PCOD8006466
_publ_section_title
;
Structure prediction by ZEFSAII (Michael W. Deem and Ramdas Pophale) SiO2 
 PCOD8006466
Probable space group: P -1
;
_chemical_formula_sum "Si O2"
_cell_formula_units_Z 12
_cell_length_a 7.167915
_cell_length_b 10.149284
_cell_length_c 13.748757
_cell_angle_alpha 48.585125
_cell_angle_beta 40.637947
_cell_angle_gamma 51.252258
_cell_volume 472.537495
_symmetry_space_group_name_H-M "P -1"
_symmetry_group_IT_number 2
_symmetry_cell_setting 'triclinic'
loop_
_space_group_symop_operation_xyz
x,y,z
-x,-y,-z
loop_
_atom_site_type_symbol
_atom_site_label
_atom_site_fract_x
_atom_site_fract_y
_atom_site_fract_z
Si Si1 0.445339 0.742456 0.798374
Si Si2 0.153337 0.918205 0.335937
Si Si3 0.052931 0.558425 0.154869
Si Si4 0.773326 0.260321 0.403782
Si Si5 0.750883 0.911807 0.177496
Si Si6 0.204240 0.301910 0.513160
O O1 0.548328 0.718364 0.658709
O O2 0.690945 0.616722 0.831582
O O3 0.404987 0.957003 0.735688
O O4 0.150347 0.670520 0.971680
O O5 0.102660 0.801830 0.507322
O O6 0.501479 0.910721 0.193069
O O7 0.012577 0.833316 0.342153
O O8 0.966282 0.125499 0.314426
O O9 0.787966 0.466358 0.273514
O O10 0.933333 0.698555 0.223894
O O11 0.422725 0.255997 0.543768
O O12 0.000000 0.000000 0.000000
O O13 0.000000 0.500000 0.500000
#
# Coordination Sequence:
#
# PCOD8006466 Si02
#       6
#     2   2   2   2   2   2
#     4  10  21  42  63 100 131 166 219 270 321 387
#     4  11  22  43  64  92 137 171 221 272 322 388
#     4  10  20  39  72  92 128 175 214 265 329 386
#     4  11  23  42  67  95 131 179 214 272 329 383
#     4  10  21  38  70  98 122 172 221 264 328 388
#     4  12  26  41  64  99 132 174 223 266 330 393
#
# _framework density 25.394811000000001
#
# number of rings (size 3 to 8) (size 9 to 14) (size 15 to 20)
#    0.000    1.333    3.333    2.500    2.333    2.000 
#    0.000    0.000    0.000    4.000    0.000    0.000 
#    0.000    0.000    0.000    0.000    0.000    0.000 
#
# Total GULP energy -148675.848401 kJ/mol
# GULP energy per Si atom -12389.654033 kJ/mol
# Density = 2.533701 g / cm^3
# Si number density = 25.394811 Si / 1000 Ang^3
#
#
#
# Elastic Constant Matrix: (Units=GPa)
#
#
# Indices 1 2 3 4 5 6 
#
# 1 61.8065 30.8062 20.6484 -9.0230 -27.1594 -2.9336
# 2 30.8062 205.9144 51.4884 -12.3582 -16.6326 25.6583
# 3 20.6484 51.4884 142.1294 -10.5741 -34.0671 10.5804
# 4 -9.0230 -12.3582 -10.5741 45.3493 9.1039 -8.4249
# 5 -27.1594 -16.6326 -34.0671 9.1039 48.7994 -0.2071
# 6 -2.9336 25.6583 10.5804 -8.4249 -0.2071 36.1873
#
#
#
# Elastic Compliance Matrix: (Units=1/GPa)
#
#
# Indices 1 2 3 4 5 6 
#
# 1 0.023315 -0.003059 0.000380 0.002379 0.011774 0.004569
# 2 -0.003059 0.006188 -0.001674 0.000079 -0.000794 -0.004132
# 3 0.000380 -0.001674 0.009138 0.000303 0.005958 -0.001349
# 4 0.002379 0.000079 0.000303 0.024262 -0.002939 0.005680
# 5 0.011774 -0.000794 0.005958 -0.002939 0.031479 -0.000728
# 6 0.004569 -0.004132 -0.001349 0.005680 -0.000728 0.032647
#
#
# Mechanical properties :
#
#
# Convention : Reuss Voigt Hill
#
# Bulk Modulus (GPa) = 33.40484 68.41514 50.90999
# Shear Modulus (GPa) = 34.31382 46.52769 40.42075
#
# Velocity S-wave (km/s) = 3.67987 4.28503 3.99393
# Velocity P-wave (km/s) = 5.58910 7.17503 6.43114
#
# Compressibility (1/GPa) = 0.02993578
#
# Stress axis : x y z
#
# Youngs Moduli (GPa) = 42.89026 161.60030 109.43037
#
# Poissons Ratio (x) = 0.49427 -0.04157
# Poissons Ratio (y) = 0.13118 0.18321
# Poissons Ratio (z) = -0.01629 0.27056
#
# Static dielectric constant tensor:
#      x y z
#    x 4.291570 0.177340 -0.415950 
#    y 0.177340 5.431210 -0.066120 
#    z -0.415950 -0.066120 5.107630 
# 
# 
# High freq. dielectric constant tensor:
#      x y z
#    x 1.970440 0.001900 -0.028860 
#    y 0.001900 2.045560 -0.001430 
#    z -0.028860 -0.001430 2.031840 
# 
# From -- ./inp_files/588927.got.cif
#   From: 2010.06.25/outbox.cif.g09.slc.cpg/sg2_295_cif.got.tgz:588927.got - 2010.06.27 13:26:56.
