data_PCOD8006749
_publ_section_title
;
Structure prediction by ZEFSAII (Michael W. Deem and Ramdas Pophale) SiO2 
 PCOD8006749
Probable space group: P -1
;
_chemical_formula_sum "Si O2"
_cell_formula_units_Z 14
_cell_length_a 12.756944
_cell_length_b 11.917230
_cell_length_c 18.589530
_cell_angle_alpha 150.303576
_cell_angle_beta 29.331390
_cell_angle_gamma 144.263390
_cell_volume 668.379335
_symmetry_space_group_name_H-M "P -1"
_symmetry_group_IT_number 2
_symmetry_cell_setting 'triclinic'
loop_
_space_group_symop_operation_xyz
x,y,z
-x,-y,-z
loop_
_atom_site_type_symbol
_atom_site_label
_atom_site_fract_x
_atom_site_fract_y
_atom_site_fract_z
Si Si1 0.754233 0.499866 0.164744
Si Si2 0.155589 0.540289 0.578237
Si Si3 0.572930 0.849951 0.555842
Si Si4 0.564926 0.017012 0.052361
Si Si5 0.343361 0.605319 0.204971
Si Si6 0.628601 0.554742 0.745570
Si Si7 0.232289 0.135650 0.408044
O O1 0.728352 0.742793 0.349769
O O2 0.685025 0.286444 0.144330
O O3 0.609189 0.466519 0.160511
O O4 0.000000 0.500000 0.000000
O O5 0.317515 0.773443 0.641893
O O6 0.199911 0.514434 0.451885
O O7 0.215477 0.327978 0.466532
O O8 0.903429 0.548022 0.745123
O O9 0.612254 0.752893 0.556889
O O10 0.647604 0.127671 0.669379
O O11 0.349964 0.953060 0.196088
O O12 0.500000 0.000000 0.000000
O O13 0.711168 0.825955 0.872842
O O14 0.403935 0.602661 0.251453
O O15 0.500000 0.500000 0.000000
O O16 0.000000 0.000000 0.500000
#
# Coordination Sequence:
#
# PCOD8006749 Si02
#       7
#     2   2   2   2   2   2   2
#     4  10  23  38  67 104 131 168 216 279 341 385
#     4  11  24  45  66  96 130 178 221 277 335 384
#     4  11  25  43  68  98 138 167 228 270 335 399
#     4  10  20  40  63  95 133 161 226 267 329 396
#     4  12  27  46  67  96 132 181 225 267 332 404
#     4  10  23  44  65  94 135 174 221 264 328 407
#     4  12  22  39  70  98 133 178 214 286 337 383
#
# _framework density 20.946189
#
# number of rings (size 3 to 8) (size 9 to 14) (size 15 to 20)
#    0.000    1.143    5.714    1.714    6.000    2.857 
#    2.571    0.000    0.000    0.000    0.000    0.000 
#    0.000    0.000    0.000    0.000    0.000    0.000 
#
# Total GULP energy -173510.292169 kJ/mol
# GULP energy per Si atom -12393.592298 kJ/mol
# Density = 2.089851 g / cm^3
# Si number density = 20.946189 Si / 1000 Ang^3
#
#
#
# Elastic Constant Matrix: (Units=GPa)
#
#
# Indices 1 2 3 4 5 6 
#
# 1 108.3452 26.3242 39.9004 -15.0401 12.3162 -5.4064
# 2 26.3242 88.0589 55.5312 -17.1185 6.4733 6.7721
# 3 39.9004 55.5312 142.6332 -22.5724 12.1908 14.5784
# 4 -15.0401 -17.1185 -22.5724 45.0300 -0.2809 -7.1294
# 5 12.3162 6.4733 12.1908 -0.2809 29.0951 -8.4118
# 6 -5.4064 6.7721 14.5784 -7.1294 -8.4118 34.8888
#
#
#
# Elastic Compliance Matrix: (Units=1/GPa)
#
#
# Indices 1 2 3 4 5 6 
#
# 1 0.011196 -0.001484 -0.002223 0.002492 -0.002637 0.002825
# 2 -0.001484 0.015679 -0.005087 0.002782 -0.000935 -0.000805
# 3 -0.002223 -0.005087 0.010673 0.001973 -0.003619 -0.004286
# 4 0.002492 0.002782 0.001973 0.025715 -0.001092 0.004013
# 5 -0.002637 -0.000935 -0.003619 -0.001092 0.040318 0.010783
# 6 0.002825 -0.000805 -0.004286 0.004013 0.010783 0.034468
#
#
# Mechanical properties :
#
#
# Convention : Reuss Voigt Hill
#
# Bulk Modulus (GPa) = 50.10125 64.72767 57.41446
# Shear Modulus (GPa) = 30.80942 36.28819 33.54881
#
# Velocity S-wave (km/s) = 3.83937 4.16678 4.00642
# Velocity P-wave (km/s) = 6.60495 7.35652 6.99084
#
# Compressibility (1/GPa) = 0.01995958
#
# Stress axis : x y z
#
# Youngs Moduli (GPa) = 89.32042 63.78060 93.69469
#
# Poissons Ratio (x) = 0.09464 0.20831
# Poissons Ratio (y) = 0.13254 0.47660
# Poissons Ratio (z) = 0.19858 0.32444
#
# Static dielectric constant tensor:
#      x y z
#    x 4.033640 -0.304990 -0.211360 
#    y -0.304990 4.859030 0.543880 
#    z -0.211360 0.543880 4.512440 
# 
# 
# High freq. dielectric constant tensor:
#      x y z
#    x 1.818430 -0.009040 0.007120 
#    y -0.009040 1.813890 -0.003550 
#    z 0.007120 -0.003550 1.826470 
# 
# From -- ./inp_files/199523.got.cif
#   From: 2010.06.25/outbox.cif.g09.slc.cpg/sg2_100_cif.got.tgz:199523.got - 2010.06.27 13:26:56.
