data_PCOD8006481
_publ_section_title
;
Structure prediction by ZEFSAII (Michael W. Deem and Ramdas Pophale) SiO2 
 PCOD8006481
Probable space group: P -1
;
_chemical_formula_sum "Si O2"
_cell_formula_units_Z 16
_cell_length_a 16.004161
_cell_length_b 15.670824
_cell_length_c 19.495756
_cell_angle_alpha 18.701510
_cell_angle_beta 149.549279
_cell_angle_gamma 140.594846
_cell_volume 765.029290
_symmetry_space_group_name_H-M "P -1"
_symmetry_group_IT_number 2
_symmetry_cell_setting 'triclinic'
loop_
_space_group_symop_operation_xyz
x,y,z
-x,-y,-z
loop_
_atom_site_type_symbol
_atom_site_label
_atom_site_fract_x
_atom_site_fract_y
_atom_site_fract_z
Si Si1 0.907469 0.412413 0.065644
Si Si2 0.534080 0.637420 0.655461
Si Si3 0.844994 0.565102 0.658172
Si Si4 0.369609 0.794729 0.177399
Si Si5 0.662710 0.114674 0.068834
Si Si6 0.231530 0.114017 0.037770
Si Si7 0.063014 0.636788 0.269273
Si Si8 0.315407 0.343827 0.789860
O O1 0.733100 0.640046 0.796043
O O2 0.849136 0.150752 0.194825
O O3 0.000000 0.500000 0.000000
O O4 0.031311 0.341835 0.271579
O O5 0.453041 0.529696 0.748020
O O6 0.515745 0.390155 0.777658
O O7 0.424752 0.940351 0.325668
O O8 0.809613 0.279759 0.875394
O O9 0.927562 0.535920 0.662638
O O10 0.667191 0.822001 0.332423
O O11 0.500000 0.500000 0.500000
O O12 0.358255 0.934231 0.988686
O O13 0.404530 0.018994 0.084322
O O14 0.236564 0.347138 0.807457
O O15 0.135446 0.267531 0.920306
O O16 0.128934 0.904898 0.095200
O O17 0.169010 0.464617 0.538281
#
# Coordination Sequence:
#
# PCOD8006481 Si02
#       8
#     2   2   2   2   2   2   2   2
#     4  10  22  41  60  83 115 161 196 229 285 343
#     4   9  22  37  58  85 114 153 191 235 284 347
#     4  12  21  39  57  86 117 152 196 239 277 340
#     4  12  23  32  58  90 122 150 183 237 297 345
#     4  10  22  38  55  85 119 150 189 230 284 349
#     4  10  20  40  57  85 116 151 190 240 296 337
#     4  10  22  35  61  85 115 151 194 238 287 347
#     4  11  20  36  57  87 117 150 189 234 293 348
#
# _framework density 20.914231000000001
#
# number of rings (size 3 to 8) (size 9 to 14) (size 15 to 20)
#    0.750    0.750    3.750    2.250    1.750    2.000 
#    0.000    0.625    0.000    0.750    0.000    0.000 
#    0.000    0.000    0.000    0.000    0.000    0.000 
#
# Total GULP energy -198216.835454 kJ/mol
# GULP energy per Si atom -12388.552216 kJ/mol
# Density = 2.086663 g / cm^3
# Si number density = 20.914231 Si / 1000 Ang^3
#
#
#
# Elastic Constant Matrix: (Units=GPa)
#
#
# Indices 1 2 3 4 5 6 
#
# 1 102.8261 3.6946 42.2024 15.7356 -11.9797 7.6315
# 2 3.6946 43.0511 7.9717 14.3525 -4.5686 2.3866
# 3 42.2024 7.9717 91.4650 15.7051 -2.4871 4.6966
# 4 15.7356 14.3525 15.7051 26.7488 2.7719 -1.3792
# 5 -11.9797 -4.5686 -2.4871 2.7719 39.6162 -5.4123
# 6 7.6315 2.3866 4.6966 -1.3792 -5.4123 29.9174
#
#
#
# Elastic Compliance Matrix: (Units=1/GPa)
#
#
# Indices 1 2 3 4 5 6 
#
# 1 0.013409 0.002671 -0.004988 -0.006953 0.004207 -0.002410
# 2 0.002671 0.029766 -0.000458 -0.017949 0.005072 -0.002894
# 3 -0.004988 -0.000458 0.014215 -0.005181 -0.000477 -0.001248
# 4 -0.006953 -0.017949 -0.005181 0.055208 -0.007653 0.005179
# 5 0.004207 0.005072 -0.000477 -0.007653 0.028058 0.003320
# 6 -0.002410 -0.002894 -0.001248 0.005179 0.003320 0.035306
#
#
# Mechanical properties :
#
#
# Convention : Reuss Voigt Hill
#
# Bulk Modulus (GPa) = 19.28997 38.34218 28.81608
# Shear Modulus (GPa) = 25.15164 31.48805 28.31984
#
# Velocity S-wave (km/s) = 3.47163 3.88439 3.68379
# Velocity P-wave (km/s) = 5.03120 6.20410 5.64818
#
# Compressibility (1/GPa) = 0.05184040
#
# Stress axis : x y z
#
# Youngs Moduli (GPa) = 74.57450 33.59507 70.34702
#
# Poissons Ratio (x) = -0.08973 0.35088
# Poissons Ratio (y) = -0.19919 0.03224
# Poissons Ratio (z) = 0.37197 0.01540
#
# Static dielectric constant tensor:
#      x y z
#    x 4.118590 0.291270 -0.067820 
#    y 0.291270 3.498420 -0.096770 
#    z -0.067820 -0.096770 3.821290 
# 
# 
# High freq. dielectric constant tensor:
#      x y z
#    x 1.834380 0.018990 -0.007220 
#    y 0.018990 1.774600 -0.001640 
#    z -0.007220 -0.001640 1.818400 
# 
# From -- ./inp_files/573948.got.cif
#   From: 2010.06.25/outbox.cif.g09.slc.cpg/sg2_287_cif.got.tgz:573948.got - 2010.06.27 13:26:56.
