data_PCOD8006996
_publ_section_title
;
Structure prediction by ZEFSAII (Michael W. Deem and Ramdas Pophale) SiO2 
 PCOD8006996
Probable space group: P -1
;
_chemical_formula_sum "Si O2"
_cell_formula_units_Z 16
_cell_length_a 9.222053
_cell_length_b 12.642355
_cell_length_c 22.330760
_cell_angle_alpha 37.114616
_cell_angle_beta 134.043186
_cell_angle_gamma 150.118441
_cell_volume 782.617489
_symmetry_space_group_name_H-M "P -1"
_symmetry_group_IT_number 2
_symmetry_cell_setting 'triclinic'
loop_
_space_group_symop_operation_xyz
x,y,z
-x,-y,-z
loop_
_atom_site_type_symbol
_atom_site_label
_atom_site_fract_x
_atom_site_fract_y
_atom_site_fract_z
Si Si1 0.774136 0.880257 0.366426
Si Si2 0.979023 0.994377 0.749424
Si Si3 0.106120 0.400336 0.416252
Si Si4 0.621336 0.568779 0.168241
Si Si5 0.218001 0.386369 0.936106
Si Si6 0.753746 0.211914 0.279690
Si Si7 0.082649 0.728078 0.319695
Si Si8 0.291218 0.031166 0.934754
O O1 0.430036 0.634271 0.379171
O O2 0.940484 0.825293 0.471831
O O3 0.877356 0.121176 0.320604
O O4 0.868589 0.952728 0.292560
O O5 0.636952 0.734670 0.766565
O O6 0.020352 0.229591 0.669732
O O7 0.127347 0.967159 0.854591
O O8 0.048779 0.494788 0.414436
O O9 0.885570 0.300522 0.344157
O O10 0.745738 0.679237 0.088293
O O11 0.512780 0.681786 0.116546
O O12 0.902255 0.679336 0.233691
O O13 0.175061 0.569019 0.835771
O O14 0.500000 0.500000 0.000000
O O15 0.936877 0.142182 0.999694
O O16 0.411063 0.986964 0.286529
O O17 0.500000 0.000000 0.000000
#
# Coordination Sequence:
#
# PCOD8006996 Si02
#       8
#     2   2   2   2   2   2   2   2
#     4  10  25  39  66  93 129 165 204 264 322 384
#     4  11  23  42  59  94 131 162 208 260 322 372
#     4  10  21  44  65  94 121 166 214 257 320 377
#     4  11  22  43  63  86 130 166 210 262 312 379
#     4  12  22  42  66  92 123 174 215 258 312 376
#     4  11  22  40  67  93 123 163 217 259 313 376
#     4  10  20  40  66  91 122 162 210 259 308 383
#     4  11  27  39  61  96 127 168 217 261 318 377
#
# _framework density 20.444216000000001
#
# number of rings (size 3 to 8) (size 9 to 14) (size 15 to 20)
#    0.000    1.250    3.750    1.500    3.500    3.000 
#    0.000    2.500    0.000    0.000    0.000    0.000 
#    0.000    0.000    0.000    0.000    0.000    0.000 
#
# Total GULP energy -198345.398333 kJ/mol
# GULP energy per Si atom -12396.587396 kJ/mol
# Density = 2.039768 g / cm^3
# Si number density = 20.444216 Si / 1000 Ang^3
#
#
#
# Elastic Constant Matrix: (Units=GPa)
#
#
# Indices 1 2 3 4 5 6 
#
# 1 110.5536 38.9554 32.3816 -5.1158 22.1292 -19.1993
# 2 38.9554 104.9911 37.5574 11.6032 12.9177 -13.6444
# 3 32.3816 37.5574 99.0538 2.9911 20.7381 -11.3518
# 4 -5.1158 11.6032 2.9911 19.9681 0.3976 7.1450
# 5 22.1292 12.9177 20.7381 0.3976 39.5304 -3.7093
# 6 -19.1993 -13.6444 -11.3518 7.1450 -3.7093 33.1637
#
#
#
# Elastic Compliance Matrix: (Units=1/GPa)
#
#
# Indices 1 2 3 4 5 6 
#
# 1 0.012527 -0.003496 -0.001448 0.004163 -0.004788 0.003886
# 2 -0.003496 0.013705 -0.003146 -0.010051 -0.000332 0.004666
# 3 -0.001448 -0.003146 0.013033 -0.001128 -0.004797 0.002035
# 4 0.004163 -0.010051 -0.001128 0.062785 -0.000559 -0.015701
# 5 -0.004788 -0.000332 -0.004797 -0.000559 0.030512 -0.001017
# 6 0.003886 0.004666 0.002035 -0.015701 -0.001017 0.038289
#
#
# Mechanical properties :
#
#
# Convention : Reuss Voigt Hill
#
# Bulk Modulus (GPa) = 43.31507 59.15417 51.23462
# Shear Modulus (GPa) = 25.67706 32.24606 28.96156
#
# Velocity S-wave (km/s) = 3.54779 3.97580 3.76788
# Velocity P-wave (km/s) = 6.16566 7.07624 6.63659
#
# Compressibility (1/GPa) = 0.02308665
#
# Stress axis : x y z
#
# Youngs Moduli (GPa) = 79.82611 72.96476 76.72793
#
# Poissons Ratio (x) = 0.25509 0.11107
# Poissons Ratio (y) = 0.27908 0.24137
# Poissons Ratio (z) = 0.11555 0.22953
#
# Static dielectric constant tensor:
#      x y z
#    x 3.986900 -0.360630 0.416530 
#    y -0.360630 3.998470 -0.110450 
#    z 0.416530 -0.110450 3.783850 
# 
# 
# High freq. dielectric constant tensor:
#      x y z
#    x 1.811310 -0.014190 0.019640 
#    y -0.014190 1.807880 0.006060 
#    z 0.019640 0.006060 1.793300 
# 
# From -- ./inp_files/38114.got.cif
#   From: 2010.06.25/outbox.cif.g09.slc.cpg/sg2_20_cif.got.tgz:38114.got - 2010.06.27 13:26:56.
