data_PCOD8006134
_publ_section_title
;
Structure prediction by ZEFSAII (Michael W. Deem and Ramdas Pophale) SiO2 
 PCOD8006134
Probable space group: P -1
;
_chemical_formula_sum "Si O2"
_cell_formula_units_Z 16
_cell_length_a 11.980845
_cell_length_b 12.079707
_cell_length_c 12.009733
_cell_angle_alpha 144.441601
_cell_angle_beta 88.078240
_cell_angle_gamma 67.279674
_cell_volume 709.875519
_symmetry_space_group_name_H-M "P -1"
_symmetry_group_IT_number 2
_symmetry_cell_setting 'triclinic'
loop_
_space_group_symop_operation_xyz
x,y,z
-x,-y,-z
loop_
_atom_site_type_symbol
_atom_site_label
_atom_site_fract_x
_atom_site_fract_y
_atom_site_fract_z
Si Si1 0.813555 0.612952 0.891286
Si Si2 0.718931 0.581701 0.443813
Si Si3 0.078290 0.886245 0.103938
Si Si4 0.162248 0.162813 0.423172
Si Si5 0.272369 0.430287 0.904010
Si Si6 0.274296 0.572397 0.439092
Si Si7 0.381978 0.896120 0.388078
Si Si8 0.398674 0.798132 0.554776
O O1 0.718715 0.590153 0.792164
O O2 0.993853 0.430089 0.698762
O O3 0.811452 0.523744 0.940600
O O4 0.728246 0.920381 0.144240
O O5 0.748887 0.768803 0.581111
O O6 0.692119 0.577721 0.570980
O O7 0.567987 0.697847 0.472014
O O8 0.867882 0.278772 0.146953
O O9 0.137209 0.034005 0.223957
O O10 0.142981 0.700720 0.058851
O O11 0.889249 0.112369 0.299781
O O12 0.271429 0.935276 0.329545
O O13 0.326693 0.183302 0.627538
O O14 0.434130 0.352320 0.858202
O O15 0.408255 0.573288 0.420036
O O16 0.349823 0.837072 0.459211
#
# Coordination Sequence:
#
# PCOD8006134 Si02
#       8
#     2   2   2   2   2   2   2   2
#     4  10  25  41  63 102 129 164 212 264 324 382
#     4  12  24  47  64  92 133 169 222 259 311 384
#     4  11  24  41  67  99 123 172 215 262 317 380
#     4  11  24  39  67  99 128 171 206 265 326 374
#     4  10  20  40  64  94 136 160 213 261 319 383
#     4  11  27  43  66  93 130 174 214 264 315 375
#     4  10  20  39  65  95 130 167 205 264 323 377
#     4  11  24  42  68  93 127 171 216 263 319 375
#
# _framework density 22.539164
#
# number of rings (size 3 to 8) (size 9 to 14) (size 15 to 20)
#    0.000    1.250    2.500    3.000    3.500    8.000 
#    0.000    0.000    0.000    0.000    0.000    0.000 
#    0.000    0.000    0.000    0.000    0.000    0.000 
#
# Total GULP energy -198482.840242 kJ/mol
# GULP energy per Si atom -12405.177515 kJ/mol
# Density = 2.248786 g / cm^3
# Si number density = 22.539164 Si / 1000 Ang^3
#
#
#
# Elastic Constant Matrix: (Units=GPa)
#
#
# Indices 1 2 3 4 5 6 
#
# 1 97.9048 29.2336 0.8968 -7.7789 1.5032 19.9851
# 2 29.2336 86.3798 15.6815 -0.6377 5.1425 23.1555
# 3 0.8968 15.6815 28.1370 1.1813 3.0809 9.1616
# 4 -7.7789 -0.6377 1.1813 21.3628 -4.6977 -7.2934
# 5 1.5032 5.1425 3.0809 -4.6977 22.6196 2.3962
# 6 19.9851 23.1555 9.1616 -7.2934 2.3962 32.9076
#
#
#
# Elastic Compliance Matrix: (Units=1/GPa)
#
#
# Indices 1 2 3 4 5 6 
#
# 1 0.012511 -0.003308 0.003104 0.002499 0.000613 -0.005625
# 2 -0.003308 0.016108 -0.005691 -0.003845 -0.002575 -0.008406
# 3 0.003104 -0.005691 0.042944 -0.006197 -0.004899 -0.010853
# 4 0.002499 -0.003845 -0.006197 0.055383 0.011534 0.014348
# 5 0.000613 -0.002575 -0.004899 0.011534 0.047616 0.001893
# 6 -0.005625 -0.008406 -0.010853 0.014348 0.001893 0.045783
#
#
# Mechanical properties :
#
#
# Convention : Reuss Voigt Hill
#
# Bulk Modulus (GPa) = 16.73012 33.78283 25.25647
# Shear Modulus (GPa) = 19.83673 26.48532 23.16102
#
# Velocity S-wave (km/s) = 2.96987 3.43166 3.20908
# Velocity P-wave (km/s) = 4.38166 5.54281 4.99609
#
# Compressibility (1/GPa) = 0.05977244
#
# Stress axis : x y z
#
# Youngs Moduli (GPa) = 79.93184 62.08264 23.28627
#
# Poissons Ratio (x) = 0.20534 -0.07229
# Poissons Ratio (y) = 0.26438 0.13253
# Poissons Ratio (z) = -0.24813 0.35334
#
# Static dielectric constant tensor:
#      x y z
#    x 4.028790 -0.106540 0.024980 
#    y -0.106540 3.885790 0.011220 
#    z 0.024980 0.011220 4.013530 
# 
# 
# High freq. dielectric constant tensor:
#      x y z
#    x 1.893590 -0.001370 0.001700 
#    y -0.001370 1.884640 0.000660 
#    z 0.001700 0.000660 1.887740 
# 
# From -- ./inp_files/397396.got.cif
#   From: 2010.06.25/outbox.cif.g09.slc.cpg/sg2_199_cif.got.tgz:397396.got - 2010.06.27 13:26:56.
