data_PCOD8006155
_publ_section_title
;
Structure prediction by ZEFSAII (Michael W. Deem and Ramdas Pophale) SiO2 
 PCOD8006155
Probable space group: P -1
;
_chemical_formula_sum "Si O2"
_cell_formula_units_Z 16
_cell_length_a 12.253799
_cell_length_b 9.667530
_cell_length_c 11.456356
_cell_angle_alpha 54.649292
_cell_angle_beta 90.258717
_cell_angle_gamma 53.194611
_cell_volume 747.273678
_symmetry_space_group_name_H-M "P -1"
_symmetry_group_IT_number 2
_symmetry_cell_setting 'triclinic'
loop_
_space_group_symop_operation_xyz
x,y,z
-x,-y,-z
loop_
_atom_site_type_symbol
_atom_site_label
_atom_site_fract_x
_atom_site_fract_y
_atom_site_fract_z
Si Si1 0.681896 0.985410 0.228149
Si Si2 0.372392 0.253595 0.805900
Si Si3 0.602460 0.245558 0.689451
Si Si4 0.315340 0.435835 0.953690
Si Si5 0.180927 0.277088 0.161204
Si Si6 0.681983 0.799527 0.556812
Si Si7 0.791842 0.305228 0.773640
Si Si8 0.874948 0.094471 0.126664
O O1 0.729740 0.760250 0.266368
O O2 0.700958 0.919669 0.397347
O O3 0.807176 0.982397 0.186677
O O4 0.503565 0.263718 0.061729
O O5 0.468109 0.270599 0.717412
O O6 0.269220 0.469327 0.799535
O O7 0.500000 0.000000 0.000000
O O8 0.500000 0.500000 0.500000
O O9 0.684890 0.257880 0.787004
O O10 0.741251 0.994984 0.735378
O O11 0.197587 0.719589 0.856183
O O12 0.289958 0.290317 0.091843
O O13 0.192652 0.294378 0.292585
O O14 0.000000 0.500000 0.000000
O O15 0.708427 0.580446 0.614327
O O16 0.500000 0.000000 0.500000
O O17 0.842835 0.242451 0.938912
O O18 0.931585 0.138674 0.756907
#
# Coordination Sequence:
#
# PCOD8006155 Si02
#       8
#     2   2   2   2   2   2   2   2
#     4  11  22  40  70  96 133 173 233 277 338 396
#     4  10  20  39  66 100 128 177 227 281 330 405
#     4  12  24  42  68 101 134 176 230 285 340 404
#     4  11  21  41  65  98 130 174 231 274 327 413
#     4  12  25  42  69 102 139 182 225 278 351 414
#     4  12  23  45  70  99 136 179 228 283 337 412
#     4  11  24  41  65  95 138 172 223 276 340 410
#     4  11  24  40  63  99 132 176 220 282 339 401
#
# _framework density 21.411165
#
# number of rings (size 3 to 8) (size 9 to 14) (size 15 to 20)
#    0.000    0.750    5.000    4.125    1.750    2.500 
#    0.000    1.250    0.000    5.250    0.000    0.000 
#    0.000    0.000    0.000    0.000    0.000    0.000 
#
# Total GULP energy -198315.220456 kJ/mol
# GULP energy per Si atom -12394.701279 kJ/mol
# Density = 2.136243 g / cm^3
# Si number density = 21.411165 Si / 1000 Ang^3
#
#
#
# Elastic Constant Matrix: (Units=GPa)
#
#
# Indices 1 2 3 4 5 6 
#
# 1 89.2183 43.5053 33.0933 -6.7516 -11.2871 3.5137
# 2 43.5053 163.3005 43.3534 -8.4769 2.5142 12.7668
# 3 33.0933 43.3534 89.3028 -2.5751 -7.5501 -1.3553
# 4 -6.7516 -8.4769 -2.5751 42.0341 3.5822 -5.8633
# 5 -11.2871 2.5142 -7.5501 3.5822 37.2119 3.6899
# 6 3.5137 12.7668 -1.3553 -5.8633 3.6899 29.2638
#
#
#
# Elastic Compliance Matrix: (Units=1/GPa)
#
#
# Indices 1 2 3 4 5 6 
#
# 1 0.014560 -0.002831 -0.003679 0.001081 0.003852 -0.000953
# 2 -0.002831 0.007964 -0.002991 0.000715 -0.001785 -0.002905
# 3 -0.003679 -0.002991 0.014190 -0.000176 0.001770 0.002145
# 4 0.001081 0.000715 -0.000176 0.025006 -0.002649 0.004894
# 5 0.003852 -0.001785 0.001770 -0.002649 0.029154 -0.003809
# 6 -0.000953 -0.002905 0.002145 0.004894 -0.003809 0.037114
#
#
# Mechanical properties :
#
#
# Convention : Reuss Voigt Hill
#
# Bulk Modulus (GPa) = 56.45957 64.63618 60.54787
# Shear Modulus (GPa) = 32.70244 36.49326 34.59785
#
# Velocity S-wave (km/s) = 3.91238 4.13292 4.02416
# Velocity P-wave (km/s) = 6.84364 7.28205 7.06625
#
# Compressibility (1/GPa) = 0.01771179
#
# Stress axis : x y z
#
# Youngs Moduli (GPa) = 68.68065 125.56937 70.46994
#
# Poissons Ratio (x) = 0.35549 0.25925
# Poissons Ratio (y) = 0.19444 0.21080
# Poissons Ratio (z) = 0.25267 0.37562
#
# Static dielectric constant tensor:
#      x y z
#    x 3.697830 0.105980 -0.008980 
#    y 0.105980 4.981120 0.286310 
#    z -0.008980 0.286310 3.776720 
# 
# 
# High freq. dielectric constant tensor:
#      x y z
#    x 1.837930 0.008650 -0.011940 
#    y 0.008650 1.852980 0.000200 
#    z -0.011940 0.000200 1.830720 
# 
# From -- ./inp_files/418912.got.cif
#   From: 2010.06.25/outbox.cif.g09.slc.cpg/sg2_210_cif.got.tgz:418912.got - 2010.06.27 13:26:56.
