data_PCOD8006581
_publ_section_title
;
Structure prediction by ZEFSAII (Michael W. Deem and Ramdas Pophale) SiO2 
 PCOD8006581
Probable space group: P -1
;
_chemical_formula_sum "Si O2"
_cell_formula_units_Z 16
_cell_length_a 15.798539
_cell_length_b 14.812590
_cell_length_c 8.934809
_cell_angle_alpha 85.784533
_cell_angle_beta 46.768980
_cell_angle_gamma 46.508409
_cell_volume 727.531988
_symmetry_space_group_name_H-M "P -1"
_symmetry_group_IT_number 2
_symmetry_cell_setting 'triclinic'
loop_
_space_group_symop_operation_xyz
x,y,z
-x,-y,-z
loop_
_atom_site_type_symbol
_atom_site_label
_atom_site_fract_x
_atom_site_fract_y
_atom_site_fract_z
Si Si1 0.381267 0.938648 0.352988
Si Si2 0.532486 0.014566 0.293944
Si Si3 0.777103 0.579901 0.085810
Si Si4 0.881039 0.329460 0.820012
Si Si5 0.955066 0.830893 0.685074
Si Si6 0.202276 0.414768 0.607577
Si Si7 0.405584 0.617244 0.240392
Si Si8 0.435381 0.786344 0.035535
O O1 0.452715 0.994339 0.273164
O O2 0.497448 0.798012 0.361617
O O3 0.492532 0.829785 0.073950
O O4 0.085507 0.131957 0.685639
O O5 0.500000 0.000000 0.500000
O O6 0.362191 0.215877 0.451337
O O7 0.812145 0.852073 0.948728
O O8 0.798077 0.533160 0.238510
O O9 0.876284 0.434613 0.874583
O O10 0.931028 0.567639 0.875287
O O11 0.939113 0.290027 0.577051
O O12 0.606986 0.474870 0.148003
O O13 0.154510 0.737931 0.568840
O O14 0.788020 0.031181 0.820190
O O15 0.323310 0.396330 0.336608
O O16 0.500000 0.500000 0.000000
O O17 0.361570 0.750912 0.228109
#
# Coordination Sequence:
#
# PCOD8006581 Si02
#       8
#     2   2   2   2   2   2   2   2
#     4  11  22  36  65  93 125 164 205 263 320 359
#     4  11  21  39  61  94 132 165 201 255 319 383
#     4  11  21  38  58  91 132 168 202 254 315 379
#     4  10  21  38  61  93 123 162 215 263 300 373
#     4   9  22  37  65  92 126 168 209 258 311 369
#     4  10  23  37  58  94 131 170 201 253 321 384
#     4  10  20  40  61  91 126 161 215 266 303 367
#     4  10  21  38  64  95 120 165 212 264 313 369
#
# _framework density 21.992162
#
# number of rings (size 3 to 8) (size 9 to 14) (size 15 to 20)
#    0.000    1.750    3.750    0.375    1.750    4.000 
#    0.000    0.000    0.000   15.000    0.000    0.000 
#    0.000    0.000    0.000    0.000    0.000    0.000 
#
# Total GULP energy -198295.302317 kJ/mol
# GULP energy per Si atom -12393.456395 kJ/mol
# Density = 2.194211 g / cm^3
# Si number density = 21.992162 Si / 1000 Ang^3
#
#
#
# Elastic Constant Matrix: (Units=GPa)
#
#
# Indices 1 2 3 4 5 6 
#
# 1 129.6699 37.2867 74.0563 6.0264 -23.8860 -11.1035
# 2 37.2867 54.4661 21.2348 11.3873 -8.4736 -9.5635
# 3 74.0563 21.2348 91.6141 2.5941 -14.6464 -7.3518
# 4 6.0264 11.3873 2.5941 26.9973 -2.0682 -9.3439
# 5 -23.8860 -8.4736 -14.6464 -2.0682 31.9946 13.6846
# 6 -11.1035 -9.5635 -7.3518 -9.3439 13.6846 31.0157
#
#
#
# Elastic Compliance Matrix: (Units=1/GPa)
#
#
# Indices 1 2 3 4 5 6 
#
# 1 0.017229 -0.006566 -0.011485 0.000029 0.006479 -0.001429
# 2 -0.006566 0.025074 -0.000049 -0.008085 -0.000075 0.002967
# 3 -0.011485 -0.000049 0.020317 0.000934 0.000442 0.000776
# 4 0.000029 -0.008085 0.000934 0.044554 -0.004420 0.013111
# 5 0.006479 -0.000075 0.000442 -0.004420 0.043797 -0.018254
# 6 -0.001429 0.002967 0.000776 0.013111 -0.018254 0.044833
#
#
# Mechanical properties :
#
#
# Convention : Reuss Voigt Hill
#
# Bulk Modulus (GPa) = 37.85054 60.10064 48.97559
# Shear Modulus (GPa) = 20.76338 27.54634 24.15486
#
# Velocity S-wave (km/s) = 3.07600 3.54298 3.31772
# Velocity P-wave (km/s) = 5.46479 6.64263 6.08229
#
# Compressibility (1/GPa) = 0.02641970
#
# Stress axis : x y z
#
# Youngs Moduli (GPa) = 58.04242 39.88247 49.22022
#
# Poissons Ratio (x) = 0.26187 0.56528
# Poissons Ratio (y) = 0.38111 0.00242
# Poissons Ratio (z) = 0.66660 0.00196
#
# Static dielectric constant tensor:
#      x y z
#    x 4.502990 -0.183440 -0.425310 
#    y -0.183440 3.868370 0.227240 
#    z -0.425310 0.227240 4.483300 
# 
# 
# High freq. dielectric constant tensor:
#      x y z
#    x 1.874400 -0.002190 -0.003790 
#    y -0.002190 1.848440 0.040750 
#    z -0.003790 0.040750 1.848840 
# 
# From -- ./inp_files/282817.got.cif
#   From: 2010.06.25/outbox.cif.g09.slc.cpg/sg2_142_cif.got.tgz:282817.got - 2010.06.27 13:26:56.
