data_PCOD8006356
_publ_section_title
;
Structure prediction by ZEFSAII (Michael W. Deem and Ramdas Pophale) SiO2 
 PCOD8006356
Probable space group: P -1
;
_chemical_formula_sum "Si O2"
_cell_formula_units_Z 16
_cell_length_a 8.778715
_cell_length_b 10.732431
_cell_length_c 13.386661
_cell_angle_alpha 43.279163
_cell_angle_beta 98.542023
_cell_angle_gamma 119.946107
_cell_volume 698.481945
_symmetry_space_group_name_H-M "P -1"
_symmetry_group_IT_number 2
_symmetry_cell_setting 'triclinic'
loop_
_space_group_symop_operation_xyz
x,y,z
-x,-y,-z
loop_
_atom_site_type_symbol
_atom_site_label
_atom_site_fract_x
_atom_site_fract_y
_atom_site_fract_z
Si Si1 0.246509 0.459854 0.558299
Si Si2 0.478370 0.092766 0.142702
Si Si3 0.002502 0.565599 0.118906
Si Si4 0.415238 0.792797 0.683029
Si Si5 0.109211 0.669295 0.284824
Si Si6 0.974396 0.756301 0.817397
Si Si7 0.348602 0.145643 0.671099
Si Si8 0.421590 0.450503 0.131980
O O1 0.156524 0.498026 0.429665
O O2 0.271288 0.260690 0.661948
O O3 0.458720 0.678723 0.472982
O O4 0.103796 0.408674 0.664323
O O5 0.510261 0.127838 0.243904
O O6 0.257710 0.910918 0.205755
O O7 0.605483 0.004831 0.169484
O O8 0.542507 0.319459 0.958389
O O9 0.132306 0.686874 0.157374
O O10 0.088374 0.473893 0.106866
O O11 0.807472 0.348467 0.264537
O O12 0.978549 0.731601 0.953331
O O13 0.475520 0.632088 0.743644
O O14 0.500000 0.000000 0.500000
O O15 0.798194 0.763044 0.768389
O O16 0.177144 0.978388 0.675260
O O17 0.500000 0.500000 0.000000
#
# Coordination Sequence:
#
# PCOD8006356 Si02
#       8
#     2   2   2   2   2   2   2   2
#     4   9  22  41  62  95 139 174 212 268 337 398
#     4  10  20  43  66  93 135 177 216 268 332 390
#     4  11  23  41  65 101 127 170 229 271 326 392
#     4  11  24  40  67 100 135 170 219 276 328 394
#     4  10  23  40  68  95 137 174 216 272 332 395
#     4  11  21  42  68  90 131 175 220 281 320 390
#     4  10  20  39  68  92 127 180 217 260 335 386
#     4  10  21  42  67  95 128 173 222 267 328 392
#
# _framework density 22.90682
#
# number of rings (size 3 to 8) (size 9 to 14) (size 15 to 20)
#    0.000    1.750    3.750    0.750    8.750    0.000 
#    2.250   10.625    0.000    0.000    0.000    0.000 
#    0.000    0.000    0.000    0.000    0.000    0.000 
#
# Total GULP energy -198236.914390 kJ/mol
# GULP energy per Si atom -12389.807149 kJ/mol
# Density = 2.285468 g / cm^3
# Si number density = 22.906820 Si / 1000 Ang^3
#
#
#
# Elastic Constant Matrix: (Units=GPa)
#
#
# Indices 1 2 3 4 5 6 
#
# 1 122.5445 19.1477 41.2658 -17.0451 6.4328 -0.5368
# 2 19.1477 91.7612 24.3610 -6.1841 0.9380 3.4984
# 3 41.2658 24.3610 88.3083 -11.9425 23.4732 -4.9964
# 4 -17.0451 -6.1841 -11.9425 39.0168 -1.0918 -1.4510
# 5 6.4328 0.9380 23.4732 -1.0918 41.0934 -20.0519
# 6 -0.5368 3.4984 -4.9964 -1.4510 -20.0519 28.6894
#
#
#
# Elastic Compliance Matrix: (Units=1/GPa)
#
#
# Indices 1 2 3 4 5 6 
#
# 1 0.010124 -0.000769 -0.004434 0.003003 0.001337 0.000597
# 2 -0.000769 0.011991 -0.003237 0.000559 0.001106 -0.001239
# 3 -0.004434 -0.003237 0.017344 0.002382 -0.011217 -0.004387
# 4 0.003003 0.000559 0.002382 0.027809 -0.000336 0.001574
# 5 0.001337 0.001106 -0.011217 -0.000336 0.044743 0.029192
# 6 0.000597 -0.001239 -0.004387 0.001574 0.029192 0.054737
#
#
# Mechanical properties :
#
#
# Convention : Reuss Voigt Hill
#
# Bulk Modulus (GPa) = 44.28929 52.46254 48.37592
# Shear Modulus (GPa) = 26.15675 36.28254 31.21965
#
# Velocity S-wave (km/s) = 3.38283 3.98417 3.69575
# Velocity P-wave (km/s) = 5.88512 6.64207 6.27502
#
# Compressibility (1/GPa) = 0.02257882
#
# Stress axis : x y z
#
# Youngs Moduli (GPa) = 98.77748 83.39343 57.65609
#
# Poissons Ratio (x) = 0.06417 0.25564
# Poissons Ratio (y) = 0.07600 0.18663
# Poissons Ratio (z) = 0.43797 0.26994
#
# Static dielectric constant tensor:
#      x y z
#    x 5.083950 0.021490 0.605990 
#    y 0.021490 4.022330 -0.470140 
#    z 0.605990 -0.470140 4.363010 
# 
# 
# High freq. dielectric constant tensor:
#      x y z
#    x 1.924260 0.013350 -0.001310 
#    y 0.013350 1.880480 -0.031830 
#    z -0.001310 -0.031830 1.883600 
# 
# From -- ./inp_files/499902.got.cif
#   From: 2010.06.25/outbox.cif.g09.slc.cpg/sg2_250_cif.got.tgz:499902.got - 2010.06.27 13:26:56.
