data_PCOD8006798
_publ_section_title
;
Structure prediction by ZEFSAII (Michael W. Deem and Ramdas Pophale) SiO2 
 PCOD8006798
Probable space group: P -1
;
_chemical_formula_sum "Si O2"
_cell_formula_units_Z 16
_cell_length_a 9.842394
_cell_length_b 29.297065
_cell_length_c 13.118680
_cell_angle_alpha 19.528213
_cell_angle_beta 46.305935
_cell_angle_gamma 37.572316
_cell_volume 741.163396
_symmetry_space_group_name_H-M "P -1"
_symmetry_group_IT_number 2
_symmetry_cell_setting 'triclinic'
loop_
_space_group_symop_operation_xyz
x,y,z
-x,-y,-z
loop_
_atom_site_type_symbol
_atom_site_label
_atom_site_fract_x
_atom_site_fract_y
_atom_site_fract_z
Si Si1 0.632728 0.866488 0.124197
Si Si2 0.553013 0.034435 0.208005
Si Si3 0.646453 0.644181 0.251980
Si Si4 0.011528 0.147290 0.516407
Si Si5 0.118556 0.727242 0.078853
Si Si6 0.323295 0.886698 0.746981
Si Si7 0.494589 0.636686 0.647815
Si Si8 0.927205 0.366347 0.909485
O O1 0.613626 0.713955 0.481029
O O2 0.903431 0.792408 0.130135
O O3 0.500000 0.000000 0.000000
O O4 0.490688 0.966540 0.885680
O O5 0.374682 0.016679 0.403787
O O6 0.814957 0.878950 0.428446
O O7 0.517751 0.208882 0.889595
O O8 0.668223 0.470960 0.602415
O O9 0.905522 0.575014 0.298673
O O10 0.559865 0.727189 0.009909
O O11 0.770184 0.207441 0.570090
O O12 0.954122 0.291421 0.164512
O O13 0.128533 0.977392 0.745950
O O14 0.022515 0.760913 0.941160
O O15 0.229005 0.828471 0.829346
O O16 0.660500 0.534055 0.680223
O O17 0.500000 0.500000 0.000000
#
# Coordination Sequence:
#
# PCOD8006798 Si02
#       8
#     2   2   2   2   2   2   2   2
#     4  12  25  41  59  90 127 161 200 255 316 355
#     4  11  22  40  67  87 122 166 207 249 301 374
#     4  11  19  40  63  92 119 164 202 250 301 360
#     4  10  20  40  64  91 122 163 204 251 300 366
#     4  12  24  37  64  96 128 156 204 263 302 357
#     4  11  22  38  64  96 126 158 203 252 311 361
#     4  10  23  39  64  89 118 163 206 247 294 371
#     4  11  19  39  68  90 119 161 211 244 301 361
#
# _framework density 21.587682000000001
#
# number of rings (size 3 to 8) (size 9 to 14) (size 15 to 20)
#    0.000    1.000    5.000    3.000    0.000    4.500 
#    0.000    2.500    0.000    3.000    0.000    0.000 
#    0.000    0.000    0.000    0.000    0.000    0.000 
#
# Total GULP energy -198245.341373 kJ/mol
# GULP energy per Si atom -12390.333836 kJ/mol
# Density = 2.153855 g / cm^3
# Si number density = 21.587682 Si / 1000 Ang^3
#
#
#
# Elastic Constant Matrix: (Units=GPa)
#
#
# Indices 1 2 3 4 5 6 
#
# 1 106.4172 35.5864 25.3766 -10.5637 -0.6946 -1.5071
# 2 35.5864 112.2912 16.2570 -31.9527 -1.9660 -10.2090
# 3 25.3766 16.2570 77.9930 -11.8137 -1.5358 -2.3155
# 4 -10.5637 -31.9527 -11.8137 30.3995 -0.6657 0.6146
# 5 -0.6946 -1.9660 -1.5358 -0.6657 39.8661 -0.8259
# 6 -1.5071 -10.2090 -2.3155 0.6146 -0.8259 36.8822
#
#
#
# Elastic Compliance Matrix: (Units=1/GPa)
#
#
# Indices 1 2 3 4 5 6 
#
# 1 0.011174 -0.003411 -0.003082 -0.000889 -0.000121 -0.000669
# 2 -0.003411 0.014220 0.000370 0.013853 0.000962 0.003611
# 3 -0.003082 0.000370 0.014536 0.004964 0.000624 0.000820
# 4 -0.000889 0.013853 0.004964 0.049047 0.001747 0.003332
# 5 -0.000121 0.000962 0.000624 0.001747 0.025200 0.000836
# 6 -0.000669 0.003611 0.000820 0.003332 0.000836 0.028100
#
#
# Mechanical properties :
#
#
# Convention : Reuss Voigt Hill
#
# Bulk Modulus (GPa) = 36.12057 50.12683 43.12370
# Shear Modulus (GPa) = 30.53446 36.06165 33.29805
#
# Velocity S-wave (km/s) = 3.76498 4.09158 3.93167
# Velocity P-wave (km/s) = 5.97231 6.75217 6.37418
#
# Compressibility (1/GPa) = 0.02768505
#
# Stress axis : x y z
#
# Youngs Moduli (GPa) = 89.49396 70.32464 68.79595
#
# Poissons Ratio (x) = 0.23987 0.21200
# Poissons Ratio (y) = 0.30525 -0.02547
# Poissons Ratio (z) = 0.27578 -0.02604
#
# Static dielectric constant tensor:
#      x y z
#    x 3.942830 -0.256050 0.221940 
#    y -0.256050 4.277850 -0.225770 
#    z 0.221940 -0.225770 3.956220 
# 
# 
# High freq. dielectric constant tensor:
#      x y z
#    x 1.837410 -0.010610 0.015670 
#    y -0.010610 1.839960 -0.009860 
#    z 0.015670 -0.009860 1.856540 
# 
# From -- ./inp_files/509178.got.cif
#   From: 2010.06.25/outbox.cif.g09.slc.cpg/sg2_255_cif.got.tgz:509178.got - 2010.06.27 13:26:56.
