data_PCOD8006370
_publ_section_title
;
Structure prediction by ZEFSAII (Michael W. Deem and Ramdas Pophale) SiO2 
 PCOD8006370
Probable space group: P -1
;
_chemical_formula_sum "Si O2"
_cell_formula_units_Z 16
_cell_length_a 13.028535
_cell_length_b 11.453602
_cell_length_c 9.422855
_cell_angle_alpha 124.888223
_cell_angle_beta 71.248064
_cell_angle_gamma 64.127252
_cell_volume 657.423529
_symmetry_space_group_name_H-M "P -1"
_symmetry_group_IT_number 2
_symmetry_cell_setting 'triclinic'
loop_
_space_group_symop_operation_xyz
x,y,z
-x,-y,-z
loop_
_atom_site_type_symbol
_atom_site_label
_atom_site_fract_x
_atom_site_fract_y
_atom_site_fract_z
Si Si1 0.735885 0.883658 0.421895
Si Si2 0.154369 0.345116 0.066349
Si Si3 0.078473 0.045955 0.906879
Si Si4 0.129708 0.162610 0.394898
Si Si5 0.347801 0.410109 0.909138
Si Si6 0.111673 0.839543 0.475062
Si Si7 0.739279 0.565910 0.332302
Si Si8 0.361090 0.927005 0.864922
O O1 0.861225 0.744276 0.127281
O O2 0.811390 0.921383 0.524722
O O3 0.722187 0.746761 0.413776
O O4 0.545219 0.138787 0.630588
O O5 0.210687 0.435258 0.039711
O O6 0.297272 0.143591 0.977781
O O7 0.964133 0.580910 0.390985
O O8 0.928291 0.330211 0.162606
O O9 0.000000 0.000000 0.000000
O O10 0.137338 0.936058 0.646371
O O11 0.258227 0.912904 0.811342
O O12 0.996608 0.177075 0.413124
O O13 0.305665 0.978798 0.090121
O O14 0.289904 0.508108 0.841547
O O15 0.310483 0.582986 0.150672
O O16 0.000000 0.000000 0.500000
O O17 0.576896 0.694505 0.601449
#
# Coordination Sequence:
#
# PCOD8006370 Si02
#       8
#     2   2   2   2   2   2   2   2
#     4  11  21  42  69 105 131 170 224 281 349 388
#     4  10  20  39  68  95 138 173 217 280 337 400
#     4  12  27  48  67  96 139 186 225 272 342 397
#     4  11  25  39  63 102 136 175 226 276 334 408
#     4  10  20  42  70  98 137 167 224 287 329 393
#     4  11  24  45  67  92 133 179 231 279 321 394
#     4  11  23  44  73 101 135 177 221 285 335 405
#     4  12  24  44  68 100 137 181 223 272 344 406
#
# _framework density 24.337433000000001
#
# number of rings (size 3 to 8) (size 9 to 14) (size 15 to 20)
#    0.000    1.000    5.000    2.250    1.750    2.000 
#    2.250    1.250    0.000    0.000    0.000    0.000 
#    0.000    0.000    0.000    0.000    0.000    0.000 
#
# Total GULP energy -198326.730618 kJ/mol
# GULP energy per Si atom -12395.420664 kJ/mol
# Density = 2.428204 g / cm^3
# Si number density = 24.337433 Si / 1000 Ang^3
#
#
#
# Elastic Constant Matrix: (Units=GPa)
#
#
# Indices 1 2 3 4 5 6 
#
# 1 51.0986 -9.7205 25.3573 1.1783 6.4574 -12.1081
# 2 -9.7205 57.8280 6.4075 1.0731 3.9185 0.8377
# 3 25.3573 6.4075 122.7355 -13.5339 11.5158 8.2726
# 4 1.1783 1.0731 -13.5339 35.4364 -2.3296 2.6646
# 5 6.4574 3.9185 11.5158 -2.3296 37.3525 -7.5480
# 6 -12.1081 0.8377 8.2726 2.6646 -7.5480 27.8849
#
#
#
# Elastic Compliance Matrix: (Units=1/GPa)
#
#
# Indices 1 2 3 4 5 6 
#
# 1 0.028007 0.005461 -0.007579 -0.005119 -0.000444 0.014615
# 2 0.005461 0.018594 -0.002279 -0.001901 -0.001874 0.002163
# 3 -0.007579 -0.002279 0.011214 0.004987 -0.003191 -0.007890
# 4 -0.005119 -0.001901 0.004987 0.030855 0.000147 -0.006554
# 5 -0.000444 -0.001874 -0.003191 0.000147 0.029831 0.008871
# 6 0.014615 0.002163 -0.007890 -0.006554 0.008871 0.047511
#
#
# Mechanical properties :
#
#
# Convention : Reuss Voigt Hill
#
# Bulk Modulus (GPa) = 20.39939 30.63896 25.51918
# Shear Modulus (GPa) = 26.15815 34.10930 30.13373
#
# Velocity S-wave (km/s) = 3.28199 3.74774 3.52257
# Velocity P-wave (km/s) = 4.77096 5.59857 5.20125
#
# Compressibility (1/GPa) = 0.04902108
#
# Stress axis : x y z
#
# Youngs Moduli (GPa) = 35.70507 53.78079 89.17768
#
# Poissons Ratio (x) = -0.29370 0.67591
# Poissons Ratio (y) = -0.19499 0.20320
# Poissons Ratio (z) = 0.27062 0.12254
#
# Static dielectric constant tensor:
#      x y z
#    x 4.396580 0.074690 0.265800 
#    y 0.074690 4.285190 -0.010520 
#    z 0.265800 -0.010520 4.868570 
# 
# 
# High freq. dielectric constant tensor:
#      x y z
#    x 1.955650 0.003980 0.004350 
#    y 0.003980 1.954210 -0.005550 
#    z 0.004350 -0.005550 1.981360 
# 
# From -- ./inp_files/181262.got.cif
#   From: 2010.06.25/outbox.cif.g09.slc.cpg/sg2_91_cif.got.tgz:181262.got - 2010.06.27 13:26:56.
