data_PCOD8006827
_publ_section_title
;
Structure prediction by ZEFSAII (Michael W. Deem and Ramdas Pophale) SiO2 
 PCOD8006827
Probable space group: P -1
;
_chemical_formula_sum "Si O2"
_cell_formula_units_Z 14
_cell_length_a 22.210297
_cell_length_b 7.436670
_cell_length_c 14.930762
_cell_angle_alpha 104.054107
_cell_angle_beta 160.764434
_cell_angle_gamma 86.276120
_cell_volume 675.975774
_symmetry_space_group_name_H-M "P -1"
_symmetry_group_IT_number 2
_symmetry_cell_setting 'triclinic'
loop_
_space_group_symop_operation_xyz
x,y,z
-x,-y,-z
loop_
_atom_site_type_symbol
_atom_site_label
_atom_site_fract_x
_atom_site_fract_y
_atom_site_fract_z
Si Si1 0.839885 0.486341 0.848705
Si Si2 0.539261 0.059242 0.294632
Si Si3 0.334395 0.037147 0.823518
Si Si4 0.961749 0.054234 0.854054
Si Si5 0.122892 0.247460 0.463151
Si Si6 0.838598 0.316666 0.183742
Si Si7 0.005975 0.562209 0.286612
O O1 0.614381 0.267716 0.489016
O O2 0.000000 0.500000 0.000000
O O3 0.839123 0.708620 0.863924
O O4 0.915696 0.471145 0.051670
O O5 0.737645 0.047498 0.531996
O O6 0.404436 0.087562 0.030574
O O7 0.390520 0.838421 0.112971
O O8 0.105449 0.818039 0.464784
O O9 0.315936 0.232358 0.777322
O O10 0.500000 0.000000 0.000000
O O11 0.963624 0.891471 0.765514
O O12 0.000000 0.000000 0.000000
O O13 0.184426 0.493055 0.551729
O O14 0.937431 0.171623 0.269583
O O15 0.000000 0.500000 0.500000
O O16 0.817884 0.441894 0.082470
#
# Coordination Sequence:
#
# PCOD8006827 Si02
#       7
#     2   2   2   2   2   2   2
#     4  10  20  40  64  94 132 171 211 282 326 378
#     4  11  22  41  66  93 137 174 217 273 331 387
#     4  12  21  40  65  99 129 168 228 277 324 394
#     4  11  22  42  66  99 131 167 227 276 328 395
#     4  10  22  40  68  92 129 178 212 269 338 375
#     4  10  23  45  63  98 136 178 216 273 329 396
#     4  10  22  42  66  88 139 169 215 272 333 379
#
# _framework density 20.710799999999999
#
# number of rings (size 3 to 8) (size 9 to 14) (size 15 to 20)
#    0.857    0.571    4.286    2.571    0.000    1.714 
#    7.714    0.714    0.000    0.000    0.000    0.000 
#    0.000    0.000    0.000    0.000    0.000    0.000 
#
# Total GULP energy -173439.937556 kJ/mol
# GULP energy per Si atom -12388.566968 kJ/mol
# Density = 2.066366 g / cm^3
# Si number density = 20.710800 Si / 1000 Ang^3
#
#
#
# Elastic Constant Matrix: (Units=GPa)
#
#
# Indices 1 2 3 4 5 6 
#
# 1 109.7666 23.8581 42.1875 5.1572 -28.3794 11.3849
# 2 23.8581 79.3474 29.0591 0.0352 -11.3482 9.3560
# 3 42.1875 29.0591 93.1203 17.4922 -28.0312 8.5257
# 4 5.1572 0.0352 17.4922 35.6395 9.1113 -0.7073
# 5 -28.3794 -11.3482 -28.0312 9.1113 41.6096 -5.0546
# 6 11.3849 9.3560 8.5257 -0.7073 -5.0546 39.9449
#
#
#
# Elastic Compliance Matrix: (Units=1/GPa)
#
#
# Indices 1 2 3 4 5 6 
#
# 1 0.012450 -0.001652 -0.002542 -0.002277 0.006606 -0.001824
# 2 -0.001652 0.014850 -0.004450 0.002597 -0.000901 -0.002126
# 3 -0.002542 -0.004450 0.019616 -0.012573 0.012898 -0.001011
# 4 -0.002277 0.002597 -0.012573 0.039114 -0.017738 0.001173
# 5 0.006606 -0.000901 0.012898 -0.017738 0.040919 0.000439
# 6 -0.001824 -0.002126 -0.001011 0.001173 0.000439 0.026344
#
#
# Mechanical properties :
#
#
# Convention : Reuss Voigt Hill
#
# Bulk Modulus (GPa) = 33.75161 52.49373 43.12267
# Shear Modulus (GPa) = 27.70747 35.91411 31.81079
#
# Velocity S-wave (km/s) = 3.66160 4.16874 3.92337
# Velocity P-wave (km/s) = 5.84880 6.96938 6.43353
#
# Compressibility (1/GPa) = 0.02962821
#
# Stress axis : x y z
#
# Youngs Moduli (GPa) = 80.31997 67.34080 50.97945
#
# Poissons Ratio (x) = 0.11124 0.12957
# Poissons Ratio (y) = 0.13268 0.22687
# Poissons Ratio (z) = 0.20415 0.29968
#
# Static dielectric constant tensor:
#      x y z
#    x 3.979470 0.039220 -0.242970 
#    y 0.039220 4.177870 0.377020 
#    z -0.242970 0.377020 3.733560 
# 
# 
# High freq. dielectric constant tensor:
#      x y z
#    x 1.816260 0.010380 -0.031530 
#    y 0.010380 1.814380 0.011140 
#    z -0.031530 0.011140 1.782360 
# 
# From -- ./inp_files/542418.got.cif
#   From: 2010.06.25/outbox.cif.g09.slc.cpg/sg2_272_cif.got.tgz:542418.got - 2010.06.27 13:26:56.
