data_PCOD8006692
_publ_section_title
;
Structure prediction by ZEFSAII (Michael W. Deem and Ramdas Pophale) SiO2 
 PCOD8006692
Probable space group: P -1
;
_chemical_formula_sum "Si O2"
_cell_formula_units_Z 16
_cell_length_a 11.041366
_cell_length_b 9.159493
_cell_length_c 8.732699
_cell_angle_alpha 84.179355
_cell_angle_beta 53.669095
_cell_angle_gamma 80.430195
_cell_volume 701.581028
_symmetry_space_group_name_H-M "P -1"
_symmetry_group_IT_number 2
_symmetry_cell_setting 'triclinic'
loop_
_space_group_symop_operation_xyz
x,y,z
-x,-y,-z
loop_
_atom_site_type_symbol
_atom_site_label
_atom_site_fract_x
_atom_site_fract_y
_atom_site_fract_z
Si Si1 0.333602 0.559627 0.060489
Si Si2 0.323616 0.263784 0.482182
Si Si3 0.583534 0.238794 0.519706
Si Si4 0.212347 0.586461 0.457114
Si Si5 0.918628 0.594596 0.846624
Si Si6 0.509085 0.009688 0.173590
Si Si7 0.051258 0.266346 0.884003
Si Si8 0.743799 0.166488 0.113413
O O1 0.239829 0.648773 0.260415
O O2 0.249149 0.419069 0.090370
O O3 0.500000 0.500000 0.000000
O O4 0.339284 0.674234 0.904505
O O5 0.439368 0.307292 0.520747
O O6 0.250589 0.409391 0.432531
O O7 0.397860 0.147077 0.314155
O O8 0.190643 0.197164 0.681981
O O9 0.670508 0.365092 0.512244
O O10 0.699221 0.145539 0.325823
O O11 0.532982 0.139201 0.704871
O O12 0.037169 0.640012 0.625948
O O13 0.988034 0.433079 0.869140
O O14 0.900484 0.721579 0.976040
O O15 0.682709 0.033657 0.079776
O O16 0.500000 0.000000 0.000000
O O17 0.924590 0.157063 0.967650
#
# Coordination Sequence:
#
# PCOD8006692 Si02
#       8
#     2   2   2   2   2   2   2   2
#     4  11  22  32  56  93 132 162 204 251 309 366
#     4  10  22  38  64  95 121 160 214 262 292 372
#     4  11  22  39  65  90 121 168 211 248 314 369
#     4  11  21  37  60  94 130 162 204 254 314 366
#     4   9  19  35  56  87 132 172 192 250 318 368
#     4  11  24  45  63  85 128 167 204 256 322 373
#     4   9  18  36  62  90 122 159 214 256 303 359
#     4  10  20  40  63  87 121 170 209 251 308 371
#
# _framework density 22.805631000000002
#
# number of rings (size 3 to 8) (size 9 to 14) (size 15 to 20)
#    0.000    1.750    1.250    4.500    3.500    0.000 
#    0.000    3.125    0.000    0.000    0.000    0.000 
#    0.000    0.000    0.000    0.000    0.000    0.000 
#
# Total GULP energy -198337.786607 kJ/mol
# GULP energy per Si atom -12396.111663 kJ/mol
# Density = 2.275372 g / cm^3
# Si number density = 22.805631 Si / 1000 Ang^3
#
#
#
# Elastic Constant Matrix: (Units=GPa)
#
#
# Indices 1 2 3 4 5 6 
#
# 1 125.2079 19.9294 60.8529 5.3482 -14.2193 30.4961
# 2 19.9294 45.9670 25.8834 2.7576 -1.3868 8.3809
# 3 60.8529 25.8834 157.2032 -1.2902 1.1718 20.0365
# 4 5.3482 2.7576 -1.2902 29.7067 6.5724 3.7409
# 5 -14.2193 -1.3868 1.1718 6.5724 49.7766 -4.4815
# 6 30.4961 8.3809 20.0365 3.7409 -4.4815 30.9948
#
#
#
# Elastic Compliance Matrix: (Units=1/GPa)
#
#
# Indices 1 2 3 4 5 6 
#
# 1 0.012555 -0.001643 -0.003480 -0.001800 0.003050 -0.009001
# 2 -0.001643 0.024855 -0.003114 -0.001854 0.000287 -0.002826
# 3 -0.003480 -0.003114 0.008462 0.001865 -0.001677 -0.001672
# 4 -0.001800 -0.001854 0.001865 0.036026 -0.005737 -0.004110
# 5 0.003050 0.000287 -0.001677 -0.005737 0.021934 0.001869
# 6 -0.009001 -0.002826 -0.001672 -0.004110 0.001869 0.043731
#
#
# Mechanical properties :
#
#
# Convention : Reuss Voigt Hill
#
# Bulk Modulus (GPa) = 34.01389 60.18993 47.10191
# Shear Modulus (GPa) = 28.76270 36.87646 32.81958
#
# Velocity S-wave (km/s) = 3.55521 4.02554 3.79766
# Velocity P-wave (km/s) = 5.63912 6.93228 6.31887
#
# Compressibility (1/GPa) = 0.02939975
#
# Stress axis : x y z
#
# Youngs Moduli (GPa) = 79.64934 40.23266 118.17884
#
# Poissons Ratio (x) = 0.06609 0.41124
# Poissons Ratio (y) = 0.13085 0.36796
# Poissons Ratio (z) = 0.27716 0.12527
#
# Static dielectric constant tensor:
#      x y z
#    x 4.236630 0.302160 -0.129210 
#    y 0.302160 3.583780 -0.194460 
#    z -0.129210 -0.194460 4.521040 
# 
# 
# High freq. dielectric constant tensor:
#      x y z
#    x 1.904340 0.020220 -0.005690 
#    y 0.020220 1.856700 -0.011180 
#    z -0.005690 -0.011180 1.922040 
# 
# From -- ./inp_files/243316.got.cif
#   From: 2010.06.25/outbox.cif.g09.slc.cpg/sg2_122_cif.got.tgz:243316.got - 2010.06.27 13:26:56.
