data_PCOD8006928
_publ_section_title
;
Structure prediction by ZEFSAII (Michael W. Deem and Ramdas Pophale) SiO2 
 PCOD8006928
Probable space group: P -1
;
_chemical_formula_sum "Si O2"
_cell_formula_units_Z 16
_cell_length_a 16.449963
_cell_length_b 19.252203
_cell_length_c 25.567047
_cell_angle_alpha 18.048469
_cell_angle_beta 18.351621
_cell_angle_gamma 27.612491
_cell_volume 778.682038
_symmetry_space_group_name_H-M "P -1"
_symmetry_group_IT_number 2
_symmetry_cell_setting 'triclinic'
loop_
_space_group_symop_operation_xyz
x,y,z
-x,-y,-z
loop_
_atom_site_type_symbol
_atom_site_label
_atom_site_fract_x
_atom_site_fract_y
_atom_site_fract_z
Si Si1 0.860571 0.239932 0.589133
Si Si2 0.252667 0.310971 0.796980
Si Si3 0.667834 0.869899 0.335336
Si Si4 0.864544 0.749416 0.200204
Si Si5 0.697997 0.305895 0.160717
Si Si6 0.293172 0.504319 0.338585
Si Si7 0.531614 0.071974 0.005262
Si Si8 0.655447 0.919186 0.543877
O O1 0.635084 0.213197 0.789650
O O2 0.894502 0.486509 0.366225
O O3 0.125332 0.218465 0.472798
O O4 0.770020 0.047656 0.737118
O O5 0.500000 0.500000 0.500000
O O6 0.197537 0.168970 0.878150
O O7 0.001340 0.430506 0.881176
O O8 0.308339 0.133844 0.933983
O O9 0.755426 0.671057 0.458513
O O10 0.633483 0.784300 0.357530
O O11 0.402415 0.930382 0.478642
O O12 0.872578 0.102817 0.044612
O O13 0.493084 0.437362 0.220954
O O14 0.596271 0.255259 0.199336
O O15 0.738161 0.076000 0.330762
O O16 0.437982 0.752719 0.090639
O O17 0.000000 0.500000 0.500000
#
# Coordination Sequence:
#
# PCOD8006928 Si02
#       8
#     2   2   2   2   2   2   2   2
#     4  11  22  40  64  93 127 168 212 262 317 383
#     4  12  23  44  65  90 132 177 210 259 325 390
#     4  10  22  39  62  92 128 163 206 267 323 374
#     4  11  22  40  61  93 128 164 212 254 328 376
#     4  10  22  39  65  98 124 169 217 263 319 387
#     4  11  22  40  68  98 128 164 218 272 315 375
#     4  11  23  41  64  93 125 172 217 255 318 388
#     4  10  20  40  65  93 127 160 220 268 316 377
#
# _framework density 20.547539
#
# number of rings (size 3 to 8) (size 9 to 14) (size 15 to 20)
#    0.000    1.250    5.000    1.500    1.750    0.500 
#    2.250    1.875    0.000    0.000    0.000    0.000 
#    0.000    0.000    0.000    0.000    0.000    0.000 
#
# Total GULP energy -198267.182551 kJ/mol
# GULP energy per Si atom -12391.698909 kJ/mol
# Density = 2.050077 g / cm^3
# Si number density = 20.547539 Si / 1000 Ang^3
#
#
#
# Elastic Constant Matrix: (Units=GPa)
#
#
# Indices 1 2 3 4 5 6 
#
# 1 82.2859 25.1647 16.8258 6.0543 -7.8699 4.0789
# 2 25.1647 79.0260 35.2841 6.7065 -9.9011 3.0994
# 3 16.8258 35.2841 95.5423 -1.2649 -14.0584 -7.6932
# 4 6.0543 6.7065 -1.2649 35.9486 0.8645 0.1300
# 5 -7.8699 -9.9011 -14.0584 0.8645 34.0789 1.6633
# 6 4.0789 3.0994 -7.6932 0.1300 1.6633 29.2633
#
#
#
# Elastic Compliance Matrix: (Units=1/GPa)
#
#
# Indices 1 2 3 4 5 6 
#
# 1 0.013837 -0.003473 -0.001055 -0.001758 0.001890 -0.001938
# 2 -0.003473 0.016855 -0.005587 -0.002794 0.002001 -0.002871
# 3 -0.001055 -0.005587 0.013581 0.001599 0.003495 0.004104
# 4 -0.001758 -0.002794 0.001599 0.028720 -0.001331 0.000909
# 5 0.001890 0.002001 0.003495 -0.001331 0.031904 -0.001364
# 6 -0.001938 -0.002871 0.004104 0.000909 -0.001364 0.035899
#
#
# Mechanical properties :
#
#
# Convention : Reuss Voigt Hill
#
# Bulk Modulus (GPa) = 41.59187 45.71148 43.65168
# Shear Modulus (GPa) = 29.57881 31.83012 30.70447
#
# Velocity S-wave (km/s) = 3.79823 3.94013 3.86983
# Velocity P-wave (km/s) = 6.28658 6.55702 6.42322
#
# Compressibility (1/GPa) = 0.02404316
#
# Stress axis : x y z
#
# Youngs Moduli (GPa) = 72.27083 59.33040 73.62973
#
# Poissons Ratio (x) = 0.20605 0.07771
# Poissons Ratio (y) = 0.25099 0.41134
# Poissons Ratio (z) = 0.07628 0.33146
#
# Static dielectric constant tensor:
#      x y z
#    x 4.117590 0.159970 -0.057330 
#    y 0.159970 3.570640 -0.010580 
#    z -0.057330 -0.010580 3.749260 
# 
# 
# High freq. dielectric constant tensor:
#      x y z
#    x 1.811790 0.003830 0.003250 
#    y 0.003830 1.783000 -0.001570 
#    z 0.003250 -0.001570 1.799800 
# 
# From -- ./inp_files/244502.got.cif
#   From: 2010.06.25/outbox.cif.g09.slc.cpg/sg2_123_cif.got.tgz:244502.got - 2010.06.27 13:26:56.
