data_PCOD8006211
_publ_section_title
;
Structure prediction by ZEFSAII (Michael W. Deem and Ramdas Pophale) SiO2 
 PCOD8006211
Probable space group: P -1
;
_chemical_formula_sum "Si O2"
_cell_formula_units_Z 16
_cell_length_a 19.995138
_cell_length_b 16.629616
_cell_length_c 11.319969
_cell_angle_alpha 41.883613
_cell_angle_beta 34.013081
_cell_angle_gamma 20.356449
_cell_volume 722.049940
_symmetry_space_group_name_H-M "P -1"
_symmetry_group_IT_number 2
_symmetry_cell_setting 'triclinic'
loop_
_space_group_symop_operation_xyz
x,y,z
-x,-y,-z
loop_
_atom_site_type_symbol
_atom_site_label
_atom_site_fract_x
_atom_site_fract_y
_atom_site_fract_z
Si Si1 0.079700 0.152187 0.403062
Si Si2 0.582694 0.524089 0.758339
Si Si3 0.434662 0.881202 0.704562
Si Si4 0.888742 0.579325 0.277210
Si Si5 0.969029 0.212646 0.900918
Si Si6 0.169202 0.420106 0.249846
Si Si7 0.206339 0.883880 0.711485
Si Si8 0.324306 0.038925 0.952964
O O1 0.845781 0.273607 0.601854
O O2 0.010613 0.347023 0.330167
O O3 0.256287 0.930490 0.477489
O O4 0.210944 0.043078 0.205699
O O5 0.590360 0.634424 0.707425
O O6 0.424179 0.674692 0.708533
O O7 0.500000 0.500000 0.000000
O O8 0.632206 0.811860 0.463609
O O9 0.205097 0.075059 0.747656
O O10 0.350086 0.949240 0.888180
O O11 0.841636 0.698788 0.097230
O O12 0.061611 0.509001 0.180348
O O13 0.784375 0.481406 0.882507
O O14 0.999053 0.132938 0.812295
O O15 0.884240 0.168305 0.147891
O O16 0.000000 0.500000 0.500000
O O17 0.420377 0.139650 0.182688
#
# Coordination Sequence:
#
# PCOD8006211 Si02
#       8
#     2   2   2   2   2   2   2   2
#     4  11  25  43  64  95 131 171 208 266 327 379
#     4  10  22  41  72  94 120 170 218 262 315 375
#     4  10  20  39  66  93 127 162 215 265 313 377
#     4  11  23  43  65  91 130 170 220 262 314 385
#     4  10  20  39  67  94 123 164 213 272 310 367
#     4  12  23  37  66  96 125 166 210 265 324 369
#     4  10  22  41  65  94 129 162 221 261 314 384
#     4  12  25  40  62  97 134 165 213 263 327 383
#
# _framework density 22.159130999999999
#
# number of rings (size 3 to 8) (size 9 to 14) (size 15 to 20)
#    0.000    1.250    2.500    4.500    3.500    3.500 
#    0.000    3.125    0.000    0.000    0.000    0.000 
#    0.000    0.000    0.000    0.000    0.000    0.000 
#
# Total GULP energy -198223.676899 kJ/mol
# GULP energy per Si atom -12388.979806 kJ/mol
# Density = 2.210870 g / cm^3
# Si number density = 22.159131 Si / 1000 Ang^3
#
#
#
# Elastic Constant Matrix: (Units=GPa)
#
#
# Indices 1 2 3 4 5 6 
#
# 1 73.0224 37.4033 36.1585 -5.3474 -1.7438 -15.2844
# 2 37.4033 102.9697 41.7739 -15.9305 1.9166 -28.4157
# 3 36.1585 41.7739 125.1486 -7.7713 22.2917 -23.0370
# 4 -5.3474 -15.9305 -7.7713 38.0168 -5.3197 3.0095
# 5 -1.7438 1.9166 22.2917 -5.3197 34.7959 -1.6943
# 6 -15.2844 -28.4157 -23.0370 3.0095 -1.6943 33.5014
#
#
#
# Elastic Compliance Matrix: (Units=1/GPa)
#
#
# Indices 1 2 3 4 5 6 
#
# 1 0.018632 -0.004569 -0.004204 0.000256 0.004011 0.001914
# 2 -0.004569 0.015513 -0.002112 0.004899 0.001469 0.009255
# 3 -0.004204 -0.002112 0.012022 -0.000423 -0.007656 0.004209
# 4 0.000256 0.004899 -0.000423 0.028808 0.004497 0.001621
# 5 0.004011 0.001469 -0.007656 0.004497 0.034410 -0.000852
# 6 0.001914 0.009255 0.004209 0.001621 -0.000852 0.041278
#
#
# Mechanical properties :
#
#
# Convention : Reuss Voigt Hill
#
# Bulk Modulus (GPa) = 40.98964 59.09024 50.03994
# Shear Modulus (GPa) = 27.69085 33.64981 30.67033
#
# Velocity S-wave (km/s) = 3.53885 3.90109 3.72438
# Velocity P-wave (km/s) = 5.93599 6.85679 6.41294
#
# Compressibility (1/GPa) = 0.02439641
#
# Stress axis : x y z
#
# Youngs Moduli (GPa) = 53.67170 64.46326 83.17903
#
# Poissons Ratio (x) = 0.29454 0.34971
# Poissons Ratio (y) = 0.24523 0.17565
# Poissons Ratio (z) = 0.22565 0.13613
#
# Static dielectric constant tensor:
#      x y z
#    x 3.784660 -0.017790 0.263800 
#    y -0.017790 4.256200 -0.091300 
#    z 0.263800 -0.091300 2.936240 
# 
# 
# High freq. dielectric constant tensor:
#      x y z
#    x 1.856340 -0.009980 -0.012290 
#    y -0.009980 1.886110 -0.010900 
#    z -0.012290 -0.010900 1.858580 
# 
# From -- ./inp_files/472387.got.cif
#   From: 2010.06.25/outbox.cif.g09.slc.cpg/sg2_237_cif.got.tgz:472387.got - 2010.06.27 13:26:56.
