data_PCOD8006377
_publ_section_title
;
Structure prediction by ZEFSAII (Michael W. Deem and Ramdas Pophale) SiO2 
 PCOD8006377
Probable space group: P -1
;
_chemical_formula_sum "Si O2"
_cell_formula_units_Z 16
_cell_length_a 18.793370
_cell_length_b 21.970259
_cell_length_c 12.504683
_cell_angle_alpha 26.179234
_cell_angle_beta 37.396243
_cell_angle_gamma 19.756752
_cell_volume 725.161886
_symmetry_space_group_name_H-M "P -1"
_symmetry_group_IT_number 2
_symmetry_cell_setting 'triclinic'
loop_
_space_group_symop_operation_xyz
x,y,z
-x,-y,-z
loop_
_atom_site_type_symbol
_atom_site_label
_atom_site_fract_x
_atom_site_fract_y
_atom_site_fract_z
Si Si1 0.688976 0.558654 0.051720
Si Si2 0.408230 0.031212 0.881597
Si Si3 0.795561 0.228983 0.304185
Si Si4 0.112317 0.546034 0.525436
Si Si5 0.837207 0.188014 0.620312
Si Si6 0.383911 0.445735 0.505242
Si Si7 0.782615 0.933887 0.123813
Si Si8 0.842324 0.656877 0.838109
O O1 0.740018 0.448853 0.043612
O O2 0.694471 0.416697 0.343577
O O3 0.860324 0.498268 0.994036
O O4 0.443927 0.872561 0.844911
O O5 0.292387 0.242325 0.775681
O O6 0.209261 0.176255 0.813749
O O7 0.591049 0.931372 0.749569
O O8 0.535308 0.775416 0.186397
O O9 0.585865 0.342579 0.397381
O O10 0.000000 0.000000 0.500000
O O11 0.894874 0.090765 0.286615
O O12 0.249368 0.541861 0.407125
O O13 0.001221 0.694664 0.311104
O O14 0.922920 0.698009 0.599030
O O15 0.798324 0.293045 0.616699
O O16 0.750013 0.120116 0.825457
O O17 0.000000 0.500000 0.000000
#
# Coordination Sequence:
#
# PCOD8006377 Si02
#       8
#     2   2   2   2   2   2   2   2
#     4  10  20  39  68  97 127 169 223 273 317 389
#     4  11  24  42  69  94 133 176 225 267 314 405
#     4  10  23  35  67 102 119 163 219 277 322 376
#     4  12  28  42  65  99 139 180 211 267 337 395
#     4  11  21  41  69  95 129 165 222 274 325 377
#     4  12  23  43  67  99 132 166 223 277 325 384
#     4  11  23  44  66  97 138 174 216 274 330 387
#     4  11  23  42  67  98 130 175 221 271 327 385
#
# _framework density 22.064038
#
# number of rings (size 3 to 8) (size 9 to 14) (size 15 to 20)
#    0.000    1.000    5.000    2.625    5.250    3.500 
#    2.250    0.625    0.000    0.000    0.000    0.000 
#    0.000    0.000    0.000    0.000    0.000    0.000 
#
# Total GULP energy -198276.204976 kJ/mol
# GULP energy per Si atom -12392.262811 kJ/mol
# Density = 2.201382 g / cm^3
# Si number density = 22.064038 Si / 1000 Ang^3
#
#
#
# Elastic Constant Matrix: (Units=GPa)
#
#
# Indices 1 2 3 4 5 6 
#
# 1 151.5771 72.0320 19.8812 -5.1979 -14.6399 -12.6239
# 2 72.0320 111.0204 14.9756 -4.7736 -16.8682 7.7917
# 3 19.8812 14.9756 29.7826 0.5334 -4.0722 -10.0287
# 4 -5.1979 -4.7736 0.5334 21.2955 3.1473 -8.9882
# 5 -14.6399 -16.8682 -4.0722 3.1473 32.6002 -6.6549
# 6 -12.6239 7.7917 -10.0287 -8.9882 -6.6549 40.6569
#
#
#
# Elastic Compliance Matrix: (Units=1/GPa)
#
#
# Indices 1 2 3 4 5 6 
#
# 1 0.010712 -0.006636 -0.001887 0.003055 0.001891 0.005117
# 2 -0.006636 0.014731 -0.004475 -0.001070 0.003017 -0.005730
# 3 -0.001887 -0.004475 0.041538 0.001768 0.004223 0.011600
# 4 0.003055 -0.001070 0.001768 0.053163 -0.001417 0.013110
# 5 0.001891 0.003017 0.004223 -0.001417 0.035071 0.006478
# 6 0.005117 -0.005730 0.011600 0.013110 0.006478 0.034103
#
#
# Mechanical properties :
#
#
# Convention : Reuss Voigt Hill
#
# Bulk Modulus (GPa) = 24.39934 56.23976 40.31955
# Shear Modulus (GPa) = 21.83627 31.27661 26.55644
#
# Velocity S-wave (km/s) = 3.14933 3.76911 3.47307
# Velocity P-wave (km/s) = 4.93019 6.66980 5.86485
#
# Compressibility (1/GPa) = 0.04098471
#
# Stress axis : x y z
#
# Youngs Moduli (GPa) = 93.35407 67.88340 24.07415
#
# Poissons Ratio (x) = 0.45048 0.04543
# Poissons Ratio (y) = 0.61950 0.10774
# Poissons Ratio (z) = 0.17615 0.30380
#
# Static dielectric constant tensor:
#      x y z
#    x 4.418100 0.394610 -0.338630 
#    y 0.394610 4.607270 -0.090080 
#    z -0.338630 -0.090080 3.584170 
# 
# 
# High freq. dielectric constant tensor:
#      x y z
#    x 1.878630 0.004690 -0.022270 
#    y 0.004690 1.879550 -0.003750 
#    z -0.022270 -0.003750 1.824810 
# 
# From -- ./inp_files/467051.got.cif
#   From: 2010.06.25/outbox.cif.g09.slc.cpg/sg2_234_cif.got.tgz:467051.got - 2010.06.27 13:26:56.
