data_PCOD8006675
_publ_section_title
;
Structure prediction by ZEFSAII (Michael W. Deem and Ramdas Pophale) SiO2 
 PCOD8006675
Probable space group: P -1
;
_chemical_formula_sum "Si O2"
_cell_formula_units_Z 16
_cell_length_a 6.665984
_cell_length_b 8.893051
_cell_length_c 15.072413
_cell_angle_alpha 75.713066
_cell_angle_beta 71.487787
_cell_angle_gamma 104.692518
_cell_volume 765.613332
_symmetry_space_group_name_H-M "P -1"
_symmetry_group_IT_number 2
_symmetry_cell_setting 'triclinic'
loop_
_space_group_symop_operation_xyz
x,y,z
-x,-y,-z
loop_
_atom_site_type_symbol
_atom_site_label
_atom_site_fract_x
_atom_site_fract_y
_atom_site_fract_z
Si Si1 0.502990 0.077882 0.393426
Si Si2 0.994077 0.776010 0.760716
Si Si3 0.624441 0.169582 0.907081
Si Si4 0.007356 0.543326 0.094237
Si Si5 0.280933 0.338435 0.360714
Si Si6 0.996015 0.099303 0.759627
Si Si7 0.957916 0.127653 0.558828
Si Si8 0.633073 0.665702 0.200918
O O1 0.743289 0.122021 0.308434
O O2 0.451612 0.248143 0.381086
O O3 0.500000 0.000000 0.500000
O O4 0.314419 0.931608 0.384501
O O5 0.951923 0.601129 0.835766
O O6 0.841372 0.747539 0.699359
O O7 0.924884 0.900786 0.816952
O O8 0.785439 0.151087 0.808311
O O9 0.442959 0.238283 0.880110
O O10 0.776976 0.291625 0.942496
O O11 0.500000 0.000000 0.000000
O O12 0.773575 0.563114 0.151832
O O13 0.000000 0.500000 0.000000
O O14 0.414851 0.534582 0.300135
O O15 0.087512 0.309306 0.469024
O O16 0.059467 0.130832 0.641983
O O17 0.218785 0.202400 0.768238
O O18 0.000000 0.000000 0.500000
#
# Coordination Sequence:
#
# PCOD8006675 Si02
#       8
#     2   2   2   2   2   2   2   2
#     4  11  20  35  66 101 132 175 226 281 331 382
#     4  12  22  41  71 103 137 176 235 285 332 413
#     4  11  28  49  69  98 143 182 225 288 355 415
#     4  11  27  45  73 106 129 176 239 289 348 410
#     4  11  21  42  67  97 139 182 228 281 330 405
#     4  11  26  43  68 104 141 181 231 278 349 409
#     4  10  20  40  63 103 138 174 236 278 323 406
#     4  11  26  47  68  99 146 181 223 284 358 408
#
# _framework density 20.898278000000001
#
# number of rings (size 3 to 8) (size 9 to 14) (size 15 to 20)
#    0.000    1.000    6.250    0.750    5.250    3.000 
#    0.000    0.625    0.000    0.000    0.000    0.000 
#    0.000    0.000    0.000    0.000    0.000    0.000 
#
# Total GULP energy -198364.985917 kJ/mol
# GULP energy per Si atom -12397.811620 kJ/mol
# Density = 2.085071 g / cm^3
# Si number density = 20.898278 Si / 1000 Ang^3
#
#
#
# Elastic Constant Matrix: (Units=GPa)
#
#
# Indices 1 2 3 4 5 6 
#
# 1 92.9960 44.6353 31.1054 -3.7748 18.0034 8.5401
# 2 44.6353 124.2114 57.7170 -9.5687 3.8999 7.1060
# 3 31.1054 57.7170 109.1053 -8.7408 15.7790 7.1335
# 4 -3.7748 -9.5687 -8.7408 44.8381 -0.5618 1.2260
# 5 18.0034 3.8999 15.7790 -0.5618 26.5395 -10.5387
# 6 8.5401 7.1060 7.1335 1.2260 -10.5387 35.8800
#
#
#
# Elastic Compliance Matrix: (Units=1/GPa)
#
#
# Indices 1 2 3 4 5 6 
#
# 1 0.016341 -0.005285 0.000550 0.000376 -0.013364 -0.006890
# 2 -0.005285 0.012547 -0.006026 0.001087 0.006024 0.001703
# 3 0.000550 -0.006026 0.014006 0.001496 -0.009609 -0.004596
# 4 0.000376 0.001087 0.001496 0.022889 -0.001550 -0.001840
# 5 -0.013364 0.006024 -0.009609 -0.001550 0.060121 0.021610
# 6 -0.006890 0.001703 -0.004596 -0.001840 0.021610 0.036497
#
#
# Mechanical properties :
#
#
# Convention : Reuss Voigt Hill
#
# Bulk Modulus (GPa) = 46.78854 65.91423 56.35139
# Shear Modulus (GPa) = 26.17147 34.30853 30.24000
#
# Velocity S-wave (km/s) = 3.54266 4.05618 3.80808
# Velocity P-wave (km/s) = 6.25869 7.31749 6.80871
#
# Compressibility (1/GPa) = 0.02137276
#
# Stress axis : x y z
#
# Youngs Moduli (GPa) = 61.19611 79.69797 71.39615
#
# Poissons Ratio (x) = 0.42122 -0.03930
# Poissons Ratio (y) = 0.32343 0.43025
# Poissons Ratio (z) = -0.03369 0.48028
#
# Static dielectric constant tensor:
#      x y z
#    x 4.363520 -0.062680 0.614190 
#    y -0.062680 4.080980 -0.860580 
#    z 0.614190 -0.860580 6.145840 
# 
# 
# High freq. dielectric constant tensor:
#      x y z
#    x 1.832340 0.009600 0.007330 
#    y 0.009600 1.815730 -0.014280 
#    z 0.007330 -0.014280 1.816230 
# 
# From -- ./inp_files/480416.got.cif
#   From: 2010.06.25/outbox.cif.g09.slc.cpg/sg2_241_cif.got.tgz:480416.got - 2010.06.27 13:26:56.
