data_PCOD8006236
_publ_section_title
;
Structure prediction by ZEFSAII (Michael W. Deem and Ramdas Pophale) SiO2 
 PCOD8006236
Probable space group: P -1
;
_chemical_formula_sum "Si O2"
_cell_formula_units_Z 16
_cell_length_a 8.858608
_cell_length_b 9.908179
_cell_length_c 13.865600
_cell_angle_alpha 134.446077
_cell_angle_beta 82.536863
_cell_angle_gamma 74.504792
_cell_volume 743.106056
_symmetry_space_group_name_H-M "P -1"
_symmetry_group_IT_number 2
_symmetry_cell_setting 'triclinic'
loop_
_space_group_symop_operation_xyz
x,y,z
-x,-y,-z
loop_
_atom_site_type_symbol
_atom_site_label
_atom_site_fract_x
_atom_site_fract_y
_atom_site_fract_z
Si Si1 0.471674 0.735465 0.641670
Si Si2 0.713345 0.720430 0.766161
Si Si3 0.893361 0.091527 0.155900
Si Si4 0.838911 0.350019 0.044068
Si Si5 0.908537 0.492311 0.308904
Si Si6 0.561710 0.938201 0.573107
Si Si7 0.561060 0.211072 0.031308
Si Si8 0.427790 0.339110 0.908226
O O1 0.500000 0.500000 0.500000
O O2 0.653219 0.710522 0.657311
O O3 0.305467 0.866819 0.795734
O O4 0.438268 0.870282 0.611297
O O5 0.909207 0.529565 0.681062
O O6 0.698899 0.953095 0.907966
O O7 0.579229 0.678944 0.818111
O O8 0.877956 0.324803 0.294116
O O9 0.012327 0.896248 0.124365
O O10 0.000000 0.000000 0.000000
O O11 0.665089 0.343340 0.089490
O O12 0.910909 0.435979 0.167234
O O13 0.774888 0.520393 0.044593
O O14 0.761702 0.741214 0.463004
O O15 0.500000 0.000000 0.500000
O O16 0.549959 0.152938 0.728414
O O17 0.445483 0.227350 0.954162
O O18 0.500000 0.500000 0.000000
#
# Coordination Sequence:
#
# PCOD8006236 Si02
#       8
#     2   2   2   2   2   2   2   2
#     4  12  26  45  69 103 139 186 233 285 358 422
#     4  11  23  38  64  99 134 167 227 293 339 402
#     4  10  21  39  67 101 133 176 228 284 342 404
#     4  10  20  39  66  95 134 178 226 274 347 413
#     4  11  22  39  68  98 133 178 226 286 348 409
#     4  12  25  46  70  99 143 189 230 282 360 425
#     4  10  21  38  65  96 134 173 222 286 340 406
#     4  10  22  42  67  96 129 184 228 277 351 423
#
# _framework density 21.531247
#
# number of rings (size 3 to 8) (size 9 to 14) (size 15 to 20)
#    0.000    1.250    5.000    1.500    5.250    0.500 
#    6.750    1.250    0.000    3.750    0.000    0.000 
#    0.000    0.000    0.000    0.000    0.000    0.000 
#
# Total GULP energy -198261.435549 kJ/mol
# GULP energy per Si atom -12391.339722 kJ/mol
# Density = 2.148224 g / cm^3
# Si number density = 21.531247 Si / 1000 Ang^3
#
#
#
# Elastic Constant Matrix: (Units=GPa)
#
#
# Indices 1 2 3 4 5 6 
#
# 1 98.9911 44.4283 34.5857 4.2649 -7.7440 -20.6968
# 2 44.4283 114.5539 52.3098 9.1436 -10.9366 -27.9955
# 3 34.5857 52.3098 104.9942 20.1687 1.5078 -8.6530
# 4 4.2649 9.1436 20.1687 41.9822 -4.4377 -8.5086
# 5 -7.7440 -10.9366 1.5078 -4.4377 33.9467 5.9170
# 6 -20.6968 -27.9955 -8.6530 -8.5086 5.9170 37.0518
#
#
#
# Elastic Compliance Matrix: (Units=1/GPa)
#
#
# Indices 1 2 3 4 5 6 
#
# 1 0.013442 -0.002538 -0.003141 0.001898 0.001763 0.005012
# 2 -0.002538 0.014730 -0.006272 0.002072 0.003287 0.008198
# 3 -0.003141 -0.006272 0.014662 -0.006545 -0.003546 -0.004006
# 4 0.001898 0.002072 -0.006545 0.028135 0.003859 0.006942
# 5 0.001763 0.003287 -0.003546 0.003859 0.031853 -0.001560
# 6 0.005012 0.008198 -0.004006 0.006942 -0.001560 0.036891
#
#
# Mechanical properties :
#
#
# Convention : Reuss Voigt Hill
#
# Bulk Modulus (GPa) = 52.81768 64.57632 58.69700
# Shear Modulus (GPa) = 29.42481 35.07715 32.25098
#
# Velocity S-wave (km/s) = 3.70078 4.04062 3.87443
# Velocity P-wave (km/s) = 6.54561 7.19902 6.88008
#
# Compressibility (1/GPa) = 0.01893305
#
# Stress axis : x y z
#
# Youngs Moduli (GPa) = 74.39309 67.88945 68.20396
#
# Poissons Ratio (x) = 0.17227 0.21420
# Poissons Ratio (y) = 0.18877 0.42780
# Poissons Ratio (z) = 0.23363 0.42583
#
# Static dielectric constant tensor:
#      x y z
#    x 3.759340 -0.331510 -0.051420 
#    y -0.331510 4.930100 0.130220 
#    z -0.051420 0.130220 3.884770 
# 
# 
# High freq. dielectric constant tensor:
#      x y z
#    x 1.824460 -0.015990 0.003660 
#    y -0.015990 1.857350 0.011480 
#    z 0.003660 0.011480 1.835260 
# 
# From -- ./inp_files/500987.got.cif
#   From: 2010.06.25/outbox.cif.g09.slc.cpg/sg2_251_cif.got.tgz:500987.got - 2010.06.27 13:26:56.
