data_PCOD8006246
_publ_section_title
;
Structure prediction by ZEFSAII (Michael W. Deem and Ramdas Pophale) SiO2 
 PCOD8006246
Probable space group: P -1
;
_chemical_formula_sum "Si O2"
_cell_formula_units_Z 14
_cell_length_a 12.757171
_cell_length_b 11.185514
_cell_length_c 9.113219
_cell_angle_alpha 126.000493
_cell_angle_beta 137.874600
_cell_angle_gamma 60.042658
_cell_volume 700.836243
_symmetry_space_group_name_H-M "P -1"
_symmetry_group_IT_number 2
_symmetry_cell_setting 'triclinic'
loop_
_space_group_symop_operation_xyz
x,y,z
-x,-y,-z
loop_
_atom_site_type_symbol
_atom_site_label
_atom_site_fract_x
_atom_site_fract_y
_atom_site_fract_z
Si Si1 0.135343 0.951330 0.353569
Si Si2 0.823153 0.294973 0.988582
Si Si3 0.917803 0.256952 0.378732
Si Si4 0.896288 0.564314 0.074675
Si Si5 0.375659 0.187968 0.121818
Si Si6 0.562846 0.110908 0.531823
Si Si7 0.306325 0.863119 0.740069
O O1 0.070335 0.840093 0.085379
O O2 0.309774 0.989321 0.511684
O O3 0.166071 0.861224 0.473070
O O4 0.018412 0.097421 0.357160
O O5 0.648739 0.242356 0.791950
O O6 0.897922 0.326436 0.245782
O O7 0.810773 0.439524 0.978494
O O8 0.746560 0.230632 0.244748
O O9 0.997609 0.367835 0.644789
O O10 0.761867 0.682652 0.956451
O O11 0.000000 0.500000 0.000000
O O12 0.420735 0.188094 0.340624
O O13 0.526048 0.215006 0.198134
O O14 0.312600 0.033480 0.909909
O O15 0.500000 0.000000 0.500000
#
# Coordination Sequence:
#
# PCOD8006246 Si02
#       7
#     2   2   2   2   2   2   2
#     4   9  20  37  64  95 123 159 217 265 303 374
#     4  10  24  41  60  97 131 165 215 256 319 382
#     4  12  22  41  68  90 131 167 215 266 316 369
#     4  12  27  43  64  93 133 174 209 255 324 385
#     4  10  22  39  67  92 130 162 216 266 310 377
#     4   9  20  39  64  97 127 159 210 266 320 363
#     4  10  20  39  66  98 117 165 221 265 313 366
#
# _framework density 19.976134999999999
#
# number of rings (size 3 to 8) (size 9 to 14) (size 15 to 20)
#    0.857    0.857    1.429    3.000    2.000    1.714 
#    0.000    0.714    0.000    0.000    0.000    0.000 
#    0.000    0.000    0.000    0.000    0.000    0.000 
#
# Total GULP energy -173527.124311 kJ/mol
# GULP energy per Si atom -12394.794594 kJ/mol
# Density = 1.993067 g / cm^3
# Si number density = 19.976135 Si / 1000 Ang^3
#
#
#
# Elastic Constant Matrix: (Units=GPa)
#
#
# Indices 1 2 3 4 5 6 
#
# 1 86.3440 47.1507 51.6010 -2.2682 -0.5067 12.8311
# 2 47.1507 89.2898 54.3308 -3.0532 -0.5721 -0.7309
# 3 51.6010 54.3308 130.6081 -4.6348 -19.3969 4.3845
# 4 -2.2682 -3.0532 -4.6348 29.6020 4.0392 2.2825
# 5 -0.5067 -0.5721 -19.3969 4.0392 35.6232 3.8014
# 6 12.8311 -0.7309 4.3845 2.2825 3.8014 30.4220
#
#
#
# Elastic Compliance Matrix: (Units=1/GPa)
#
#
# Indices 1 2 3 4 5 6 
#
# 1 0.019609 -0.007656 -0.004510 0.000813 -0.001574 -0.007669
# 2 -0.007656 0.018505 -0.005301 0.000569 -0.003275 0.004804
# 3 -0.004510 -0.005301 0.012698 0.000234 0.006837 -0.000927
# 4 0.000813 0.000569 0.000234 0.034612 -0.003507 -0.002522
# 5 -0.001574 -0.003275 0.006837 -0.003507 0.032566 -0.004207
# 6 -0.007669 0.004804 -0.000927 -0.002522 -0.004207 0.037069
#
#
# Mechanical properties :
#
#
# Convention : Reuss Voigt Hill
#
# Bulk Modulus (GPa) = 62.97314 68.04521 65.50917
# Shear Modulus (GPa) = 25.60337 29.34006 27.47172
#
# Velocity S-wave (km/s) = 3.58396 3.83659 3.71243
# Velocity P-wave (km/s) = 6.97990 7.33233 7.15829
#
# Compressibility (1/GPa) = 0.01587979
#
# Stress axis : x y z
#
# Youngs Moduli (GPa) = 50.99637 54.03837 78.75113
#
# Poissons Ratio (x) = 0.41370 0.35517
# Poissons Ratio (y) = 0.39041 0.41744
# Poissons Ratio (z) = 0.23000 0.28644
#
# Static dielectric constant tensor:
#      x y z
#    x 3.799640 0.046300 -0.090220 
#    y 0.046300 3.321950 -0.018680 
#    z -0.090220 -0.018680 3.800330 
# 
# 
# High freq. dielectric constant tensor:
#      x y z
#    x 1.784000 0.011110 -0.007060 
#    y 0.011110 1.755190 -0.002900 
#    z -0.007060 -0.002900 1.787560 
# 
# From -- ./inp_files/243871.got.cif
#   From: 2010.06.25/outbox.cif.g09.slc.cpg/sg2_122_cif.got.tgz:243871.got - 2010.06.27 13:26:56.
