data_PCOD8006298
_publ_section_title
;
Structure prediction by ZEFSAII (Michael W. Deem and Ramdas Pophale) SiO2 
 PCOD8006298
Probable space group: P -1
;
_chemical_formula_sum "Si O2"
_cell_formula_units_Z 12
_cell_length_a 6.932327
_cell_length_b 8.545666
_cell_length_c 10.918687
_cell_angle_alpha 121.289466
_cell_angle_beta 97.079430
_cell_angle_gamma 95.843759
_cell_volume 537.954771
_symmetry_space_group_name_H-M "P -1"
_symmetry_group_IT_number 2
_symmetry_cell_setting 'triclinic'
loop_
_space_group_symop_operation_xyz
x,y,z
-x,-y,-z
loop_
_atom_site_type_symbol
_atom_site_label
_atom_site_fract_x
_atom_site_fract_y
_atom_site_fract_z
Si Si1 0.611275 0.501636 0.380068
Si Si2 0.371550 0.258584 0.079604
Si Si3 0.953277 0.779070 0.411229
Si Si4 0.954122 0.832467 0.165817
Si Si5 0.625641 0.055540 0.856701
Si Si6 0.239876 0.827243 0.649765
O O1 0.500000 0.500000 0.500000
O O2 0.450552 0.449665 0.237735
O O3 0.755327 0.698243 0.441723
O O4 0.747959 0.343016 0.326189
O O5 0.312310 0.086193 0.097888
O O6 0.177943 0.283986 0.998180
O O7 0.539239 0.217845 0.983147
O O8 0.919434 0.713035 0.241184
O O9 0.148327 0.732956 0.476310
O O10 0.000000 0.000000 0.500000
O O11 0.184006 0.848747 0.163892
O O12 0.901690 0.040057 0.253130
O O13 0.462693 0.948249 0.703265
#
# Coordination Sequence:
#
# PCOD8006298 Si02
#       6
#     2   2   2   2   2   2
#     4  11  24  43  64  91 126 171 208 256 308 365
#     4   9  20  37  60  93 124 159 215 250 298 385
#     4  10  23  41  62  94 129 160 210 258 309 374
#     4  10  20  39  67  94 126 162 199 263 319 359
#     4   9  18  37  64  95 121 166 202 256 311 366
#     4   9  21  39  64  91 128 158 215 249 296 382
#
# _framework density 22.306706999999999
#
# number of rings (size 3 to 8) (size 9 to 14) (size 15 to 20)
#    0.000    2.333    0.000    2.000    9.333    1.333 
#    9.000    0.833    0.000    0.000    0.000    0.000 
#    0.000    0.000    0.000    0.000    0.000    0.000 
#
# Total GULP energy -148717.260950 kJ/mol
# GULP energy per Si atom -12393.105079 kJ/mol
# Density = 2.225594 g / cm^3
# Si number density = 22.306707 Si / 1000 Ang^3
#
#
#
# Elastic Constant Matrix: (Units=GPa)
#
#
# Indices 1 2 3 4 5 6 
#
# 1 118.9531 43.1618 60.5035 -10.9469 19.6016 38.7314
# 2 43.1618 75.6152 43.2822 -3.2886 8.4836 34.9656
# 3 60.5035 43.2822 156.3491 -17.5503 45.8842 18.4681
# 4 -10.9469 -3.2886 -17.5503 33.9307 -6.0033 -1.1254
# 5 19.6016 8.4836 45.8842 -6.0033 41.8012 -1.6944
# 6 38.7314 34.9656 18.4681 -1.1254 -1.6944 35.0975
#
#
#
# Elastic Compliance Matrix: (Units=1/GPa)
#
#
# Indices 1 2 3 4 5 6 
#
# 1 0.016269 0.001271 -0.002690 0.002444 -0.005312 -0.017982
# 2 0.001271 0.027607 -0.004218 -0.000468 -0.002724 -0.026833
# 3 -0.002690 -0.004218 0.012011 0.003074 -0.010608 0.000437
# 4 0.002444 -0.000468 0.003074 0.031714 0.000015 -0.002831
# 5 -0.005312 -0.002724 -0.010608 0.000015 0.039263 0.016053
# 6 -0.017982 -0.026833 0.000437 -0.002831 0.016053 0.075522
#
#
# Mechanical properties :
#
#
# Convention : Reuss Voigt Hill
#
# Bulk Modulus (GPa) = 22.41539 71.64583 47.03061
# Shear Modulus (GPa) = 21.87889 35.76387 28.82138
#
# Velocity S-wave (km/s) = 3.13520 4.00844 3.59841
# Velocity P-wave (km/s) = 4.81420 7.32200 6.19630
#
# Compressibility (1/GPa) = 0.04461220
#
# Stress axis : x y z
#
# Youngs Moduli (GPa) = 61.46592 36.22293 83.25648
#
# Poissons Ratio (x) = -0.04603 0.22399
# Poissons Ratio (y) = -0.07811 0.35117
# Poissons Ratio (z) = 0.16536 0.15278
#
# Static dielectric constant tensor:
#      x y z
#    x 3.890620 -0.224850 0.469400 
#    y -0.224850 4.037060 -0.489430 
#    z 0.469400 -0.489430 4.698380 
# 
# 
# High freq. dielectric constant tensor:
#      x y z
#    x 1.863710 -0.000550 0.027440 
#    y -0.000550 1.852380 -0.013750 
#    z 0.027440 -0.013750 1.888060 
# 
# From -- ./inp_files/109769.got.cif
#   From: 2010.06.25/outbox.cif.g09.slc.cpg/sg2_55_cif.got.tgz:109769.got - 2010.06.27 13:26:56.
