data_PCOD8006601
_publ_section_title
;
Structure prediction by ZEFSAII (Michael W. Deem and Ramdas Pophale) SiO2 
 PCOD8006601
Probable space group: P -1
;
_chemical_formula_sum "Si O2"
_cell_formula_units_Z 16
_cell_length_a 19.235747
_cell_length_b 12.389635
_cell_length_c 8.997024
_cell_angle_alpha 76.706419
_cell_angle_beta 47.922071
_cell_angle_gamma 36.851618
_cell_volume 692.613618
_symmetry_space_group_name_H-M "P -1"
_symmetry_group_IT_number 2
_symmetry_cell_setting 'triclinic'
loop_
_space_group_symop_operation_xyz
x,y,z
-x,-y,-z
loop_
_atom_site_type_symbol
_atom_site_label
_atom_site_fract_x
_atom_site_fract_y
_atom_site_fract_z
Si Si1 0.412106 0.649528 0.382395
Si Si2 0.211096 0.704960 0.254566
Si Si3 0.530142 0.246115 0.150124
Si Si4 0.580046 0.589954 0.424050
Si Si5 0.099841 0.334585 0.548325
Si Si6 0.606538 0.847968 0.614914
Si Si7 0.121337 0.079011 0.460414
Si Si8 0.241329 0.373517 0.836409
O O1 0.442381 0.720716 0.430661
O O2 0.337366 0.620253 0.588633
O O3 0.217991 0.877488 0.481894
O O4 0.625751 0.405358 0.055059
O O5 0.337721 0.526738 0.274745
O O6 0.000000 0.000000 0.500000
O O7 0.121141 0.691142 0.301184
O O8 0.551885 0.227120 0.303201
O O9 0.507590 0.141850 0.165767
O O10 0.750502 0.055684 0.834323
O O11 0.761745 0.489720 0.169612
O O12 0.292374 0.204419 0.368058
O O13 0.000000 0.500000 0.500000
O O14 0.164356 0.144538 0.467563
O O15 0.948164 0.487205 0.858133
O O16 0.773442 0.634083 0.316633
O O17 0.456256 0.098899 0.681169
#
# Coordination Sequence:
#
# PCOD8006601 Si02
#       8
#     2   2   2   2   2   2   2   2
#     4  10  22  40  61  87 120 154 196 242 291 347
#     4  11  22  39  62  88 119 156 196 240 290 347
#     4  10  22  40  61  86 119 155 197 240 289 350
#     4  10  20  40  62  84 117 155 194 242 289 341
#     4  12  24  38  61  91 119 151 196 244 292 348
#     4  10  22  41  62  85 118 159 194 239 295 344
#     4  11  23  39  60  88 120 156 194 241 294 344
#     4  10  22  41  62  85 118 156 197 240 289 350
#
# _framework density 23.100902999999999
#
# number of rings (size 3 to 8) (size 9 to 14) (size 15 to 20)
#    0.000    1.500    0.000    4.875    0.000    6.000 
#    0.000   27.500    0.000    0.000    0.000    0.000 
#    0.000    0.000    0.000    0.000    0.000    0.000 
#
# Total GULP energy -198328.252022 kJ/mol
# GULP energy per Si atom -12395.515751 kJ/mol
# Density = 2.304832 g / cm^3
# Si number density = 23.100903 Si / 1000 Ang^3
#
#
#
# Elastic Constant Matrix: (Units=GPa)
#
#
# Indices 1 2 3 4 5 6 
#
# 1 87.3402 9.5259 -1.0648 6.2379 0.8674 7.5115
# 2 9.5259 73.9619 26.0170 -11.5249 -7.1106 8.0024
# 3 -1.0648 26.0170 50.3660 -1.7986 -2.6888 -9.7743
# 4 6.2379 -11.5249 -1.7986 29.8403 2.9214 0.5201
# 5 0.8674 -7.1106 -2.6888 2.9214 27.8299 -4.6211
# 6 7.5115 8.0024 -9.7743 0.5201 -4.6211 37.8594
#
#
#
# Elastic Compliance Matrix: (Units=1/GPa)
#
#
# Indices 1 2 3 4 5 6 
#
# 1 0.012099 -0.002287 0.000942 -0.003246 -0.000817 -0.001729
# 2 -0.002287 0.019786 -0.011137 0.007344 0.002211 -0.006435
# 3 0.000942 -0.011137 0.027449 -0.003175 0.001688 0.009503
# 4 -0.003246 0.007344 -0.003175 0.037140 -0.002653 -0.002562
# 5 -0.000817 0.002211 0.001688 -0.002653 0.037758 0.004776
# 6 -0.001729 -0.006435 0.009503 -0.002562 0.004776 0.031188
#
#
# Mechanical properties :
#
#
# Convention : Reuss Voigt Hill
#
# Bulk Modulus (GPa) = 29.09580 31.18048 30.13814
# Shear Modulus (GPa) = 24.77208 30.91858 27.84533
#
# Velocity S-wave (km/s) = 3.27822 3.66240 3.47562
# Velocity P-wave (km/s) = 5.19147 5.60456 5.40197
#
# Compressibility (1/GPa) = 0.03436922
#
# Stress axis : x y z
#
# Youngs Moduli (GPa) = 82.65150 50.54109 36.43155
#
# Poissons Ratio (x) = 0.11558 -0.03432
# Poissons Ratio (y) = 0.18901 0.40575
# Poissons Ratio (z) = -0.07786 0.56290
#
# Static dielectric constant tensor:
#      x y z
#    x 4.389490 0.075670 0.114160 
#    y 0.075670 4.049800 -0.230860 
#    z 0.114160 -0.230860 4.028220 
# 
# 
# High freq. dielectric constant tensor:
#      x y z
#    x 1.936700 0.009430 0.004380 
#    y 0.009430 1.906170 -0.027000 
#    z 0.004380 -0.027000 1.897630 
# 
# From -- ./inp_files/81430.got.cif
#   From: 2010.06.25/outbox.cif.g09.slc.cpg/sg2_41_cif.got.tgz:81430.got - 2010.06.27 13:26:56.
