data_PCOD8006669
_publ_section_title
;
Structure prediction by ZEFSAII (Michael W. Deem and Ramdas Pophale) SiO2 
 PCOD8006669
Probable space group: P -1
;
_chemical_formula_sum "Si O2"
_cell_formula_units_Z 16
_cell_length_a 11.781217
_cell_length_b 12.093410
_cell_length_c 12.511070
_cell_angle_alpha 144.004778
_cell_angle_beta 104.068478
_cell_angle_gamma 103.628588
_cell_volume 662.469083
_symmetry_space_group_name_H-M "P -1"
_symmetry_group_IT_number 2
_symmetry_cell_setting 'triclinic'
loop_
_space_group_symop_operation_xyz
x,y,z
-x,-y,-z
loop_
_atom_site_type_symbol
_atom_site_label
_atom_site_fract_x
_atom_site_fract_y
_atom_site_fract_z
Si Si1 0.993331 0.625319 0.429375
Si Si2 0.251856 0.673017 0.197644
Si Si3 0.063430 0.335835 0.324665
Si Si4 0.368227 0.830901 0.124260
Si Si5 0.704132 0.701705 0.737766
Si Si6 0.113712 0.856711 0.416208
Si Si7 0.383832 0.416258 0.807047
Si Si8 0.414901 0.583529 0.309139
O O1 0.930414 0.676785 0.554413
O O2 0.103068 0.589367 0.482433
O O3 0.113581 0.878646 0.563614
O O4 0.819767 0.337073 0.100811
O O5 0.397444 0.887467 0.305423
O O6 0.245935 0.842577 0.408830
O O7 0.279922 0.512629 0.139325
O O8 0.078192 0.432049 0.896590
O O9 0.229577 0.415392 0.385581
O O10 0.862475 0.038822 0.004058
O O11 0.507445 0.167368 0.390901
O O12 0.409100 0.664276 0.972559
O O13 0.500000 0.500000 0.500000
O O14 0.703462 0.698285 0.864500
O O15 0.182015 0.126166 0.578342
O O16 0.429420 0.346060 0.659360
O O17 0.500000 0.500000 0.000000
#
# Coordination Sequence:
#
# PCOD8006669 Si02
#       8
#     2   2   2   2   2   2   2   2
#     4  10  23  44  71  98 135 180 227 290 349 402
#     4  10  20  40  62  94 137 179 218 266 339 417
#     4  10  24  49  70 101 137 174 241 294 339 415
#     4  11  23  41  65 100 140 182 222 277 344 415
#     4  11  26  47  73 102 133 184 235 288 354 408
#     4  10  22  39  66  98 134 182 220 268 348 410
#     4  12  25  39  65 103 140 175 231 276 333 430
#     4  12  24  44  67  96 141 180 219 285 350 404
#
# _framework density 24.152068
#
# number of rings (size 3 to 8) (size 9 to 14) (size 15 to 20)
#    0.000    1.250    2.500    2.625    3.500    3.000 
#    4.500    3.125    0.000    0.000    0.000    0.000 
#    0.000    0.000    0.000    0.000    0.000    0.000 
#
# Total GULP energy -198240.199667 kJ/mol
# GULP energy per Si atom -12390.012479 kJ/mol
# Density = 2.409710 g / cm^3
# Si number density = 24.152068 Si / 1000 Ang^3
#
#
#
# Elastic Constant Matrix: (Units=GPa)
#
#
# Indices 1 2 3 4 5 6 
#
# 1 118.1935 48.3889 18.6426 -2.5912 -5.1316 9.2213
# 2 48.3889 120.0318 9.5927 -8.8074 -3.8089 20.5973
# 3 18.6426 9.5927 40.9287 -3.5971 -3.9154 5.7642
# 4 -2.5912 -8.8074 -3.5971 36.2549 -1.3691 -2.0696
# 5 -5.1316 -3.8089 -3.9154 -1.3691 36.4611 -1.7863
# 6 9.2213 20.5973 5.7642 -2.0696 -1.7863 34.5456
#
#
#
# Elastic Compliance Matrix: (Units=1/GPa)
#
#
# Indices 1 2 3 4 5 6 
#
# 1 0.010754 -0.004078 -0.003962 -0.000578 0.000651 0.000221
# 2 -0.004078 0.011050 0.000255 0.002126 0.000423 -0.005393
# 3 -0.003962 0.000255 0.027077 0.002361 0.002301 -0.003352
# 4 -0.000578 0.002126 0.002361 0.028363 0.001472 0.000268
# 5 0.000651 0.000423 0.002301 0.001472 0.027900 0.000721
# 6 0.000221 -0.005393 -0.003352 0.000268 0.000721 0.032716
#
#
# Mechanical properties :
#
#
# Convention : Reuss Voigt Hill
#
# Bulk Modulus (GPa) = 30.02138 48.04471 39.03305
# Shear Modulus (GPa) = 30.38883 34.95429 32.67156
#
# Velocity S-wave (km/s) = 3.55100 3.80841 3.68196
# Velocity P-wave (km/s) = 5.41017 6.26693 5.85425
#
# Compressibility (1/GPa) = 0.03330959
#
# Stress axis : x y z
#
# Youngs Moduli (GPa) = 92.99209 90.50017 36.93118
#
# Poissons Ratio (x) = 0.36908 0.14632
# Poissons Ratio (y) = 0.37924 -0.00940
# Poissons Ratio (z) = 0.36843 -0.02305
#
# Static dielectric constant tensor:
#      x y z
#    x 4.327890 0.208300 -0.069590 
#    y 0.208300 5.047240 0.462290 
#    z -0.069590 0.462290 4.474290 
# 
# 
# High freq. dielectric constant tensor:
#      x y z
#    x 1.955090 0.002850 0.000080 
#    y 0.002850 1.961910 0.001770 
#    z 0.000080 0.001770 1.957320 
# 
# From -- ./inp_files/429097.got.cif
#   From: 2010.06.25/outbox.cif.g09.slc.cpg/sg2_215_cif.got.tgz:429097.got - 2010.06.27 13:26:56.
