data_PCOD8006878
_publ_section_title
;
Structure prediction by ZEFSAII (Michael W. Deem and Ramdas Pophale) SiO2 
 PCOD8006878
Probable space group: P -1
;
_chemical_formula_sum "Si O2"
_cell_formula_units_Z 16
_cell_length_a 8.789412
_cell_length_b 16.737006
_cell_length_c 19.298675
_cell_angle_alpha 34.477694
_cell_angle_beta 146.805151
_cell_angle_gamma 143.610260
_cell_volume 816.862364
_symmetry_space_group_name_H-M "P -1"
_symmetry_group_IT_number 2
_symmetry_cell_setting 'triclinic'
loop_
_space_group_symop_operation_xyz
x,y,z
-x,-y,-z
loop_
_atom_site_type_symbol
_atom_site_label
_atom_site_fract_x
_atom_site_fract_y
_atom_site_fract_z
Si Si1 0.304484 0.282837 0.520610
Si Si2 0.308617 0.384622 0.919202
Si Si3 0.363717 0.915524 0.577461
Si Si4 0.297259 0.292021 0.131754
Si Si5 0.290285 0.601089 0.279549
Si Si6 0.360785 0.845816 0.015389
Si Si7 0.340194 0.115867 0.043760
Si Si8 0.347888 0.040325 0.622690
O O1 0.286756 0.436511 0.372243
O O2 0.446967 0.314116 0.628124
O O3 0.474951 0.211793 0.581041
O O4 0.992195 0.145403 0.512918
O O5 0.606313 0.536851 0.924895
O O6 0.012413 0.425114 0.774069
O O7 0.272688 0.285173 0.044919
O O8 0.345098 0.282373 0.944226
O O9 0.444789 0.767594 0.710190
O O10 0.500000 0.000000 0.500000
O O11 0.500659 0.024399 0.618981
O O12 0.977069 0.184921 0.117364
O O13 0.341624 0.701081 0.158330
O O14 0.565636 0.867109 0.011947
O O15 0.500000 0.000000 0.000000
O O16 0.570682 0.068411 0.213100
O O17 0.000000 0.000000 0.000000
O O18 0.000000 0.000000 0.500000
#
# Coordination Sequence:
#
# PCOD8006878 Si02
#       8
#     2   2   2   2   2   2   2   2
#     4  10  21  41  64  88 127 170 208 248 321 375
#     4  10  20  40  65  88 121 166 208 255 317 375
#     4  11  23  38  62  91 122 166 209 259 306 376
#     4  10  21  39  61  87 124 160 209 257 313 371
#     4  10  21  41  64  91 126 167 206 260 310 383
#     4  11  25  39  63  94 126 161 212 264 316 372
#     4  12  24  41  67  95 128 165 210 266 319 377
#     4  10  23  39  61  89 124 163 207 255 309 374
#
# _framework density 19.587143999999999
#
# number of rings (size 3 to 8) (size 9 to 14) (size 15 to 20)
#    0.000    1.500    2.500    3.000    5.250    0.500 
#    2.250    0.000    0.000    3.750    0.000    0.000 
#    0.000    0.000    0.000    0.000    0.000    0.000 
#
# Total GULP energy -198292.342773 kJ/mol
# GULP energy per Si atom -12393.271423 kJ/mol
# Density = 1.954256 g / cm^3
# Si number density = 19.587144 Si / 1000 Ang^3
#
#
#
# Elastic Constant Matrix: (Units=GPa)
#
#
# Indices 1 2 3 4 5 6 
#
# 1 147.8774 65.0244 37.4991 -16.8789 -1.7317 -14.2900
# 2 65.0244 109.0183 22.2189 -3.6153 7.1253 -5.8570
# 3 37.4991 22.2189 90.6584 -1.8267 4.4070 -6.2391
# 4 -16.8789 -3.6153 -1.8267 29.8238 -3.9502 10.7470
# 5 -1.7317 7.1253 4.4070 -3.9502 24.2218 -2.1503
# 6 -14.2900 -5.8570 -6.2391 10.7470 -2.1503 35.0414
#
#
#
# Elastic Compliance Matrix: (Units=1/GPa)
#
#
# Indices 1 2 3 4 5 6 
#
# 1 0.010935 -0.005906 -0.003060 0.005261 0.004073 0.001564
# 2 -0.005906 0.013035 -0.000571 -0.002450 -0.004540 0.000141
# 3 -0.003060 -0.000571 0.012612 -0.001835 -0.002529 0.001310
# 4 0.005261 -0.002450 -0.001835 0.040900 0.007151 -0.010696
# 5 0.004073 -0.004540 -0.002529 0.007151 0.044627 0.000997
# 6 0.001564 0.000141 0.001310 -0.010696 0.000997 0.032774
#
#
# Mechanical properties :
#
#
# Convention : Reuss Voigt Hill
#
# Bulk Modulus (GPa) = 57.11526 66.33764 61.72645
# Shear Modulus (GPa) = 27.81013 32.67151 30.24082
#
# Velocity S-wave (km/s) = 3.77213 4.08856 3.93353
# Velocity P-wave (km/s) = 6.94225 7.49866 7.22581
#
# Compressibility (1/GPa) = 0.01750845
#
# Stress axis : x y z
#
# Youngs Moduli (GPa) = 91.45317 76.71751 79.28969
#
# Poissons Ratio (x) = 0.45310 0.24261
# Poissons Ratio (y) = 0.54013 0.04525
# Poissons Ratio (z) = 0.27982 0.04378
#
# Static dielectric constant tensor:
#      x y z
#    x 3.738040 -0.176470 0.195130 
#    y -0.176470 3.632880 0.100170 
#    z 0.195130 0.100170 3.634040 
# 
# 
# High freq. dielectric constant tensor:
#      x y z
#    x 1.753660 -0.017690 0.011730 
#    y -0.017690 1.766100 0.003540 
#    z 0.011730 0.003540 1.772620 
# 
# From -- ./inp_files/392171.got.cif
#   From: 2010.06.25/outbox.cif.g09.slc.cpg/sg2_197_cif.got.tgz:392171.got - 2010.06.27 13:26:56.
