data_PCOD8006119
_publ_section_title
;
Structure prediction by ZEFSAII (Michael W. Deem and Ramdas Pophale) SiO2 
 PCOD8006119
Probable space group: P -1
;
_chemical_formula_sum "Si O2"
_cell_formula_units_Z 14
_cell_length_a 9.936759
_cell_length_b 15.519262
_cell_length_c 10.053054
_cell_angle_alpha 71.674011
_cell_angle_beta 128.265139
_cell_angle_gamma 143.877548
_cell_volume 657.198713
_symmetry_space_group_name_H-M "P -1"
_symmetry_group_IT_number 2
_symmetry_cell_setting 'triclinic'
loop_
_space_group_symop_operation_xyz
x,y,z
-x,-y,-z
loop_
_atom_site_type_symbol
_atom_site_label
_atom_site_fract_x
_atom_site_fract_y
_atom_site_fract_z
Si Si1 0.333405 0.831437 0.449173
Si Si2 0.297091 0.720792 0.198083
Si Si3 0.730387 0.491789 0.774643
Si Si4 0.100664 0.011797 0.199638
Si Si5 0.886029 0.744109 0.351906
Si Si6 0.288342 0.019632 0.890294
Si Si7 0.854660 0.201045 0.258747
O O1 0.293185 0.780359 0.298872
O O2 0.995478 0.698354 0.366558
O O3 0.500000 0.000000 0.500000
O O4 0.538085 0.844897 0.642536
O O5 0.353140 0.637476 0.291228
O O6 0.574832 0.876160 0.207287
O O7 0.983364 0.592814 0.992270
O O8 0.450418 0.410574 0.724852
O O9 0.847141 0.607835 0.671391
O O10 0.925287 0.846129 0.226758
O O11 0.005982 0.052630 0.216523
O O12 0.000000 0.000000 0.000000
O O13 0.109297 0.847284 0.566937
O O14 0.173462 0.868952 0.860103
O O15 0.543710 0.125086 0.112896
#
# Coordination Sequence:
#
# PCOD8006119 Si02
#       7
#     2   2   2   2   2   2   2
#     4  10  23  40  64  95 128 162 212 267 310 370
#     4  10  21  41  67  97 124 167 216 257 312 376
#     4  10  22  40  67  94 130 166 207 259 315 387
#     4  11  23  38  63  92 125 164 216 264 313 368
#     4  11  22  41  63  90 129 171 203 264 318 372
#     4  10  20  39  65  94 122 168 211 268 308 362
#     4  10  22  37  65  96 128 158 217 258 312 378
#
# _framework density 21.302537000000001
#
# number of rings (size 3 to 8) (size 9 to 14) (size 15 to 20)
#    0.000    1.714    1.429    3.000    2.000    7.429 
#    0.000    0.714    0.000    0.000    0.000    0.000 
#    0.000    0.000    0.000    0.000    0.000    0.000 
#
# Total GULP energy -173434.337464 kJ/mol
# GULP energy per Si atom -12388.166962 kJ/mol
# Density = 2.125405 g / cm^3
# Si number density = 21.302537 Si / 1000 Ang^3
#
#
#
# Elastic Constant Matrix: (Units=GPa)
#
#
# Indices 1 2 3 4 5 6 
#
# 1 165.1175 32.8190 44.6182 6.9822 8.5352 3.2833
# 2 32.8190 76.3484 29.6308 -8.3243 1.2589 -10.2153
# 3 44.6182 29.6308 96.6758 -20.6656 -9.1009 -2.3377
# 4 6.9822 -8.3243 -20.6656 29.0241 -3.2274 -2.4678
# 5 8.5352 1.2589 -9.1009 -3.2274 40.0019 3.3011
# 6 3.2833 -10.2153 -2.3377 -2.4678 3.3011 21.7539
#
#
#
# Elastic Compliance Matrix: (Units=1/GPa)
#
#
# Indices 1 2 3 4 5 6 
#
# 1 0.008489 -0.002932 -0.004896 -0.007013 -0.003109 -0.003508
# 2 -0.002932 0.017125 -0.002872 0.004214 -0.000953 0.008798
# 3 -0.004896 -0.002872 0.016904 0.013200 0.005897 0.001810
# 4 -0.007013 0.004214 0.013200 0.048334 0.007541 0.008795
# 5 -0.003109 -0.000953 0.005897 0.007541 0.027866 -0.002718
# 6 -0.003508 0.008798 0.001810 0.008795 -0.002718 0.052234
#
#
# Mechanical properties :
#
#
# Convention : Reuss Voigt Hill
#
# Bulk Modulus (GPa) = 47.35046 61.36420 54.35733
# Shear Modulus (GPa) = 25.07627 33.56091 29.31859
#
# Velocity S-wave (km/s) = 3.43468 3.97349 3.71387
# Velocity P-wave (km/s) = 6.16484 7.06541 6.63044
#
# Compressibility (1/GPa) = 0.02111912
#
# Stress axis : x y z
#
# Youngs Moduli (GPa) = 117.79937 58.39430 59.15722
#
# Poissons Ratio (x) = 0.17119 0.28963
# Poissons Ratio (y) = 0.34534 0.16989
# Poissons Ratio (z) = 0.57674 0.16770
#
# Static dielectric constant tensor:
#      x y z
#    x 4.407270 0.053120 0.256860 
#    y 0.053120 3.752960 -0.056720 
#    z 0.256860 -0.056720 3.912640 
# 
# 
# High freq. dielectric constant tensor:
#      x y z
#    x 1.850190 0.005810 0.017370 
#    y 0.005810 1.811430 -0.008160 
#    z 0.017370 -0.008160 1.835590 
# 
# From -- ./inp_files/207143.got.cif
#   From: 2010.06.25/outbox.cif.g09.slc.cpg/sg2_104_cif.got.tgz:207143.got - 2010.06.27 13:26:56.
