data_PCOD8006796
_publ_section_title
;
Structure prediction by ZEFSAII (Michael W. Deem and Ramdas Pophale) SiO2 
 PCOD8006796
Probable space group: P -1
;
_chemical_formula_sum "Si O2"
_cell_formula_units_Z 16
_cell_length_a 22.310015
_cell_length_b 7.633772
_cell_length_c 11.920108
_cell_angle_alpha 129.845931
_cell_angle_beta 148.265620
_cell_angle_gamma 66.108718
_cell_volume 769.034674
_symmetry_space_group_name_H-M "P -1"
_symmetry_group_IT_number 2
_symmetry_cell_setting 'triclinic'
loop_
_space_group_symop_operation_xyz
x,y,z
-x,-y,-z
loop_
_atom_site_type_symbol
_atom_site_label
_atom_site_fract_x
_atom_site_fract_y
_atom_site_fract_z
Si Si1 0.883596 0.911569 0.858749
Si Si2 0.291781 0.875137 0.236456
Si Si3 0.042663 0.147529 0.399633
Si Si4 0.134896 0.676602 0.689400
Si Si5 0.492405 0.625899 0.209145
Si Si6 0.667655 0.424071 0.279972
Si Si7 0.606095 0.526187 0.763104
Si Si8 0.771978 0.048109 0.271880
O O1 0.797077 0.641718 0.581388
O O2 0.798680 0.080437 0.795536
O O3 0.000000 0.000000 0.000000
O O4 0.937396 0.938276 0.080700
O O5 0.321624 0.645051 0.233528
O O6 0.417698 0.099434 0.519504
O O7 0.234473 0.818592 0.998038
O O8 0.111963 0.386925 0.533575
O O9 0.987698 0.259625 0.459781
O O10 0.129405 0.002120 0.513410
O O11 0.171913 0.760345 0.657993
O O12 0.567838 0.460992 0.218492
O O13 0.432879 0.520783 0.189130
O O14 0.383783 0.611022 0.944024
O O15 0.690083 0.180566 0.260619
O O16 0.500000 0.500000 0.500000
O O17 0.692309 0.797019 0.989375
#
# Coordination Sequence:
#
# PCOD8006796 Si02
#       8
#     2   2   2   2   2   2   2   2
#     4  10  22  40  65  90 125 172 214 255 316 383
#     4  10  20  41  66  93 123 169 213 260 323 380
#     4  10  22  39  62  93 124 172 212 258 317 375
#     4  10  20  40  64  90 134 164 206 263 321 382
#     4  10  22  43  67  87 129 174 216 263 318 385
#     4  10  23  42  64  91 124 178 217 258 318 379
#     4  12  24  38  61 100 128 159 213 274 330 372
#     4  12  23  37  63  97 127 161 212 262 321 378
#
# _framework density 20.805304
#
# number of rings (size 3 to 8) (size 9 to 14) (size 15 to 20)
#    0.000    1.500    1.250    3.750    1.750    1.000 
#    4.500    0.000    0.000    0.000    0.000    0.000 
#    0.000    0.000    0.000    0.000    0.000    0.000 
#
# Total GULP energy -198325.539512 kJ/mol
# GULP energy per Si atom -12395.346219 kJ/mol
# Density = 2.075795 g / cm^3
# Si number density = 20.805304 Si / 1000 Ang^3
#
#
#
# Elastic Constant Matrix: (Units=GPa)
#
#
# Indices 1 2 3 4 5 6 
#
# 1 66.8730 42.6241 10.0780 -9.0835 4.2352 -6.0602
# 2 42.6241 160.5589 51.9671 -14.2438 5.1818 -30.5857
# 3 10.0780 51.9671 128.8765 -7.1804 -1.4411 -4.8713
# 4 -9.0835 -14.2438 -7.1804 32.8002 -3.9858 7.7721
# 5 4.2352 5.1818 -1.4411 -3.9858 26.5365 2.7631
# 6 -6.0602 -30.5857 -4.8713 7.7721 2.7631 32.8490
#
#
#
# Elastic Compliance Matrix: (Units=1/GPa)
#
#
# Indices 1 2 3 4 5 6 
#
# 1 0.018506 -0.005203 0.000749 0.003363 -0.001182 -0.002015
# 2 -0.005203 0.010420 -0.003500 0.000053 -0.002261 0.008401
# 3 0.000749 -0.003500 0.009122 0.001394 0.001500 -0.002224
# 4 0.003363 0.000053 0.001394 0.034232 0.005470 -0.007683
# 5 -0.001182 -0.002261 0.001500 0.005470 0.039920 -0.006753
# 6 -0.002015 0.008401 -0.002224 -0.007683 -0.006753 0.039949
#
#
# Mechanical properties :
#
#
# Convention : Reuss Voigt Hill
#
# Bulk Modulus (GPa) = 45.16423 62.84966 54.00695
# Shear Modulus (GPa) = 28.50007 35.21308 31.85657
#
# Velocity S-wave (km/s) = 3.70516 4.11847 3.91727
# Velocity P-wave (km/s) = 6.32925 7.27254 6.81723
#
# Compressibility (1/GPa) = 0.02214142
#
# Stress axis : x y z
#
# Youngs Moduli (GPa) = 54.03641 95.96789 109.62040
#
# Poissons Ratio (x) = 0.49928 -0.08207
# Poissons Ratio (y) = 0.28113 0.38364
# Poissons Ratio (z) = -0.04046 0.33586
#
# Static dielectric constant tensor:
#      x y z
#    x 3.923240 -0.411190 0.086950 
#    y -0.411190 3.836120 -0.006010 
#    z 0.086950 -0.006010 4.062910 
# 
# 
# High freq. dielectric constant tensor:
#      x y z
#    x 1.814250 -0.029470 0.005620 
#    y -0.029470 1.807080 0.000530 
#    z 0.005620 0.000530 1.835060 
# 
# From -- ./inp_files/410808.got.cif
#   From: 2010.06.25/outbox.cif.g09.slc.cpg/sg2_206_cif.got.tgz:410808.got - 2010.06.27 13:26:56.
