data_PCOD8006733
_publ_section_title
;
Structure prediction by ZEFSAII (Michael W. Deem and Ramdas Pophale) SiO2 
 PCOD8006733
Probable space group: P -1
;
_chemical_formula_sum "Si O2"
_cell_formula_units_Z 16
_cell_length_a 8.174553
_cell_length_b 14.869223
_cell_length_c 16.023181
_cell_angle_alpha 46.286510
_cell_angle_beta 147.686684
_cell_angle_gamma 134.138745
_cell_volume 719.980728
_symmetry_space_group_name_H-M "P -1"
_symmetry_group_IT_number 2
_symmetry_cell_setting 'triclinic'
loop_
_space_group_symop_operation_xyz
x,y,z
-x,-y,-z
loop_
_atom_site_type_symbol
_atom_site_label
_atom_site_fract_x
_atom_site_fract_y
_atom_site_fract_z
Si Si1 0.668168 0.479873 0.323509
Si Si2 0.078217 0.033771 0.606158
Si Si3 0.637833 0.935058 0.906322
Si Si4 0.488952 0.377950 0.687713
Si Si5 0.004561 0.517036 0.696349
Si Si6 0.550912 0.148412 0.951656
Si Si7 0.757830 0.798546 0.735267
Si Si8 0.681129 0.209713 0.301265
O O1 0.458777 0.551625 0.242873
O O2 0.467162 0.328292 0.326745
O O3 0.000000 0.500000 0.500000
O O4 0.772186 0.536928 0.237153
O O5 0.993444 0.169325 0.494590
O O6 0.450739 0.043057 0.778177
O O7 0.000000 0.000000 0.500000
O O8 0.843861 0.918821 0.632296
O O9 0.449276 0.847242 0.807326
O O10 0.630410 0.848287 0.041064
O O11 0.000000 0.000000 0.000000
O O12 0.807361 0.412550 0.744643
O O13 0.215982 0.418726 0.495754
O O14 0.403309 0.223266 0.769782
O O15 0.230613 0.635394 0.770790
O O16 0.922015 0.227659 0.074108
O O17 0.500000 0.000000 0.000000
O O18 0.588098 0.842503 0.712143
#
# Coordination Sequence:
#
# PCOD8006733 Si02
#       8
#     2   2   2   2   2   2   2   2
#     4   9  20  42  62  95 126 166 223 269 326 388
#     4   9  20  35  60  94 119 176 217 264 323 388
#     4  10  22  42  58  92 134 171 214 271 330 395
#     4  10  22  42  67  92 132 171 214 280 325 391
#     4   9  21  41  67  96 123 170 223 275 324 386
#     4  11  25  43  63  95 134 175 218 263 341 403
#     4  10  21  39  64  91 134 167 217 278 324 397
#     4  10  20  40  63  92 129 167 226 265 326 391
#
# _framework density 22.222816000000002
#
# number of rings (size 3 to 8) (size 9 to 14) (size 15 to 20)
#    0.000    2.250    0.000    1.125    8.750    0.500 
#   20.250    1.250    0.000    0.000    0.000    0.000 
#    0.000    0.000    0.000    0.000    0.000    0.000 
#
# Total GULP energy -198233.033067 kJ/mol
# GULP energy per Si atom -12389.564567 kJ/mol
# Density = 2.217224 g / cm^3
# Si number density = 22.222816 Si / 1000 Ang^3
#
#
#
# Elastic Constant Matrix: (Units=GPa)
#
#
# Indices 1 2 3 4 5 6 
#
# 1 170.3937 40.0161 35.0631 -12.9582 -3.2947 12.6535
# 2 40.0161 86.6349 25.9022 1.5399 -2.7918 1.0972
# 3 35.0631 25.9022 68.0929 0.8085 -12.2161 14.8718
# 4 -12.9582 1.5399 0.8085 36.4885 8.4001 0.5745
# 5 -3.2947 -2.7918 -12.2161 8.4001 32.0305 3.2537
# 6 12.6535 1.0972 14.8718 0.5745 3.2537 36.6809
#
#
#
# Elastic Compliance Matrix: (Units=1/GPa)
#
#
# Indices 1 2 3 4 5 6 
#
# 1 0.007366 -0.002656 -0.002754 0.003086 -0.001203 -0.001287
# 2 -0.002656 0.014132 -0.004662 -0.001308 -0.000727 0.002469
# 3 -0.002754 -0.004662 0.021381 -0.003232 0.009160 -0.008341
# 4 0.003086 -0.001308 -0.003232 0.030725 -0.009150 0.000615
# 5 -0.001203 -0.000727 0.009160 -0.009150 0.037583 -0.006467
# 6 -0.001287 0.002469 -0.008341 0.000615 -0.006467 0.031578
#
#
# Mechanical properties :
#
#
# Convention : Reuss Voigt Hill
#
# Bulk Modulus (GPa) = 43.98684 58.56493 51.27588
# Shear Modulus (GPa) = 29.32746 35.98266 32.65506
#
# Velocity S-wave (km/s) = 3.63671 4.02826 3.83748
# Velocity P-wave (km/s) = 6.12133 6.93157 6.53901
#
# Compressibility (1/GPa) = 0.02273407
#
# Stress axis : x y z
#
# Youngs Moduli (GPa) = 135.75291 70.76112 46.77096
#
# Poissons Ratio (x) = 0.18797 0.12881
# Poissons Ratio (y) = 0.36061 0.21805
# Poissons Ratio (z) = 0.37388 0.32989
#
# Static dielectric constant tensor:
#      x y z
#    x 4.644110 -0.213640 0.074860 
#    y -0.213640 3.745630 -0.020510 
#    z 0.074860 -0.020510 4.300770 
# 
# 
# High freq. dielectric constant tensor:
#      x y z
#    x 1.906750 -0.007100 -0.005270 
#    y -0.007100 1.860800 0.011280 
#    z -0.005270 0.011280 1.855490 
# 
# From -- ./inp_files/561373.got.cif
#   From: 2010.06.25/outbox.cif.g09.slc.cpg/sg2_281_cif.got.tgz:561373.got - 2010.06.27 13:26:56.
