data_PCOD8006206
_publ_section_title
;
Structure prediction by ZEFSAII (Michael W. Deem and Ramdas Pophale) SiO2 
 PCOD8006206
Probable space group: P -1
;
_chemical_formula_sum "Si O2"
_cell_formula_units_Z 16
_cell_length_a 11.139338
_cell_length_b 15.567639
_cell_length_c 13.228702
_cell_angle_alpha 26.568056
_cell_angle_beta 104.696690
_cell_angle_gamma 121.059630
_cell_volume 738.503612
_symmetry_space_group_name_H-M "P -1"
_symmetry_group_IT_number 2
_symmetry_cell_setting 'triclinic'
loop_
_space_group_symop_operation_xyz
x,y,z
-x,-y,-z
loop_
_atom_site_type_symbol
_atom_site_label
_atom_site_fract_x
_atom_site_fract_y
_atom_site_fract_z
Si Si1 0.040754 0.974387 0.176421
Si Si2 0.403562 0.726142 0.932936
Si Si3 0.575029 0.838881 0.465578
Si Si4 0.680043 0.731956 0.918326
Si Si5 0.089642 0.791820 0.191399
Si Si6 0.336357 0.520121 0.356082
Si Si7 0.578417 0.828866 0.249686
Si Si8 0.804140 0.791527 0.662784
O O1 0.140799 0.954777 0.134286
O O2 0.861049 0.690992 0.448089
O O3 0.137979 0.062892 0.209129
O O4 0.030547 0.187300 0.918057
O O5 0.410271 0.961279 0.668489
O O6 0.574022 0.810408 0.839648
O O7 0.381444 0.673473 0.102331
O O8 0.246429 0.474482 0.103628
O O9 0.410175 0.551533 0.762097
O O10 0.558825 0.896045 0.286592
O O11 0.740683 0.877013 0.474045
O O12 0.702752 0.742604 0.792463
O O13 0.000000 0.500000 0.500000
O O14 0.254113 0.915561 0.033017
O O15 0.421324 0.721301 0.257285
O O16 0.416255 0.393553 0.500372
O O17 0.000000 0.000000 0.500000
#
# Coordination Sequence:
#
# PCOD8006206 Si02
#       8
#     2   2   2   2   2   2   2   2
#     4  10  23  40  62  93 130 172 217 265 321 382
#     4  11  23  43  67  97 130 168 219 265 320 393
#     4  11  25  42  68  99 127 171 219 264 326 385
#     4  11  24  43  67  94 129 172 216 268 323 383
#     4  10  23  39  59  92 132 169 213 265 322 378
#     4  10  20  39  66  92 131 174 215 262 321 378
#     4  10  21  39  65  92 131 174 215 262 317 388
#     4  11  25  47  71  94 128 166 213 274 334 381
#
# _framework density 21.665433
#
# number of rings (size 3 to 8) (size 9 to 14) (size 15 to 20)
#    0.000    1.500    2.500    3.000    8.750    5.000 
#    0.000    1.250    0.000    0.000    0.000    0.000 
#    0.000    0.000    0.000    0.000    0.000    0.000 
#
# Total GULP energy -198452.727102 kJ/mol
# GULP energy per Si atom -12403.295444 kJ/mol
# Density = 2.161612 g / cm^3
# Si number density = 21.665433 Si / 1000 Ang^3
#
#
#
# Elastic Constant Matrix: (Units=GPa)
#
#
# Indices 1 2 3 4 5 6 
#
# 1 77.8977 41.3764 48.9943 -18.2140 -6.8571 -4.6695
# 2 41.3764 134.7700 34.1045 -12.2338 -9.3971 7.2472
# 3 48.9943 34.1045 93.7671 -14.4928 -11.8429 -4.1641
# 4 -18.2140 -12.2338 -14.4928 41.3773 -9.1203 -6.9182
# 5 -6.8571 -9.3971 -11.8429 -9.1203 27.6375 -6.3133
# 6 -4.6695 7.2472 -4.1641 -6.9182 -6.3133 36.1040
#
#
#
# Elastic Compliance Matrix: (Units=1/GPa)
#
#
# Indices 1 2 3 4 5 6 
#
# 1 0.022837 -0.004142 -0.008479 0.007645 0.004294 0.005023
# 2 -0.004142 0.009206 -0.001047 0.000453 0.001303 -0.002190
# 3 -0.008479 -0.001047 0.017092 0.003969 0.006870 0.003047
# 4 0.007645 0.000453 0.003969 0.034842 0.017795 0.011144
# 5 0.004294 0.001303 0.006870 0.017795 0.049512 0.013154
# 6 0.005023 -0.002190 0.003047 0.011144 0.013154 0.033574
#
#
# Mechanical properties :
#
#
# Convention : Reuss Voigt Hill
#
# Bulk Modulus (GPa) = 45.87234 61.70945 53.79090
# Shear Modulus (GPa) = 24.79335 33.15440 28.97387
#
# Velocity S-wave (km/s) = 3.38653 3.91614 3.66092
# Velocity P-wave (km/s) = 6.04239 6.99949 6.53848
#
# Compressibility (1/GPa) = 0.02179963
#
# Stress axis : x y z
#
# Youngs Moduli (GPa) = 43.78833 108.61935 58.50646
#
# Poissons Ratio (x) = 0.44995 0.49607
# Poissons Ratio (y) = 0.18139 0.06124
# Poissons Ratio (z) = 0.37128 0.11369
#
# Static dielectric constant tensor:
#      x y z
#    x 3.764480 -0.100500 -0.009590 
#    y -0.100500 4.121850 0.029170 
#    z -0.009590 0.029170 3.784350 
# 
# 
# High freq. dielectric constant tensor:
#      x y z
#    x 1.843580 -0.009100 -0.001570 
#    y -0.009100 1.862170 -0.000940 
#    z -0.001570 -0.000940 1.850290 
# 
# From -- ./inp_files/433684.got.cif
#   From: 2010.06.25/outbox.cif.g09.slc.cpg/sg2_217_cif.got.tgz:433684.got - 2010.06.27 13:26:56.
