data_PCOD8006884
_publ_section_title
;
Structure prediction by ZEFSAII (Michael W. Deem and Ramdas Pophale) SiO2 
 PCOD8006884
Probable space group: P -1
;
_chemical_formula_sum "Si O2"
_cell_formula_units_Z 10
_cell_length_a 14.656211
_cell_length_b 11.702369
_cell_length_c 12.874966
_cell_angle_alpha 50.171678
_cell_angle_beta 28.618715
_cell_angle_gamma 30.105677
_cell_volume 460.983486
_symmetry_space_group_name_H-M "P -1"
_symmetry_group_IT_number 2
_symmetry_cell_setting 'triclinic'
loop_
_space_group_symop_operation_xyz
x,y,z
-x,-y,-z
loop_
_atom_site_type_symbol
_atom_site_label
_atom_site_fract_x
_atom_site_fract_y
_atom_site_fract_z
Si Si1 0.652306 0.965067 0.508595
Si Si2 0.325151 0.221993 0.892743
Si Si3 0.606552 0.445240 0.042710
Si Si4 0.524445 0.802015 0.020638
Si Si5 0.267158 0.370647 0.489042
O O1 0.633013 0.797961 0.610897
O O2 0.621919 0.024867 0.625008
O O3 0.343151 0.237037 0.598266
O O4 0.991481 0.807382 0.208209
O O5 0.251043 0.101930 0.082034
O O6 0.460974 0.230888 0.849546
O O7 0.000000 0.500000 0.000000
O O8 0.473133 0.390237 0.270781
O O9 0.500000 0.500000 0.000000
O O10 0.444259 0.695582 0.111324
O O11 0.871008 0.651784 0.720456
#
# Coordination Sequence:
#
# PCOD8006884 Si02
#       5
#     2   2   2   2   2
#     4  10  21  38  64  92 118 163 204 246 306 359
#     4  11  21  41  65  87 125 166 198 247 307 361
#     4  11  22  39  62  93 122 157 204 258 300 354
#     4  10  23  41  65  91 120 162 206 245 305 365
#     4  10  20  40  65  89 122 156 205 257 299 354
#
# _framework density 21.692751000000001
#
# number of rings (size 3 to 8) (size 9 to 14) (size 15 to 20)
#    0.000    1.600    2.000    3.000    0.000    3.200 
#    3.600   12.000    0.000    0.000    0.000    0.000 
#    0.000    0.000    0.000    0.000    0.000    0.000 
#
# Total GULP energy -123975.562372 kJ/mol
# GULP energy per Si atom -12397.556237 kJ/mol
# Density = 2.164338 g / cm^3
# Si number density = 21.692751 Si / 1000 Ang^3
#
#
#
# Elastic Constant Matrix: (Units=GPa)
#
#
# Indices 1 2 3 4 5 6 
#
# 1 154.3311 63.2430 35.8920 -6.5868 24.3161 23.9411
# 2 63.2430 127.7571 28.9455 -5.9847 -0.4700 5.5872
# 3 35.8920 28.9455 64.2042 -18.3651 2.1605 19.3089
# 4 -6.5868 -5.9847 -18.3651 16.2944 5.7831 -7.8416
# 5 24.3161 -0.4700 2.1605 5.7831 44.5175 -3.3829
# 6 23.9411 5.5872 19.3089 -7.8416 -3.3829 46.0221
#
#
#
# Elastic Compliance Matrix: (Units=1/GPa)
#
#
# Indices 1 2 3 4 5 6 
#
# 1 0.010484 -0.004496 -0.002317 -0.000004 -0.005994 -0.004377
# 2 -0.004496 0.010712 -0.003767 -0.002063 0.003210 0.002503
# 3 -0.002317 -0.003767 0.028684 0.028764 -0.004343 -0.005790
# 4 -0.000004 -0.002063 0.028764 0.100052 -0.014094 0.004196
# 5 -0.005994 0.003210 -0.004343 -0.014094 0.028133 0.004217
# 6 -0.004377 0.002503 -0.005790 0.004196 0.004217 0.027156
#
#
# Mechanical properties :
#
#
# Convention : Reuss Voigt Hill
#
# Bulk Modulus (GPa) = 34.81865 66.93927 50.87896
# Shear Modulus (GPa) = 21.19053 35.91425 28.55239
#
# Velocity S-wave (km/s) = 3.12885 4.07331 3.63191
# Velocity P-wave (km/s) = 5.39802 7.28336 6.41038
#
# Compressibility (1/GPa) = 0.02872024
#
# Stress axis : x y z
#
# Youngs Moduli (GPa) = 95.38446 93.35319 34.86247
#
# Poissons Ratio (x) = 0.41968 0.08078
# Poissons Ratio (y) = 0.42881 0.13133
# Poissons Ratio (z) = 0.22101 0.35168
#
# Static dielectric constant tensor:
#      x y z
#    x 4.178510 0.198090 -0.044060 
#    y 0.198090 4.098330 0.013870 
#    z -0.044060 0.013870 4.063050 
# 
# 
# High freq. dielectric constant tensor:
#      x y z
#    x 1.859560 -0.001500 0.021930 
#    y -0.001500 1.867390 0.008040 
#    z 0.021930 0.008040 1.824870 
# 
# From -- ./inp_files/16099.got.cif
#   From: 2010.06.25/outbox.cif.g09.slc.cpg/sg2_9_cif.got.tgz:16099.got - 2010.06.27 13:26:56.
