data_PCOD8006821
_publ_section_title
;
Structure prediction by ZEFSAII (Michael W. Deem and Ramdas Pophale) SiO2 
 PCOD8006821
Probable space group: P -1
;
_chemical_formula_sum "Si O2"
_cell_formula_units_Z 16
_cell_length_a 9.826772
_cell_length_b 10.879427
_cell_length_c 17.633695
_cell_angle_alpha 38.866868
_cell_angle_beta 130.365199
_cell_angle_gamma 100.628567
_cell_volume 670.007815
_symmetry_space_group_name_H-M "P -1"
_symmetry_group_IT_number 2
_symmetry_cell_setting 'triclinic'
loop_
_space_group_symop_operation_xyz
x,y,z
-x,-y,-z
loop_
_atom_site_type_symbol
_atom_site_label
_atom_site_fract_x
_atom_site_fract_y
_atom_site_fract_z
Si Si1 0.166264 0.658051 0.576062
Si Si2 0.026471 0.983831 0.927377
Si Si3 0.620708 0.111582 0.185728
Si Si4 0.163210 0.470412 0.253825
Si Si5 0.019044 0.660652 0.874081
Si Si6 0.440906 0.644913 0.808601
Si Si7 0.689508 0.216309 0.563419
Si Si8 0.786338 0.760396 0.108941
O O1 0.253503 0.762587 0.615619
O O2 0.314727 0.581938 0.587029
O O3 0.221650 0.399328 0.751848
O O4 0.880673 0.898750 0.343360
O O5 0.208900 0.028028 0.951016
O O6 0.113192 0.701555 0.073112
O O7 0.781747 0.201655 0.687912
O O8 0.000000 0.000000 0.000000
O O9 0.653490 0.106065 0.291562
O O10 0.457559 0.421414 0.961255
O O11 0.446698 0.066985 0.113813
O O12 0.078517 0.336986 0.244377
O O13 0.449213 0.267887 0.465078
O O14 0.032255 0.563208 0.243511
O O15 0.874861 0.953675 0.707857
O O16 0.000000 0.500000 0.000000
O O17 0.295926 0.505404 0.052230
#
# Coordination Sequence:
#
# PCOD8006821 Si02
#       8
#     2   2   2   2   2   2   2   2
#     4  11  24  39  67 104 138 171 220 278 339 400
#     4  10  25  48  69  94 130 182 231 279 326 391
#     4  10  20  40  64  93 137 177 220 267 325 397
#     4  11  24  45  70 100 136 176 226 274 331 401
#     4  12  22  40  67 100 137 177 213 270 342 399
#     4  10  21  38  62  96 139 178 214 264 331 400
#     4  12  26  43  68 102 140 172 219 282 341 397
#     4  10  24  43  70  99 127 182 233 272 328 393
#
# _framework density 23.880319
#
# number of rings (size 3 to 8) (size 9 to 14) (size 15 to 20)
#    0.000    1.250    3.750    1.500    0.000    7.500 
#    0.000    1.250    0.000    0.000    0.000    0.000 
#    0.000    0.000    0.000    0.000    0.000    0.000 
#
# Total GULP energy -198270.495963 kJ/mol
# GULP energy per Si atom -12391.905998 kJ/mol
# Density = 2.382597 g / cm^3
# Si number density = 23.880319 Si / 1000 Ang^3
#
#
#
# Elastic Constant Matrix: (Units=GPa)
#
#
# Indices 1 2 3 4 5 6 
#
# 1 106.7479 21.8767 29.7453 10.3078 5.2756 8.8861
# 2 21.8767 74.4425 28.2236 20.2231 -2.9010 19.9445
# 3 29.7453 28.2236 74.2295 26.6502 13.0161 5.2912
# 4 10.3078 20.2231 26.6502 28.1868 2.5398 0.6858
# 5 5.2756 -2.9010 13.0161 2.5398 51.1626 7.3100
# 6 8.8861 19.9445 5.2912 0.6858 7.3100 34.0100
#
#
#
# Elastic Compliance Matrix: (Units=1/GPa)
#
#
# Indices 1 2 3 4 5 6 
#
# 1 0.010819 -0.001600 -0.003982 0.000993 -0.000060 -0.001276
# 2 -0.001600 0.022084 -0.003250 -0.012297 0.004681 -0.012785
# 3 -0.003982 -0.003250 0.023635 -0.018126 -0.004988 0.000707
# 4 0.000993 -0.012297 -0.018126 0.060906 -0.000446 0.008640
# 5 -0.000060 0.004681 -0.004988 -0.000446 0.022064 -0.006687
# 6 -0.001276 -0.012785 0.000707 0.008640 -0.006687 0.038387
#
#
# Mechanical properties :
#
#
# Convention : Reuss Voigt Hill
#
# Bulk Modulus (GPa) = 25.72404 46.12345 35.92374
# Shear Modulus (GPa) = 23.97894 34.37683 29.17789
#
# Velocity S-wave (km/s) = 3.17224 3.79825 3.49927
# Velocity P-wave (km/s) = 4.92066 6.21224 5.60379
#
# Compressibility (1/GPa) = 0.03887415
#
# Stress axis : x y z
#
# Youngs Moduli (GPa) = 92.43332 45.28137 42.30985
#
# Poissons Ratio (x) = 0.07244 0.16847
# Poissons Ratio (y) = 0.14788 0.13752
# Poissons Ratio (z) = 0.36806 0.14717
#
# Static dielectric constant tensor:
#      x y z
#    x 6.709120 4.076640 -0.605730 
#    y 4.076640 10.576720 -0.487160 
#    z -0.605730 -0.487160 4.309650 
# 
# 
# High freq. dielectric constant tensor:
#      x y z
#    x 1.950310 0.016060 -0.001250 
#    y 0.016060 1.944370 0.020640 
#    z -0.001250 0.020640 1.938930 
# 
# From -- ./inp_files/70884.got.cif
#   From: 2010.06.25/outbox.cif.g09.slc.cpg/sg2_36_cif.got.tgz:70884.got - 2010.06.27 13:26:56.
