data_PCOD8006044
_publ_section_title
;
Structure prediction by ZEFSAII (Michael W. Deem and Ramdas Pophale) SiO2 
 PCOD8006044
Probable space group: P -1
;
_chemical_formula_sum "Si O2"
_cell_formula_units_Z 16
_cell_length_a 13.451427
_cell_length_b 11.500141
_cell_length_c 9.367028
_cell_angle_alpha 115.547843
_cell_angle_beta 125.437470
_cell_angle_gamma 105.865348
_cell_volume 747.857124
_symmetry_space_group_name_H-M "P -1"
_symmetry_group_IT_number 2
_symmetry_cell_setting 'triclinic'
loop_
_space_group_symop_operation_xyz
x,y,z
-x,-y,-z
loop_
_atom_site_type_symbol
_atom_site_label
_atom_site_fract_x
_atom_site_fract_y
_atom_site_fract_z
Si Si1 0.626831 0.522742 0.920587
Si Si2 0.472109 0.818316 0.777239
Si Si3 0.256980 0.295260 0.497159
Si Si4 0.764091 0.886489 0.212573
Si Si5 0.244361 0.781867 0.792952
Si Si6 0.857485 0.555256 0.327190
Si Si7 0.282726 0.439047 0.295738
Si Si8 0.983988 0.071144 0.749191
O O1 0.435160 0.367329 0.744727
O O2 0.614870 0.532726 0.743994
O O3 0.712427 0.715553 0.160014
O O4 0.754989 0.504074 0.066706
O O5 0.330554 0.799728 0.727606
O O6 0.355372 0.637205 0.486535
O O7 0.588439 0.827693 0.993078
O O8 0.612572 0.012074 0.908637
O O9 0.206070 0.392922 0.577906
O O10 0.300815 0.357914 0.402041
O O11 0.116825 0.076892 0.285223
O O12 0.882734 0.938981 0.202914
O O13 0.869368 0.040129 0.505646
O O14 0.197629 0.631216 0.779205
O O15 0.066529 0.724213 0.573738
O O16 0.077631 0.269945 0.994794
#
# Coordination Sequence:
#
# PCOD8006044 Si02
#       8
#     2   2   2   2   2   2   2   2
#     4  11  23  38  66  97 134 159 198 265 331 378
#     4  11  22  42  67  89 123 173 217 255 307 377
#     4  12  21  39  65  98 129 165 204 256 322 390
#     4  10  20  39  64  99 125 165 205 257 320 386
#     4  10  24  41  68  87 119 173 230 253 298 359
#     4  11  22  43  65  96 123 162 221 266 298 372
#     4  11  24  41  58  99 135 166 196 262 329 375
#     4  10  23  34  61 100 133 163 196 253 331 378
#
# _framework density 21.394462000000001
#
# number of rings (size 3 to 8) (size 9 to 14) (size 15 to 20)
#    0.000    1.250    3.750    1.875    7.000    0.000 
#    2.250    1.250    0.000    0.000    0.000    0.000 
#    0.000    0.000    0.000    0.000    0.000    0.000 
#
# Total GULP energy -198216.116913 kJ/mol
# GULP energy per Si atom -12388.507307 kJ/mol
# Density = 2.134577 g / cm^3
# Si number density = 21.394462 Si / 1000 Ang^3
#
#
#
# Elastic Constant Matrix: (Units=GPa)
#
#
# Indices 1 2 3 4 5 6 
#
# 1 83.5325 37.4986 65.0199 -2.8921 28.0657 4.4999
# 2 37.4986 94.1703 61.9550 22.0257 9.2317 4.7796
# 3 65.0199 61.9550 155.9746 29.3836 1.9904 -0.4016
# 4 -2.8921 22.0257 29.3836 48.1679 -2.0853 2.3565
# 5 28.0657 9.2317 1.9904 -2.0853 35.4922 4.3529
# 6 4.4999 4.7796 -0.4016 2.3565 4.3529 29.5290
#
#
#
# Elastic Compliance Matrix: (Units=1/GPa)
#
#
# Indices 1 2 3 4 5 6 
#
# 1 0.033193 -0.004312 -0.014016 0.011600 -0.023410 -0.002026
# 2 -0.004312 0.016093 -0.003573 -0.005398 -0.000714 -0.001460
# 3 -0.014016 -0.003573 0.015060 -0.008041 0.010448 0.002021
# 4 0.011600 -0.005398 -0.008041 0.028723 -0.005323 -0.002511
# 5 -0.023410 -0.000714 0.010448 -0.005323 0.046290 -0.002574
# 6 -0.002026 -0.001460 0.002021 -0.002511 -0.002574 0.035017
#
#
# Mechanical properties :
#
#
# Convention : Reuss Voigt Hill
#
# Bulk Modulus (GPa) = 48.67365 73.62494 61.14929
# Shear Modulus (GPa) = 22.21968 33.91808 28.06888
#
# Velocity S-wave (km/s) = 3.22618 3.98599 3.62604
# Velocity P-wave (km/s) = 6.05621 7.46136 6.79520
#
# Compressibility (1/GPa) = 0.02054500
#
# Stress axis : x y z
#
# Youngs Moduli (GPa) = 30.12686 62.13822 66.40111
#
# Poissons Ratio (x) = 0.26792 0.93068
# Poissons Ratio (y) = 0.12990 0.23724
# Poissons Ratio (z) = 0.42226 0.22201
#
# Static dielectric constant tensor:
#      x y z
#    x 3.663530 0.094650 0.176070 
#    y 0.094650 3.935240 0.370000 
#    z 0.176070 0.370000 4.196700 
# 
# 
# High freq. dielectric constant tensor:
#      x y z
#    x 1.815510 0.017400 0.020140 
#    y 0.017400 1.841050 0.022210 
#    z 0.020140 0.022210 1.848770 
# 
# From -- ./inp_files/308208.got.cif
#   From: 2010.06.25/outbox.cif.g09.slc.cpg/sg2_155_cif.got.tgz:308208.got - 2010.06.27 13:26:56.
