data_PCOD8006015
_publ_section_title
;
Structure prediction by ZEFSAII (Michael W. Deem and Ramdas Pophale) SiO2 
 PCOD8006015
Probable space group: P -1
;
_chemical_formula_sum "Si O2"
_cell_formula_units_Z 16
_cell_length_a 8.540164
_cell_length_b 5.142079
_cell_length_c 19.362905
_cell_angle_alpha 93.020873
_cell_angle_beta 121.145100
_cell_angle_gamma 81.198035
_cell_volume 718.821357
_symmetry_space_group_name_H-M "P -1"
_symmetry_group_IT_number 2
_symmetry_cell_setting 'triclinic'
loop_
_space_group_symop_operation_xyz
x,y,z
-x,-y,-z
loop_
_atom_site_type_symbol
_atom_site_label
_atom_site_fract_x
_atom_site_fract_y
_atom_site_fract_z
Si Si1 0.508729 0.327199 0.719054
Si Si2 0.746039 0.208014 0.555836
Si Si3 0.748387 0.778159 0.759373
Si Si4 0.081370 0.413050 0.862217
Si Si5 0.006158 0.981356 0.272904
Si Si6 0.417340 0.274242 0.017336
Si Si7 0.336856 0.626844 0.811466
Si Si8 0.353536 0.288156 0.540641
O O1 0.612399 0.562064 0.717156
O O2 0.394984 0.415834 0.762712
O O3 0.365444 0.274602 0.626115
O O4 0.641862 0.056956 0.765735
O O5 0.560475 0.253508 0.558585
O O6 0.760073 0.439250 0.507950
O O7 0.759102 0.939864 0.512151
O O8 0.919948 0.195676 0.647419
O O9 0.917842 0.652499 0.846837
O O10 0.844774 0.817895 0.707082
O O11 0.229881 0.497283 0.844423
O O12 0.993708 0.181640 0.800928
O O13 0.193329 0.316249 0.956552
O O14 0.801250 0.125443 0.246969
O O15 0.477884 0.279391 0.111955
O O16 0.500000 0.500000 0.000000
O O17 0.500000 0.000000 0.000000
#
# Coordination Sequence:
#
# PCOD8006015 Si02
#       8
#     2   2   2   2   2   2   2   2
#     4  12  24  42  61  92 131 165 198 252 328 364
#     4  10  21  34  60  87 115 154 215 252 292 353
#     4  11  23  38  65  90 123 166 206 254 299 371
#     4  10  21  41  69  93 120 162 215 257 294 360
#     4  11  21  40  65  95 118 163 213 255 298 364
#     4  10  20  39  64  94 121 159 209 252 296 359
#     4  10  25  39  66  94 127 164 202 254 312 375
#     4  10  21  36  57  87 119 157 202 258 300 359
#
# _framework density 22.258656999999999
#
# number of rings (size 3 to 8) (size 9 to 14) (size 15 to 20)
#    0.000    1.500    3.750    0.750    8.750    0.000 
#    0.000    2.500    0.000    0.000    0.000    0.000 
#    0.000    0.000    0.000    0.000    0.000    0.000 
#
# Total GULP energy -198335.713195 kJ/mol
# GULP energy per Si atom -12395.982075 kJ/mol
# Density = 2.220800 g / cm^3
# Si number density = 22.258657 Si / 1000 Ang^3
#
#
#
# Elastic Constant Matrix: (Units=GPa)
#
#
# Indices 1 2 3 4 5 6 
#
# 1 37.8341 24.1707 27.0941 -3.9977 10.4228 -16.4855
# 2 24.1707 155.1358 43.7905 -10.2531 13.3055 -18.3635
# 3 27.0941 43.7905 116.1100 -7.1840 23.8837 -21.1355
# 4 -3.9977 -10.2531 -7.1840 39.4930 -11.6091 8.2333
# 5 10.4228 13.3055 23.8837 -11.6091 24.0517 -0.2456
# 6 -16.4855 -18.3635 -21.1355 8.2333 -0.2456 36.7901
#
#
#
# Elastic Compliance Matrix: (Units=1/GPa)
#
#
# Indices 1 2 3 4 5 6 
#
# 1 0.041144 -0.002672 -0.002550 -0.005228 -0.016172 0.016700
# 2 -0.002672 0.007663 -0.001771 0.000835 -0.000905 0.001417
# 3 -0.002550 -0.001771 0.013474 -0.003378 -0.012861 0.006384
# 4 -0.005228 0.000835 -0.003378 0.032847 0.020899 -0.011078
# 5 -0.016172 -0.000905 -0.012861 0.020899 0.071748 -0.019285
# 6 0.016700 0.001417 0.006384 -0.011078 -0.019285 0.041390
#
#
# Mechanical properties :
#
#
# Convention : Reuss Voigt Hill
#
# Bulk Modulus (GPa) = 20.70620 55.46561 38.08590
# Shear Modulus (GPa) = 20.97765 34.33527 27.65646
#
# Velocity S-wave (km/s) = 3.07326 3.93180 3.52874
# Velocity P-wave (km/s) = 4.68145 6.75166 5.80951
#
# Compressibility (1/GPa) = 0.04829471
#
# Stress axis : x y z
#
# Youngs Moduli (GPa) = 24.30490 130.50253 74.21771
#
# Poissons Ratio (x) = 0.34875 0.18926
# Poissons Ratio (y) = 0.06495 0.13140
# Poissons Ratio (z) = 0.06198 0.23106
#
# Static dielectric constant tensor:
#      x y z
#    x 3.629250 -0.059390 0.460450 
#    y -0.059390 4.301770 -0.087740 
#    z 0.460450 -0.087740 4.438900 
# 
# 
# High freq. dielectric constant tensor:
#      x y z
#    x 1.833360 -0.001330 0.028800 
#    y -0.001330 1.894100 -0.010200 
#    z 0.028800 -0.010200 1.875100 
# 
# From -- ./inp_files/53772.got.cif
#   From: 2010.06.25/outbox.cif.g09.slc.cpg/sg2_27_cif.got.tgz:53772.got - 2010.06.27 13:26:56.
