data_PCOD8006837
_publ_section_title
;
Structure prediction by ZEFSAII (Michael W. Deem and Ramdas Pophale) SiO2 
 PCOD8006837
Probable space group: P -1
;
_chemical_formula_sum "Si O2"
_cell_formula_units_Z 16
_cell_length_a 6.591266
_cell_length_b 19.776534
_cell_length_c 8.624686
_cell_angle_alpha 53.672916
_cell_angle_beta 101.916615
_cell_angle_gamma 124.370303
_cell_volume 733.643260
_symmetry_space_group_name_H-M "P -1"
_symmetry_group_IT_number 2
_symmetry_cell_setting 'triclinic'
loop_
_space_group_symop_operation_xyz
x,y,z
-x,-y,-z
loop_
_atom_site_type_symbol
_atom_site_label
_atom_site_fract_x
_atom_site_fract_y
_atom_site_fract_z
Si Si1 0.756699 0.722501 0.648653
Si Si2 0.756291 0.888089 0.616003
Si Si3 0.484571 0.919757 0.279638
Si Si4 0.085722 0.927852 0.059129
Si Si5 0.610480 0.269040 0.631690
Si Si6 0.609604 0.404363 0.995591
Si Si7 0.973825 0.371082 0.282103
Si Si8 0.393098 0.239831 0.943095
O O1 0.831901 0.818271 0.638680
O O2 0.616779 0.724456 0.472551
O O3 0.577810 0.619463 0.860137
O O4 0.990484 0.718599 0.636403
O O5 0.529187 0.884841 0.498529
O O6 0.647520 0.846870 0.826370
O O7 0.000000 0.000000 0.500000
O O8 0.234110 0.920414 0.239565
O O9 0.453086 0.842416 0.248411
O O10 0.729146 0.028051 0.120047
O O11 0.857095 0.815320 0.127313
O O12 0.000000 0.000000 0.000000
O O13 0.628650 0.283441 0.801866
O O14 0.859931 0.350731 0.465178
O O15 0.792999 0.370208 0.125289
O O16 0.761009 0.521504 0.815063
O O17 0.447946 0.337703 0.912102
#
# Coordination Sequence:
#
# PCOD8006837 Si02
#       8
#     2   2   2   2   2   2   2   2
#     4   9  20  39  66  90 121 168 209 254 314 381
#     4  10  20  40  64  96 131 160 212 269 312 368
#     4  10  22  40  64  88 119 175 213 243 324 384
#     4  11  22  40  65  86 124 172 211 259 312 384
#     4  10  22  38  61  90 127 163 212 251 312 389
#     4   9  21  41  64  94 128 159 214 268 315 373
#     4  10  20  41  67  90 124 173 210 253 323 389
#     4  11  22  41  61  94 134 158 208 277 308 363
#
# _framework density 21.808964
#
# number of rings (size 3 to 8) (size 9 to 14) (size 15 to 20)
#    0.000    2.000    2.500    1.125    1.750    0.500 
#    6.750    1.250    0.000    0.000    0.000    0.000 
#    0.000    0.000    0.000    0.000    0.000    0.000 
#
# Total GULP energy -198313.056528 kJ/mol
# GULP energy per Si atom -12394.566033 kJ/mol
# Density = 2.175933 g / cm^3
# Si number density = 21.808964 Si / 1000 Ang^3
#
#
#
# Elastic Constant Matrix: (Units=GPa)
#
#
# Indices 1 2 3 4 5 6 
#
# 1 106.6045 31.0036 41.6515 10.7388 17.5421 -7.5904
# 2 31.0036 91.0381 37.8526 -0.7241 -5.7295 5.6128
# 3 41.6515 37.8526 125.6078 5.5126 -14.0277 -11.6770
# 4 10.7388 -0.7241 5.5126 32.2307 -1.1231 -4.9819
# 5 17.5421 -5.7295 -14.0277 -1.1231 30.4079 -2.2744
# 6 -7.5904 5.6128 -11.6770 -4.9819 -2.2744 22.6276
#
#
#
# Elastic Compliance Matrix: (Units=1/GPa)
#
#
# Indices 1 2 3 4 5 6 
#
# 1 0.014785 -0.003935 -0.004676 -0.004399 -0.011486 0.001399
# 2 -0.003935 0.014248 -0.003259 0.001379 0.003059 -0.005925
# 3 -0.004676 -0.003259 0.011962 0.000708 0.008105 0.006383
# 4 -0.004399 0.001379 0.000708 0.033563 0.004844 0.006424
# 5 -0.011486 0.003059 0.008105 0.004844 0.044388 0.005099
# 6 0.001399 -0.005925 0.006383 0.006424 0.005099 0.051354
#
#
# Mechanical properties :
#
#
# Convention : Reuss Voigt Hill
#
# Bulk Modulus (GPa) = 57.95531 60.47397 59.21464
# Shear Modulus (GPa) = 25.02620 31.23609 28.13115
#
# Velocity S-wave (km/s) = 3.39118 3.78863 3.59540
# Velocity P-wave (km/s) = 6.47806 6.85036 6.66681
#
# Compressibility (1/GPa) = 0.01725467
#
# Stress axis : x y z
#
# Youngs Moduli (GPa) = 67.63790 70.18491 83.60150
#
# Poissons Ratio (x) = 0.27616 0.39095
# Poissons Ratio (y) = 0.26613 0.27243
# Poissons Ratio (z) = 0.31630 0.22871
#
# Static dielectric constant tensor:
#      x y z
#    x 3.857030 0.193330 -0.101560 
#    y 0.193330 3.801760 -0.071840 
#    z -0.101560 -0.071840 4.173230 
# 
# 
# High freq. dielectric constant tensor:
#      x y z
#    x 1.843260 0.007670 -0.013580 
#    y 0.007670 1.834830 -0.011830 
#    z -0.013580 -0.011830 1.873200 
# 
# From -- ./inp_files/138732.got.cif
#   From: 2010.06.25/outbox.cif.g09.slc.cpg/sg2_70_cif.got.tgz:138732.got - 2010.06.27 13:26:56.
