data_PCOD8006624
_publ_section_title
;
Structure prediction by ZEFSAII (Michael W. Deem and Ramdas Pophale) SiO2 
 PCOD8006624
Probable space group: P -1
;
_chemical_formula_sum "Si O2"
_cell_formula_units_Z 16
_cell_length_a 9.343435
_cell_length_b 8.346340
_cell_length_c 14.525249
_cell_angle_alpha 131.984459
_cell_angle_beta 66.099509
_cell_angle_gamma 101.257814
_cell_volume 764.985239
_symmetry_space_group_name_H-M "P -1"
_symmetry_group_IT_number 2
_symmetry_cell_setting 'triclinic'
loop_
_space_group_symop_operation_xyz
x,y,z
-x,-y,-z
loop_
_atom_site_type_symbol
_atom_site_label
_atom_site_fract_x
_atom_site_fract_y
_atom_site_fract_z
Si Si1 0.319933 0.973699 0.534504
Si Si2 0.014122 0.379472 0.273027
Si Si3 0.677514 0.449607 0.747749
Si Si4 0.131714 0.158003 0.501236
Si Si5 0.931741 0.945789 0.223985
Si Si6 0.600316 0.198377 0.033523
Si Si7 0.234114 0.835290 0.212601
Si Si8 0.934225 0.213104 0.046799
O O1 0.295354 0.738750 0.408511
O O2 0.242931 0.012514 0.671321
O O3 0.500000 0.000000 0.500000
O O4 0.241604 0.167262 0.565169
O O5 0.202485 0.370448 0.229801
O O6 0.939648 0.605914 0.423046
O O7 0.970163 0.177315 0.264747
O O8 0.953088 0.396455 0.188450
O O9 0.502213 0.571403 0.832972
O O10 0.716898 0.360534 0.805680
O O11 0.242365 0.060832 0.351324
O O12 0.000000 0.000000 0.500000
O O13 0.052341 0.844415 0.231134
O O14 0.951943 0.772625 0.067233
O O15 0.753995 0.196509 0.057296
O O16 0.645945 0.185155 0.910066
O O17 0.500000 0.000000 0.000000
O O18 0.000000 0.000000 0.000000
#
# Coordination Sequence:
#
# PCOD8006624 Si02
#       8
#     2   2   2   2   2   2   2   2
#     4  11  24  42  60  88 131 159 203 257 307 366
#     4  11  21  39  69  90 122 161 211 257 294 367
#     4  11  22  41  62  93 124 163 199 253 317 359
#     4  11  20  42  63  88 121 163 207 251 298 369
#     4  10  20  40  65  92 118 164 211 249 303 359
#     4  11  23  40  63  92 128 160 201 259 303 364
#     4  10  20  40  62  89 122 160 212 238 303 371
#     4   9  21  40  60  91 122 158 204 252 302 357
#
# _framework density 20.915436
#
# number of rings (size 3 to 8) (size 9 to 14) (size 15 to 20)
#    0.000    1.500    3.750    2.625    1.750    3.000 
#   15.750    2.500    0.000    0.000    0.000    0.000 
#    0.000    0.000    0.000    0.000    0.000    0.000 
#
# Total GULP energy -198265.932770 kJ/mol
# GULP energy per Si atom -12391.620798 kJ/mol
# Density = 2.086783 g / cm^3
# Si number density = 20.915436 Si / 1000 Ang^3
#
#
#
# Elastic Constant Matrix: (Units=GPa)
#
#
# Indices 1 2 3 4 5 6 
#
# 1 136.1821 33.0247 38.2945 -13.5758 -13.5121 -4.0671
# 2 33.0247 49.7197 16.4258 -4.5903 -11.2017 -7.6546
# 3 38.2945 16.4258 89.6491 -12.4786 -19.7170 -3.4134
# 4 -13.5758 -4.5903 -12.4786 36.2183 -2.1188 -8.0197
# 5 -13.5121 -11.2017 -19.7170 -2.1188 37.5000 1.5651
# 6 -4.0671 -7.6546 -3.4134 -8.0197 1.5651 36.4439
#
#
#
# Elastic Compliance Matrix: (Units=1/GPa)
#
#
# Indices 1 2 3 4 5 6 
#
# 1 0.009634 -0.005137 -0.002744 0.002088 0.000605 0.000173
# 2 -0.005137 0.026049 -0.000837 0.002545 0.005419 0.005147
# 3 -0.002744 -0.000837 0.014657 0.004667 0.006664 0.001632
# 4 0.002088 0.002545 0.004667 0.032438 0.005461 0.008108
# 5 0.000605 0.005419 0.006664 0.005461 0.032247 0.001647
# 6 0.000173 0.005147 0.001632 0.008108 0.001647 0.030406
#
#
# Mechanical properties :
#
#
# Convention : Reuss Voigt Hill
#
# Bulk Modulus (GPa) = 30.38931 50.11568 40.25249
# Shear Modulus (GPa) = 28.76306 34.55284 31.65795
#
# Velocity S-wave (km/s) = 3.71240 4.06892 3.89474
# Velocity P-wave (km/s) = 5.73908 6.78881 6.28590
#
# Compressibility (1/GPa) = 0.03290631
#
# Stress axis : x y z
#
# Youngs Moduli (GPa) = 103.80253 38.38869 68.22644
#
# Poissons Ratio (x) = 0.19719 0.18719
# Poissons Ratio (y) = 0.53321 0.05707
# Poissons Ratio (z) = 0.28479 0.03211
#
# Static dielectric constant tensor:
#      x y z
#    x 4.560220 -0.312050 0.724070 
#    y -0.312050 3.655240 -0.149810 
#    z 0.724070 -0.149810 5.516550 
# 
# 
# High freq. dielectric constant tensor:
#      x y z
#    x 1.813880 -0.020060 -0.006340 
#    y -0.020060 1.804820 -0.002110 
#    z -0.006340 -0.002110 1.838700 
# 
# From -- ./inp_files/298943.got.cif
#   From: 2010.06.25/outbox.cif.g09.slc.cpg/sg2_150_cif.got.tgz:298943.got - 2010.06.27 13:26:56.
