data_PCOD8006361
_publ_section_title
;
Structure prediction by ZEFSAII (Michael W. Deem and Ramdas Pophale) SiO2 
 PCOD8006361
Probable space group: P -1
;
_chemical_formula_sum "Si O2"
_cell_formula_units_Z 16
_cell_length_a 7.880536
_cell_length_b 11.359767
_cell_length_c 17.988490
_cell_angle_alpha 126.969341
_cell_angle_beta 46.598760
_cell_angle_gamma 92.483784
_cell_volume 720.455576
_symmetry_space_group_name_H-M "P -1"
_symmetry_group_IT_number 2
_symmetry_cell_setting 'triclinic'
loop_
_space_group_symop_operation_xyz
x,y,z
-x,-y,-z
loop_
_atom_site_type_symbol
_atom_site_label
_atom_site_fract_x
_atom_site_fract_y
_atom_site_fract_z
Si Si1 0.138495 0.014195 0.661561
Si Si2 0.230696 0.024651 0.466877
Si Si3 0.899976 0.708200 0.110091
Si Si4 0.677830 0.944571 0.805773
Si Si5 0.694788 0.686566 0.465971
Si Si6 0.373628 0.822539 0.759359
Si Si7 0.238504 0.273589 0.166512
Si Si8 0.229110 0.779329 0.936854
O O1 0.245760 0.017270 0.548785
O O2 0.430386 0.817871 0.535374
O O3 0.867495 0.004726 0.738994
O O4 0.022921 0.209088 0.813403
O O5 0.540689 0.856038 0.268656
O O6 0.135999 0.224073 0.542283
O O7 0.000000 0.000000 0.500000
O O8 0.000000 0.500000 0.000000
O O9 0.070294 0.694766 0.979765
O O10 0.561694 0.892222 0.752989
O O11 0.865354 0.774315 0.746236
O O12 0.367604 0.115586 0.004637
O O13 0.552044 0.682912 0.583833
O O14 0.953085 0.465156 0.284664
O O15 0.364261 0.707627 0.785684
O O16 0.031251 0.990708 0.898724
O O17 0.501958 0.283794 0.112586
#
# Coordination Sequence:
#
# PCOD8006361 Si02
#       8
#     2   2   2   2   2   2   2   2
#     4  11  23  46  67  90 135 173 212 277 324 384
#     4  11  25  45  68  94 129 172 220 269 329 385
#     4  11  23  43  67  93 128 177 219 266 323 386
#     4  10  21  40  63  95 128 169 213 265 326 388
#     4  11  22  42  63  93 130 173 214 270 322 381
#     4  10  20  39  68  93 128 171 216 263 331 379
#     4  10  22  40  65  93 131 169 213 265 327 385
#     4  10  20  40  64  93 130 170 210 270 315 385
#
# _framework density 22.208169999999999
#
# number of rings (size 3 to 8) (size 9 to 14) (size 15 to 20)
#    0.000    1.500    3.750    2.250    1.750    2.500 
#    6.750    1.250    0.000    0.000    0.000    0.000 
#    0.000    0.000    0.000    0.000    0.000    0.000 
#
# Total GULP energy -198264.530563 kJ/mol
# GULP energy per Si atom -12391.533160 kJ/mol
# Density = 2.215762 g / cm^3
# Si number density = 22.208170 Si / 1000 Ang^3
#
#
#
# Elastic Constant Matrix: (Units=GPa)
#
#
# Indices 1 2 3 4 5 6 
#
# 1 76.0366 23.3851 31.4298 -6.0056 -5.2491 1.5792
# 2 23.3851 118.8016 48.3083 -12.8849 4.6339 3.9402
# 3 31.4298 48.3083 73.9910 7.0680 -1.6056 -3.3564
# 4 -6.0056 -12.8849 7.0680 47.0729 2.0176 -6.1520
# 5 -5.2491 4.6339 -1.6056 2.0176 15.6784 -9.6697
# 6 1.5792 3.9402 -3.3564 -6.1520 -9.6697 33.2019
#
#
#
# Elastic Compliance Matrix: (Units=1/GPa)
#
#
# Indices 1 2 3 4 5 6 
#
# 1 0.016725 -0.000309 -0.007057 0.002965 0.004897 0.000503
# 2 -0.000309 0.013234 -0.009322 0.004811 -0.008020 -0.003942
# 3 -0.007057 -0.009322 0.023579 -0.006685 0.006415 0.004455
# 4 0.002965 0.004811 -0.006685 0.024365 -0.002829 0.002303
# 5 0.004897 -0.008020 0.006415 -0.002829 0.084513 0.025457
# 6 0.000503 -0.003942 0.004455 0.002303 0.025457 0.038854
#
#
# Mechanical properties :
#
#
# Convention : Reuss Voigt Hill
#
# Bulk Modulus (GPa) = 49.59569 52.78619 51.19094
# Shear Modulus (GPa) = 20.71537 30.23771 25.47654
#
# Velocity S-wave (km/s) = 3.05746 3.69393 3.39066
# Velocity P-wave (km/s) = 5.90294 6.48182 6.19914
#
# Compressibility (1/GPa) = 0.02016304
#
# Stress axis : x y z
#
# Youngs Moduli (GPa) = 59.78946 75.56238 42.41072
#
# Poissons Ratio (x) = 0.02333 0.29930
# Poissons Ratio (y) = 0.01846 0.39534
# Poissons Ratio (z) = 0.42194 0.70438
#
# Static dielectric constant tensor:
#      x y z
#    x 3.908370 -0.080780 -0.020010 
#    y -0.080780 4.314160 -0.365740 
#    z -0.020010 -0.365740 3.932020 
# 
# 
# High freq. dielectric constant tensor:
#      x y z
#    x 1.869730 0.007260 -0.005530 
#    y 0.007260 1.879650 -0.028210 
#    z -0.005530 -0.028210 1.864380 
# 
# From -- ./inp_files/589564.got.cif
#   From: 2010.06.25/outbox.cif.g09.slc.cpg/sg2_295_cif.got.tgz:589564.got - 2010.06.27 13:26:56.
