data_PCOD8006366
_publ_section_title
;
Structure prediction by ZEFSAII (Michael W. Deem and Ramdas Pophale) SiO2 
 PCOD8006366
Probable space group: P -1
;
_chemical_formula_sum "Si O2"
_cell_formula_units_Z 14
_cell_length_a 7.751785
_cell_length_b 9.974588
_cell_length_c 14.193557
_cell_angle_alpha 132.809099
_cell_angle_beta 129.748473
_cell_angle_gamma 80.354174
_cell_volume 545.298970
_symmetry_space_group_name_H-M "P -1"
_symmetry_group_IT_number 2
_symmetry_cell_setting 'triclinic'
loop_
_space_group_symop_operation_xyz
x,y,z
-x,-y,-z
loop_
_atom_site_type_symbol
_atom_site_label
_atom_site_fract_x
_atom_site_fract_y
_atom_site_fract_z
Si Si1 0.043462 0.804704 0.839721
Si Si2 0.706446 0.560273 0.989317
Si Si3 0.212299 0.183370 0.551991
Si Si4 0.174013 0.241999 0.061715
Si Si5 0.434815 0.353500 0.521911
Si Si6 0.276232 0.878056 0.556735
Si Si7 0.623294 0.268942 0.969588
O O1 0.040440 0.823809 0.964001
O O2 0.758421 0.653125 0.631372
O O3 0.242084 0.712410 0.870738
O O4 0.180988 0.026691 0.941736
O O5 0.446271 0.371013 0.772904
O O6 0.891329 0.675545 0.019793
O O7 0.815355 0.460987 0.058686
O O8 0.636610 0.720804 0.094773
O O9 0.257206 0.185366 0.456560
O O10 0.962201 0.210095 0.496889
O O11 0.191971 0.967195 0.479291
O O12 0.441449 0.417571 0.280439
O O13 0.654272 0.301053 0.536967
O O14 0.528102 0.049827 0.778541
#
# Coordination Sequence:
#
# PCOD8006366 Si02
#       7
#     2   2   2   2   2   2   2
#     4  11  24  42  64  97 134 172 216 264 337 391
#     4   9  21  43  65  93 131 164 223 275 321 389
#     4   9  21  40  64 100 127 171 222 267 334 385
#     4  10  23  43  64  94 130 171 218 268 325 392
#     4  11  23  43  66  95 134 174 218 272 325 396
#     4  10  20  39  68  94 133 171 216 277 325 385
#     4  10  22  41  65  96 129 170 216 274 327 390
#
# _framework density 25.67399
#
# number of rings (size 3 to 8) (size 9 to 14) (size 15 to 20)
#    0.000    2.000    0.000    2.571    4.000    1.143 
#    2.571    2.857    0.000    0.000    0.000    1.000 
#    0.000    0.000    0.000    0.000    0.000    0.000 
#
# Total GULP energy -173482.172528 kJ/mol
# GULP energy per Si atom -12391.583752 kJ/mol
# Density = 2.561556 g / cm^3
# Si number density = 25.673990 Si / 1000 Ang^3
#
#
#
# Elastic Constant Matrix: (Units=GPa)
#
#
# Indices 1 2 3 4 5 6 
#
# 1 81.8213 9.2185 -1.1847 -5.8909 6.8792 8.9425
# 2 9.2185 88.0226 31.0028 1.0390 6.6194 1.6561
# 3 -1.1847 31.0028 64.4152 -8.1992 10.0464 -17.5614
# 4 -5.8909 1.0390 -8.1992 38.7162 -0.9285 2.7763
# 5 6.8792 6.6194 10.0464 -0.9285 29.9816 -3.4785
# 6 8.9425 1.6561 -17.5614 2.7763 -3.4785 34.3992
#
#
#
# Elastic Compliance Matrix: (Units=1/GPa)
#
#
# Indices 1 2 3 4 5 6 
#
# 1 0.013221 -0.001367 0.000766 0.002382 -0.003322 -0.003508
# 2 -0.001367 0.014655 -0.008489 -0.002086 -0.000674 -0.004584
# 3 0.000766 -0.008489 0.024144 0.004503 -0.004898 0.011677
# 4 0.002382 -0.002086 0.004503 0.027217 -0.000810 -0.000499
# 5 -0.003322 -0.000674 -0.004898 -0.000810 0.036126 0.002114
# 6 -0.003508 -0.004584 0.011677 -0.000499 0.002114 0.036419
#
#
# Mechanical properties :
#
#
# Convention : Reuss Voigt Hill
#
# Bulk Modulus (GPa) = 29.54953 34.70359 32.12656
# Shear Modulus (GPa) = 27.58732 33.63423 30.61077
#
# Velocity S-wave (km/s) = 3.28155 3.62339 3.45670
# Velocity P-wave (km/s) = 5.08848 5.57240 5.33593
#
# Compressibility (1/GPa) = 0.03384149
#
# Stress axis : x y z
#
# Youngs Moduli (GPa) = 75.63687 68.23494 41.41731
#
# Poissons Ratio (x) = 0.09325 -0.03171
# Poissons Ratio (y) = 0.10337 0.35158
# Poissons Ratio (z) = -0.05792 0.57923
#
# Static dielectric constant tensor:
#      x y z
#    x 4.464760 0.338740 -0.169920 
#    y 0.338740 5.213350 -0.203920 
#    z -0.169920 -0.203920 4.311680 
# 
# 
# High freq. dielectric constant tensor:
#      x y z
#    x 2.004400 0.011440 0.000400 
#    y 0.011440 2.037000 -0.000120 
#    z 0.000400 -0.000120 2.021540 
# 
# From -- ./inp_files/495660.got.cif
#   From: 2010.06.25/outbox.cif.g09.slc.cpg/sg2_248_cif.got.tgz:495660.got - 2010.06.27 13:26:56.
