data_PCOD8006522
_publ_section_title
;
Structure prediction by ZEFSAII (Michael W. Deem and Ramdas Pophale) SiO2 
 PCOD8006522
Probable space group: P -1
;
_chemical_formula_sum "Si O2"
_cell_formula_units_Z 10
_cell_length_a 9.066903
_cell_length_b 10.587670
_cell_length_c 8.657832
_cell_angle_alpha 53.511350
_cell_angle_beta 59.475393
_cell_angle_gamma 102.167228
_cell_volume 386.868202
_symmetry_space_group_name_H-M "P -1"
_symmetry_group_IT_number 2
_symmetry_cell_setting 'triclinic'
loop_
_space_group_symop_operation_xyz
x,y,z
-x,-y,-z
loop_
_atom_site_type_symbol
_atom_site_label
_atom_site_fract_x
_atom_site_fract_y
_atom_site_fract_z
Si Si1 0.303817 0.723828 0.988687
Si Si2 0.804397 0.858879 0.841703
Si Si3 0.242529 0.000228 0.658429
Si Si4 0.914399 0.232250 0.674868
Si Si5 0.358452 0.374937 0.503650
O O1 0.095120 0.442606 0.300214
O O2 0.286021 0.785037 0.126451
O O3 0.588511 0.857723 0.693783
O O4 0.238499 0.813582 0.833185
O O5 0.539464 0.596588 0.126722
O O6 0.000000 0.000000 0.500000
O O7 0.950778 0.855800 0.897866
O O8 0.750934 0.993907 0.842771
O O9 0.363738 0.193557 0.588347
O O10 0.079362 0.261504 0.705524
O O11 0.500000 0.500000 0.500000
#
# Coordination Sequence:
#
# PCOD8006522 Si02
#       5
#     2   2   2   2   2
#     4  10  20  40  60  82 120 154 180 238 296 328
#     4  11  22  39  62  86 112 153 196 233 280 340
#     4  10  22  40  60  84 118 150 190 238 282 338
#     4  10  22  40  60  84 118 150 190 238 282 338
#     4  11  22  39  62  86 112 153 196 233 280 340
#
# _framework density 25.848596000000001
#
# number of rings (size 3 to 8) (size 9 to 14) (size 15 to 20)
#    0.000    1.600    0.000    4.800    0.000    6.400 
#    0.000   40.000    0.000    0.000    0.000    0.000 
#    0.000    0.000    0.000    0.000    0.000    0.000 
#
# Total GULP energy -123944.481896 kJ/mol
# GULP energy per Si atom -12394.448190 kJ/mol
# Density = 2.578976 g / cm^3
# Si number density = 25.848596 Si / 1000 Ang^3
#
#
#
# Elastic Constant Matrix: (Units=GPa)
#
#
# Indices 1 2 3 4 5 6 
#
# 1 48.3965 27.2504 13.0108 -14.4789 -5.0851 -12.5534
# 2 27.2504 90.6468 11.3897 -4.4517 -16.8904 -4.2800
# 3 13.0108 11.3897 75.9987 -4.6069 -6.5096 -1.5375
# 4 -14.4789 -4.4517 -4.6069 37.7129 -6.9088 4.8002
# 5 -5.0851 -16.8904 -6.5096 -6.9088 45.2514 2.5440
# 6 -12.5534 -4.2800 -1.5375 4.8002 2.5440 31.0302
#
#
#
# Elastic Compliance Matrix: (Units=1/GPa)
#
#
# Indices 1 2 3 4 5 6 
#
# 1 0.031636 -0.007951 -0.003346 0.009721 0.001031 0.009948
# 2 -0.007951 0.014196 -0.000451 -0.000433 0.004363 -0.001572
# 3 -0.003346 -0.000451 0.013967 0.000794 0.001641 -0.000981
# 4 0.009721 -0.000433 0.000794 0.031569 0.005947 -0.001459
# 5 0.001031 0.004363 0.001641 0.005947 0.025093 -0.001877
# 6 0.009948 -0.001572 -0.000981 -0.001459 -0.001877 0.036365
#
#
# Mechanical properties :
#
#
# Convention : Reuss Voigt Hill
#
# Bulk Modulus (GPa) = 27.54437 35.37154 31.45795
# Shear Modulus (GPa) = 26.53612 33.69163 30.11388
#
# Velocity S-wave (km/s) = 3.20753 3.61421 3.41693
# Velocity P-wave (km/s) = 4.93932 5.57947 5.26913
#
# Compressibility (1/GPa) = 0.03630507
#
# Stress axis : x y z
#
# Youngs Moduli (GPa) = 31.60979 70.44177 71.59571
#
# Poissons Ratio (x) = 0.56007 0.23953
# Poissons Ratio (y) = 0.25132 0.03227
# Poissons Ratio (z) = 0.10575 0.03175
#
# Static dielectric constant tensor:
#      x y z
#    x 5.088060 -0.126470 -0.053000 
#    y -0.126470 4.588450 -0.136720 
#    z -0.053000 -0.136720 5.488650 
# 
# 
# High freq. dielectric constant tensor:
#      x y z
#    x 2.027730 -0.019230 0.012570 
#    y -0.019230 2.013950 0.006190 
#    z 0.012570 0.006190 2.071940 
# 
# From -- ./inp_files/715.got.cif
#   From: 2010.06.25/outbox.cif.g09.slc.cpg/sg2_1_cif.got.tgz:715.got - 2010.06.27 13:26:56.
