data_PCOD8006968
_publ_section_title
;
Structure prediction by ZEFSAII (Michael W. Deem and Ramdas Pophale) SiO2 
 PCOD8006968
Probable space group: P -1
;
_chemical_formula_sum "Si O2"
_cell_formula_units_Z 16
_cell_length_a 14.299530
_cell_length_b 24.019993
_cell_length_c 9.358402
_cell_angle_alpha 55.521129
_cell_angle_beta 63.843741
_cell_angle_gamma 19.819201
_cell_volume 848.610216
_symmetry_space_group_name_H-M "P -1"
_symmetry_group_IT_number 2
_symmetry_cell_setting 'triclinic'
loop_
_space_group_symop_operation_xyz
x,y,z
-x,-y,-z
loop_
_atom_site_type_symbol
_atom_site_label
_atom_site_fract_x
_atom_site_fract_y
_atom_site_fract_z
Si Si1 0.485530 0.200155 0.795586
Si Si2 0.742463 0.168865 0.535029
Si Si3 0.611771 0.875284 0.712220
Si Si4 0.933406 0.867830 0.174468
Si Si5 0.737433 0.809855 0.047277
Si Si6 0.835968 0.492885 0.298301
Si Si7 0.790408 0.177738 0.802861
Si Si8 0.816104 0.420252 0.696162
O O1 0.556320 0.211628 0.607455
O O2 0.332368 0.224889 0.809692
O O3 0.258360 0.372593 0.807650
O O4 0.797107 0.996022 0.955181
O O5 0.874251 0.113271 0.676508
O O6 0.525285 0.361119 0.356128
O O7 0.000000 0.000000 0.500000
O O8 0.887209 0.671345 0.752689
O O9 0.500000 0.000000 0.500000
O O10 0.336754 0.992998 0.748253
O O11 0.726746 0.830669 0.854421
O O12 0.147878 0.782390 0.251857
O O13 0.117420 0.696453 0.226596
O O14 0.039470 0.648068 0.150654
O O15 0.500000 0.000000 0.000000
O O16 0.555681 0.624867 0.224406
O O17 0.922862 0.403193 0.518464
O O18 0.000000 0.000000 0.000000
#
# Coordination Sequence:
#
# PCOD8006968 Si02
#       8
#     2   2   2   2   2   2   2   2
#     4   9  20  38  63  82 119 161 191 240 303 354
#     4  10  23  42  58  89 126 149 203 252 287 356
#     4  11  22  39  60  94 125 146 205 261 284 353
#     4  11  19  39  66  85 120 162 201 241 305 353
#     4  11  20  37  62  85 121 162 191 234 312 358
#     4  10  21  39  60  90 123 151 203 256 290 349
#     4  10  20  40  66  83 119 166 197 242 306 354
#     4  10  21  40  60  84 125 158 192 243 305 353
#
# _framework density 18.854358000000001
#
# number of rings (size 3 to 8) (size 9 to 14) (size 15 to 20)
#    0.000    2.000    6.250    0.000    0.000    7.000 
#    6.750    0.625    0.000    0.000    0.000    0.000 
#    0.000    0.000    0.000    0.000    0.000    0.000 
#
# Total GULP energy -198260.203372 kJ/mol
# GULP energy per Si atom -12391.262711 kJ/mol
# Density = 1.881144 g / cm^3
# Si number density = 18.854358 Si / 1000 Ang^3
#
#
#
# Elastic Constant Matrix: (Units=GPa)
#
#
# Indices 1 2 3 4 5 6 
#
# 1 150.2542 55.6130 43.9494 -8.3736 4.2852 13.7378
# 2 55.6130 167.1960 37.9307 -14.0489 -4.2069 18.5750
# 3 43.9494 37.9307 100.2040 -16.5624 9.8222 9.5996
# 4 -8.3736 -14.0489 -16.5624 26.6768 3.7955 -3.9216
# 5 4.2852 -4.2069 9.8222 3.7955 32.0715 -6.9997
# 6 13.7378 18.5750 9.5996 -3.9216 -6.9997 30.6475
#
#
#
# Elastic Compliance Matrix: (Units=1/GPa)
#
#
# Indices 1 2 3 4 5 6 
#
# 1 0.008372 -0.002006 -0.002670 -0.000237 -0.000961 -0.001950
# 2 -0.002006 0.007462 -0.001461 0.001867 0.000878 -0.002726
# 3 -0.002670 -0.001461 0.013683 0.007292 -0.005436 -0.002512
# 4 -0.000237 0.001867 0.007292 0.044025 -0.007009 0.000723
# 5 -0.000961 0.000878 -0.005436 -0.007009 0.035860 0.008895
# 6 -0.001950 -0.002726 -0.002512 0.000723 0.008895 0.038066
#
#
# Mechanical properties :
#
#
# Convention : Reuss Voigt Hill
#
# Bulk Modulus (GPa) = 58.00193 76.96005 67.48099
# Shear Modulus (GPa) = 30.21355 36.55658 33.38506
#
# Velocity S-wave (km/s) = 4.00743 4.40806 4.21251
# Velocity P-wave (km/s) = 7.22790 8.17403 7.71548
#
# Compressibility (1/GPa) = 0.01724081
#
# Stress axis : x y z
#
# Youngs Moduli (GPa) = 119.45223 134.02039 73.08554
#
# Poissons Ratio (x) = 0.26887 0.19517
# Poissons Ratio (y) = 0.23964 0.10677
# Poissons Ratio (z) = 0.31898 0.19579
#
# Static dielectric constant tensor:
#      x y z
#    x 3.450670 0.094540 -0.118690 
#    y 0.094540 3.448350 -0.270020 
#    z -0.118690 -0.270020 3.516740 
# 
# 
# High freq. dielectric constant tensor:
#      x y z
#    x 1.729340 0.013520 -0.000490 
#    y 0.013520 1.725620 -0.023270 
#    z -0.000490 -0.023270 1.737930 
# 
# From -- ./inp_files/320292.got.cif
#   From: 2010.06.25/outbox.cif.g09.slc.cpg/sg2_161_cif.got.tgz:320292.got - 2010.06.27 13:26:56.
