data_PCOD8006502
_publ_section_title
;
Structure prediction by ZEFSAII (Michael W. Deem and Ramdas Pophale) SiO2 
 PCOD8006502
Probable space group: P -1
;
_chemical_formula_sum "Si O2"
_cell_formula_units_Z 14
_cell_length_a 14.871231
_cell_length_b 14.737722
_cell_length_c 11.824300
_cell_angle_alpha 138.561321
_cell_angle_beta 152.042815
_cell_angle_gamma 38.107217
_cell_volume 736.285664
_symmetry_space_group_name_H-M "P -1"
_symmetry_group_IT_number 2
_symmetry_cell_setting 'triclinic'
loop_
_space_group_symop_operation_xyz
x,y,z
-x,-y,-z
loop_
_atom_site_type_symbol
_atom_site_label
_atom_site_fract_x
_atom_site_fract_y
_atom_site_fract_z
Si Si1 0.305639 0.636440 0.056526
Si Si2 0.877865 0.645723 0.929124
Si Si3 0.390946 0.995412 0.187686
Si Si4 0.544522 0.674885 0.160489
Si Si5 0.147876 0.296312 0.305370
Si Si6 0.002652 0.907230 0.307798
Si Si7 0.421422 0.811165 0.541190
O O1 0.409300 0.454296 0.003517
O O2 0.061007 0.697316 0.862930
O O3 0.340215 0.692038 0.022430
O O4 0.412111 0.703259 0.329471
O O5 0.898362 0.624627 0.795635
O O6 0.632404 0.713194 0.754080
O O7 0.984718 0.756601 0.187720
O O8 0.000000 0.500000 0.000000
O O9 0.299999 0.119964 0.301244
O O10 0.553037 0.040792 0.337775
O O11 0.516541 0.829642 0.216829
O O12 0.194247 0.996148 0.898195
O O13 0.743461 0.622744 0.418100
O O14 0.219615 0.865391 0.444978
O O15 0.000000 0.000000 0.500000
#
# Coordination Sequence:
#
# PCOD8006502 Si02
#       7
#     2   2   2   2   2   2   2
#     4  11  21  38  62  82 125 156 192 239 301 343
#     4  10  22  39  62  88 114 153 201 243 295 353
#     4  10  22  38  62  89 118 153 204 238 293 354
#     4  11  23  37  58  93 119 155 196 245 284 354
#     4  10  20  40  59  83 124 155 194 242 295 349
#     4  10  22  43  60  87 119 152 201 247 290 353
#     4  10  20  42  63  82 122 159 187 250 301 343
#
# _framework density 19.014358999999999
#
# number of rings (size 3 to 8) (size 9 to 14) (size 15 to 20)
#    0.000    2.000    5.714    0.857    0.000    5.714 
#    5.143    0.000    0.000    0.000    0.000    0.000 
#    0.000    0.000    0.000    0.000    0.000    0.000 
#
# Total GULP energy -173548.459248 kJ/mol
# GULP energy per Si atom -12396.318518 kJ/mol
# Density = 1.897108 g / cm^3
# Si number density = 19.014359 Si / 1000 Ang^3
#
#
#
# Elastic Constant Matrix: (Units=GPa)
#
#
# Indices 1 2 3 4 5 6 
#
# 1 69.5834 49.1092 70.5395 5.9698 5.3009 -12.6507
# 2 49.1092 118.9238 52.5711 11.8683 -3.8951 20.4560
# 3 70.5395 52.5711 122.8299 3.0146 13.0529 -3.5599
# 4 5.9698 11.8683 3.0146 21.0611 -6.9962 -0.0328
# 5 5.3009 -3.8951 13.0529 -6.9962 29.6788 -2.5817
# 6 -12.6507 20.4560 -3.5599 -0.0328 -2.5817 31.2769
#
#
#
# Elastic Compliance Matrix: (Units=1/GPa)
#
#
# Indices 1 2 3 4 5 6 
#
# 1 0.059452 -0.019056 -0.024975 -0.002411 0.000226 0.033683
# 2 -0.019056 0.019454 0.001935 -0.005156 0.002147 -0.020039
# 3 -0.024975 0.001935 0.021947 0.001002 -0.005513 -0.009323
# 4 -0.002411 -0.005156 0.001002 0.055125 0.012622 0.003611
# 5 0.000226 0.002147 -0.005513 0.012622 0.039451 0.001329
# 6 0.033683 -0.020039 -0.009323 0.003611 0.001329 0.057755
#
#
# Mechanical properties :
#
#
# Convention : Reuss Voigt Hill
#
# Bulk Modulus (GPa) = 60.02126 72.86409 66.44268
# Shear Modulus (GPa) = 14.58019 25.67783 20.12901
#
# Velocity S-wave (km/s) = 2.77212 3.67883 3.25718
# Velocity P-wave (km/s) = 6.47155 7.51324 7.01177
#
# Compressibility (1/GPa) = 0.01666076
#
# Stress axis : x y z
#
# Youngs Moduli (GPa) = 16.82035 51.40206 45.56379
#
# Poissons Ratio (x) = 0.97951 1.13796
# Poissons Ratio (y) = 0.32053 -0.08815
# Poissons Ratio (z) = 0.42009 -0.09944
#
# Static dielectric constant tensor:
#      x y z
#    x 6.105260 -0.649130 0.982810 
#    y -0.649130 3.386870 -0.085150 
#    z 0.982810 -0.085150 4.030650 
# 
# 
# High freq. dielectric constant tensor:
#      x y z
#    x 1.734090 -0.010330 0.015150 
#    y -0.010330 1.720310 0.008850 
#    z 0.015150 0.008850 1.759690 
# 
# From -- ./inp_files/178604.got.cif
#   From: 2010.06.25/outbox.cif.g09.slc.cpg/sg2_90_cif.got.tgz:178604.got - 2010.06.27 13:26:56.
