data_PCOD8006260
_publ_section_title
;
Structure prediction by ZEFSAII (Michael W. Deem and Ramdas Pophale) SiO2 
 PCOD8006260
Probable space group: P -1
;
_chemical_formula_sum "Si O2"
_cell_formula_units_Z 16
_cell_length_a 9.633227
_cell_length_b 24.313833
_cell_length_c 9.431605
_cell_angle_alpha 49.843175
_cell_angle_beta 50.565196
_cell_angle_gamma 25.733037
_cell_volume 723.178005
_symmetry_space_group_name_H-M "P -1"
_symmetry_group_IT_number 2
_symmetry_cell_setting 'triclinic'
loop_
_space_group_symop_operation_xyz
x,y,z
-x,-y,-z
loop_
_atom_site_type_symbol
_atom_site_label
_atom_site_fract_x
_atom_site_fract_y
_atom_site_fract_z
Si Si1 0.966410 0.301559 0.300166
Si Si2 0.255987 0.351561 0.099807
Si Si3 0.246164 0.852632 0.109774
Si Si4 0.258297 0.093482 0.626277
Si Si5 0.580462 0.264067 0.330232
Si Si6 0.766502 0.870459 0.861616
Si Si7 0.627753 0.517343 0.777182
Si Si8 0.654408 0.765266 0.245390
O O1 0.581717 0.418940 0.337210
O O2 0.039269 0.359880 0.168053
O O3 0.104190 0.223620 0.488547
O O4 0.126869 0.213718 0.200977
O O5 0.385013 0.303624 0.254647
O O6 0.588823 0.239044 0.981615
O O7 0.000000 0.500000 0.000000
O O8 0.528135 0.782830 0.146326
O O9 0.032411 0.862029 0.299249
O O10 0.000000 0.000000 0.000000
O O11 0.500000 0.000000 0.500000
O O12 0.435881 0.023568 0.778860
O O13 0.391760 0.395522 0.295679
O O14 0.574636 0.195446 0.551629
O O15 0.952658 0.165374 0.220665
O O16 0.674994 0.846729 0.091609
O O17 0.989001 0.383671 0.715554
O O18 0.500000 0.500000 0.000000
#
# Coordination Sequence:
#
# PCOD8006260 Si02
#       8
#     2   2   2   2   2   2   2   2
#     4  10  20  40  65  94 133 185 229 285 342 419
#     4  12  26  45  67 105 150 181 226 303 364 407
#     4  12  22  43  74 103 132 191 241 278 346 432
#     4  10  20  39  67 101 130 171 243 295 327 403
#     4  11  25  40  63 102 141 178 231 294 359 410
#     4  10  20  42  69  95 135 182 232 288 338 422
#     4  11  19  38  66  94 133 185 235 283 342 426
#     4  12  21  39  71  99 131 182 240 276 346 425
#
# _framework density 22.124566000000002
#
# number of rings (size 3 to 8) (size 9 to 14) (size 15 to 20)
#    0.000    1.000    5.000    4.875    0.000    1.000 
#    2.250    4.375    0.000    0.000    0.000    0.000 
#    0.000    0.000    0.000    0.000    0.000    0.000 
#
# Total GULP energy -198223.902564 kJ/mol
# GULP energy per Si atom -12388.993910 kJ/mol
# Density = 2.207421 g / cm^3
# Si number density = 22.124566 Si / 1000 Ang^3
#
#
#
# Elastic Constant Matrix: (Units=GPa)
#
#
# Indices 1 2 3 4 5 6 
#
# 1 91.6488 32.2239 25.9002 7.4068 6.5535 -22.0115
# 2 32.2239 112.6283 43.3302 -15.5669 -0.7721 -22.8839
# 3 25.9002 43.3302 134.0769 -8.0474 -14.6351 -6.9625
# 4 7.4068 -15.5669 -8.0474 35.2602 -13.6217 0.6687
# 5 6.5535 -0.7721 -14.6351 -13.6217 31.3386 -3.0738
# 6 -22.0115 -22.8839 -6.9625 0.6687 -3.0738 32.6004
#
#
#
# Elastic Compliance Matrix: (Units=1/GPa)
#
#
# Indices 1 2 3 4 5 6 
#
# 1 0.015881 -0.003123 -0.003048 -0.008574 -0.007831 0.007317
# 2 -0.003123 0.013103 -0.002460 0.007139 0.003593 0.006756
# 3 -0.003048 -0.002460 0.009823 0.004531 0.007024 -0.001117
# 4 -0.008574 0.007139 0.004531 0.043209 0.023011 0.001473
# 5 -0.007831 0.003593 0.007024 0.023011 0.047184 0.002712
# 6 0.007317 0.006756 -0.001117 0.001473 0.002712 0.040344
#
#
# Mechanical properties :
#
#
# Convention : Reuss Voigt Hill
#
# Bulk Modulus (GPa) = 46.41472 60.14030 53.27751
# Shear Modulus (GPa) = 25.77506 35.63312 30.70409
#
# Velocity S-wave (km/s) = 3.41691 4.01754 3.72934
# Velocity P-wave (km/s) = 6.04908 6.98301 6.53276
#
# Compressibility (1/GPa) = 0.02154489
#
# Stress axis : x y z
#
# Youngs Moduli (GPa) = 62.96873 76.32063 101.80575
#
# Poissons Ratio (x) = 0.23837 0.31029
# Poissons Ratio (y) = 0.19667 0.25040
# Poissons Ratio (z) = 0.19192 0.18772
#
# Static dielectric constant tensor:
#      x y z
#    x 3.966240 -0.556200 -0.076510 
#    y -0.556200 4.301300 -0.463310 
#    z -0.076510 -0.463310 4.464310 
# 
# 
# High freq. dielectric constant tensor:
#      x y z
#    x 1.866280 -0.030810 -0.017310 
#    y -0.030810 1.867810 -0.018200 
#    z -0.017310 -0.018200 1.875340 
# 
# From -- ./inp_files/226089.got.cif
#   From: 2010.06.25/outbox.cif.g09.slc.cpg/sg2_114_cif.got.tgz:226089.got - 2010.06.27 13:26:56.
