data_PCOD8006898
_publ_section_title
;
Structure prediction by ZEFSAII (Michael W. Deem and Ramdas Pophale) SiO2 
 PCOD8006898
Probable space group: P -1
;
_chemical_formula_sum "Si O2"
_cell_formula_units_Z 16
_cell_length_a 15.966310
_cell_length_b 12.279715
_cell_length_c 13.001905
_cell_angle_alpha 135.658139
_cell_angle_beta 154.109007
_cell_angle_gamma 53.802145
_cell_volume 766.263993
_symmetry_space_group_name_H-M "P -1"
_symmetry_group_IT_number 2
_symmetry_cell_setting 'triclinic'
loop_
_space_group_symop_operation_xyz
x,y,z
-x,-y,-z
loop_
_atom_site_type_symbol
_atom_site_label
_atom_site_fract_x
_atom_site_fract_y
_atom_site_fract_z
Si Si1 0.389480 0.959309 0.502109
Si Si2 0.704076 0.409437 0.566701
Si Si3 0.482362 0.579533 0.840731
Si Si4 0.724187 0.196966 0.101471
Si Si5 0.851630 0.789576 0.337773
Si Si6 0.523991 0.244532 0.718806
Si Si7 0.903328 0.665928 0.087265
Si Si8 0.189931 0.882658 0.428520
O O1 0.413826 0.805852 0.359132
O O2 0.205300 0.908620 0.339562
O O3 0.358630 0.103966 0.488728
O O4 0.581519 0.024533 0.828790
O O5 0.549417 0.430224 0.323467
O O6 0.658402 0.232696 0.446690
O O7 0.920585 0.434042 0.769735
O O8 0.710805 0.546974 0.754234
O O9 0.343085 0.686211 0.810376
O O10 0.439733 0.406309 0.727271
O O11 0.710031 0.655865 0.156027
O O12 0.942245 0.177764 0.354740
O O13 0.708735 0.269455 0.018387
O O14 0.861944 0.745251 0.200951
O O15 0.758329 0.948737 0.344066
O O16 0.971638 0.800882 0.166627
#
# Coordination Sequence:
#
# PCOD8006898 Si02
#       8
#     2   2   2   2   2   2   2   2
#     4   9  20  44  64  89 126 164 210 263 311 363
#     4   9  22  41  60  93 127 166 204 263 306 371
#     4  12  23  40  68  93 126 172 208 253 323 371
#     4  10  21  43  61  92 133 155 214 265 298 374
#     4  12  23  38  65  97 126 171 209 247 326 379
#     4   9  22  41  67  91 124 168 213 260 313 371
#     4   9  21  41  58  92 130 156 210 256 308 373
#     4  10  20  40  65  90 130 160 209 259 310 379
#
# _framework density 20.880531999999999
#
# number of rings (size 3 to 8) (size 9 to 14) (size 15 to 20)
#    1.500    0.500    2.500    0.750    1.750    2.500 
#    4.500    0.625    0.000    0.000    0.000    0.000 
#    0.000    0.000    0.000    0.000    0.000    0.000 
#
# Total GULP energy -198235.560869 kJ/mol
# GULP energy per Si atom -12389.722554 kJ/mol
# Density = 2.083301 g / cm^3
# Si number density = 20.880532 Si / 1000 Ang^3
#
#
#
# Elastic Constant Matrix: (Units=GPa)
#
#
# Indices 1 2 3 4 5 6 
#
# 1 85.3847 34.8149 23.3604 5.2708 -21.4385 2.5200
# 2 34.8149 89.5327 33.8534 12.2513 -11.0045 14.1406
# 3 23.3604 33.8534 77.6554 1.9710 -19.6715 -2.5069
# 4 5.2708 12.2513 1.9710 20.8927 -2.2143 -3.3357
# 5 -21.4385 -11.0045 -19.6715 -2.2143 38.4128 9.4039
# 6 2.5200 14.1406 -2.5069 -3.3357 9.4039 20.1725
#
#
#
# Elastic Compliance Matrix: (Units=1/GPa)
#
#
# Indices 1 2 3 4 5 6 
#
# 1 0.015802 -0.004184 -0.001033 -0.001087 0.007754 -0.002964
# 2 -0.004184 0.020684 -0.007067 -0.013001 0.003821 -0.018785
# 3 -0.001033 -0.007067 0.017698 0.004177 0.005363 0.005473
# 4 -0.001087 -0.013001 0.004177 0.058339 -0.004043 0.021300
# 5 0.007754 0.003821 0.005363 -0.004043 0.039353 -0.021995
# 6 -0.002964 -0.018785 0.005473 0.021300 -0.021995 0.077566
#
#
# Mechanical properties :
#
#
# Convention : Reuss Voigt Hill
#
# Bulk Modulus (GPa) = 33.76602 48.51445 41.14024
# Shear Modulus (GPa) = 18.94782 26.59855 22.77318
#
# Velocity S-wave (km/s) = 3.01564 3.57297 3.30607
# Velocity P-wave (km/s) = 5.32275 6.34872 5.85823
#
# Compressibility (1/GPa) = 0.02961557
#
# Stress axis : x y z
#
# Youngs Moduli (GPa) = 63.28336 48.34769 56.50280
#
# Poissons Ratio (x) = 0.20228 0.05839
# Poissons Ratio (y) = 0.26477 0.39930
# Poissons Ratio (z) = 0.06540 0.34166
#
# Static dielectric constant tensor:
#      x y z
#    x 3.644520 -0.011340 -0.151320 
#    y -0.011340 3.573170 0.262850 
#    z -0.151320 0.262850 3.578700 
# 
# 
# High freq. dielectric constant tensor:
#      x y z
#    x 1.819020 -0.005610 -0.017950 
#    y -0.005610 1.803630 0.025780 
#    z -0.017950 0.025780 1.796120 
# 
# From -- ./inp_files/451882.got.cif
#   From: 2010.06.25/outbox.cif.g09.slc.cpg/sg2_226_cif.got.tgz:451882.got - 2010.06.27 13:26:56.
