data_PCOD8006660
_publ_section_title
;
Structure prediction by ZEFSAII (Michael W. Deem and Ramdas Pophale) SiO2 
 PCOD8006660
Probable space group: P -1
;
_chemical_formula_sum "Si O2"
_cell_formula_units_Z 14
_cell_length_a 6.696115
_cell_length_b 9.060969
_cell_length_c 14.259780
_cell_angle_alpha 110.490271
_cell_angle_beta 127.553151
_cell_angle_gamma 53.458999
_cell_volume 550.969868
_symmetry_space_group_name_H-M "P -1"
_symmetry_group_IT_number 2
_symmetry_cell_setting 'triclinic'
loop_
_space_group_symop_operation_xyz
x,y,z
-x,-y,-z
loop_
_atom_site_type_symbol
_atom_site_label
_atom_site_fract_x
_atom_site_fract_y
_atom_site_fract_z
Si Si1 0.098007 0.396337 0.811232
Si Si2 0.748562 0.784956 0.822302
Si Si3 0.414219 0.698485 0.197874
Si Si4 0.596635 0.645550 0.930934
Si Si5 0.500523 0.426627 0.607251
Si Si6 0.207404 0.007660 0.959175
Si Si7 0.690591 0.187859 0.436898
O O1 0.384687 0.256677 0.801460
O O2 0.024851 0.604800 0.815381
O O3 0.838557 0.369112 0.698032
O O4 0.150710 0.358469 0.930164
O O5 0.630133 0.699089 0.847703
O O6 0.830076 0.925856 0.927028
O O7 0.492569 0.879939 0.692487
O O8 0.374497 0.548895 0.097851
O O9 0.587883 0.619500 0.328318
O O10 0.090280 0.874401 0.159228
O O11 0.282325 0.798823 0.921374
O O12 0.503847 0.285436 0.499793
O O13 0.288720 0.644296 0.570081
O O14 0.500000 0.000000 0.000000
O O15 0.000000 0.000000 0.500000
#
# Coordination Sequence:
#
# PCOD8006660 Si02
#       7
#     2   2   2   2   2   2   2
#     4  11  22  39  66  92 128 164 201 251 314 376
#     4  10  20  40  62  93 123 164 206 257 307 366
#     4  12  23  41  64  94 130 162 202 251 312 376
#     4  11  21  38  62  89 131 161 195 253 310 366
#     4  10  23  43  63  91 123 163 208 260 305 357
#     4  10  23  34  62  96 122 163 202 243 311 378
#     4  10  22  39  68  90 116 166 218 252 305 363
#
# _framework density 25.409738000000001
#
# number of rings (size 3 to 8) (size 9 to 14) (size 15 to 20)
#    0.000    1.429    4.286    2.571    6.000    0.571 
#    0.000    6.429    0.000    4.286    0.000    0.000 
#    0.000    0.000    0.000    0.000    0.000    0.000 
#
# Total GULP energy -173473.273302 kJ/mol
# GULP energy per Si atom -12390.948093 kJ/mol
# Density = 2.535190 g / cm^3
# Si number density = 25.409738 Si / 1000 Ang^3
#
#
#
# Elastic Constant Matrix: (Units=GPa)
#
#
# Indices 1 2 3 4 5 6 
#
# 1 46.0935 -11.2112 12.5653 2.5614 -6.7711 -16.2045
# 2 -11.2112 131.0296 34.5167 -17.9835 13.8301 -15.4020
# 3 12.5653 34.5167 148.8230 -9.8146 -16.0293 -6.7453
# 4 2.5614 -17.9835 -9.8146 47.6275 -6.3421 6.6493
# 5 -6.7711 13.8301 -16.0293 -6.3421 22.8787 0.1631
# 6 -16.2045 -15.4020 -6.7453 6.6493 0.1631 28.7007
#
#
#
# Elastic Compliance Matrix: (Units=1/GPa)
#
#
# Indices 1 2 3 4 5 6 
#
# 1 0.031547 0.005088 -0.002723 -0.002742 0.003446 0.020518
# 2 0.005088 0.010710 -0.003248 0.001103 -0.006993 0.007641
# 3 -0.002723 -0.003248 0.008585 0.001964 0.007729 -0.001762
# 4 -0.002742 0.001103 0.001964 0.023671 0.006502 -0.006015
# 5 0.003446 -0.006993 0.007729 0.006502 0.056186 -0.001816
# 6 0.020518 0.007641 -0.001762 -0.006015 -0.001816 0.051517
#
#
# Mechanical properties :
#
#
# Convention : Reuss Voigt Hill
#
# Bulk Modulus (GPa) = 20.37643 44.18755 32.28199
# Shear Modulus (GPa) = 24.95749 39.17973 32.06861
#
# Velocity S-wave (km/s) = 3.13741 3.93099 3.55640
# Velocity P-wave (km/s) = 4.60011 6.16695 5.44023
#
# Compressibility (1/GPa) = 0.04907630
#
# Stress axis : x y z
#
# Youngs Moduli (GPa) = 31.69895 93.36655 116.48555
#
# Poissons Ratio (x) = -0.47508 0.31724
# Poissons Ratio (y) = -0.16129 0.37832
# Poissons Ratio (z) = 0.08633 0.30323
#
# Static dielectric constant tensor:
#      x y z
#    x 4.172630 -0.326010 -0.178290 
#    y -0.326010 5.408940 0.012600 
#    z -0.178290 0.012600 4.708190 
# 
# 
# High freq. dielectric constant tensor:
#      x y z
#    x 1.983430 -0.015880 -0.010770 
#    y -0.015880 2.036020 -0.006660 
#    z -0.010770 -0.006660 2.011550 
# 
# From -- ./inp_files/500596.got.cif
#   From: 2010.06.25/outbox.cif.g09.slc.cpg/sg2_251_cif.got.tgz:500596.got - 2010.06.27 13:26:56.
