data_PCOD8006302
_publ_section_title
;
Structure prediction by ZEFSAII (Michael W. Deem and Ramdas Pophale) SiO2 
 PCOD8006302
Probable space group: P -1
;
_chemical_formula_sum "Si O2"
_cell_formula_units_Z 16
_cell_length_a 8.464854
_cell_length_b 12.736523
_cell_length_c 14.130860
_cell_angle_alpha 129.036219
_cell_angle_beta 135.819078
_cell_angle_gamma 76.100712
_cell_volume 759.201834
_symmetry_space_group_name_H-M "P -1"
_symmetry_group_IT_number 2
_symmetry_cell_setting 'triclinic'
loop_
_space_group_symop_operation_xyz
x,y,z
-x,-y,-z
loop_
_atom_site_type_symbol
_atom_site_label
_atom_site_fract_x
_atom_site_fract_y
_atom_site_fract_z
Si Si1 0.533236 0.381530 0.513978
Si Si2 0.170457 0.241207 0.663193
Si Si3 0.315936 0.243000 0.523320
Si Si4 0.720083 0.924699 0.871251
Si Si5 0.191933 0.730826 0.180529
Si Si6 0.692190 0.966251 0.273644
Si Si7 0.059088 0.453523 0.858276
Si Si8 0.084687 0.063529 0.843414
O O1 0.500000 0.500000 0.500000
O O2 0.395888 0.370651 0.550344
O O3 0.423506 0.223323 0.329983
O O4 0.820952 0.432956 0.683013
O O5 0.250405 0.301962 0.626437
O O6 0.327803 0.150014 0.717834
O O7 0.220481 0.385824 0.828803
O O8 0.883540 0.128586 0.477920
O O9 0.543146 0.192852 0.612002
O O10 0.082306 0.106822 0.308555
O O11 0.577557 0.032709 0.854963
O O12 0.712386 0.887722 0.958751
O O13 0.000000 0.000000 0.000000
O O14 0.993121 0.629737 0.111908
O O15 0.096524 0.852101 0.173195
O O16 0.208211 0.627004 0.041383
O O17 0.782850 0.910451 0.186171
#
# Coordination Sequence:
#
# PCOD8006302 Si02
#       8
#     2   2   2   2   2   2   2   2
#     4  11  23  44  64  88 128 174 214 261 326 393
#     4  10  20  39  67  94 130 169 207 268 331 369
#     4  10  23  37  64  94 131 158 219 275 314 371
#     4  12  24  39  66  98 131 167 219 265 311 381
#     4  10  21  36  64  96 122 172 216 260 316 379
#     4  10  22  39  63  97 131 170 204 262 332 383
#     4  10  20  40  64  90 128 168 219 253 317 392
#     4  11  21  39  63  95 133 166 214 262 326 373
#
# _framework density 21.074764999999999
#
# number of rings (size 3 to 8) (size 9 to 14) (size 15 to 20)
#    0.000    1.500    3.750    1.500    1.750    0.500 
#    0.000    0.625    0.000    0.000    0.000    0.000 
#    0.000    0.000    0.000    0.000    0.000    0.000 
#
# Total GULP energy -198403.419427 kJ/mol
# GULP energy per Si atom -12400.213714 kJ/mol
# Density = 2.102680 g / cm^3
# Si number density = 21.074765 Si / 1000 Ang^3
#
#
#
# Elastic Constant Matrix: (Units=GPa)
#
#
# Indices 1 2 3 4 5 6 
#
# 1 90.8596 50.6813 23.8730 3.5893 -17.2806 -1.3435
# 2 50.6813 107.9123 19.2007 -16.6271 -6.9946 1.6292
# 3 23.8730 19.2007 71.1192 -15.7214 -11.2778 2.4900
# 4 3.5893 -16.6271 -15.7214 30.3822 -4.9690 -2.8774
# 5 -17.2806 -6.9946 -11.2778 -4.9690 37.5483 -2.5950
# 6 -1.3435 1.6292 2.4900 -2.8774 -2.5950 33.7592
#
#
#
# Elastic Compliance Matrix: (Units=1/GPa)
#
#
# Indices 1 2 3 4 5 6 
#
# 1 0.018481 -0.008882 -0.005149 -0.008917 0.004201 0.001107
# 2 -0.008882 0.014751 0.001217 0.009772 0.000298 -0.000299
# 3 -0.005149 0.001217 0.018898 0.011861 0.005085 -0.000256
# 4 -0.008917 0.009772 0.011861 0.046986 0.007697 0.002895
# 5 0.004201 0.000298 0.005085 0.007697 0.031364 0.002845
# 6 0.001107 -0.000299 -0.000256 0.002895 0.002845 0.030164
#
#
# Mechanical properties :
#
#
# Convention : Reuss Voigt Hill
#
# Bulk Modulus (GPa) = 37.73363 50.82234 44.27798
# Shear Modulus (GPa) = 25.62719 32.08035 28.85377
#
# Velocity S-wave (km/s) = 3.49092 3.90579 3.70417
# Velocity P-wave (km/s) = 5.84741 6.67142 6.27296
#
# Compressibility (1/GPa) = 0.02650156
#
# Stress axis : x y z
#
# Youngs Moduli (GPa) = 54.11086 67.79180 52.91552
#
# Poissons Ratio (x) = 0.60210 0.27248
# Poissons Ratio (y) = 0.48059 -0.06439
# Poissons Ratio (z) = 0.27864 -0.08249
#
# Static dielectric constant tensor:
#      x y z
#    x 3.846870 0.092080 -0.237240 
#    y 0.092080 3.692790 -0.139510 
#    z -0.237240 -0.139510 4.005580 
# 
# 
# High freq. dielectric constant tensor:
#      x y z
#    x 1.825990 0.004270 -0.012380 
#    y 0.004270 1.809510 -0.011280 
#    z -0.012380 -0.011280 1.831010 
# 
# From -- ./inp_files/177971.got.cif
#   From: 2010.06.25/outbox.cif.g09.slc.cpg/sg2_89_cif.got.tgz:177971.got - 2010.06.27 13:26:56.
