data_PCOD8006950
_publ_section_title
;
Structure prediction by ZEFSAII (Michael W. Deem and Ramdas Pophale) SiO2 
 PCOD8006950
Probable space group: P -1
;
_chemical_formula_sum "Si O2"
_cell_formula_units_Z 14
_cell_length_a 22.083388
_cell_length_b 17.274265
_cell_length_c 6.677901
_cell_angle_alpha 132.675548
_cell_angle_beta 56.533751
_cell_angle_gamma 159.032166
_cell_volume 637.222476
_symmetry_space_group_name_H-M "P -1"
_symmetry_group_IT_number 2
_symmetry_cell_setting 'triclinic'
loop_
_space_group_symop_operation_xyz
x,y,z
-x,-y,-z
loop_
_atom_site_type_symbol
_atom_site_label
_atom_site_fract_x
_atom_site_fract_y
_atom_site_fract_z
Si Si1 0.473769 0.704071 0.575355
Si Si2 0.661787 0.677831 0.661467
Si Si3 0.777572 0.973565 0.317510
Si Si4 0.488785 0.125514 0.570235
Si Si5 0.943811 0.152567 0.721976
Si Si6 0.651628 0.280478 0.932551
Si Si7 0.143946 0.779912 0.729590
O O1 0.343322 0.450105 0.482166
O O2 0.658149 0.889207 0.528866
O O3 0.410712 0.666092 0.406925
O O4 0.493507 0.833928 0.904205
O O5 0.500000 0.500000 0.500000
O O6 0.846513 0.936123 0.657325
O O7 0.658054 0.740523 0.984089
O O8 0.898684 0.071222 0.427654
O O9 0.901592 0.208547 0.360779
O O10 0.637422 0.275045 0.708939
O O11 0.388259 0.893459 0.239876
O O12 0.344235 0.002510 0.740067
O O13 0.873254 0.174003 0.957546
O O14 0.154989 0.425848 0.835875
O O15 0.000000 0.500000 0.500000
#
# Coordination Sequence:
#
# PCOD8006950 Si02
#       7
#     2   2   2   2   2   2   2
#     4  11  23  40  67  94 122 168 214 253 320 380
#     4  11  24  42  70  94 124 162 216 272 313 373
#     4  10  23  40  65  94 123 162 215 268 314 371
#     4  10  23  43  65  91 133 171 211 255 313 379
#     4  11  23  41  63  98 128 166 211 263 317 368
#     4  11  24  42  62  93 134 172 204 259 315 385
#     4  10  20  40  65  96 124 166 216 265 311 366
#
# _framework density 21.970348999999999
#
# number of rings (size 3 to 8) (size 9 to 14) (size 15 to 20)
#    0.000    1.429    2.857    1.714    4.000    3.429 
#    2.571    1.429    0.000    0.000    0.000    0.000 
#    0.000    0.000    0.000    0.000    0.000    0.000 
#
# Total GULP energy -173517.041661 kJ/mol
# GULP energy per Si atom -12394.074404 kJ/mol
# Density = 2.192034 g / cm^3
# Si number density = 21.970349 Si / 1000 Ang^3
#
#
#
# Elastic Constant Matrix: (Units=GPa)
#
#
# Indices 1 2 3 4 5 6 
#
# 1 113.9385 36.5742 45.5787 6.1511 10.3957 -27.2452
# 2 36.5742 59.0383 38.8048 6.0632 11.3989 -14.8201
# 3 45.5787 38.8048 100.8355 -0.5931 19.3299 -4.5883
# 4 6.1511 6.0632 -0.5931 27.5504 4.6040 -5.6873
# 5 10.3957 11.3989 19.3299 4.6040 40.4596 -2.3451
# 6 -27.2452 -14.8201 -4.5883 -5.6873 -2.3451 36.4789
#
#
#
# Elastic Compliance Matrix: (Units=1/GPa)
#
#
# Indices 1 2 3 4 5 6 
#
# 1 0.013649 -0.003389 -0.004532 -0.000747 0.000170 0.008142
# 2 -0.003389 0.026797 -0.008115 -0.003609 -0.002006 0.006643
# 3 -0.004532 -0.008115 0.015801 0.002988 -0.004701 -0.004530
# 4 -0.000747 -0.003609 0.002988 0.038913 -0.004407 0.004135
# 5 0.000170 -0.002006 -0.004701 -0.004407 0.027975 -0.000168
# 6 0.008142 0.006643 -0.004530 0.004135 -0.000168 0.036257
#
#
# Mechanical properties :
#
#
# Convention : Reuss Voigt Hill
#
# Bulk Modulus (GPa) = 41.36399 57.30308 49.33353
# Shear Modulus (GPa) = 25.05987 31.08808 28.07398
#
# Velocity S-wave (km/s) = 3.38097 3.76573 3.57853
# Velocity P-wave (km/s) = 5.84032 6.71165 6.29109
#
# Compressibility (1/GPa) = 0.02417562
#
# Stress axis : x y z
#
# Youngs Moduli (GPa) = 73.26477 37.31748 63.28730
#
# Poissons Ratio (x) = 0.12648 0.28680
# Poissons Ratio (y) = 0.24832 0.51356
# Poissons Ratio (z) = 0.33201 0.30282
#
# Static dielectric constant tensor:
#      x y z
#    x 4.141470 -0.287890 -0.026090 
#    y -0.287890 3.876990 -0.191390 
#    z -0.026090 -0.191390 4.044460 
# 
# 
# High freq. dielectric constant tensor:
#      x y z
#    x 1.865020 -0.020850 -0.000730 
#    y -0.020850 1.850730 -0.012710 
#    z -0.000730 -0.012710 1.864070 
# 
# From -- ./inp_files/60734.got.cif
#   From: 2010.06.25/outbox.cif.g09.slc.cpg/sg2_31_cif.got.tgz:60734.got - 2010.06.27 13:26:56.
