data_PCOD8006297
_publ_section_title
;
Structure prediction by ZEFSAII (Michael W. Deem and Ramdas Pophale) SiO2 
 PCOD8006297
Probable space group: P -1
;
_chemical_formula_sum "Si O2"
_cell_formula_units_Z 14
_cell_length_a 12.852270
_cell_length_b 8.522956
_cell_length_c 9.749778
_cell_angle_alpha 62.094007
_cell_angle_beta 49.914957
_cell_angle_gamma 83.244061
_cell_volume 694.916056
_symmetry_space_group_name_H-M "P -1"
_symmetry_group_IT_number 2
_symmetry_cell_setting 'triclinic'
loop_
_space_group_symop_operation_xyz
x,y,z
-x,-y,-z
loop_
_atom_site_type_symbol
_atom_site_label
_atom_site_fract_x
_atom_site_fract_y
_atom_site_fract_z
Si Si1 0.154088 0.359813 0.884088
Si Si2 0.166258 0.742816 0.821180
Si Si3 0.580341 0.664576 0.460977
Si Si4 0.655716 0.070174 0.147394
Si Si5 0.543970 0.677561 0.796555
Si Si6 0.142569 0.015702 0.207172
Si Si7 0.825505 0.946382 0.524472
O O1 0.215782 0.565260 0.806859
O O2 0.252686 0.323232 0.692503
O O3 0.998100 0.323118 0.967334
O O4 0.158313 0.225187 0.062250
O O5 0.260664 0.844229 0.823179
O O6 0.186610 0.875149 0.619825
O O7 0.500000 0.500000 0.500000
O O8 0.520062 0.619417 0.682326
O O9 0.562618 0.861793 0.344290
O O10 0.548123 0.182981 0.143150
O O11 0.769098 0.082470 0.925568
O O12 0.708878 0.769118 0.642955
O O13 0.500000 0.500000 0.000000
O O14 0.976827 0.904772 0.390111
O O15 0.202440 0.017115 0.308338
#
# Coordination Sequence:
#
# PCOD8006297 Si02
#       7
#     2   2   2   2   2   2   2
#     4   9  21  37  67  95 122 162 207 261 302 372
#     4  10  20  39  67  94 124 157 214 255 311 363
#     4  11  24  41  65  90 127 166 211 255 313 370
#     4  11  24  42  66  92 122 167 209 263 307 370
#     4  12  28  42  61  92 129 168 206 261 311 372
#     4   9  22  42  66  91 124 164 203 260 307 368
#     4  10  22  41  65  89 128 163 206 248 318 363
#
# _framework density 20.146318999999998
#
# number of rings (size 3 to 8) (size 9 to 14) (size 15 to 20)
#    0.000    1.714    1.429    1.286   10.000    3.429 
#    0.000    0.714    0.000    0.000    0.000    0.000 
#    0.000    0.000    0.000    0.000    0.000    0.000 
#
# Total GULP energy -173653.368524 kJ/mol
# GULP energy per Si atom -12403.812037 kJ/mol
# Density = 2.010047 g / cm^3
# Si number density = 20.146319 Si / 1000 Ang^3
#
#
#
# Elastic Constant Matrix: (Units=GPa)
#
#
# Indices 1 2 3 4 5 6 
#
# 1 87.7693 48.0531 41.5879 -5.6210 3.6366 10.2824
# 2 48.0531 120.5740 64.8637 -8.7427 1.7737 -1.9257
# 3 41.5879 64.8637 118.5516 1.4984 6.3668 -5.0183
# 4 -5.6210 -8.7427 1.4984 37.5194 6.7898 -3.9971
# 5 3.6366 1.7737 6.3668 6.7898 24.6003 -3.3576
# 6 10.2824 -1.9257 -5.0183 -3.9971 -3.3576 33.9232
#
#
#
# Elastic Compliance Matrix: (Units=1/GPa)
#
#
# Indices 1 2 3 4 5 6 
#
# 1 0.016410 -0.004725 -0.003306 0.001301 -0.002382 -0.005814
# 2 -0.004725 0.013460 -0.005705 0.002717 0.000692 0.001741
# 3 -0.003306 -0.005705 0.012921 -0.001807 -0.001643 0.002214
# 4 0.001301 0.002717 -0.001807 0.029173 -0.007676 0.002170
# 5 -0.002382 0.000692 -0.001643 -0.007676 0.044038 0.003973
# 6 -0.005814 0.001741 0.002214 0.002170 0.003973 0.032316
#
#
# Mechanical properties :
#
#
# Convention : Reuss Voigt Hill
#
# Bulk Modulus (GPa) = 65.27592 70.65604 67.96598
# Shear Modulus (GPa) = 27.64000 30.70125 29.17063
#
# Velocity S-wave (km/s) = 3.70802 3.90797 3.80931
# Velocity P-wave (km/s) = 7.12768 7.45054 7.29090
#
# Compressibility (1/GPa) = 0.01531958
#
# Stress axis : x y z
#
# Youngs Moduli (GPa) = 60.93837 74.29239 77.39279
#
# Poissons Ratio (x) = 0.35103 0.25587
# Poissons Ratio (y) = 0.28793 0.44152
# Poissons Ratio (z) = 0.20147 0.42383
#
# Static dielectric constant tensor:
#      x y z
#    x 3.797080 -0.150910 -0.209190 
#    y -0.150910 3.756980 0.073010 
#    z -0.209190 0.073010 3.888880 
# 
# 
# High freq. dielectric constant tensor:
#      x y z
#    x 1.790950 -0.003980 -0.012910 
#    y -0.003980 1.785610 0.003010 
#    z -0.012910 0.003010 1.794670 
# 
# From -- ./inp_files/165974.got.cif
#   From: 2010.06.25/outbox.cif.g09.slc.cpg/sg2_83_cif.got.tgz:165974.got - 2010.06.27 13:26:56.
