data_PCOD8006747
_publ_section_title
;
Structure prediction by ZEFSAII (Michael W. Deem and Ramdas Pophale) SiO2 
 PCOD8006747
Probable space group: P -1
;
_chemical_formula_sum "Si O2"
_cell_formula_units_Z 16
_cell_length_a 15.191415
_cell_length_b 11.315758
_cell_length_c 9.674287
_cell_angle_alpha 117.991374
_cell_angle_beta 113.676157
_cell_angle_gamma 119.802166
_cell_volume 713.569472
_symmetry_space_group_name_H-M "P -1"
_symmetry_group_IT_number 2
_symmetry_cell_setting 'triclinic'
loop_
_space_group_symop_operation_xyz
x,y,z
-x,-y,-z
loop_
_atom_site_type_symbol
_atom_site_label
_atom_site_fract_x
_atom_site_fract_y
_atom_site_fract_z
Si Si1 0.751023 0.645801 0.040273
Si Si2 0.683163 0.032439 0.845126
Si Si3 0.351730 0.064815 0.529450
Si Si4 0.300347 0.587105 0.630612
Si Si5 0.373231 0.478408 0.393686
Si Si6 0.042990 0.705959 0.621671
Si Si7 0.467040 0.006787 0.791743
Si Si8 0.902364 0.088296 0.509915
O O1 0.889974 0.690222 0.189474
O O2 0.806465 0.839311 0.268688
O O3 0.545465 0.364999 0.795520
O O4 0.770836 0.710457 0.925193
O O5 0.749660 0.100653 0.766586
O O6 0.483224 0.736967 0.555445
O O7 0.654993 0.150965 0.947995
O O8 0.801215 0.081382 0.050279
O O9 0.376080 0.957840 0.571708
O O10 0.211869 0.996726 0.478784
O O11 0.290609 0.429854 0.462480
O O12 0.118285 0.383874 0.491930
O O13 0.318440 0.735044 0.619651
O O14 0.473961 0.803191 0.962195
O O15 0.500000 0.500000 0.500000
O O16 0.105363 0.810756 0.562483
O O17 0.000000 0.500000 0.500000
#
# Coordination Sequence:
#
# PCOD8006747 Si02
#       8
#     2   2   2   2   2   2   2   2
#     4  10  24  45  64  95 135 171 218 272 324 389
#     4  10  23  40  62  95 132 161 221 269 325 390
#     4  11  23  41  70  92 129 177 212 269 338 379
#     4  10  22  37  65  95 130 170 217 267 333 383
#     4  10  22  42  66  95 128 171 221 273 323 389
#     4  12  23  42  64  99 132 171 220 273 323 390
#     4  10  20  40  63  95 128 171 217 266 324 400
#     4  11  25  44  66  96 132 174 223 268 319 400
#
# _framework density 22.422485000000002
#
# number of rings (size 3 to 8) (size 9 to 14) (size 15 to 20)
#    0.000    1.500    1.250    3.000    7.000    0.000 
#    9.000    2.500    0.000    0.000    0.000    0.000 
#    0.000    0.000    0.000    0.000    0.000    0.000 
#
# Total GULP energy -198338.665580 kJ/mol
# GULP energy per Si atom -12396.166599 kJ/mol
# Density = 2.237145 g / cm^3
# Si number density = 22.422485 Si / 1000 Ang^3
#
#
#
# Elastic Constant Matrix: (Units=GPa)
#
#
# Indices 1 2 3 4 5 6 
#
# 1 121.7134 24.4381 34.0049 -11.0004 -5.5084 19.2899
# 2 24.4381 79.2193 30.2781 -23.0819 3.6933 8.6504
# 3 34.0049 30.2781 81.1548 -34.1895 4.0871 9.8275
# 4 -11.0004 -23.0819 -34.1895 41.1604 2.3947 3.6243
# 5 -5.5084 3.6933 4.0871 2.3947 31.7154 -8.4202
# 6 19.2899 8.6504 9.8275 3.6243 -8.4202 37.1855
#
#
#
# Elastic Compliance Matrix: (Units=1/GPa)
#
#
# Indices 1 2 3 4 5 6 
#
# 1 0.010117 -0.001741 -0.003776 -0.001209 0.001647 -0.003355
# 2 -0.001741 0.016776 -0.001186 0.008573 -0.003921 -0.004410
# 3 -0.003776 -0.001186 0.023595 0.018983 -0.006964 -0.007428
# 4 -0.001209 0.008573 0.018983 0.046343 -0.010691 -0.013322
# 5 0.001647 -0.003921 -0.006964 -0.010691 0.036982 0.011314
# 6 -0.003355 -0.004410 -0.007428 -0.013322 0.011314 0.035482
#
#
# Mechanical properties :
#
#
# Convention : Reuss Voigt Hill
#
# Bulk Modulus (GPa) = 26.96718 51.05885 39.01302
# Shear Modulus (GPa) = 25.63300 34.90333 30.26817
#
# Velocity S-wave (km/s) = 3.38477 3.94969 3.67809
# Velocity P-wave (km/s) = 5.22767 6.60460 5.95606
#
# Compressibility (1/GPa) = 0.03708211
#
# Stress axis : x y z
#
# Youngs Moduli (GPa) = 98.83941 59.60943 42.38251
#
# Poissons Ratio (x) = 0.10376 0.16004
# Poissons Ratio (y) = 0.17204 0.05028
# Poissons Ratio (z) = 0.37322 0.07071
#
# Static dielectric constant tensor:
#      x y z
#    x 4.224420 0.276920 -0.303690 
#    y 0.276920 3.962290 -0.357440 
#    z -0.303690 -0.357440 4.483450 
# 
# 
# High freq. dielectric constant tensor:
#      x y z
#    x 1.886820 0.007350 -0.008500 
#    y 0.007350 1.871790 -0.017750 
#    z -0.008500 -0.017750 1.885310 
# 
# From -- ./inp_files/308348.got.cif
#   From: 2010.06.25/outbox.cif.g09.slc.cpg/sg2_155_cif.got.tgz:308348.got - 2010.06.27 13:26:56.
