data_PCOD8006866
_publ_section_title
;
Structure prediction by ZEFSAII (Michael W. Deem and Ramdas Pophale) SiO2 
 PCOD8006866
Probable space group: P -1
;
_chemical_formula_sum "Si O2"
_cell_formula_units_Z 16
_cell_length_a 8.661323
_cell_length_b 9.545861
_cell_length_c 12.924733
_cell_angle_alpha 93.353233
_cell_angle_beta 102.228461
_cell_angle_gamma 48.691850
_cell_volume 779.669697
_symmetry_space_group_name_H-M "P -1"
_symmetry_group_IT_number 2
_symmetry_cell_setting 'triclinic'
loop_
_space_group_symop_operation_xyz
x,y,z
-x,-y,-z
loop_
_atom_site_type_symbol
_atom_site_label
_atom_site_fract_x
_atom_site_fract_y
_atom_site_fract_z
Si Si1 0.710362 0.865821 0.959677
Si Si2 0.057868 0.775069 0.590806
Si Si3 0.641050 0.914768 0.617416
Si Si4 0.118935 0.273356 0.812854
Si Si5 0.474355 0.545199 0.290210
Si Si6 0.948607 0.150395 0.641112
Si Si7 0.453306 0.839220 0.203380
Si Si8 0.313002 0.342643 0.227042
O O1 0.696397 0.732223 0.885804
O O2 0.729782 0.989167 0.890704
O O3 0.896657 0.750440 0.066376
O O4 0.500000 0.000000 0.000000
O O5 0.292559 0.578070 0.634242
O O6 0.015143 0.806653 0.464446
O O7 0.888326 0.767893 0.615372
O O8 0.018768 0.948059 0.646120
O O9 0.585358 0.811212 0.673995
O O10 0.500000 0.000000 0.500000
O O11 0.584484 0.086867 0.681890
O O12 0.325470 0.236993 0.811639
O O13 0.105785 0.135038 0.742807
O O14 0.922664 0.484206 0.762177
O O15 0.297393 0.682311 0.357395
O O16 0.448532 0.672939 0.198414
O O17 0.447203 0.405452 0.233942
#
# Coordination Sequence:
#
# PCOD8006866 Si02
#       8
#     2   2   2   2   2   2   2   2
#     4   9  20  38  65  87 120 162 202 258 308 364
#     4  11  23  38  64  87 130 165 200 248 317 353
#     4  11  23  39  62  90 125 166 210 248 304 372
#     4  10  20  40  65  86 123 161 212 250 310 360
#     4  11  23  40  62  92 131 158 207 258 301 369
#     4  10  23  39  59  95 121 163 207 254 303 369
#     4  10  21  39  60  90 127 157 206 256 306 363
#     4  10  23  39  63  92 120 162 210 252 309 369
#
# _framework density 20.521511
#
# number of rings (size 3 to 8) (size 9 to 14) (size 15 to 20)
#    0.000    1.750    1.250    2.250    8.750    2.000 
#    0.000    9.375    2.750    0.000    0.000    0.000 
#    0.000    0.000    0.000    0.000    0.000    0.000 
#
# Total GULP energy -198376.471204 kJ/mol
# GULP energy per Si atom -12398.529450 kJ/mol
# Density = 2.047480 g / cm^3
# Si number density = 20.521511 Si / 1000 Ang^3
#
#
#
# Elastic Constant Matrix: (Units=GPa)
#
#
# Indices 1 2 3 4 5 6 
#
# 1 106.1081 35.6780 39.0646 -3.1256 -5.3888 15.9579
# 2 35.6780 84.7741 39.7255 -2.5531 -1.1796 19.5277
# 3 39.0646 39.7255 131.5547 2.2559 4.8913 27.0657
# 4 -3.1256 -2.5531 2.2559 31.0112 -2.0166 -4.2884
# 5 -5.3888 -1.1796 4.8913 -2.0166 21.6507 -1.4724
# 6 15.9579 19.5277 27.0657 -4.2884 -1.4724 38.7119
#
#
#
# Elastic Compliance Matrix: (Units=1/GPa)
#
#
# Indices 1 2 3 4 5 6 
#
# 1 0.011860 -0.003531 -0.002348 0.001123 0.003312 -0.001216
# 2 -0.003531 0.015623 -0.002786 0.000547 0.000353 -0.004404
# 3 -0.002348 -0.002786 0.010399 -0.002190 -0.003648 -0.005279
# 4 0.001123 0.000547 -0.002190 0.033484 0.004240 0.004663
# 5 0.003312 0.000353 -0.003648 0.004240 0.048476 0.003321
# 6 -0.001216 -0.004404 -0.005279 0.004663 0.003321 0.032888
#
#
# Mechanical properties :
#
#
# Convention : Reuss Voigt Hill
#
# Bulk Modulus (GPa) = 48.65437 61.26368 54.95902
# Shear Modulus (GPa) = 28.26265 32.13935 30.20100
#
# Velocity S-wave (km/s) = 3.71512 3.96173 3.84040
# Velocity P-wave (km/s) = 6.49332 7.13059 6.81940
#
# Compressibility (1/GPa) = 0.02055314
#
# Stress axis : x y z
#
# Youngs Moduli (GPa) = 84.31568 64.00656 96.16315
#
# Poissons Ratio (x) = 0.22603 0.22576
# Poissons Ratio (y) = 0.29775 0.26788
# Poissons Ratio (z) = 0.19795 0.17830
#
# Static dielectric constant tensor:
#      x y z
#    x 3.528030 -0.066590 -0.420390 
#    y -0.066590 3.879390 -0.401370 
#    z -0.420390 -0.401370 2.927670 
# 
# 
# High freq. dielectric constant tensor:
#      x y z
#    x 1.791820 -0.003950 -0.006430 
#    y -0.003950 1.814010 -0.001680 
#    z -0.006430 -0.001680 1.800570 
# 
# From -- ./inp_files/319048.got.cif
#   From: 2010.06.25/outbox.cif.g09.slc.cpg/sg2_160_cif.got.tgz:319048.got - 2010.06.27 13:26:56.
