data_PCOD8006259
_publ_section_title
;
Structure prediction by ZEFSAII (Michael W. Deem and Ramdas Pophale) SiO2 
 PCOD8006259
Probable space group: P -1
;
_chemical_formula_sum "Si O2"
_cell_formula_units_Z 14
_cell_length_a 9.233028
_cell_length_b 15.614270
_cell_length_c 15.157552
_cell_angle_alpha 26.512914
_cell_angle_beta 114.512119
_cell_angle_gamma 131.363410
_cell_volume 622.368321
_symmetry_space_group_name_H-M "P -1"
_symmetry_group_IT_number 2
_symmetry_cell_setting 'triclinic'
loop_
_space_group_symop_operation_xyz
x,y,z
-x,-y,-z
loop_
_atom_site_type_symbol
_atom_site_label
_atom_site_fract_x
_atom_site_fract_y
_atom_site_fract_z
Si Si1 0.668383 0.323181 0.411310
Si Si2 0.906935 0.538387 0.858945
Si Si3 0.520175 0.719974 0.257252
Si Si4 0.369407 0.086801 0.401986
Si Si5 0.244269 0.231571 0.888759
Si Si6 0.831908 0.300575 0.877434
Si Si7 0.445328 0.206169 0.117652
O O1 0.507012 0.300123 0.321486
O O2 0.696452 0.490120 0.347608
O O3 0.906425 0.478224 0.284369
O O4 0.558312 0.027463 0.684662
O O5 0.811756 0.318473 0.960410
O O6 0.698495 0.488434 0.890131
O O7 0.105043 0.840373 0.588682
O O8 0.000000 0.500000 0.000000
O O9 0.500000 0.500000 0.500000
O O10 0.582107 0.737717 0.154944
O O11 0.285240 0.635281 0.271876
O O12 0.713840 0.998358 0.103192
O O13 0.393873 0.222565 0.190922
O O14 0.500000 0.000000 0.500000
O O15 0.252288 0.145013 0.067747
O O16 0.000000 0.000000 0.000000
#
# Coordination Sequence:
#
# PCOD8006259 Si02
#       7
#     2   2   2   2   2   2   2
#     4  11  23  42  71  97 130 176 222 269 338 394
#     4  12  20  39  71 100 132 171 224 268 329 409
#     4  11  27  44  65  96 135 174 224 280 330 391
#     4  10  20  39  67 101 129 174 219 267 337 394
#     4  12  27  44  63 100 131 171 231 273 325 400
#     4  11  23  44  68  96 131 179 222 267 340 396
#     4  11  24  43  69  96 139 175 215 281 332 391
#
# _framework density 22.494719
#
# number of rings (size 3 to 8) (size 9 to 14) (size 15 to 20)
#    0.000    0.857    8.571    0.000    4.000    1.143 
#    0.000    0.714    0.000    0.000    0.000    0.000 
#    0.000    0.000    0.000    0.000    0.000    0.000 
#
# Total GULP energy -173583.457000 kJ/mol
# GULP energy per Si atom -12398.818357 kJ/mol
# Density = 2.244352 g / cm^3
# Si number density = 22.494719 Si / 1000 Ang^3
#
#
#
# Elastic Constant Matrix: (Units=GPa)
#
#
# Indices 1 2 3 4 5 6 
#
# 1 74.7549 30.4202 46.5432 -4.8892 -18.5057 5.7483
# 2 30.4202 128.6738 48.7139 0.6719 -3.5526 5.8136
# 3 46.5432 48.7139 93.2852 -4.2619 -18.6759 6.3005
# 4 -4.8892 0.6719 -4.2619 36.2440 0.4152 5.4469
# 5 -18.5057 -3.5526 -18.6759 0.4152 45.6927 -3.8807
# 6 5.7483 5.8136 6.3005 5.4469 -3.8807 39.5998
#
#
#
# Elastic Compliance Matrix: (Units=1/GPa)
#
#
# Indices 1 2 3 4 5 6 
#
# 1 0.020588 -0.001525 -0.008366 0.001955 0.004677 -0.001244
# 2 -0.001525 0.009925 -0.004794 -0.000852 -0.001843 -0.000536
# 3 -0.008366 -0.004794 0.018227 0.001181 0.003611 -0.000790
# 4 0.001955 -0.000852 0.001181 0.028638 0.000589 -0.004228
# 5 0.004677 -0.001843 0.003611 0.000589 0.025226 0.001408
# 6 -0.001244 -0.000536 -0.000790 -0.004228 0.001408 0.026357
#
#
# Mechanical properties :
#
#
# Convention : Reuss Voigt Hill
#
# Bulk Modulus (GPa) = 51.62367 60.89651 56.26009
# Shear Modulus (GPa) = 30.34224 35.70974 33.02599
#
# Velocity S-wave (km/s) = 3.67667 3.98863 3.83582
# Velocity P-wave (km/s) = 6.40491 6.95288 6.68451
#
# Compressibility (1/GPa) = 0.01937096
#
# Stress axis : x y z
#
# Youngs Moduli (GPa) = 48.57309 100.75928 54.86244
#
# Poissons Ratio (x) = 0.15364 0.45898
# Poissons Ratio (y) = 0.07407 0.26299
# Poissons Ratio (z) = 0.40636 0.48299
#
# Static dielectric constant tensor:
#      x y z
#    x 3.868100 0.042060 -0.185760 
#    y 0.042060 4.300870 -0.174060 
#    z -0.185760 -0.174060 3.927700 
# 
# 
# High freq. dielectric constant tensor:
#      x y z
#    x 1.884350 -0.001280 -0.010590 
#    y -0.001280 1.911310 -0.008270 
#    z -0.010590 -0.008270 1.868290 
# 
# From -- ./inp_files/505106.got.cif
#   From: 2010.06.25/outbox.cif.g09.slc.cpg/sg2_253_cif.got.tgz:505106.got - 2010.06.27 13:26:56.
