data_PCOD8006075
_publ_section_title
;
Structure prediction by ZEFSAII (Michael W. Deem and Ramdas Pophale) SiO2 
 PCOD8006075
Probable space group: P -1
;
_chemical_formula_sum "Si O2"
_cell_formula_units_Z 16
_cell_length_a 8.632425
_cell_length_b 12.100286
_cell_length_c 9.152420
_cell_angle_alpha 61.371943
_cell_angle_beta 69.697426
_cell_angle_gamma 67.859414
_cell_volume 760.808754
_symmetry_space_group_name_H-M "P -1"
_symmetry_group_IT_number 2
_symmetry_cell_setting 'triclinic'
loop_
_space_group_symop_operation_xyz
x,y,z
-x,-y,-z
loop_
_atom_site_type_symbol
_atom_site_label
_atom_site_fract_x
_atom_site_fract_y
_atom_site_fract_z
Si Si1 0.562148 0.360965 0.994159
Si Si2 0.851078 0.664782 0.181390
Si Si3 0.311285 0.285532 0.513871
Si Si4 0.762356 0.750119 0.851790
Si Si5 0.696891 0.223147 0.316744
Si Si6 0.171511 0.587150 0.328726
Si Si7 0.692921 0.946589 0.517888
Si Si8 0.090607 0.624733 0.661353
O O1 0.403237 0.304229 0.045137
O O2 0.692074 0.266252 0.122567
O O3 0.500000 0.500000 0.000000
O O4 0.656955 0.374894 0.802336
O O5 0.697243 0.734938 0.295898
O O6 0.825047 0.524991 0.229135
O O7 0.029281 0.647150 0.217631
O O8 0.845474 0.752341 0.983187
O O9 0.505002 0.268281 0.413458
O O10 0.195596 0.431078 0.424084
O O11 0.227507 0.179495 0.529640
O O12 0.708968 0.897197 0.712285
O O13 0.892842 0.659276 0.753228
O O14 0.818042 0.285709 0.332828
O O15 0.779095 0.066608 0.396830
O O16 0.115276 0.648793 0.466309
O O17 0.500000 0.000000 0.500000
#
# Coordination Sequence:
#
# PCOD8006075 Si02
#       8
#     2   2   2   2   2   2   2   2
#     4  12  21  37  63  93 123 155 203 255 309 359
#     4  11  23  37  64  94 127 160 202 258 315 360
#     4  10  20  39  65  89 126 165 205 249 310 365
#     4  12  23  40  63  91 126 164 205 255 304 371
#     4  11  23  39  65  91 123 165 208 255 298 374
#     4  11  23  39  64  94 129 160 200 259 312 368
#     4  10  20  42  63  88 117 172 210 244 303 369
#     4  11  24  40  63  95 128 160 205 252 319 364
#
# _framework density 21.030251
#
# number of rings (size 3 to 8) (size 9 to 14) (size 15 to 20)
#    0.000    1.000    3.750    5.625    1.750    1.500 
#    0.000    3.750    0.000    3.000    0.000    0.000 
#    0.000    0.000    0.000    0.000    0.000    0.000 
#
# Total GULP energy -198365.045428 kJ/mol
# GULP energy per Si atom -12397.815339 kJ/mol
# Density = 2.098239 g / cm^3
# Si number density = 21.030251 Si / 1000 Ang^3
#
#
#
# Elastic Constant Matrix: (Units=GPa)
#
#
# Indices 1 2 3 4 5 6 
#
# 1 73.1324 29.2261 40.2536 3.3715 7.1757 14.6694
# 2 29.2261 70.6383 45.4372 -4.6640 7.3688 6.3155
# 3 40.2536 45.4372 174.2847 6.2234 15.0759 -11.0377
# 4 3.3715 -4.6640 6.2234 37.4021 -8.0730 -2.9268
# 5 7.1757 7.3688 15.0759 -8.0730 40.8690 -0.2768
# 6 14.6694 6.3155 -11.0377 -2.9268 -0.2768 27.4834
#
#
#
# Elastic Compliance Matrix: (Units=1/GPa)
#
#
# Indices 1 2 3 4 5 6 
#
# 1 0.020480 -0.004913 -0.003909 -0.003151 -0.001970 -0.011728
# 2 -0.004913 0.019446 -0.004211 0.003215 -0.000477 -0.003200
# 3 -0.003909 -0.004211 0.008349 -0.001481 -0.001885 0.006231
# 4 -0.003151 0.003215 -0.001481 0.029312 0.006334 0.003534
# 5 -0.001970 -0.000477 -0.001885 0.006334 0.026856 0.001349
# 6 -0.011728 -0.003200 0.006231 0.003534 0.001349 0.046273
#
#
# Mechanical properties :
#
#
# Convention : Reuss Voigt Hill
#
# Bulk Modulus (GPa) = 45.02790 60.87660 52.95225
# Shear Modulus (GPa) = 27.14666 34.69347 30.92006
#
# Velocity S-wave (km/s) = 3.59672 4.06605 3.83856
# Velocity P-wave (km/s) = 6.22142 7.14518 6.69924
#
# Compressibility (1/GPa) = 0.02220845
#
# Stress axis : x y z
#
# Youngs Moduli (GPa) = 48.82859 51.42365 119.77479
#
# Poissons Ratio (x) = 0.25264 0.46821
# Poissons Ratio (y) = 0.23989 0.50441
# Poissons Ratio (z) = 0.19087 0.21656
#
# Static dielectric constant tensor:
#      x y z
#    x 3.745690 -0.020610 -0.066310 
#    y -0.020610 4.226910 -0.123000 
#    z -0.066310 -0.123000 4.232020 
# 
# 
# High freq. dielectric constant tensor:
#      x y z
#    x 1.822430 -0.003420 0.004000 
#    y -0.003420 1.804170 0.001110 
#    z 0.004000 0.001110 1.835650 
# 
# From -- ./inp_files/176299.got.cif
#   From: 2010.06.25/outbox.cif.g09.slc.cpg/sg2_89_cif.got.tgz:176299.got - 2010.06.27 13:26:56.
