data_PCOD8006752
_publ_section_title
;
Structure prediction by ZEFSAII (Michael W. Deem and Ramdas Pophale) SiO2 
 PCOD8006752
Probable space group: P -1
;
_chemical_formula_sum "Si O2"
_cell_formula_units_Z 16
_cell_length_a 11.479255
_cell_length_b 11.438647
_cell_length_c 9.273969
_cell_angle_alpha 125.561835
_cell_angle_beta 121.967230
_cell_angle_gamma 50.729856
_cell_volume 741.322794
_symmetry_space_group_name_H-M "P -1"
_symmetry_group_IT_number 2
_symmetry_cell_setting 'triclinic'
loop_
_space_group_symop_operation_xyz
x,y,z
-x,-y,-z
loop_
_atom_site_type_symbol
_atom_site_label
_atom_site_fract_x
_atom_site_fract_y
_atom_site_fract_z
Si Si1 0.257351 0.211600 0.327286
Si Si2 0.795465 0.657818 0.309845
Si Si3 0.390727 0.479508 0.299023
Si Si4 0.178685 0.930389 0.039233
Si Si5 0.435114 0.000123 0.730261
Si Si6 0.915018 0.513827 0.802747
Si Si7 0.623068 0.120374 0.125579
Si Si8 0.338491 0.583350 0.032989
O O1 0.191018 0.339853 0.507334
O O2 0.159520 0.305506 0.187484
O O3 0.231284 0.056173 0.230737
O O4 0.445267 0.151427 0.399686
O O5 0.666860 0.837233 0.306914
O O6 0.756206 0.515834 0.132588
O O7 0.959714 0.618998 0.318010
O O8 0.500000 0.500000 0.500000
O O9 0.226363 0.526932 0.299625
O O10 0.476000 0.298373 0.160977
O O11 0.359669 0.596890 0.227115
O O12 0.228603 0.890176 0.873213
O O13 0.252657 0.766535 0.058808
O O14 0.000000 0.000000 0.000000
O O15 0.330263 0.949954 0.730424
O O16 0.566097 0.011020 0.922136
O O17 0.000000 0.500000 0.000000
O O18 0.500000 0.500000 0.000000
#
# Coordination Sequence:
#
# PCOD8006752 Si02
#       8
#     2   2   2   2   2   2   2   2
#     4  11  25  43  69 104 136 182 234 289 336 418
#     4  12  25  42  73 107 139 176 240 297 342 401
#     4  12  26  44  70 103 135 183 233 286 346 421
#     4  11  25  41  67  97 142 182 223 279 361 414
#     4  10  20  40  71  96 131 173 235 281 340 401
#     4  12  25  46  72 103 138 182 236 289 347 405
#     4  10  20  40  63  96 129 178 225 278 336 408
#     4  12  24  44  69  99 143 189 222 280 356 420
#
# _framework density 21.58304
#
# number of rings (size 3 to 8) (size 9 to 14) (size 15 to 20)
#    0.000    0.750    5.000    2.250    5.250    2.000 
#    0.000    0.000    0.000    3.000    0.000    0.000 
#    0.000    0.000    0.000    0.000    0.000    0.000 
#
# Total GULP energy -198351.905068 kJ/mol
# GULP energy per Si atom -12396.994067 kJ/mol
# Density = 2.153392 g / cm^3
# Si number density = 21.583040 Si / 1000 Ang^3
#
#
#
# Elastic Constant Matrix: (Units=GPa)
#
#
# Indices 1 2 3 4 5 6 
#
# 1 184.0854 56.2580 61.7659 -11.4049 -21.1732 -14.5677
# 2 56.2580 149.8877 42.0977 -20.3036 -11.9561 5.7567
# 3 61.7659 42.0977 104.9053 -10.8155 -12.6101 4.5445
# 4 -11.4049 -20.3036 -10.8155 24.7181 -3.8140 -10.1903
# 5 -21.1732 -11.9561 -12.6101 -3.8140 31.5544 -2.4161
# 6 -14.5677 5.7567 4.5445 -10.1903 -2.4161 44.1097
#
#
#
# Elastic Compliance Matrix: (Units=1/GPa)
#
#
# Indices 1 2 3 4 5 6 
#
# 1 0.008073 -0.001405 -0.003512 0.003432 0.004220 0.004235
# 2 -0.001405 0.008714 -0.001749 0.006174 0.002417 0.000138
# 3 -0.003512 -0.001749 0.012879 0.002266 0.002279 -0.001610
# 4 0.003432 0.006174 0.002266 0.055818 0.013345 0.013720
# 5 0.004220 0.002417 0.002279 0.013345 0.038424 0.006031
# 6 0.004235 0.000138 -0.001610 0.013720 0.006031 0.027717
#
#
# Mechanical properties :
#
#
# Convention : Reuss Voigt Hill
#
# Bulk Modulus (GPa) = 61.21646 84.34686 72.78166
# Shear Modulus (GPa) = 29.34241 38.66023 34.00132
#
# Velocity S-wave (km/s) = 3.69116 4.23689 3.97340
# Velocity P-wave (km/s) = 6.82576 7.94355 7.40577
#
# Compressibility (1/GPa) = 0.01633548
#
# Stress axis : x y z
#
# Youngs Moduli (GPa) = 123.86731 114.75882 77.64523
#
# Poissons Ratio (x) = 0.16123 0.27268
# Poissons Ratio (y) = 0.17403 0.13576
# Poissons Ratio (z) = 0.43501 0.20066
#
# Static dielectric constant tensor:
#      x y z
#    x 4.407600 -0.072010 -0.447620 
#    y -0.072010 3.990740 -0.001040 
#    z -0.447620 -0.001040 3.782930 
# 
# 
# High freq. dielectric constant tensor:
#      x y z
#    x 1.864430 -0.000760 -0.028840 
#    y -0.000760 1.859770 -0.003000 
#    z -0.028840 -0.003000 1.822240 
# 
# From -- ./inp_files/260296.got.cif
#   From: 2010.06.25/outbox.cif.g09.slc.cpg/sg2_131_cif.got.tgz:260296.got - 2010.06.27 13:26:56.
