data_PCOD8006412
_publ_section_title
;
Structure prediction by ZEFSAII (Michael W. Deem and Ramdas Pophale) SiO2 
 PCOD8006412
Probable space group: P -1
;
_chemical_formula_sum "Si O2"
_cell_formula_units_Z 16
_cell_length_a 15.100788
_cell_length_b 15.948451
_cell_length_c 5.453419
_cell_angle_alpha 85.954639
_cell_angle_beta 78.101703
_cell_angle_gamma 143.332998
_cell_volume 702.113216
_symmetry_space_group_name_H-M "P -1"
_symmetry_group_IT_number 2
_symmetry_cell_setting 'triclinic'
loop_
_space_group_symop_operation_xyz
x,y,z
-x,-y,-z
loop_
_atom_site_type_symbol
_atom_site_label
_atom_site_fract_x
_atom_site_fract_y
_atom_site_fract_z
Si Si1 0.367398 0.427603 0.281608
Si Si2 0.057755 0.728583 0.009314
Si Si3 0.318830 0.694917 0.205586
Si Si4 0.471068 0.047793 0.304656
Si Si5 0.258170 0.480407 0.027519
Si Si6 0.429869 0.314262 0.497054
Si Si7 0.840514 0.274137 0.570017
Si Si8 0.346740 0.075013 0.735777
O O1 0.225757 0.370880 0.233251
O O2 0.308097 0.294967 0.475734
O O3 0.450562 0.556532 0.392920
O O4 0.500000 0.500000 0.000000
O O5 0.104523 0.715940 0.732461
O O6 0.873817 0.622781 0.096091
O O7 0.181100 0.901894 0.965863
O O8 0.045028 0.661501 0.275494
O O9 0.231277 0.542345 0.196412
O O10 0.183859 0.642673 0.453136
O O11 0.493864 0.813597 0.206984
O O12 0.355476 0.788085 0.941652
O O13 0.387179 0.066531 0.453403
O O14 0.500000 0.000000 0.500000
O O15 0.340024 0.905794 0.219007
O O16 0.446535 0.626981 0.792737
O O17 0.315815 0.150792 0.700374
#
# Coordination Sequence:
#
# PCOD8006412 Si02
#       8
#     2   2   2   2   2   2   2   2
#     4   9  20  39  65  96 122 154 206 270 326 377
#     4  11  27  42  61  93 142 174 208 267 335 373
#     4  12  21  36  64  89 121 170 233 262 300 373
#     4  11  20  36  59  91 121 166 221 276 306 352
#     4  11  24  40  64  95 128 168 210 267 327 388
#     4  10  20  39  69  93 121 159 217 264 314 391
#     4  11  24  40  60  90 133 178 221 264 317 369
#     4  11  21  37  64  96 121 169 220 268 307 382
#
# _framework density 22.788347999999999
#
# number of rings (size 3 to 8) (size 9 to 14) (size 15 to 20)
#    0.000    1.250    5.000    1.875    1.750    1.000 
#    0.000    0.625    0.000    6.750    0.000    0.000 
#    0.000    0.000    0.000    0.000    0.000    0.000 
#
# Total GULP energy -198241.284652 kJ/mol
# GULP energy per Si atom -12390.080291 kJ/mol
# Density = 2.273648 g / cm^3
# Si number density = 22.788348 Si / 1000 Ang^3
#
#
#
# Elastic Constant Matrix: (Units=GPa)
#
#
# Indices 1 2 3 4 5 6 
#
# 1 127.4500 64.9191 25.4400 10.5439 36.4366 -14.8754
# 2 64.9191 86.6552 13.8352 8.7881 14.5267 -9.4529
# 3 25.4400 13.8352 62.0979 10.7447 17.0707 -10.5141
# 4 10.5439 8.7881 10.7447 27.8244 4.1422 2.2462
# 5 36.4366 14.5267 17.0707 4.1422 31.8495 6.3755
# 6 -14.8754 -9.4529 -10.5141 2.2462 6.3755 46.1416
#
#
#
# Elastic Compliance Matrix: (Units=1/GPa)
#
#
# Indices 1 2 3 4 5 6 
#
# 1 0.019552 -0.010588 0.001289 -0.002260 -0.019380 0.007216
# 2 -0.010588 0.019126 -0.000643 -0.002378 0.004061 -0.000087
# 3 0.001289 -0.000643 0.021980 -0.007369 -0.013509 0.007518
# 4 -0.002260 -0.002378 -0.007369 0.040311 0.003445 -0.005333
# 5 -0.019380 0.004061 -0.013509 0.003445 0.061957 -0.017223
# 6 0.007216 -0.000087 0.007518 -0.005333 -0.017223 0.028333
#
#
# Mechanical properties :
#
#
# Convention : Reuss Voigt Hill
#
# Bulk Modulus (GPa) = 24.52545 53.84354 39.18449
# Shear Modulus (GPa) = 22.24853 32.63035 27.43944
#
# Velocity S-wave (km/s) = 3.12799 3.78813 3.47378
# Velocity P-wave (km/s) = 4.88174 6.54311 5.77250
#
# Compressibility (1/GPa) = 0.04077398
#
# Stress axis : x y z
#
# Youngs Moduli (GPa) = 51.14596 52.28533 45.49518
#
# Poissons Ratio (x) = 0.55361 -0.05866
# Poissons Ratio (y) = 0.54155 0.02926
# Poissons Ratio (z) = -0.06595 0.03363
#
# Static dielectric constant tensor:
#      x y z
#    x 4.601980 -0.189860 0.235180 
#    y -0.189860 4.205240 0.083810 
#    z 0.235180 0.083810 4.004370 
# 
# 
# High freq. dielectric constant tensor:
#      x y z
#    x 1.898170 -0.019470 0.015010 
#    y -0.019470 1.884020 0.019550 
#    z 0.015010 0.019550 1.894680 
# 
# From -- ./inp_files/97441.got.cif
#   From: 2010.06.25/outbox.cif.g09.slc.cpg/sg2_49_cif.got.tgz:97441.got - 2010.06.27 13:26:56.
