data_PCOD8006697
_publ_section_title
;
Structure prediction by ZEFSAII (Michael W. Deem and Ramdas Pophale) SiO2 
 PCOD8006697
Probable space group: P -1
;
_chemical_formula_sum "Si O2"
_cell_formula_units_Z 14
_cell_length_a 20.085284
_cell_length_b 6.954980
_cell_length_c 7.606056
_cell_angle_alpha 83.891862
_cell_angle_beta 143.768370
_cell_angle_gamma 93.004809
_cell_volume 623.423058
_symmetry_space_group_name_H-M "P -1"
_symmetry_group_IT_number 2
_symmetry_cell_setting 'triclinic'
loop_
_space_group_symop_operation_xyz
x,y,z
-x,-y,-z
loop_
_atom_site_type_symbol
_atom_site_label
_atom_site_fract_x
_atom_site_fract_y
_atom_site_fract_z
Si Si1 0.293780 0.599681 0.338929
Si Si2 0.909998 0.596894 0.931756
Si Si3 0.730388 0.022093 0.911596
Si Si4 0.950753 0.935389 0.215514
Si Si5 0.422143 0.192432 0.615284
Si Si6 0.158224 0.070557 0.483762
Si Si7 0.648741 0.130822 0.261204
O O1 0.166474 0.561761 0.129961
O O2 0.366291 0.407529 0.463061
O O3 0.358389 0.706990 0.620292
O O4 0.288369 0.743648 0.142076
O O5 0.829030 0.741533 0.627038
O O6 0.964786 0.710058 0.203336
O O7 0.000000 0.500000 0.000000
O O8 0.615767 0.920926 0.629060
O O9 0.816838 0.991369 0.929350
O O10 0.784899 0.912152 0.205476
O O11 0.000000 0.000000 0.500000
O O12 0.023734 0.044341 0.215280
O O13 0.382545 0.080395 0.715099
O O14 0.558142 0.196171 0.909650
O O15 0.226378 0.887878 0.556000
#
# Coordination Sequence:
#
# PCOD8006697 Si02
#       7
#     2   2   2   2   2   2   2
#     4  11  20  39  62  91 119 160 213 248 308 373
#     4  12  22  38  66  97 122 160 217 264 305 372
#     4  10  22  41  61  88 127 168 198 253 315 377
#     4  10  21  41  62  87 128 168 201 250 322 376
#     4  10  20  40  63  88 123 167 207 247 312 375
#     4  11  22  41  60  89 129 158 203 261 313 362
#     4  10  21  38  64  91 122 162 207 260 306 363
#
# _framework density 22.456662000000001
#
# number of rings (size 3 to 8) (size 9 to 14) (size 15 to 20)
#    0.000    1.429    2.857    3.429    0.000    0.571 
#    7.714    5.000    0.000    0.000    0.000    0.000 
#    0.000    0.000    0.000    0.000    0.000    0.000 
#
# Total GULP energy -173453.905935 kJ/mol
# GULP energy per Si atom -12389.564710 kJ/mol
# Density = 2.240555 g / cm^3
# Si number density = 22.456662 Si / 1000 Ang^3
#
#
#
# Elastic Constant Matrix: (Units=GPa)
#
#
# Indices 1 2 3 4 5 6 
#
# 1 53.2196 22.8677 19.0563 -3.5850 -9.6066 -8.6967
# 2 22.8677 125.8641 33.9821 2.2319 -10.4639 -13.4768
# 3 19.0563 33.9821 88.5728 3.5120 -19.9492 1.1027
# 4 -3.5850 2.2319 3.5120 32.3225 -7.7964 4.8275
# 5 -9.6066 -10.4639 -19.9492 -7.7964 32.5750 -1.5058
# 6 -8.6967 -13.4768 1.1027 4.8275 -1.5058 24.4172
#
#
#
# Elastic Compliance Matrix: (Units=1/GPa)
#
#
# Indices 1 2 3 4 5 6 
#
# 1 0.023179 -0.002249 -0.003148 0.003327 0.005297 0.006826
# 2 -0.002249 0.009814 -0.003188 -0.001217 0.000478 0.005030
# 3 -0.003148 -0.003188 0.014806 0.000447 0.007074 -0.003202
# 4 0.003327 -0.001217 0.000447 0.034327 0.008814 -0.005750
# 5 0.005297 0.000478 0.007074 0.008814 0.038971 0.002492
# 6 0.006826 0.005030 -0.003202 -0.005750 0.002492 0.047597
#
#
# Mechanical properties :
#
#
# Convention : Reuss Voigt Hill
#
# Bulk Modulus (GPa) = 32.64862 46.60762 39.62812
# Shear Modulus (GPa) = 25.50040 30.64630 28.07335
#
# Velocity S-wave (km/s) = 3.37343 3.69817 3.53953
# Velocity P-wave (km/s) = 5.45375 6.24779 5.86423
#
# Compressibility (1/GPa) = 0.03062916
#
# Stress axis : x y z
#
# Youngs Moduli (GPa) = 43.14189 101.89100 67.54044
#
# Poissons Ratio (x) = 0.22918 0.21261
# Poissons Ratio (y) = 0.09704 0.21533
# Poissons Ratio (z) = 0.13580 0.32485
#
# Static dielectric constant tensor:
#      x y z
#    x 4.108720 0.003910 0.229700 
#    y 0.003910 4.012460 0.052210 
#    z 0.229700 0.052210 4.185120 
# 
# 
# High freq. dielectric constant tensor:
#      x y z
#    x 1.874510 -0.006460 0.007030 
#    y -0.006460 1.874300 0.003730 
#    z 0.007030 0.003730 1.892010 
# 
# From -- ./inp_files/37382.got.cif
#   From: 2010.06.25/outbox.cif.g09.slc.cpg/sg2_19_cif.got.tgz:37382.got - 2010.06.27 13:26:56.
