data_PCOD8006662
_publ_section_title
;
Structure prediction by ZEFSAII (Michael W. Deem and Ramdas Pophale) SiO2 
 PCOD8006662
Probable space group: P -1
;
_chemical_formula_sum "Si O2"
_cell_formula_units_Z 16
_cell_length_a 9.692369
_cell_length_b 28.000269
_cell_length_c 21.803399
_cell_angle_alpha 16.154347
_cell_angle_beta 35.899020
_cell_angle_gamma 28.916774
_cell_volume 775.041025
_symmetry_space_group_name_H-M "P -1"
_symmetry_group_IT_number 2
_symmetry_cell_setting 'triclinic'
loop_
_space_group_symop_operation_xyz
x,y,z
-x,-y,-z
loop_
_atom_site_type_symbol
_atom_site_label
_atom_site_fract_x
_atom_site_fract_y
_atom_site_fract_z
Si Si1 0.305116 0.959540 0.582921
Si Si2 0.611565 0.785380 0.468297
Si Si3 0.213843 0.568181 0.341201
Si Si4 0.798001 0.833366 0.064098
Si Si5 0.703082 0.165981 0.597552
Si Si6 0.438437 0.513712 0.934165
Si Si7 0.767866 0.454710 0.499994
Si Si8 0.171531 0.098535 0.328499
O O1 0.500000 0.000000 0.500000
O O2 0.358513 0.992447 0.453261
O O3 0.401688 0.724636 0.854123
O O4 0.965339 0.141616 0.496268
O O5 0.532949 0.802456 0.404266
O O6 0.575573 0.616844 0.722313
O O7 0.943828 0.710554 0.440731
O O8 0.405723 0.019537 0.286213
O O9 0.544223 0.371394 0.446039
O O10 0.227135 0.639505 0.317853
O O11 0.000000 0.500000 0.500000
O O12 0.068896 0.751663 0.114790
O O13 0.768459 0.658252 0.260918
O O14 0.500000 0.000000 0.000000
O O15 0.845381 0.947595 0.852328
O O16 0.083103 0.646459 0.890185
O O17 0.500000 0.500000 0.000000
O O18 0.500000 0.500000 0.500000
O O19 0.000000 0.000000 0.500000
#
# Coordination Sequence:
#
# PCOD8006662 Si02
#       8
#     2   2   2   2   2   2   2   2
#     4  12  26  40  64  99 131 158 208 274 320 364
#     4  11  20  40  70  93 120 172 224 248 307 388
#     4  10  20  40  62  93 126 162 212 256 297 379
#     4  11  20  40  69  89 120 174 213 248 307 380
#     4  12  21  40  71  89 121 171 219 247 305 385
#     4  11  20  42  69  90 123 172 214 255 311 384
#     4  11  23  40  66  96 134 159 204 273 315 355
#     4  10  20  40  63  91 127 160 215 258 299 384
#
# _framework density 20.644067
#
# number of rings (size 3 to 8) (size 9 to 14) (size 15 to 20)
#    0.000    1.000   10.000    0.750    0.000    1.500 
#    0.000    2.500    0.000    0.000    0.000    0.000 
#    0.000    0.000    0.000    0.000    0.000    0.000 
#
# Total GULP energy -198301.207919 kJ/mol
# GULP energy per Si atom -12393.825495 kJ/mol
# Density = 2.059708 g / cm^3
# Si number density = 20.644067 Si / 1000 Ang^3
#
#
#
# Elastic Constant Matrix: (Units=GPa)
#
#
# Indices 1 2 3 4 5 6 
#
# 1 137.8046 41.5035 33.0969 3.4067 26.0646 -3.0016
# 2 41.5035 149.6812 23.6626 -27.0719 1.5601 3.7168
# 3 33.0969 23.6626 76.6309 -7.8147 27.8997 2.3283
# 4 3.4067 -27.0719 -7.8147 31.5256 6.0497 7.5594
# 5 26.0646 1.5601 27.8997 6.0497 31.4546 1.8875
# 6 -3.0016 3.7168 2.3283 7.5594 1.8875 32.1612
#
#
#
# Elastic Compliance Matrix: (Units=1/GPa)
#
#
# Indices 1 2 3 4 5 6 
#
# 1 0.009876 -0.003151 -0.001489 -0.003580 -0.006174 0.002597
# 2 -0.003151 0.009357 -0.001195 0.008557 0.001765 -0.003404
# 3 -0.001489 -0.001195 0.022444 0.009204 -0.020229 -0.002602
# 4 -0.003580 0.008557 0.009204 0.047372 -0.013994 -0.012303
# 5 -0.006174 0.001765 -0.020229 -0.013994 0.057419 0.000604
# 6 0.002597 -0.003404 -0.002602 -0.012303 0.000604 0.034774
#
#
# Mechanical properties :
#
#
# Convention : Reuss Voigt Hill
#
# Bulk Modulus (GPa) = 33.32426 62.29362 47.80894
# Shear Modulus (GPa) = 24.64106 36.75185 30.69645
#
# Velocity S-wave (km/s) = 3.45862 4.22389 3.86027
# Velocity P-wave (km/s) = 5.66805 7.35044 6.56337
#
# Compressibility (1/GPa) = 0.03000817
#
# Stress axis : x y z
#
# Youngs Moduli (GPa) = 101.25577 106.86969 44.55526
#
# Poissons Ratio (x) = 0.33671 0.06632
# Poissons Ratio (y) = 0.31902 0.05326
# Poissons Ratio (z) = 0.15072 0.12774
#
# Static dielectric constant tensor:
#      x y z
#    x 3.997660 0.194700 0.575000 
#    y 0.194700 4.843920 -0.769290 
#    z 0.575000 -0.769290 4.324820 
# 
# 
# High freq. dielectric constant tensor:
#      x y z
#    x 1.795040 0.018540 0.035610 
#    y 0.018540 1.823860 -0.019640 
#    z 0.035610 -0.019640 1.786330 
# 
# From -- ./inp_files/313124.got.cif
#   From: 2010.06.25/outbox.cif.g09.slc.cpg/sg2_157_cif.got.tgz:313124.got - 2010.06.27 13:26:56.
