data_PCOD8006864
_publ_section_title
;
Structure prediction by ZEFSAII (Michael W. Deem and Ramdas Pophale) SiO2 
 PCOD8006864
Probable space group: P -1
;
_chemical_formula_sum "Si O2"
_cell_formula_units_Z 16
_cell_length_a 19.528919
_cell_length_b 8.337138
_cell_length_c 11.279248
_cell_angle_alpha 142.403646
_cell_angle_beta 42.952156
_cell_angle_gamma 119.091570
_cell_volume 743.773351
_symmetry_space_group_name_H-M "P -1"
_symmetry_group_IT_number 2
_symmetry_cell_setting 'triclinic'
loop_
_space_group_symop_operation_xyz
x,y,z
-x,-y,-z
loop_
_atom_site_type_symbol
_atom_site_label
_atom_site_fract_x
_atom_site_fract_y
_atom_site_fract_z
Si Si1 0.556798 0.710786 0.208459
Si Si2 0.093268 0.932516 0.247253
Si Si3 0.081137 0.718013 0.891432
Si Si4 0.228681 0.165770 0.368415
Si Si5 0.216614 0.830609 0.581160
Si Si6 0.601648 0.605417 0.825784
Si Si7 0.868055 0.600717 0.010381
Si Si8 0.227473 0.630262 0.202009
O O1 0.493774 0.473644 0.167550
O O2 0.500000 0.000000 0.500000
O O3 0.569500 0.758483 0.079784
O O4 0.664512 0.593572 0.070640
O O5 0.156489 0.623481 0.001994
O O6 0.172818 0.119745 0.286644
O O7 0.056833 0.936823 0.158776
O O8 0.000000 0.000000 0.500000
O O9 0.157197 0.438003 0.674045
O O10 0.128539 0.859608 0.808413
O O11 0.978145 0.655233 0.933552
O O12 0.341847 0.212372 0.221439
O O13 0.239091 0.915085 0.296892
O O14 0.325389 0.687748 0.413122
O O15 0.189684 0.668085 0.406969
O O16 0.221023 0.128984 0.706223
O O17 0.861792 0.481865 0.816073
#
# Coordination Sequence:
#
# PCOD8006864 Si02
#       8
#     2   2   2   2   2   2   2   2
#     4  10  20  40  65  86 120 152 193 244 304 360
#     4  11  23  38  58  82 119 163 204 243 289 346
#     4  11  23  37  60  84 118 166 200 245 293 345
#     4  10  22  40  59  89 122 155 204 242 290 356
#     4  10  22  38  56  87 120 151 204 246 293 351
#     4   9  21  39  62  89 116 158 192 244 302 353
#     4  11  22  36  58  83 119 159 202 243 289 346
#     4  10  23  38  60  88 118 157 195 250 298 346
#
# _framework density 21.51193
#
# number of rings (size 3 to 8) (size 9 to 14) (size 15 to 20)
#    0.000    1.750    1.250    2.250    3.500    6.000 
#    0.000    0.625    0.000    0.000    0.000    0.000 
#    0.000    0.000    0.000    0.000    0.000    0.000 
#
# Total GULP energy -198263.282699 kJ/mol
# GULP energy per Si atom -12391.455169 kJ/mol
# Density = 2.146297 g / cm^3
# Si number density = 21.511930 Si / 1000 Ang^3
#
#
#
# Elastic Constant Matrix: (Units=GPa)
#
#
# Indices 1 2 3 4 5 6 
#
# 1 92.3003 22.0890 28.4634 -13.5841 25.6275 6.2798
# 2 22.0890 55.4618 35.9126 -9.3850 9.6413 7.7634
# 3 28.4634 35.9126 107.1920 -5.2420 15.9195 -7.1103
# 4 -13.5841 -9.3850 -5.2420 30.6176 -8.3239 -5.4962
# 5 25.6275 9.6413 15.9195 -8.3239 31.8242 10.3805
# 6 6.2798 7.7634 -7.1103 -5.4962 10.3805 28.3052
#
#
#
# Elastic Compliance Matrix: (Units=1/GPa)
#
#
# Indices 1 2 3 4 5 6 
#
# 1 0.015184 -0.003206 -0.001155 0.003015 -0.010421 0.001628
# 2 -0.003206 0.026540 -0.008888 0.004404 0.003102 -0.009083
# 3 -0.001155 -0.008888 0.014072 -0.001072 -0.006430 0.008379
# 4 0.003015 0.004404 -0.001072 0.037212 0.005509 0.003059
# 5 -0.010421 0.003102 -0.006430 0.005509 0.049107 -0.017094
# 6 0.001628 -0.009083 0.008379 0.003059 -0.017094 0.046427
#
#
# Mechanical properties :
#
#
# Convention : Reuss Voigt Hill
#
# Bulk Modulus (GPa) = 34.13188 47.54267 40.83728
# Shear Modulus (GPa) = 22.24145 29.38202 25.81174
#
# Velocity S-wave (km/s) = 3.21894 3.69975 3.46769
# Velocity P-wave (km/s) = 5.45127 6.35605 5.92097
#
# Compressibility (1/GPa) = 0.02929812
#
# Stress axis : x y z
#
# Youngs Moduli (GPa) = 65.85930 37.67915 71.06399
#
# Poissons Ratio (x) = 0.12078 0.08207
# Poissons Ratio (y) = 0.21112 0.63163
# Poissons Ratio (z) = 0.07606 0.33490
#
# Static dielectric constant tensor:
#      x y z
#    x 4.000450 0.028160 0.016200 
#    y 0.028160 3.841300 0.234960 
#    z 0.016200 0.234960 4.129930 
# 
# 
# High freq. dielectric constant tensor:
#      x y z
#    x 1.847220 0.001840 0.008000 
#    y 0.001840 1.825490 0.014940 
#    z 0.008000 0.014940 1.851100 
# 
# From -- ./inp_files/138973.got.cif
#   From: 2010.06.25/outbox.cif.g09.slc.cpg/sg2_70_cif.got.tgz:138973.got - 2010.06.27 13:26:56.
