data_PCOD8006805
_publ_section_title
;
Structure prediction by ZEFSAII (Michael W. Deem and Ramdas Pophale) SiO2 
 PCOD8006805
Probable space group: P -1
;
_chemical_formula_sum "Si O2"
_cell_formula_units_Z 16
_cell_length_a 8.795474
_cell_length_b 14.574261
_cell_length_c 8.698040
_cell_angle_alpha 109.931453
_cell_angle_beta 48.830350
_cell_angle_gamma 99.253924
_cell_volume 785.849765
_symmetry_space_group_name_H-M "P -1"
_symmetry_group_IT_number 2
_symmetry_cell_setting 'triclinic'
loop_
_space_group_symop_operation_xyz
x,y,z
-x,-y,-z
loop_
_atom_site_type_symbol
_atom_site_label
_atom_site_fract_x
_atom_site_fract_y
_atom_site_fract_z
Si Si1 0.355986 0.878481 0.123318
Si Si2 0.420467 0.300218 0.958567
Si Si3 0.236842 0.598086 0.083204
Si Si4 0.605231 0.917154 0.696752
Si Si5 0.963501 0.776503 0.341037
Si Si6 0.959694 0.564627 0.714737
Si Si7 0.591131 0.751925 0.409671
Si Si8 0.646557 0.401643 0.345176
O O1 0.515470 0.793217 0.032684
O O2 0.139288 0.841992 0.208844
O O3 0.339449 0.971453 0.304852
O O4 0.425959 0.918292 0.938099
O O5 0.551874 0.390442 0.964577
O O6 0.470580 0.271182 0.733493
O O7 0.185046 0.336207 0.166746
O O8 0.067954 0.682107 0.308677
O O9 0.160302 0.492890 0.108845
O O10 0.263288 0.616464 0.894872
O O11 0.531207 0.867102 0.559178
O O12 0.802616 0.847107 0.588168
O O13 0.837103 0.734143 0.257525
O O14 0.000000 0.500000 0.500000
O O15 0.173025 0.591932 0.650634
O O16 0.481283 0.686704 0.569254
O O17 0.500000 0.500000 0.500000
#
# Coordination Sequence:
#
# PCOD8006805 Si02
#       8
#     2   2   2   2   2   2   2   2
#     4  10  20  40  64  92 117 163 201 259 294 368
#     4  11  23  38  58  86 126 156 198 247 315 362
#     4  11  22  39  61  87 117 166 204 246 299 364
#     4   9  21  37  67  87 122 153 217 243 305 356
#     4   9  20  36  65  85 120 153 206 246 299 355
#     4  12  25  38  59  88 126 160 200 252 308 361
#     4  10  21  38  58  88 120 157 194 254 304 354
#     4  12  23  39  63  86 121 160 214 249 294 364
#
# _framework density 20.360126000000001
#
# number of rings (size 3 to 8) (size 9 to 14) (size 15 to 20)
#    0.750    0.750    0.000    6.375    1.750    0.500 
#    0.000    0.000    0.000    2.250    0.000    0.000 
#    0.000    0.000    0.000    0.000    0.000    0.000 
#
# Total GULP energy -198282.436118 kJ/mol
# GULP energy per Si atom -12392.652257 kJ/mol
# Density = 2.031378 g / cm^3
# Si number density = 20.360126 Si / 1000 Ang^3
#
#
#
# Elastic Constant Matrix: (Units=GPa)
#
#
# Indices 1 2 3 4 5 6 
#
# 1 121.9667 39.3102 36.0459 0.0424 -6.0748 24.8437
# 2 39.3102 90.8809 22.6091 6.5398 -8.4696 19.7319
# 3 36.0459 22.6091 82.1839 6.4517 3.4635 7.8277
# 4 0.0424 6.5398 6.4517 36.3143 -3.7266 -3.3444
# 5 -6.0748 -8.4696 3.4635 -3.7266 37.0748 1.1455
# 6 24.8437 19.7319 7.8277 -3.3444 1.1455 25.2561
#
#
#
# Elastic Compliance Matrix: (Units=1/GPa)
#
#
# Indices 1 2 3 4 5 6 
#
# 1 0.011972 -0.002078 -0.003953 0.000461 0.002179 -0.008965
# 2 -0.002078 0.015044 -0.002234 -0.002849 0.003313 -0.009544
# 3 -0.003953 -0.002234 0.014741 -0.002420 -0.002805 0.000872
# 4 0.000461 -0.002849 -0.002420 0.029306 0.002402 0.006294
# 5 0.002179 0.003313 -0.002805 0.002402 0.028740 -0.004849
# 6 -0.008965 -0.009544 0.000872 0.006294 -0.004849 0.056653
#
#
# Mechanical properties :
#
#
# Convention : Reuss Voigt Hill
#
# Bulk Modulus (GPa) = 39.64146 54.55132 47.09639
# Shear Modulus (GPa) = 27.56403 32.86680 30.21541
#
# Velocity S-wave (km/s) = 3.68343 4.02216 3.85651
# Velocity P-wave (km/s) = 6.13209 6.95857 6.55837
#
# Compressibility (1/GPa) = 0.02522611
#
# Stress axis : x y z
#
# Youngs Moduli (GPa) = 83.53085 66.47049 67.83625
#
# Poissons Ratio (x) = 0.13815 0.26816
# Poissons Ratio (y) = 0.17361 0.15155
# Poissons Ratio (z) = 0.33021 0.14850
#
# Static dielectric constant tensor:
#      x y z
#    x 3.645360 0.210060 -0.133100 
#    y 0.210060 3.811950 0.223700 
#    z -0.133100 0.223700 3.674830 
# 
# 
# High freq. dielectric constant tensor:
#      x y z
#    x 1.789370 0.019620 -0.012420 
#    y 0.019620 1.796170 0.013920 
#    z -0.012420 0.013920 1.794430 
# 
# From -- ./inp_files/208167.got.cif
#   From: 2010.06.25/outbox.cif.g09.slc.cpg/sg2_105_cif.got.tgz:208167.got - 2010.06.27 13:26:56.
