data_PCOD8006538
_publ_section_title
;
Structure prediction by ZEFSAII (Michael W. Deem and Ramdas Pophale) SiO2 
 PCOD8006538
Probable space group: P -1
;
_chemical_formula_sum "Si O2"
_cell_formula_units_Z 16
_cell_length_a 21.501956
_cell_length_b 19.375211
_cell_length_c 9.215515
_cell_angle_alpha 131.754107
_cell_angle_beta 59.108340
_cell_angle_gamma 161.534331
_cell_volume 785.432978
_symmetry_space_group_name_H-M "P -1"
_symmetry_group_IT_number 2
_symmetry_cell_setting 'triclinic'
loop_
_space_group_symop_operation_xyz
x,y,z
-x,-y,-z
loop_
_atom_site_type_symbol
_atom_site_label
_atom_site_fract_x
_atom_site_fract_y
_atom_site_fract_z
Si Si1 0.762271 0.778744 0.702371
Si Si2 0.173028 0.770377 0.077815
Si Si3 0.588015 0.083929 0.171517
Si Si4 0.165105 0.482982 0.954451
Si Si5 0.371988 0.666039 0.491049
Si Si6 0.104362 0.257798 0.478021
Si Si7 0.772919 0.585690 0.972642
Si Si8 0.317552 0.328998 0.684156
O O1 0.732550 0.633439 0.550621
O O2 0.569961 0.596001 0.770719
O O3 0.770238 0.809199 0.562410
O O4 0.996341 0.098625 0.935788
O O5 0.060892 0.729406 0.097123
O O6 0.394568 0.063423 0.319140
O O7 0.000000 0.500000 0.000000
O O8 0.235513 0.787114 0.880961
O O9 0.695601 0.308272 0.419206
O O10 0.386276 0.814804 0.146037
O O11 0.500000 0.000000 0.000000
O O12 0.191763 0.440713 0.737856
O O13 0.165500 0.431609 0.035106
O O14 0.151744 0.355156 0.398093
O O15 0.400323 0.650304 0.279199
O O16 0.843564 0.913085 0.340183
O O17 0.672959 0.548204 0.138453
#
# Coordination Sequence:
#
# PCOD8006538 Si02
#       8
#     2   2   2   2   2   2   2   2
#     4  10  21  39  64  92 125 164 215 252 300 380
#     4  11  21  40  66  89 118 166 215 248 294 378
#     4  10  20  40  60  91 122 159 207 256 297 374
#     4  12  21  38  71  90 117 168 215 245 306 380
#     4  11  24  42  63  92 135 159 202 267 318 353
#     4  11  20  38  64  91 118 173 209 249 303 375
#     4  11  24  43  60  97 131 160 199 270 318 353
#     4  10  21  39  64  93 126 163 213 256 300 376
#
# _framework density 20.370929
#
# number of rings (size 3 to 8) (size 9 to 14) (size 15 to 20)
#    0.000    1.250    7.500    0.750    1.750    3.500 
#    4.500    1.875    0.000    0.000    0.000    0.000 
#    0.000    0.000    0.000    0.000    0.000    0.000 
#
# Total GULP energy -198321.129971 kJ/mol
# GULP energy per Si atom -12395.070623 kJ/mol
# Density = 2.032456 g / cm^3
# Si number density = 20.370929 Si / 1000 Ang^3
#
#
#
# Elastic Constant Matrix: (Units=GPa)
#
#
# Indices 1 2 3 4 5 6 
#
# 1 118.0190 58.9999 42.5757 -0.3380 -26.3059 14.0086
# 2 58.9999 109.4977 44.5920 3.0712 -11.3437 15.6173
# 3 42.5757 44.5920 71.8207 -6.6886 -7.0322 5.0366
# 4 -0.3380 3.0712 -6.6886 16.3478 -4.8087 -2.4810
# 5 -26.3059 -11.3437 -7.0322 -4.8087 24.2394 -0.2694
# 6 14.0086 15.6173 5.0366 -2.4810 -0.2694 36.3882
#
#
#
# Elastic Compliance Matrix: (Units=1/GPa)
#
#
# Indices 1 2 3 4 5 6 
#
# 1 0.016273 -0.005039 -0.004570 0.003226 0.014582 -0.003142
# 2 -0.005039 0.015332 -0.007071 -0.007034 -0.001787 -0.004154
# 3 -0.004570 -0.007071 0.021856 0.010616 0.000206 0.002494
# 4 0.003226 -0.007034 0.010616 0.072967 0.017825 0.005414
# 5 0.014582 -0.001787 0.000206 0.017825 0.059804 -0.003217
# 6 -0.003142 -0.004154 0.002494 0.005414 -0.003217 0.030474
#
#
# Mechanical properties :
#
#
# Convention : Reuss Voigt Hill
#
# Bulk Modulus (GPa) = 49.74460 65.74139 57.74300
# Shear Modulus (GPa) = 19.47292 25.60639 22.53966
#
# Velocity S-wave (km/s) = 3.09515 3.54928 3.32996
# Velocity P-wave (km/s) = 6.10292 7.00990 6.57208
#
# Compressibility (1/GPa) = 0.02010268
#
# Stress axis : x y z
#
# Youngs Moduli (GPa) = 61.45049 65.22262 45.75314
#
# Poissons Ratio (x) = 0.32867 0.20907
# Poissons Ratio (y) = 0.30967 0.32351
# Poissons Ratio (z) = 0.28080 0.46117
#
# Static dielectric constant tensor:
#      x y z
#    x 3.864230 0.066420 -0.480140 
#    y 0.066420 3.852730 -0.016940 
#    z -0.480140 -0.016940 3.641700 
# 
# 
# High freq. dielectric constant tensor:
#      x y z
#    x 1.787310 -0.001850 -0.034320 
#    y -0.001850 1.798680 0.001940 
#    z -0.034320 0.001940 1.779810 
# 
# From -- ./inp_files/348587.got.cif
#   From: 2010.06.25/outbox.cif.g09.slc.cpg/sg2_175_cif.got.tgz:348587.got - 2010.06.27 13:26:56.
