data_PCOD8006900
_publ_section_title
;
Structure prediction by ZEFSAII (Michael W. Deem and Ramdas Pophale) SiO2 
 PCOD8006900
Probable space group: P -1
;
_chemical_formula_sum "Si O2"
_cell_formula_units_Z 16
_cell_length_a 15.679865
_cell_length_b 14.235809
_cell_length_c 9.315484
_cell_angle_alpha 80.169032
_cell_angle_beta 130.944381
_cell_angle_gamma 139.313556
_cell_volume 767.072054
_symmetry_space_group_name_H-M "P -1"
_symmetry_group_IT_number 2
_symmetry_cell_setting 'triclinic'
loop_
_space_group_symop_operation_xyz
x,y,z
-x,-y,-z
loop_
_atom_site_type_symbol
_atom_site_label
_atom_site_fract_x
_atom_site_fract_y
_atom_site_fract_z
Si Si1 0.584493 0.944496 0.276044
Si Si2 0.599572 0.373377 0.735622
Si Si3 0.671225 0.493536 0.469738
Si Si4 0.081675 0.438691 0.489084
Si Si5 0.742658 0.772172 0.109845
Si Si6 0.640872 0.188860 0.213127
Si Si7 0.772385 0.780747 0.473400
Si Si8 0.899707 0.687524 0.204332
O O1 0.404615 0.744451 0.211523
O O2 0.554267 0.035742 0.253853
O O3 0.557629 0.912944 0.080443
O O4 0.834041 0.093603 0.559161
O O5 0.594470 0.386978 0.558147
O O6 0.375433 0.251940 0.594210
O O7 0.824692 0.586433 0.996434
O O8 0.892378 0.601792 0.619099
O O9 0.736059 0.649748 0.533869
O O10 0.467664 0.330650 0.172826
O O11 0.248517 0.652330 0.603248
O O12 0.167345 0.436947 0.715451
O O13 0.824939 0.284480 0.273327
O O14 0.691781 0.720526 0.235093
O O15 0.765812 0.686959 0.081592
O O16 0.964163 0.999850 0.275290
#
# Coordination Sequence:
#
# PCOD8006900 Si02
#       8
#     2   2   2   2   2   2   2   2
#     4  10  21  39  64  90 115 152 201 249 301 348
#     4  12  24  38  59  88 127 167 190 231 303 367
#     4  12  25  39  58  88 132 160 191 240 295 361
#     4  10  20  40  65  91 113 153 202 252 302 342
#     4  11  23  37  63  92 116 161 203 248 279 347
#     4   9  20  38  70  89 110 147 207 266 294 337
#     4  11  23  39  60  90 122 158 202 240 288 349
#     4  11  20  37  65  86 120 155 202 244 290 350
#
# _framework density 20.858535
#
# number of rings (size 3 to 8) (size 9 to 14) (size 15 to 20)
#    0.000    1.250    5.000    1.500    0.000    1.500 
#    2.250    1.250    0.000    0.000    0.000    0.000 
#    0.000    0.000    0.000    0.000    0.000    0.000 
#
# Total GULP energy -198392.457888 kJ/mol
# GULP energy per Si atom -12399.528618 kJ/mol
# Density = 2.081106 g / cm^3
# Si number density = 20.858535 Si / 1000 Ang^3
#
#
#
# Elastic Constant Matrix: (Units=GPa)
#
#
# Indices 1 2 3 4 5 6 
#
# 1 48.4367 28.5412 27.6811 -7.6220 -7.1838 -7.0972
# 2 28.5412 118.1180 29.4474 -13.4677 -15.0408 -20.5906
# 3 27.6811 29.4474 70.3257 3.3848 -4.5908 4.6930
# 4 -7.6220 -13.4677 3.3848 29.1764 -1.3950 -5.5990
# 5 -7.1838 -15.0408 -4.5908 -1.3950 22.7492 1.6245
# 6 -7.0972 -20.5906 4.6930 -5.5990 1.6245 32.2232
#
#
#
# Elastic Compliance Matrix: (Units=1/GPa)
#
#
# Indices 1 2 3 4 5 6 
#
# 1 0.033522 -0.000282 -0.013933 0.012728 0.007578 0.011062
# 2 -0.000282 0.014262 -0.006579 0.009819 0.007806 0.011322
# 3 -0.013933 -0.006579 0.023629 -0.012021 -0.003818 -0.012610
# 4 0.012728 0.009819 -0.012021 0.047559 0.009673 0.018604
# 5 0.007578 0.007806 -0.003818 0.009673 0.050883 0.006329
# 6 0.011062 0.011322 -0.012610 0.018604 0.006329 0.045455
#
#
# Mechanical properties :
#
#
# Convention : Reuss Voigt Hill
#
# Bulk Modulus (GPa) = 33.52889 45.35776 39.44333
# Shear Modulus (GPa) = 18.73794 26.91047 22.82421
#
# Velocity S-wave (km/s) = 3.00047 3.59575 3.31152
# Velocity P-wave (km/s) = 5.30218 6.24755 5.79418
#
# Compressibility (1/GPa) = 0.02982502
#
# Stress axis : x y z
#
# Youngs Moduli (GPa) = 29.83148 70.11807 42.32013
#
# Poissons Ratio (x) = 0.01976 0.58963
# Poissons Ratio (y) = 0.00841 0.27844
# Poissons Ratio (z) = 0.41563 0.46133
#
# Static dielectric constant tensor:
#      x y z
#    x 3.603930 -0.306470 0.056310 
#    y -0.306470 3.789690 0.105920 
#    z 0.056310 0.105920 3.726910 
# 
# 
# High freq. dielectric constant tensor:
#      x y z
#    x 1.790940 -0.032580 0.004100 
#    y -0.032580 1.818430 0.014860 
#    z 0.004100 0.014860 1.817680 
# 
# From -- ./inp_files/313738.got.cif
#   From: 2010.06.25/outbox.cif.g09.slc.cpg/sg2_157_cif.got.tgz:313738.got - 2010.06.27 13:26:56.
