data_PCOD8006735
_publ_section_title
;
Structure prediction by ZEFSAII (Michael W. Deem and Ramdas Pophale) SiO2 
 PCOD8006735
Probable space group: P -1
;
_chemical_formula_sum "Si O2"
_cell_formula_units_Z 16
_cell_length_a 7.058950
_cell_length_b 8.664627
_cell_length_c 14.507453
_cell_angle_alpha 82.741487
_cell_angle_beta 77.970551
_cell_angle_gamma 113.654563
_cell_volume 772.780916
_symmetry_space_group_name_H-M "P -1"
_symmetry_group_IT_number 2
_symmetry_cell_setting 'triclinic'
loop_
_space_group_symop_operation_xyz
x,y,z
-x,-y,-z
loop_
_atom_site_type_symbol
_atom_site_label
_atom_site_fract_x
_atom_site_fract_y
_atom_site_fract_z
Si Si1 0.103123 0.162865 0.542639
Si Si2 0.965085 0.160058 0.957252
Si Si3 0.290882 0.398470 0.350399
Si Si4 0.225940 0.451171 0.778077
Si Si5 0.124577 0.679861 0.330503
Si Si6 0.979235 0.087876 0.279113
Si Si7 0.320149 0.986345 0.161753
Si Si8 0.209816 0.761008 0.858533
O O1 0.300046 0.314377 0.455811
O O2 0.930445 0.236813 0.579948
O O3 0.000000 0.000000 0.500000
O O4 0.165686 0.088787 0.634571
O O5 0.157563 0.277933 0.859351
O O6 0.737759 0.087088 0.930715
O O7 0.957244 0.269586 0.038765
O O8 0.000000 0.000000 0.000000
O O9 0.521220 0.467057 0.273821
O O10 0.108571 0.253768 0.317640
O O11 0.222986 0.551938 0.362207
O O12 0.095586 0.415104 0.698832
O O13 0.163866 0.576768 0.836325
O O14 0.306860 0.831678 0.240969
O O15 0.814612 0.121288 0.228782
O O16 0.148540 0.055947 0.202603
O O17 0.553243 0.143985 0.130506
#
# Coordination Sequence:
#
# PCOD8006735 Si02
#       8
#     2   2   2   2   2   2   2   2
#     4   9  21  40  65  94 129 164 204 257 310 374
#     4  11  24  42  63  93 128 164 209 265 312 369
#     4  11  21  41  65  91 128 166 209 257 314 367
#     4  11  25  41  63  95 126 163 212 258 310 374
#     4  10  22  39  65  92 128 162 204 258 312 366
#     4  10  20  40  63  93 128 164 208 258 310 370
#     4  10  22  40  63  94 123 165 211 253 313 377
#     4  12  22  42  66  87 129 170 208 259 316 366
#
# _framework density 20.704442
#
# number of rings (size 3 to 8) (size 9 to 14) (size 15 to 20)
#    0.000    1.500    3.750    1.125    1.750    0.500 
#    0.000    4.375    0.000    0.000    0.000    0.000 
#    0.000    0.000    0.000    0.000    0.000    0.000 
#
# Total GULP energy -198359.696090 kJ/mol
# GULP energy per Si atom -12397.481006 kJ/mol
# Density = 2.065732 g / cm^3
# Si number density = 20.704442 Si / 1000 Ang^3
#
#
#
# Elastic Constant Matrix: (Units=GPa)
#
#
# Indices 1 2 3 4 5 6 
#
# 1 66.4376 30.6244 42.5874 -8.5847 -2.0833 -11.3019
# 2 30.6244 91.0330 31.2892 2.9143 -7.7857 -21.6610
# 3 42.5874 31.2892 114.6799 -7.3639 -2.8922 -11.2334
# 4 -8.5847 2.9143 -7.3639 44.5085 -6.4210 -2.4186
# 5 -2.0833 -7.7857 -2.8922 -6.4210 20.5339 0.3371
# 6 -11.3019 -21.6610 -11.2334 -2.4186 0.3371 34.9719
#
#
#
# Elastic Compliance Matrix: (Units=1/GPa)
#
#
# Indices 1 2 3 4 5 6 
#
# 1 0.022336 -0.004764 -0.006496 0.003776 0.000686 0.002435
# 2 -0.004764 0.015324 -0.001653 -0.001133 0.004620 0.007298
# 3 -0.006496 -0.001653 0.011728 0.000927 0.000644 0.000702
# 4 0.003776 -0.001133 0.000927 0.024676 0.007760 0.002448
# 5 0.000686 0.004620 0.000644 0.007760 0.052984 0.003316
# 6 0.002435 0.007298 0.000702 0.002448 0.003316 0.034264
#
#
# Mechanical properties :
#
#
# Convention : Reuss Voigt Hill
#
# Bulk Modulus (GPa) = 42.44387 53.46139 47.95263
# Shear Modulus (GPa) = 25.64202 31.17948 28.41075
#
# Velocity S-wave (km/s) = 3.52302 3.88484 3.70835
# Velocity P-wave (km/s) = 6.09043 6.78233 6.44567
#
# Compressibility (1/GPa) = 0.02356053
#
# Stress axis : x y z
#
# Youngs Moduli (GPa) = 44.77143 65.25826 85.26620
#
# Poissons Ratio (x) = 0.31087 0.55393
# Poissons Ratio (y) = 0.21328 0.14096
# Poissons Ratio (z) = 0.29086 0.10789
#
# Static dielectric constant tensor:
#      x y z
#    x 3.413170 -0.133800 0.058410 
#    y -0.133800 3.983880 0.017290 
#    z 0.058410 0.017290 4.229830 
# 
# 
# High freq. dielectric constant tensor:
#      x y z
#    x 1.779770 -0.014760 0.003340 
#    y -0.014760 1.826870 0.005520 
#    z 0.003340 0.005520 1.825720 
# 
# From -- ./inp_files/37854.got.cif
#   From: 2010.06.25/outbox.cif.g09.slc.cpg/sg2_19_cif.got.tgz:37854.got - 2010.06.27 13:26:56.
