data_PCOD8006665
_publ_section_title
;
Structure prediction by ZEFSAII (Michael W. Deem and Ramdas Pophale) SiO2 
 PCOD8006665
Probable space group: P -1
;
_chemical_formula_sum "Si O2"
_cell_formula_units_Z 16
_cell_length_a 8.724218
_cell_length_b 12.191273
_cell_length_c 9.522912
_cell_angle_alpha 132.959874
_cell_angle_beta 86.025243
_cell_angle_gamma 102.085889
_cell_volume 720.986173
_symmetry_space_group_name_H-M "P -1"
_symmetry_group_IT_number 2
_symmetry_cell_setting 'triclinic'
loop_
_space_group_symop_operation_xyz
x,y,z
-x,-y,-z
loop_
_atom_site_type_symbol
_atom_site_label
_atom_site_fract_x
_atom_site_fract_y
_atom_site_fract_z
Si Si1 0.752120 0.771622 0.919929
Si Si2 0.433358 0.878737 0.084628
Si Si3 0.101077 0.377134 0.992974
Si Si4 0.344106 0.539385 0.491751
Si Si5 0.647929 0.173689 0.433565
Si Si6 0.781691 0.299918 0.823122
Si Si7 0.814921 0.085943 0.092637
Si Si8 0.071206 0.597778 0.712356
O O1 0.575567 0.799449 0.961109
O O2 0.858956 0.919129 0.957925
O O3 0.810344 0.747235 0.054004
O O4 0.765452 0.615847 0.702082
O O5 0.308315 0.758202 0.078597
O O6 0.496379 0.032600 0.307528
O O7 0.348102 0.928928 0.996920
O O8 0.224498 0.519824 0.039728
O O9 0.008379 0.463862 0.190311
O O10 0.966046 0.290582 0.819091
O O11 0.500000 0.500000 0.500000
O O12 0.389540 0.666858 0.479048
O O13 0.258248 0.600213 0.684610
O O14 0.703237 0.192701 0.607320
O O15 0.788006 0.136293 0.297753
O O16 0.949396 0.223023 0.136740
O O17 0.000000 0.500000 0.500000
#
# Coordination Sequence:
#
# PCOD8006665 Si02
#       8
#     2   2   2   2   2   2   2   2
#     4  11  21  39  62  98 123 157 210 269 305 367
#     4  11  22  40  67  93 128 164 204 260 322 365
#     4  11  23  41  61  89 126 172 209 254 307 373
#     4  11  21  36  64  96 124 150 209 264 310 362
#     4  10  20  40  62  94 123 164 204 256 316 368
#     4  11  23  42  63  85 127 176 211 242 313 382
#     4  10  21  39  66  93 127 159 203 261 325 361
#     4  11  20  40  61  89 125 166 202 251 319 365
#
# _framework density 22.191824
#
# number of rings (size 3 to 8) (size 9 to 14) (size 15 to 20)
#    0.000    1.250    3.750    4.875    0.000    1.000 
#    0.000    2.500    0.000    1.500    0.000    0.000 
#    0.000    0.000    0.000    0.000    0.000    0.000 
#
# Total GULP energy -198318.605499 kJ/mol
# GULP energy per Si atom -12394.912844 kJ/mol
# Density = 2.214131 g / cm^3
# Si number density = 22.191824 Si / 1000 Ang^3
#
#
#
# Elastic Constant Matrix: (Units=GPa)
#
#
# Indices 1 2 3 4 5 6 
#
# 1 37.8347 25.3408 11.8491 12.7558 4.5286 -17.6244
# 2 25.3408 133.6475 26.5598 28.6212 -5.6322 -5.7194
# 3 11.8491 26.5598 77.1495 11.7498 5.4364 -10.0553
# 4 12.7558 28.6212 11.7498 40.9406 2.6227 6.5967
# 5 4.5286 -5.6322 5.4364 2.6227 31.9412 3.1524
# 6 -17.6244 -5.7194 -10.0553 6.5967 3.1524 49.0216
#
#
#
# Elastic Compliance Matrix: (Units=1/GPa)
#
#
# Indices 1 2 3 4 5 6 
#
# 1 0.042644 -0.005093 -0.000270 -0.011864 -0.007579 0.016766
# 2 -0.005093 0.010059 -0.002258 -0.004903 0.003349 -0.000676
# 3 -0.000270 -0.002258 0.014865 -0.002941 -0.002972 0.003275
# 4 -0.011864 -0.004903 -0.002941 0.034035 -0.000491 -0.009989
# 5 -0.007579 0.003349 -0.002972 -0.000491 0.034019 -0.005065
# 6 0.016766 -0.000676 0.003275 -0.009989 -0.005065 0.028690
#
#
# Mechanical properties :
#
#
# Convention : Reuss Voigt Hill
#
# Bulk Modulus (GPa) = 19.11133 41.79234 30.45184
# Shear Modulus (GPa) = 25.38140 36.70613 31.04377
#
# Velocity S-wave (km/s) = 3.38557 4.07140 3.74422
# Velocity P-wave (km/s) = 4.89013 6.40117 5.69598
#
# Compressibility (1/GPa) = 0.05232497
#
# Stress axis : x y z
#
# Youngs Moduli (GPa) = 23.45020 99.41330 67.27249
#
# Poissons Ratio (x) = 0.50632 0.01816
# Poissons Ratio (y) = 0.11943 0.15191
# Poissons Ratio (z) = 0.00633 0.22450
#
# Static dielectric constant tensor:
#      x y z
#    x 4.490520 0.263350 0.291280 
#    y 0.263350 4.382590 0.295010 
#    z 0.291280 0.295010 4.371600 
# 
# 
# High freq. dielectric constant tensor:
#      x y z
#    x 1.882740 0.005200 0.024380 
#    y 0.005200 1.888660 0.011960 
#    z 0.024380 0.011960 1.854710 
# 
# From -- ./inp_files/175173.got.cif
#   From: 2010.06.25/outbox.cif.g09.slc.cpg/sg2_88_cif.got.tgz:175173.got - 2010.06.27 13:26:56.
