data_PCOD8006433
_publ_section_title
;
Structure prediction by ZEFSAII (Michael W. Deem and Ramdas Pophale) SiO2 
 PCOD8006433
Probable space group: P -1
;
_chemical_formula_sum "Si O2"
_cell_formula_units_Z 14
_cell_length_a 19.251182
_cell_length_b 8.479725
_cell_length_c 9.761561
_cell_angle_alpha 62.485388
_cell_angle_beta 54.471199
_cell_angle_gamma 108.873141
_cell_volume 658.133997
_symmetry_space_group_name_H-M "P -1"
_symmetry_group_IT_number 2
_symmetry_cell_setting 'triclinic'
loop_
_space_group_symop_operation_xyz
x,y,z
-x,-y,-z
loop_
_atom_site_type_symbol
_atom_site_label
_atom_site_fract_x
_atom_site_fract_y
_atom_site_fract_z
Si Si1 0.813148 0.094851 0.160186
Si Si2 0.801446 0.809036 0.792841
Si Si3 0.233359 0.287701 0.821800
Si Si4 0.929277 0.649230 0.366245
Si Si5 0.335778 0.168142 0.277761
Si Si6 0.657275 0.221774 0.667752
Si Si7 0.130824 0.465172 0.220087
O O1 0.715140 0.785801 0.308081
O O2 0.778290 0.010975 0.393111
O O3 0.777826 0.235038 0.094944
O O4 0.990175 0.360557 0.819581
O O5 0.708160 0.772736 0.814364
O O6 0.781360 0.571145 0.862412
O O7 0.731853 0.708072 0.064694
O O8 0.972098 0.162383 0.451677
O O9 0.319490 0.616384 0.557402
O O10 0.053373 0.012344 0.117257
O O11 0.787780 0.495158 0.516343
O O12 0.880051 0.476082 0.636214
O O13 0.332729 0.965519 0.304936
O O14 0.500000 0.500000 0.000000
O O15 0.500000 0.000000 0.000000
#
# Coordination Sequence:
#
# PCOD8006433 Si02
#       7
#     2   2   2   2   2   2   2
#     4  10  22  41  70  97 135 165 230 272 343 380
#     4  10  23  41  68  96 139 173 225 273 337 394
#     4   9  22  43  67 101 127 175 226 273 336 391
#     4   9  22  38  74 100 139 166 228 277 336 392
#     4  12  28  46  63  98 142 180 225 277 337 403
#     4  12  25  43  68  99 139 181 224 271 343 401
#     4  10  20  39  70 105 131 167 223 288 330 392
#
# _framework density 21.272265999999998
#
# number of rings (size 3 to 8) (size 9 to 14) (size 15 to 20)
#    0.857    0.857    0.000    3.429    6.000    4.571 
#    2.571    2.857    0.000    0.000    0.000    0.000 
#    0.000    0.000    0.000    0.000    0.000    0.000 
#
# Total GULP energy -173567.077969 kJ/mol
# GULP energy per Si atom -12397.648426 kJ/mol
# Density = 2.122385 g / cm^3
# Si number density = 21.272266 Si / 1000 Ang^3
#
#
#
# Elastic Constant Matrix: (Units=GPa)
#
#
# Indices 1 2 3 4 5 6 
#
# 1 162.5659 79.8947 77.1111 3.9764 28.0816 -5.7090
# 2 79.8947 89.3700 46.7269 15.6777 4.4849 -1.0120
# 3 77.1111 46.7269 98.6586 10.5223 17.7183 10.5673
# 4 3.9764 15.6777 10.5223 35.1691 -4.9485 9.7067
# 5 28.0816 4.4849 17.7183 -4.9485 31.9607 2.1550
# 6 -5.7090 -1.0120 10.5673 9.7067 2.1550 36.6284
#
#
#
# Elastic Compliance Matrix: (Units=1/GPa)
#
#
# Indices 1 2 3 4 5 6 
#
# 1 0.016445 -0.011217 -0.006638 0.002760 -0.009036 0.003968
# 2 -0.011217 0.023899 -0.003109 -0.007897 0.006902 0.001496
# 3 -0.006638 -0.003109 0.018343 -0.002366 -0.003892 -0.005556
# 4 0.002760 -0.007897 -0.002366 0.035672 0.006119 -0.008919
# 5 -0.009036 0.006902 -0.003892 0.006119 0.041645 -0.004166
# 6 0.003968 0.001496 -0.005556 -0.008919 -0.004166 0.032173
#
#
# Mechanical properties :
#
#
# Convention : Reuss Voigt Hill
#
# Bulk Modulus (GPa) = 59.66938 84.22886 71.94912
# Shear Modulus (GPa) = 23.18130 30.54243 26.86186
#
# Velocity S-wave (km/s) = 3.30471 3.79329 3.55739
# Velocity P-wave (km/s) = 6.53243 7.67248 7.12529
#
# Compressibility (1/GPa) = 0.01675902
#
# Stress axis : x y z
#
# Youngs Moduli (GPa) = 60.80827 41.84332 54.51676
#
# Poissons Ratio (x) = 0.46935 0.36186
# Poissons Ratio (y) = 0.68208 0.16951
# Poissons Ratio (z) = 0.40362 0.13011
#
# Static dielectric constant tensor:
#      x y z
#    x 3.872360 0.039480 0.000530 
#    y 0.039480 3.891880 0.006360 
#    z 0.000530 0.006360 3.894890 
# 
# 
# High freq. dielectric constant tensor:
#      x y z
#    x 1.824050 -0.004650 0.023580 
#    y -0.004650 1.835370 0.008870 
#    z 0.023580 0.008870 1.823610 
# 
# From -- ./inp_files/325751.got.cif
#   From: 2010.06.25/outbox.cif.g09.slc.cpg/sg2_163_cif.got.tgz:325751.got - 2010.06.27 13:26:56.
