data_PCOD8006772
_publ_section_title
;
Structure prediction by ZEFSAII (Michael W. Deem and Ramdas Pophale) SiO2 
 PCOD8006772
Probable space group: P -1
;
_chemical_formula_sum "Si O2"
_cell_formula_units_Z 16
_cell_length_a 19.801513
_cell_length_b 17.374978
_cell_length_c 8.098021
_cell_angle_alpha 49.034152
_cell_angle_beta 47.521230
_cell_angle_gamma 20.274782
_cell_volume 709.376540
_symmetry_space_group_name_H-M "P -1"
_symmetry_group_IT_number 2
_symmetry_cell_setting 'triclinic'
loop_
_space_group_symop_operation_xyz
x,y,z
-x,-y,-z
loop_
_atom_site_type_symbol
_atom_site_label
_atom_site_fract_x
_atom_site_fract_y
_atom_site_fract_z
Si Si1 0.200627 0.207709 0.448685
Si Si2 0.594166 0.551592 0.018749
Si Si3 0.057005 0.560505 0.132927
Si Si4 0.993142 0.668963 0.741600
Si Si5 0.762869 0.081790 0.682419
Si Si6 0.853359 0.297962 0.233250
Si Si7 0.512125 0.412506 0.365880
Si Si8 0.429779 0.301175 0.461007
O O1 0.213997 0.318028 0.272367
O O2 0.107340 0.262312 0.699543
O O3 0.060995 0.322094 0.360042
O O4 0.420797 0.942781 0.442050
O O5 0.432501 0.761017 0.116051
O O6 0.803459 0.323377 0.089396
O O7 0.518383 0.517088 0.119548
O O8 0.634580 0.598310 0.754409
O O9 0.959480 0.628672 0.016059
O O10 0.164666 0.561296 0.920321
O O11 0.226533 0.469598 0.647068
O O12 0.850643 0.906577 0.669808
O O13 0.686969 0.244357 0.453688
O O14 0.926340 0.959670 0.716476
O O15 0.703599 0.388431 0.475519
O O16 0.545989 0.283044 0.372622
#
# Coordination Sequence:
#
# PCOD8006772 Si02
#       8
#     2   2   2   2   2   2   2   2
#     4  11  24  43  67  94 129 165 215 255 322 380
#     4  11  25  38  64  92 125 171 210 260 314 372
#     4  10  22  43  68  94 125 169 209 261 314 387
#     4  11  22  42  65  93 132 166 206 263 318 373
#     4  10  20  40  64  86 121 171 202 259 315 367
#     4  10  20  42  62  91 125 156 213 258 309 376
#     4  11  22  40  62  92 126 164 215 257 312 376
#     4  12  23  42  61  94 131 164 208 264 313 374
#
# _framework density 22.555015999999998
#
# number of rings (size 3 to 8) (size 9 to 14) (size 15 to 20)
#    0.000    1.250    3.750    4.500    0.000    2.500 
#    0.000    8.750    0.000    0.000    0.000    0.000 
#    0.000    0.000    0.000    0.000    0.000    0.000 
#
# Total GULP energy -198228.913857 kJ/mol
# GULP energy per Si atom -12389.307116 kJ/mol
# Density = 2.250368 g / cm^3
# Si number density = 22.555016 Si / 1000 Ang^3
#
#
#
# Elastic Constant Matrix: (Units=GPa)
#
#
# Indices 1 2 3 4 5 6 
#
# 1 68.6433 26.7498 21.5951 5.4874 16.5473 -8.8038
# 2 26.7498 106.8553 24.5076 -3.8120 0.4412 2.5031
# 3 21.5951 24.5076 90.5894 -1.6654 13.7553 1.6659
# 4 5.4874 -3.8120 -1.6654 22.5157 7.8576 6.2724
# 5 16.5473 0.4412 13.7553 7.8576 40.9753 -4.9910
# 6 -8.8038 2.5031 1.6659 6.2724 -4.9910 36.7901
#
#
#
# Elastic Compliance Matrix: (Units=1/GPa)
#
#
# Indices 1 2 3 4 5 6 
#
# 1 0.019620 -0.004555 -0.002850 -0.005431 -0.005224 0.005351
# 2 -0.004555 0.011117 -0.002080 0.002831 0.001630 -0.002014
# 3 -0.002850 -0.002080 0.013009 0.003371 -0.004116 -0.002263
# 4 -0.005431 0.002831 0.003371 0.053626 -0.010744 -0.012245
# 5 -0.005224 0.001630 -0.004116 -0.010744 0.030524 0.004798
# 6 0.005351 -0.002014 -0.002263 -0.012245 0.004798 0.031440
#
#
# Mechanical properties :
#
#
# Convention : Reuss Voigt Hill
#
# Bulk Modulus (GPa) = 40.36161 45.75478 43.05819
# Shear Modulus (GPa) = 26.80026 32.93861 29.86944
#
# Velocity S-wave (km/s) = 3.45079 3.82562 3.64303
# Velocity P-wave (km/s) = 5.81471 6.31219 6.06855
#
# Compressibility (1/GPa) = 0.02477602
#
# Stress axis : x y z
#
# Youngs Moduli (GPa) = 50.96942 89.94936 76.86713
#
# Poissons Ratio (x) = 0.40976 0.21904
# Poissons Ratio (y) = 0.23219 0.15989
# Poissons Ratio (z) = 0.14524 0.18711
#
# Static dielectric constant tensor:
#      x y z
#    x 4.234800 0.027500 0.294760 
#    y 0.027500 3.890320 -0.166940 
#    z 0.294760 -0.166940 4.092090 
# 
# 
# High freq. dielectric constant tensor:
#      x y z
#    x 1.887330 0.007190 0.014470 
#    y 0.007190 1.879440 -0.017350 
#    z 0.014470 -0.017350 1.894280 
# 
# From -- ./inp_files/348864.got.cif
#   From: 2010.06.25/outbox.cif.g09.slc.cpg/sg2_175_cif.got.tgz:348864.got - 2010.06.27 13:26:56.
