data_PCOD8006006
_publ_section_title
;
Structure prediction by ZEFSAII (Michael W. Deem and Ramdas Pophale) SiO2 
 PCOD8006006
Probable space group: P -1
;
_chemical_formula_sum "Si O2"
_cell_formula_units_Z 12
_cell_length_a 12.098078
_cell_length_b 9.378027
_cell_length_c 11.170109
_cell_angle_alpha 118.806027
_cell_angle_beta 82.851008
_cell_angle_gamma 141.854333
_cell_volume 605.352431
_symmetry_space_group_name_H-M "P -1"
_symmetry_group_IT_number 2
_symmetry_cell_setting 'triclinic'
loop_
_space_group_symop_operation_xyz
x,y,z
-x,-y,-z
loop_
_atom_site_type_symbol
_atom_site_label
_atom_site_fract_x
_atom_site_fract_y
_atom_site_fract_z
Si Si1 0.755627 0.336863 0.382489
Si Si2 0.223824 0.285173 0.529398
Si Si3 0.397844 0.440965 0.316930
Si Si4 0.985689 0.319238 0.285928
Si Si5 0.363779 0.694554 0.270172
Si Si6 0.700921 0.708083 0.986088
O O1 0.713915 0.448963 0.358206
O O2 0.940885 0.598871 0.553894
O O3 0.826213 0.270176 0.264215
O O4 0.547839 0.033953 0.350154
O O5 0.244900 0.249012 0.373543
O O6 0.382116 0.369435 0.615190
O O7 0.000000 0.000000 0.500000
O O8 0.428327 0.668700 0.369454
O O9 0.304535 0.236338 0.129724
O O10 0.176202 0.583179 0.280698
O O11 0.889729 0.024602 0.152896
O O12 0.287310 0.475307 0.088563
O O13 0.500000 0.500000 0.000000
#
# Coordination Sequence:
#
# PCOD8006006 Si02
#       6
#     2   2   2   2   2   2
#     4  11  23  36  62  96 119 156 207 257 301 355
#     4  11  24  40  61  88 127 166 201 246 303 373
#     4   9  23  40  62  89 119 161 208 242 305 357
#     4  11  21  35  62  95 121 152 198 254 314 348
#     4  10  21  38  65  90 121 151 207 260 296 350
#     4  10  20  39  64  93 125 156 200 258 305 363
#
# _framework density 19.823163000000001
#
# number of rings (size 3 to 8) (size 9 to 14) (size 15 to 20)
#    1.000    0.667    3.333    1.000    7.000    1.333 
#    0.000    0.833    0.000    2.000    0.000    0.000 
#    0.000    0.000    0.000    0.000    0.000    0.000 
#
# Total GULP energy -148662.029393 kJ/mol
# GULP energy per Si atom -12388.502449 kJ/mol
# Density = 1.977805 g / cm^3
# Si number density = 19.823163 Si / 1000 Ang^3
#
#
#
# Elastic Constant Matrix: (Units=GPa)
#
#
# Indices 1 2 3 4 5 6 
#
# 1 75.7081 49.7920 4.5338 0.0787 -6.4899 19.1794
# 2 49.7920 137.2881 30.0000 7.8063 1.8546 19.1046
# 3 4.5338 30.0000 86.0695 9.5571 -6.9293 -0.7433
# 4 0.0787 7.8063 9.5571 28.9174 7.8339 -7.6927
# 5 -6.4899 1.8546 -6.9293 7.8339 16.4248 0.1982
# 6 19.1794 19.1046 -0.7433 -7.6927 0.1982 36.6919
#
#
#
# Elastic Compliance Matrix: (Units=1/GPa)
#
#
# Indices 1 2 3 4 5 6 
#
# 1 0.020727 -0.006874 0.002756 -0.004682 0.012461 -0.008248
# 2 -0.006874 0.011074 -0.003819 -0.000977 -0.005082 -0.002427
# 3 0.002756 -0.003819 0.014440 -0.006878 0.010900 -0.000660
# 4 -0.004682 -0.000977 -0.006878 0.048122 -0.027750 0.013056
# 5 0.012461 -0.005082 0.010900 -0.027750 0.084335 -0.009920
# 6 -0.008248 -0.002427 -0.000660 0.013056 -0.009920 0.035607
#
#
# Mechanical properties :
#
#
# Convention : Reuss Voigt Hill
#
# Bulk Modulus (GPa) = 32.93123 51.96858 42.44991
# Shear Modulus (GPa) = 20.80727 30.72282 25.76505
#
# Velocity S-wave (km/s) = 3.24334 3.94108 3.60911
# Velocity P-wave (km/s) = 5.53843 6.85438 6.23124
#
# Compressibility (1/GPa) = 0.03036631
#
# Stress axis : x y z
#
# Youngs Moduli (GPa) = 48.24619 90.30483 69.25144
#
# Poissons Ratio (x) = 0.62075 -0.19085
# Poissons Ratio (y) = 0.33164 0.26449
# Poissons Ratio (z) = -0.13296 0.34490
#
# Static dielectric constant tensor:
#      x y z
#    x 4.838020 0.061360 2.377330 
#    y 0.061360 3.555770 -0.438060 
#    z 2.377330 -0.438060 10.331970 
# 
# 
# High freq. dielectric constant tensor:
#      x y z
#    x 1.773010 0.031120 -0.026880 
#    y 0.031120 1.765060 0.001670 
#    z -0.026880 0.001670 1.757440 
# 
# From -- ./inp_files/415629.got.cif
#   From: 2010.06.25/outbox.cif.g09.slc.cpg/sg2_208_cif.got.tgz:415629.got - 2010.06.27 13:26:56.
