data_PCOD8006963
_publ_section_title
;
Structure prediction by ZEFSAII (Michael W. Deem and Ramdas Pophale) SiO2 
 PCOD8006963
Probable space group: P -1
;
_chemical_formula_sum "Si O2"
_cell_formula_units_Z 14
_cell_length_a 15.775746
_cell_length_b 21.884335
_cell_length_c 12.209152
_cell_angle_alpha 153.163016
_cell_angle_beta 141.992628
_cell_angle_gamma 20.367584
_cell_volume 629.852636
_symmetry_space_group_name_H-M "P -1"
_symmetry_group_IT_number 2
_symmetry_cell_setting 'triclinic'
loop_
_space_group_symop_operation_xyz
x,y,z
-x,-y,-z
loop_
_atom_site_type_symbol
_atom_site_label
_atom_site_fract_x
_atom_site_fract_y
_atom_site_fract_z
Si Si1 0.683289 0.925072 0.652458
Si Si2 0.573530 0.242155 0.730466
Si Si3 0.867562 0.208160 0.842517
Si Si4 0.753604 0.633788 0.692844
Si Si5 0.483024 0.039840 0.227579
Si Si6 0.288862 0.809735 0.974452
Si Si7 0.616539 0.292415 0.512089
O O1 0.962866 0.652681 0.462220
O O2 0.500000 0.000000 0.500000
O O3 0.647570 0.910616 0.718131
O O4 0.670754 0.099835 0.924254
O O5 0.786478 0.170796 0.793277
O O6 0.603819 0.208937 0.837169
O O7 0.635999 0.047995 0.428703
O O8 0.277912 0.530022 0.859182
O O9 0.770106 0.245597 0.684805
O O10 0.178497 0.957760 0.756909
O O11 0.563681 0.663632 0.538536
O O12 0.724964 0.754379 0.750241
O O13 0.691792 0.764720 0.951335
O O14 0.454416 0.539912 0.675852
O O15 0.000000 0.000000 0.000000
#
# Coordination Sequence:
#
# PCOD8006963 Si02
#       7
#     2   2   2   2   2   2   2
#     4  12  26  47  69 101 143 190 228 278 356 420
#     4  10  20  40  66  99 135 175 225 287 344 407
#     4   9  20  36  68  98 128 171 225 288 348 393
#     4  11  25  45  70 103 139 178 241 291 332 412
#     4  11  25  45  70 101 136 187 227 289 346 409
#     4  11  23  43  68  94 137 180 227 282 341 413
#     4  10  20  40  65  99 131 171 230 286 336 404
#
# _framework density 22.227419999999999
#
# number of rings (size 3 to 8) (size 9 to 14) (size 15 to 20)
#    0.000    1.429    4.286    0.429    0.000    6.286 
#    2.571    1.429    0.000    0.000    0.000    0.000 
#    0.000    0.000    0.000    0.000    0.000    0.000 
#
# Total GULP energy -173550.178594 kJ/mol
# GULP energy per Si atom -12396.441328 kJ/mol
# Density = 2.217683 g / cm^3
# Si number density = 22.227420 Si / 1000 Ang^3
#
#
#
# Elastic Constant Matrix: (Units=GPa)
#
#
# Indices 1 2 3 4 5 6 
#
# 1 112.9058 39.8882 44.9909 17.2045 12.0303 -10.7834
# 2 39.8882 96.3080 38.7971 28.4903 0.1077 -17.6567
# 3 44.9909 38.7971 99.3837 20.9601 8.3183 -5.0953
# 4 17.2045 28.4903 20.9601 37.7116 -3.4038 -2.6961
# 5 12.0303 0.1077 8.3183 -3.4038 35.5197 4.3920
# 6 -10.7834 -17.6567 -5.0953 -2.6961 4.3920 21.5045
#
#
#
# Elastic Compliance Matrix: (Units=1/GPa)
#
#
# Indices 1 2 3 4 5 6 
#
# 1 0.012225 -0.002291 -0.003719 -0.001853 -0.003927 0.003938
# 2 -0.002291 0.017585 -0.003099 -0.009777 -0.000913 0.011516
# 3 -0.003719 -0.003099 0.013923 -0.003985 -0.002231 -0.001154
# 4 -0.001853 -0.009777 -0.003985 0.037036 0.005939 -0.006470
# 5 -0.003927 -0.000913 -0.002231 0.005939 0.031688 -0.008974
# 6 0.003938 0.011516 -0.001154 -0.006470 -0.008974 0.058680
#
#
# Mechanical properties :
#
#
# Convention : Reuss Voigt Hill
#
# Bulk Modulus (GPa) = 39.19078 61.77222 50.48150
# Shear Modulus (GPa) = 25.27040 31.27525 28.27283
#
# Velocity S-wave (km/s) = 3.37546 3.75515 3.57035
# Velocity P-wave (km/s) = 5.73250 6.83029 6.30533
#
# Compressibility (1/GPa) = 0.02551621
#
# Stress axis : x y z
#
# Youngs Moduli (GPa) = 81.80019 56.86624 71.82293
#
# Poissons Ratio (x) = 0.13027 0.26708
# Poissons Ratio (y) = 0.18739 0.22258
# Poissons Ratio (z) = 0.30418 0.17623
#
# Static dielectric constant tensor:
#      x y z
#    x 4.070050 0.028060 0.045090 
#    y 0.028060 3.895750 0.288690 
#    z 0.045090 0.288690 4.420290 
# 
# 
# High freq. dielectric constant tensor:
#      x y z
#    x 1.877650 0.002410 0.005860 
#    y 0.002410 1.859710 0.005990 
#    z 0.005860 0.005990 1.885720 
# 
# From -- ./inp_files/244599.got.cif
#   From: 2010.06.25/outbox.cif.g09.slc.cpg/sg2_123_cif.got.tgz:244599.got - 2010.06.27 13:26:56.
