data_PCOD8006035
_publ_section_title
;
Structure prediction by ZEFSAII (Michael W. Deem and Ramdas Pophale) SiO2 
 PCOD8006035
Probable space group: P -1
;
_chemical_formula_sum "Si O2"
_cell_formula_units_Z 14
_cell_length_a 8.419008
_cell_length_b 12.293153
_cell_length_c 9.756590
_cell_angle_alpha 116.535461
_cell_angle_beta 73.251634
_cell_angle_gamma 130.151747
_cell_volume 690.502955
_symmetry_space_group_name_H-M "P -1"
_symmetry_group_IT_number 2
_symmetry_cell_setting 'triclinic'
loop_
_space_group_symop_operation_xyz
x,y,z
-x,-y,-z
loop_
_atom_site_type_symbol
_atom_site_label
_atom_site_fract_x
_atom_site_fract_y
_atom_site_fract_z
Si Si1 0.143825 0.720476 0.209673
Si Si2 0.525051 0.223154 0.627987
Si Si3 0.087130 0.616490 0.881800
Si Si4 0.357428 0.475959 0.146489
Si Si5 0.087652 0.925188 0.514968
Si Si6 0.747229 0.674285 0.636736
Si Si7 0.353437 0.632902 0.593690
O O1 0.339814 0.766157 0.274931
O O2 0.069965 0.815536 0.340137
O O3 0.951530 0.541406 0.158125
O O4 0.197122 0.745215 0.047226
O O5 0.497356 0.355833 0.728181
O O6 0.635696 0.265531 0.476707
O O7 0.317562 0.052544 0.583444
O O8 0.250020 0.677811 0.753280
O O9 0.868222 0.578692 0.873912
O O10 0.313587 0.351304 0.200774
O O11 0.500000 0.500000 0.000000
O O12 0.963168 0.834342 0.632997
O O13 0.000000 0.000000 0.500000
O O14 0.578486 0.681088 0.604576
O O15 0.777377 0.546753 0.509767
#
# Coordination Sequence:
#
# PCOD8006035 Si02
#       7
#     2   2   2   2   2   2   2
#     4  10  23  39  64  94 123 170 206 265 315 371
#     4  10  23  40  65  92 126 169 208 262 307 387
#     4  10  22  39  68  94 124 160 215 270 313 366
#     4  10  24  40  67  96 124 161 216 267 317 370
#     4  12  23  41  63  92 132 172 209 250 320 381
#     4  10  22  37  65  94 126 167 209 268 302 378
#     4  10  20  39  64  97 122 160 222 256 313 368
#
# _framework density 20.275077
#
# number of rings (size 3 to 8) (size 9 to 14) (size 15 to 20)
#    0.000    1.714    2.857    0.429   10.000    1.714 
#    0.000    1.429    0.000    0.000    0.000    0.000 
#    0.000    0.000    0.000    0.000    0.000    0.000 
#
# Total GULP energy -173462.883136 kJ/mol
# GULP energy per Si atom -12390.205938 kJ/mol
# Density = 2.022893 g / cm^3
# Si number density = 20.275077 Si / 1000 Ang^3
#
#
#
# Elastic Constant Matrix: (Units=GPa)
#
#
# Indices 1 2 3 4 5 6 
#
# 1 69.0181 28.3333 45.3344 1.1746 3.8448 5.7210
# 2 28.3333 118.4985 62.0958 -11.5592 -0.3304 11.7730
# 3 45.3344 62.0958 156.1895 -23.5083 0.0727 11.0741
# 4 1.1746 -11.5592 -23.5083 33.5321 3.5141 -2.1504
# 5 3.8448 -0.3304 0.0727 3.5141 33.3135 -2.7616
# 6 5.7210 11.7730 11.0741 -2.1504 -2.7616 21.9844
#
#
#
# Elastic Compliance Matrix: (Units=1/GPa)
#
#
# Indices 1 2 3 4 5 6 
#
# 1 0.019229 -0.002091 -0.005381 -0.005095 -0.001849 -0.001904
# 2 -0.002091 0.011206 -0.003390 0.001335 -0.000082 -0.003629
# 3 -0.005381 -0.003390 0.010346 0.006204 -0.000207 -0.001415
# 4 -0.005095 0.001335 0.006204 0.035168 -0.003077 0.000539
# 5 -0.001849 -0.000082 -0.000207 -0.003077 0.030904 0.004210
# 6 -0.001904 -0.003629 -0.001415 0.000539 0.004210 0.049220
#
#
# Mechanical properties :
#
#
# Convention : Reuss Voigt Hill
#
# Bulk Modulus (GPa) = 52.47207 68.35922 60.41565
# Shear Modulus (GPa) = 27.15174 31.62886 29.39030
#
# Velocity S-wave (km/s) = 3.66343 3.95395 3.81146
# Velocity P-wave (km/s) = 6.62047 7.39149 7.01658
#
# Compressibility (1/GPa) = 0.01905776
#
# Stress axis : x y z
#
# Youngs Moduli (GPa) = 52.00353 89.23955 96.65290
#
# Poissons Ratio (x) = 0.18660 0.52010
# Poissons Ratio (y) = 0.10874 0.32763
# Poissons Ratio (z) = 0.27984 0.30250
#
# Static dielectric constant tensor:
#      x y z
#    x 3.603850 -0.056410 0.124450 
#    y -0.056410 3.815590 0.000650 
#    z 0.124450 0.000650 4.033810 
# 
# 
# High freq. dielectric constant tensor:
#      x y z
#    x 1.792140 -0.003790 0.004170 
#    y -0.003790 1.778340 -0.014830 
#    z 0.004170 -0.014830 1.794700 
# 
# From -- ./inp_files/159766.got.cif
#   From: 2010.06.25/outbox.cif.g09.slc.cpg/sg2_80_cif.got.tgz:159766.got - 2010.06.27 13:26:56.
