data_PCOD8006139
_publ_section_title
;
Structure prediction by ZEFSAII (Michael W. Deem and Ramdas Pophale) SiO2 
 PCOD8006139
Probable space group: P -1
;
_chemical_formula_sum "Si O2"
_cell_formula_units_Z 16
_cell_length_a 9.618639
_cell_length_b 9.673883
_cell_length_c 12.653712
_cell_angle_alpha 126.952193
_cell_angle_beta 57.164296
_cell_angle_gamma 104.567766
_cell_volume 785.717186
_symmetry_space_group_name_H-M "P -1"
_symmetry_group_IT_number 2
_symmetry_cell_setting 'triclinic'
loop_
_space_group_symop_operation_xyz
x,y,z
-x,-y,-z
loop_
_atom_site_type_symbol
_atom_site_label
_atom_site_fract_x
_atom_site_fract_y
_atom_site_fract_z
Si Si1 0.543338 0.986837 0.756919
Si Si2 0.564555 0.345630 0.982255
Si Si3 0.193861 0.439151 0.903192
Si Si4 0.664810 0.766353 0.794947
Si Si5 0.632258 0.676512 0.434001
Si Si6 0.818093 0.872259 0.089653
Si Si7 0.989637 0.845579 0.789287
Si Si8 0.714442 0.437808 0.482391
O O1 0.349012 0.008365 0.818520
O O2 0.545341 0.894031 0.828430
O O3 0.647199 0.861355 0.570948
O O4 0.626077 0.170157 0.809192
O O5 0.705166 0.399812 0.029910
O O6 0.415417 0.277655 0.080474
O O7 0.500000 0.500000 0.000000
O O8 0.258049 0.344756 0.725947
O O9 0.230405 0.301792 0.917999
O O10 0.000000 0.500000 0.000000
O O11 0.829073 0.862425 0.788698
O O12 0.717628 0.584406 0.635131
O O13 0.698150 0.515124 0.406790
O O14 0.440005 0.670672 0.480357
O O15 0.938104 0.816988 0.917712
O O16 0.920455 0.979560 0.178952
O O17 0.114108 0.680947 0.628249
#
# Coordination Sequence:
#
# PCOD8006139 Si02
#       8
#     2   2   2   2   2   2   2   2
#     4  11  23  43  65  96 130 171 217 266 319 388
#     4  12  24  43  64  98 132 171 213 266 330 387
#     4  12  26  44  68  94 130 174 220 265 330 392
#     4  11  23  39  69  96 127 172 219 267 324 381
#     4  10  22  41  67  95 128 171 216 263 327 388
#     4  11  24  39  64  96 128 176 210 271 323 381
#     4  11  22  39  63  97 132 158 221 271 316 378
#     4  10  20  39  65  96 127 168 213 272 317 381
#
# _framework density 20.363561000000001
#
# number of rings (size 3 to 8) (size 9 to 14) (size 15 to 20)
#    0.000    1.000    5.000    1.500    1.750    1.500 
#    2.250    0.625    0.000    0.000    0.000    0.000 
#    0.000    0.000    0.000    0.000    0.000    0.000 
#
# Total GULP energy -198423.766541 kJ/mol
# GULP energy per Si atom -12401.485409 kJ/mol
# Density = 2.031721 g / cm^3
# Si number density = 20.363561 Si / 1000 Ang^3
#
#
#
# Elastic Constant Matrix: (Units=GPa)
#
#
# Indices 1 2 3 4 5 6 
#
# 1 124.3402 30.4144 34.8415 11.1551 -3.1244 9.4557
# 2 30.4144 88.2868 42.6985 10.2707 0.7663 4.8342
# 3 34.8415 42.6985 100.7339 8.1386 2.6358 3.0847
# 4 11.1551 10.2707 8.1386 28.1030 4.3071 8.9373
# 5 -3.1244 0.7663 2.6358 4.3071 36.5921 9.1908
# 6 9.4557 4.8342 3.0847 8.9373 9.1908 30.7879
#
#
#
# Elastic Compliance Matrix: (Units=1/GPa)
#
#
# Indices 1 2 3 4 5 6 
#
# 1 0.009550 -0.001808 -0.002353 -0.001971 0.001856 -0.002395
# 2 -0.001808 0.014976 -0.005470 -0.003083 0.000408 -0.000475
# 3 -0.002353 -0.005470 0.013141 -0.000981 -0.001141 0.000890
# 4 -0.001971 -0.003083 -0.000981 0.041354 -0.002361 -0.010112
# 5 0.001856 0.000408 -0.001141 -0.002361 0.030050 -0.008805
# 6 -0.002395 -0.000475 0.000890 -0.010112 -0.008805 0.038765
#
#
# Mechanical properties :
#
#
# Convention : Reuss Voigt Hill
#
# Bulk Modulus (GPa) = 54.32827 58.80775 56.56801
# Shear Modulus (GPa) = 28.86309 32.79038 30.82673
#
# Velocity S-wave (km/s) = 3.76891 4.01714 3.89500
# Velocity P-wave (km/s) = 6.75845 7.10339 6.93307
#
# Compressibility (1/GPa) = 0.01840662
#
# Stress axis : x y z
#
# Youngs Moduli (GPa) = 104.71741 66.77395 76.09630
#
# Poissons Ratio (x) = 0.12070 0.17904
# Poissons Ratio (y) = 0.18928 0.41623
# Poissons Ratio (z) = 0.24637 0.36524
#
# Static dielectric constant tensor:
#      x y z
#    x 3.753760 0.147190 0.172560 
#    y 0.147190 3.644090 0.206490 
#    z 0.172560 0.206490 3.778270 
# 
# 
# High freq. dielectric constant tensor:
#      x y z
#    x 1.803950 0.005120 0.011540 
#    y 0.005120 1.786190 0.018230 
#    z 0.011540 0.018230 1.800970 
# 
# From -- ./inp_files/261947.got.cif
#   From: 2010.06.25/outbox.cif.g09.slc.cpg/sg2_131_cif.got.tgz:261947.got - 2010.06.27 13:26:56.
