data_PCOD8006295
_publ_section_title
;
Structure prediction by ZEFSAII (Michael W. Deem and Ramdas Pophale) SiO2 
 PCOD8006295
Probable space group: P -1
;
_chemical_formula_sum "Si O2"
_cell_formula_units_Z 12
_cell_length_a 14.024795
_cell_length_b 12.380072
_cell_length_c 16.606040
_cell_angle_alpha 23.791359
_cell_angle_beta 24.488114
_cell_angle_gamma 35.732662
_cell_volume 478.320945
_symmetry_space_group_name_H-M "P -1"
_symmetry_group_IT_number 2
_symmetry_cell_setting 'triclinic'
loop_
_space_group_symop_operation_xyz
x,y,z
-x,-y,-z
loop_
_atom_site_type_symbol
_atom_site_label
_atom_site_fract_x
_atom_site_fract_y
_atom_site_fract_z
Si Si1 0.724207 0.369184 0.154677
Si Si2 0.648782 0.808643 0.146064
Si Si3 0.300775 0.216193 0.685121
Si Si4 0.831103 0.285818 0.373877
Si Si5 0.794304 0.334189 0.948447
Si Si6 0.095478 0.081248 0.577312
O O1 0.500513 0.409800 0.352277
O O2 0.825664 0.094097 0.289943
O O3 0.649851 0.338476 0.139429
O O4 0.919942 0.632708 0.831156
O O5 0.660199 0.766917 0.261963
O O6 0.757350 0.547770 0.203514
O O7 0.374615 0.809906 0.336464
O O8 0.813057 0.070476 0.809226
O O9 0.057754 0.307653 0.786755
O O10 0.319757 0.907721 0.854368
O O11 0.836584 0.039172 0.477543
O O12 0.786865 0.611605 0.715498
#
# Coordination Sequence:
#
# PCOD8006295 Si02
#       6
#     2   2   2   2   2   2
#     4  11  22  44  66  90 126 167 203 260 310 365
#     4  10  20  39  67  94 122 167 201 255 317 365
#     4  11  23  44  64  90 129 168 203 258 313 362
#     4  10  21  38  68  94 122 163 210 249 317 369
#     4  11  26  43  61  95 128 163 213 251 308 374
#     4  11  23  40  66  95 124 164 208 256 307 370
#
# _framework density 25.087757
#
# number of rings (size 3 to 8) (size 9 to 14) (size 15 to 20)
#    0.000    1.333    5.000    2.500    2.333    3.333 
#    0.000    1.667    0.000    0.000    0.000    0.000 
#    0.000    0.000    0.000    0.000    0.000    0.000 
#
# Total GULP energy -148756.733676 kJ/mol
# GULP energy per Si atom -12396.394473 kJ/mol
# Density = 2.503066 g / cm^3
# Si number density = 25.087757 Si / 1000 Ang^3
#
#
#
# Elastic Constant Matrix: (Units=GPa)
#
#
# Indices 1 2 3 4 5 6 
#
# 1 31.7680 -1.8535 -6.0307 -7.9012 0.5930 2.7266
# 2 -1.8535 36.0859 12.5321 19.4859 5.7061 13.0960
# 3 -6.0307 12.5321 93.1134 22.1722 1.2569 3.0463
# 4 -7.9012 19.4859 22.1722 48.0993 0.8797 -1.6494
# 5 0.5930 5.7061 1.2569 0.8797 31.6373 -0.5971
# 6 2.7266 13.0960 3.0463 -1.6494 -0.5971 20.2649
#
#
#
# Elastic Compliance Matrix: (Units=1/GPa)
#
#
# Indices 1 2 3 4 5 6 
#
# 1 0.033290 0.000832 0.001157 0.004450 -0.001035 -0.004859
# 2 0.000832 0.056300 -0.000508 -0.023576 -0.010223 -0.038639
# 3 0.001157 -0.000508 0.012219 -0.005303 -0.000308 -0.002105
# 4 0.004450 -0.023576 -0.005303 0.034076 0.003778 0.018319
# 5 -0.001035 -0.010223 -0.000308 0.003778 0.033531 0.008088
# 6 -0.004859 -0.038639 -0.002105 0.018319 0.008088 0.077016
#
#
# Mechanical properties :
#
#
# Convention : Reuss Voigt Hill
#
# Bulk Modulus (GPa) = 9.54452 18.91812 14.23132
# Shear Modulus (GPa) = 17.96026 30.42160 24.19093
#
# Velocity S-wave (km/s) = 2.67853 3.48603 3.10861
# Velocity P-wave (km/s) = 3.65770 4.87446 4.30924
#
# Compressibility (1/GPa) = 0.10477212
#
# Stress axis : x y z
#
# Youngs Moduli (GPa) = 30.03938 17.76192 81.84175
#
# Poissons Ratio (x) = -0.01478 -0.09472
# Poissons Ratio (y) = -0.02499 0.04154
# Poissons Ratio (z) = -0.03477 0.00902
#
# Static dielectric constant tensor:
#      x y z
#    x 4.164200 0.121660 -0.278370 
#    y 0.121660 4.664950 0.433920 
#    z -0.278370 0.433920 4.997630 
# 
# 
# High freq. dielectric constant tensor:
#      x y z
#    x 1.965070 0.018970 -0.016880 
#    y 0.018970 1.993530 0.023400 
#    z -0.016880 0.023400 2.018220 
# 
# From -- ./inp_files/465434.got.cif
#   From: 2010.06.25/outbox.cif.g09.slc.cpg/sg2_233_cif.got.tgz:465434.got - 2010.06.27 13:26:56.
