data_PCOD8006329
_publ_section_title
;
Structure prediction by ZEFSAII (Michael W. Deem and Ramdas Pophale) SiO2 
 PCOD8006329
Probable space group: P -1
;
_chemical_formula_sum "Si O2"
_cell_formula_units_Z 16
_cell_length_a 8.569824
_cell_length_b 14.868055
_cell_length_c 12.214012
_cell_angle_alpha 39.559609
_cell_angle_beta 109.627842
_cell_angle_gamma 128.106761
_cell_volume 748.909347
_symmetry_space_group_name_H-M "P -1"
_symmetry_group_IT_number 2
_symmetry_cell_setting 'triclinic'
loop_
_space_group_symop_operation_xyz
x,y,z
-x,-y,-z
loop_
_atom_site_type_symbol
_atom_site_label
_atom_site_fract_x
_atom_site_fract_y
_atom_site_fract_z
Si Si1 0.052509 0.665768 0.663984
Si Si2 0.913794 0.002885 0.592184
Si Si3 0.447396 0.703126 0.787895
Si Si4 0.981555 0.911006 0.919635
Si Si5 0.826317 0.341528 0.536065
Si Si6 0.637612 0.510158 0.237295
Si Si7 0.718792 0.988509 0.921931
Si Si8 0.620678 0.372466 0.905076
O O1 0.000519 0.798214 0.556945
O O2 0.268240 0.727134 0.708172
O O3 0.053894 0.652186 0.547604
O O4 0.864075 0.477077 0.846084
O O5 0.666500 0.883612 0.642393
O O6 0.001917 0.944174 0.762917
O O7 0.000000 0.000000 0.500000
O O8 0.413052 0.549954 0.845610
O O9 0.448843 0.662789 0.952290
O O10 0.871732 0.993561 0.866028
O O11 0.853021 0.704158 0.109000
O O12 0.203926 0.003401 0.943532
O O13 0.655114 0.371662 0.436725
O O14 0.000000 0.500000 0.500000
O O15 0.711721 0.152857 0.745002
O O16 0.463090 0.514133 0.255082
O O17 0.489974 0.807972 0.020862
#
# Coordination Sequence:
#
# PCOD8006329 Si02
#       8
#     2   2   2   2   2   2   2   2
#     4  11  25  41  63  98 135 177 229 278 335 395
#     4  12  24  41  68 103 138 175 225 277 335 406
#     4  11  22  41  65  93 135 180 220 278 342 393
#     4  10  20  39  67  98 130 178 218 271 332 401
#     4  11  21  41  68  95 130 176 225 281 338 395
#     4  10  21  36  68  95 129 171 224 268 340 391
#     4  10  20  40  70  93 132 177 222 271 339 394
#     4  11  22  42  66  97 132 181 224 275 332 405
#
# _framework density 21.364401000000001
#
# number of rings (size 3 to 8) (size 9 to 14) (size 15 to 20)
#    0.000    1.250    5.000    1.875    1.750    1.000 
#    0.000    5.625    0.000    0.000    0.000    0.000 
#    0.000    0.000    0.000    0.000    0.000    0.000 
#
# Total GULP energy -198413.125611 kJ/mol
# GULP energy per Si atom -12400.820351 kJ/mol
# Density = 2.131577 g / cm^3
# Si number density = 21.364401 Si / 1000 Ang^3
#
#
#
# Elastic Constant Matrix: (Units=GPa)
#
#
# Indices 1 2 3 4 5 6 
#
# 1 83.2323 43.8846 59.3370 -0.0594 -1.6470 7.3476
# 2 43.8846 144.7648 54.0396 -2.8754 4.0938 10.7827
# 3 59.3370 54.0396 106.9767 -5.9869 11.0346 10.3003
# 4 -0.0594 -2.8754 -5.9869 37.3968 -3.8894 -0.8191
# 5 -1.6470 4.0938 11.0346 -3.8894 36.6273 -9.9701
# 6 7.3476 10.7827 10.3003 -0.8191 -9.9701 33.9867
#
#
#
# Elastic Compliance Matrix: (Units=1/GPa)
#
#
# Indices 1 2 3 4 5 6 
#
# 1 0.021361 -0.002513 -0.011238 -0.001446 0.004729 0.000937
# 2 -0.002513 0.008878 -0.002862 0.000116 -0.000666 -0.001599
# 3 -0.011238 -0.002862 0.018202 0.001904 -0.006573 -0.004061
# 4 -0.001446 0.000116 0.001904 0.027341 0.002553 0.001107
# 5 0.004729 -0.000666 -0.006573 0.002553 0.032797 0.010864
# 6 0.000937 -0.001599 -0.004061 0.001107 0.010864 0.034172
#
#
# Mechanical properties :
#
#
# Convention : Reuss Voigt Hill
#
# Bulk Modulus (GPa) = 65.71914 72.16623 68.94269
# Shear Modulus (GPa) = 27.61681 33.44968 30.53324
#
# Velocity S-wave (km/s) = 3.59925 3.96115 3.78453
# Velocity P-wave (km/s) = 6.93546 7.40088 7.17195
#
# Compressibility (1/GPa) = 0.01521627
#
# Stress axis : x y z
#
# Youngs Moduli (GPa) = 46.81493 112.63800 54.93780
#
# Poissons Ratio (x) = 0.28302 0.61738
# Poissons Ratio (y) = 0.11763 0.15723
# Poissons Ratio (z) = 0.52610 0.32236
#
# Static dielectric constant tensor:
#      x y z
#    x 3.620770 -0.015220 0.205610 
#    y -0.015220 4.202670 0.026160 
#    z 0.205610 0.026160 3.769780 
# 
# 
# High freq. dielectric constant tensor:
#      x y z
#    x 1.819540 -0.001930 0.017700 
#    y -0.001930 1.860320 -0.003080 
#    z 0.017700 -0.003080 1.828960 
# 
# From -- ./inp_files/186160.got.cif
#   From: 2010.06.25/outbox.cif.g09.slc.cpg/sg2_94_cif.got.tgz:186160.got - 2010.06.27 13:26:56.
