data_PCOD8006187
_publ_section_title
;
Structure prediction by ZEFSAII (Michael W. Deem and Ramdas Pophale) SiO2 
 PCOD8006187
Probable space group: P -1
;
_chemical_formula_sum "Si O2"
_cell_formula_units_Z 14
_cell_length_a 10.411650
_cell_length_b 12.729720
_cell_length_c 8.817851
_cell_angle_alpha 131.458496
_cell_angle_beta 124.344800
_cell_angle_gamma 86.504600
_cell_volume 624.123705
_symmetry_space_group_name_H-M "P -1"
_symmetry_group_IT_number 2
_symmetry_cell_setting 'triclinic'
loop_
_space_group_symop_operation_xyz
x,y,z
-x,-y,-z
loop_
_atom_site_type_symbol
_atom_site_label
_atom_site_fract_x
_atom_site_fract_y
_atom_site_fract_z
Si Si1 0.383942 0.899181 0.684176
Si Si2 0.730240 0.439722 0.599634
Si Si3 0.366928 0.321691 0.117506
Si Si4 0.143796 0.146133 0.080147
Si Si5 0.693533 0.013750 0.765144
Si Si6 0.993605 0.361054 0.256047
Si Si7 0.218200 0.049745 0.534977
O O1 0.272274 0.709513 0.461678
O O2 0.511814 0.943661 0.667693
O O3 0.236047 0.947894 0.588619
O O4 0.500000 0.000000 0.000000
O O5 0.580521 0.381975 0.308356
O O6 0.678929 0.534723 0.779045
O O7 0.932771 0.552082 0.775472
O O8 0.313507 0.233812 0.163600
O O9 0.264118 0.219110 0.802641
O O10 0.979075 0.046940 0.759638
O O11 0.119827 0.279238 0.290735
O O12 0.165328 0.024480 0.090461
O O13 0.642116 0.921048 0.480603
O O14 0.789684 0.208210 0.981522
O O15 0.000000 0.500000 0.500000
#
# Coordination Sequence:
#
# PCOD8006187 Si02
#       7
#     2   2   2   2   2   2   2
#     4  12  22  40  64  93 123 169 207 252 309 370
#     4  10  21  39  63  92 124 164 206 252 313 368
#     4  10  20  39  66  90 123 164 210 255 303 372
#     4  10  21  43  66  89 123 169 211 250 302 378
#     4  11  23  43  64  91 125 168 209 255 304 374
#     4  10  21  36  61  93 125 159 200 257 314 357
#     4  11  22  37  63  97 124 158 212 259 307 362
#
# _framework density 22.431450000000002
#
# number of rings (size 3 to 8) (size 9 to 14) (size 15 to 20)
#    0.000    1.429    2.857    3.429    0.000    0.000 
#    0.000   14.286    0.000    0.000    0.000    0.000 
#    0.000    0.000    0.000    0.000    0.000    0.000 
#
# Total GULP energy -173447.993696 kJ/mol
# GULP energy per Si atom -12389.142407 kJ/mol
# Density = 2.238040 g / cm^3
# Si number density = 22.431450 Si / 1000 Ang^3
#
#
#
# Elastic Constant Matrix: (Units=GPa)
#
#
# Indices 1 2 3 4 5 6 
#
# 1 62.7752 18.2167 23.0734 15.6309 -12.1560 11.5060
# 2 18.2167 119.6978 66.0158 12.3059 4.0176 4.3624
# 3 23.0734 66.0158 116.3068 9.9555 -26.3700 -13.1975
# 4 15.6309 12.3059 9.9555 42.2088 -1.0547 7.6106
# 5 -12.1560 4.0176 -26.3700 -1.0547 36.9159 7.8809
# 6 11.5060 4.3624 -13.1975 7.6106 7.8809 35.8974
#
#
#
# Elastic Compliance Matrix: (Units=1/GPa)
#
#
# Indices 1 2 3 4 5 6 
#
# 1 0.021327 -0.001389 -0.002278 -0.005350 0.007086 -0.007926
# 2 -0.001389 0.014817 -0.010403 -0.001031 -0.008888 -0.003010
# 3 -0.002278 -0.010403 0.018575 -0.001357 0.012241 0.006424
# 4 -0.005350 -0.001031 -0.001357 0.027023 -0.000955 -0.004179
# 5 0.007086 -0.008888 0.012241 -0.000955 0.040242 -0.005323
# 6 -0.007926 -0.003010 0.006424 -0.004179 -0.005323 0.035180
#
#
# Mechanical properties :
#
#
# Convention : Reuss Voigt Hill
#
# Bulk Modulus (GPa) = 37.62181 57.04351 47.33266
# Shear Modulus (GPa) = 25.75141 35.76933 30.76037
#
# Velocity S-wave (km/s) = 3.39190 3.99758 3.70713
# Velocity P-wave (km/s) = 5.66994 6.84054 6.28256
#
# Compressibility (1/GPa) = 0.02658033
#
# Stress axis : x y z
#
# Youngs Moduli (GPa) = 46.88917 67.48792 53.83526
#
# Poissons Ratio (x) = 0.09371 0.12262
# Poissons Ratio (y) = 0.06511 0.56007
# Poissons Ratio (z) = 0.10680 0.70211
#
# Static dielectric constant tensor:
#      x y z
#    x 4.330190 0.067970 -0.068660 
#    y 0.067970 4.197250 0.243310 
#    z -0.068660 0.243310 3.935300 
# 
# 
# High freq. dielectric constant tensor:
#      x y z
#    x 1.897730 -0.000270 -0.001930 
#    y -0.000270 1.878240 0.021990 
#    z -0.001930 0.021990 1.866890 
# 
# From -- ./inp_files/260807.got.cif
#   From: 2010.06.25/outbox.cif.g09.slc.cpg/sg2_131_cif.got.tgz:260807.got - 2010.06.27 13:26:56.
