data_PCOD8006040
_publ_section_title
;
Structure prediction by ZEFSAII (Michael W. Deem and Ramdas Pophale) SiO2 
 PCOD8006040
Probable space group: P -1
;
_chemical_formula_sum "Si O2"
_cell_formula_units_Z 16
_cell_length_a 9.112533
_cell_length_b 15.128027
_cell_length_c 11.541951
_cell_angle_alpha 58.908666
_cell_angle_beta 78.655842
_cell_angle_gamma 40.156214
_cell_volume 820.259255
_symmetry_space_group_name_H-M "P -1"
_symmetry_group_IT_number 2
_symmetry_cell_setting 'triclinic'
loop_
_space_group_symop_operation_xyz
x,y,z
-x,-y,-z
loop_
_atom_site_type_symbol
_atom_site_label
_atom_site_fract_x
_atom_site_fract_y
_atom_site_fract_z
Si Si1 0.313656 0.544406 0.077396
Si Si2 0.407264 0.478008 0.369791
Si Si3 0.439435 0.934504 0.898253
Si Si4 0.106169 0.265056 0.604191
Si Si5 0.251457 0.515172 0.680699
Si Si6 0.554275 0.742648 0.354005
Si Si7 0.792949 0.914602 0.932330
Si Si8 0.753192 0.579687 0.011685
O O1 0.421890 0.464382 0.239748
O O2 0.500000 0.500000 0.000000
O O3 0.284452 0.450962 0.085371
O O4 0.077101 0.746081 0.981723
O O5 0.563682 0.492464 0.375909
O O6 0.523406 0.308908 0.515325
O O7 0.127164 0.634693 0.347845
O O8 0.667572 0.872362 0.958020
O O9 0.307876 0.066517 0.724264
O O10 0.529508 0.777073 0.941100
O O11 0.247251 0.024538 0.971303
O O12 0.224427 0.310278 0.591443
O O13 0.013520 0.317899 0.449479
O O14 0.353749 0.353562 0.718073
O O15 0.219975 0.517302 0.821641
O O16 0.315318 0.941979 0.236310
O O17 0.000000 0.500000 0.000000
#
# Coordination Sequence:
#
# PCOD8006040 Si02
#       8
#     2   2   2   2   2   2   2   2
#     4  12  25  44  60  92 129 171 200 252 318 379
#     4  11  22  40  60  89 131 166 201 255 313 368
#     4  10  20  39  64  98 116 160 210 268 297 358
#     4  10  21  37  67  93 121 157 215 261 303 358
#     4  11  22  40  58  94 128 164 205 252 315 368
#     4  10  21  37  67  95 117 160 214 262 303 357
#     4  10  20  39  66  91 126 153 216 258 304 358
#     4  12  25  40  66  90 129 164 208 253 317 370
#
# _framework density 19.506027
#
# number of rings (size 3 to 8) (size 9 to 14) (size 15 to 20)
#    0.000    1.250    5.000    3.000    3.500    0.000 
#    4.500    4.375    0.000    0.000    0.000    0.000 
#    0.000    0.000    0.000    0.000    0.000    0.000 
#
# Total GULP energy -198348.924765 kJ/mol
# GULP energy per Si atom -12396.807798 kJ/mol
# Density = 1.946163 g / cm^3
# Si number density = 19.506027 Si / 1000 Ang^3
#
#
#
# Elastic Constant Matrix: (Units=GPa)
#
#
# Indices 1 2 3 4 5 6 
#
# 1 104.2630 24.3945 15.5495 -8.3991 -6.6601 3.7326
# 2 24.3945 99.3191 35.0697 -15.6006 -1.2963 0.2242
# 3 15.5495 35.0697 92.9316 -8.7323 -6.5917 6.4783
# 4 -8.3991 -15.6006 -8.7323 28.3772 -0.2180 -3.7978
# 5 -6.6601 -1.2963 -6.5917 -0.2180 29.7640 9.2892
# 6 3.7326 0.2242 6.4783 -3.7978 9.2892 28.5532
#
#
#
# Elastic Compliance Matrix: (Units=1/GPa)
#
#
# Indices 1 2 3 4 5 6 
#
# 1 0.010534 -0.002133 -0.000478 0.001559 0.002778 -0.001948
# 2 -0.002133 0.012941 -0.004290 0.005470 -0.001569 0.002389
# 3 -0.000478 -0.004290 0.013109 0.001028 0.003865 -0.003999
# 4 0.001559 0.005470 0.001028 0.039683 -0.000436 0.004940
# 5 0.002778 -0.001569 0.003865 -0.000436 0.039406 -0.014105
# 6 -0.001948 0.002389 -0.003999 0.004940 -0.014105 0.041411
#
#
# Mechanical properties :
#
#
# Convention : Reuss Voigt Hill
#
# Bulk Modulus (GPa) = 43.89672 49.61570 46.75621
# Shear Modulus (GPa) = 28.01417 32.10556 30.05986
#
# Velocity S-wave (km/s) = 3.79381 4.06141 3.92989
# Velocity P-wave (km/s) = 6.46093 6.89091 6.67938
#
# Compressibility (1/GPa) = 0.02278074
#
# Stress axis : x y z
#
# Youngs Moduli (GPa) = 94.92816 77.27507 76.28217
#
# Poissons Ratio (x) = 0.16483 0.03649
# Poissons Ratio (y) = 0.20248 0.32728
# Poissons Ratio (z) = 0.04541 0.33154
#
# Static dielectric constant tensor:
#      x y z
#    x 3.508030 -0.020810 0.141430 
#    y -0.020810 3.321640 0.140120 
#    z 0.141430 0.140120 3.343660 
# 
# 
# High freq. dielectric constant tensor:
#      x y z
#    x 1.765050 0.004230 0.001210 
#    y 0.004230 1.738350 -0.001090 
#    z 0.001210 -0.001090 1.771930 
# 
# From -- ./inp_files/256515.got.cif
#   From: 2010.06.25/outbox.cif.g09.slc.cpg/sg2_129_cif.got.tgz:256515.got - 2010.06.27 13:26:56.
