data_PCOD8006233
_publ_section_title
;
Structure prediction by ZEFSAII (Michael W. Deem and Ramdas Pophale) SiO2 
 PCOD8006233
Probable space group: P -1
;
_chemical_formula_sum "Si O2"
_cell_formula_units_Z 16
_cell_length_a 9.523974
_cell_length_b 14.678790
_cell_length_c 9.263469
_cell_angle_alpha 62.865697
_cell_angle_beta 72.855581
_cell_angle_gamma 42.648642
_cell_volume 779.044097
_symmetry_space_group_name_H-M "P -1"
_symmetry_group_IT_number 2
_symmetry_cell_setting 'triclinic'
loop_
_space_group_symop_operation_xyz
x,y,z
-x,-y,-z
loop_
_atom_site_type_symbol
_atom_site_label
_atom_site_fract_x
_atom_site_fract_y
_atom_site_fract_z
Si Si1 0.831610 0.871044 0.942461
Si Si2 0.995579 0.304386 0.442764
Si Si3 0.960789 0.379899 0.723522
Si Si4 0.501344 0.870726 0.956762
Si Si5 0.562651 0.856307 0.630079
Si Si6 0.293064 0.379420 0.714736
Si Si7 0.483611 0.312323 0.415349
Si Si8 0.933091 0.147956 0.380506
O O1 0.956429 0.870789 0.785062
O O2 0.720338 0.004082 0.990057
O O3 0.647740 0.897771 0.904208
O O4 0.992493 0.720305 0.088101
O O5 0.005074 0.300100 0.617071
O O6 0.795696 0.465406 0.329095
O O7 0.993963 0.189525 0.467726
O O8 0.189242 0.270120 0.341712
O O9 0.721557 0.532053 0.698248
O O10 0.111221 0.403970 0.673151
O O11 0.616904 0.715902 0.100714
O O12 0.459640 0.872009 0.800343
O O13 0.482191 0.818038 0.562237
O O14 0.500000 0.000000 0.500000
O O15 0.474795 0.304365 0.596839
O O16 0.685337 0.279193 0.337997
O O17 0.000000 0.000000 0.500000
#
# Coordination Sequence:
#
# PCOD8006233 Si02
#       8
#     2   2   2   2   2   2   2   2
#     4  10  22  40  61  90 124 164 200 256 313 356
#     4  11  21  40  64  93 121 163 205 249 305 364
#     4  10  20  40  67  93 123 155 207 262 300 360
#     4  10  22  37  64  94 120 157 207 260 307 354
#     4  12  22  36  62  93 117 158 214 251 297 362
#     4  10  20  39  66  95 125 153 204 261 306 359
#     4  11  23  40  62  90 128 163 198 252 311 359
#     4  12  26  42  59  89 130 167 204 250 305 373
#
# _framework density 20.537990000000001
#
# number of rings (size 3 to 8) (size 9 to 14) (size 15 to 20)
#    0.000    1.250    3.750    3.000    3.500    4.000 
#    0.000    3.750    0.000    0.000    0.000    0.000 
#    0.000    0.000    0.000    0.000    0.000    0.000 
#
# Total GULP energy -198447.577480 kJ/mol
# GULP energy per Si atom -12402.973593 kJ/mol
# Density = 2.049124 g / cm^3
# Si number density = 20.537990 Si / 1000 Ang^3
#
#
#
# Elastic Constant Matrix: (Units=GPa)
#
#
# Indices 1 2 3 4 5 6 
#
# 1 67.5922 26.0939 24.6842 14.0745 -12.6705 2.5982
# 2 26.0939 90.1048 58.7712 17.8318 -6.1259 3.2612
# 3 24.6842 58.7712 126.8565 9.2919 -13.5535 3.1323
# 4 14.0745 17.8318 9.2919 35.0663 -3.7411 -2.8759
# 5 -12.6705 -6.1259 -13.5535 -3.7411 26.5164 7.1171
# 6 2.5982 3.2612 3.1323 -2.8759 7.1171 41.6526
#
#
#
# Elastic Compliance Matrix: (Units=1/GPa)
#
#
# Indices 1 2 3 4 5 6 
#
# 1 0.019021 -0.003283 -0.000907 -0.005098 0.007833 -0.002552
# 2 -0.003283 0.018015 -0.007440 -0.006133 -0.001874 -0.000750
# 3 -0.000907 -0.007440 0.011893 0.001387 0.004366 -0.000906
# 4 -0.005098 -0.006133 0.001387 0.033639 0.000830 0.002875
# 5 0.007833 -0.001874 0.004366 0.000830 0.045628 -0.008409
# 6 -0.002552 -0.000750 -0.000906 0.002875 -0.008409 0.025929
#
#
# Mechanical properties :
#
#
# Convention : Reuss Voigt Hill
#
# Bulk Modulus (GPa) = 38.95593 55.96132 47.45863
# Shear Modulus (GPa) = 26.89002 32.31402 29.60202
#
# Velocity S-wave (km/s) = 3.62233 3.97089 3.80060
# Velocity P-wave (km/s) = 6.04185 6.95203 6.51286
#
# Compressibility (1/GPa) = 0.02567003
#
# Stress axis : x y z
#
# Youngs Moduli (GPa) = 52.57298 55.50896 84.08052
#
# Poissons Ratio (x) = 0.18224 0.07625
# Poissons Ratio (y) = 0.17260 0.62554
# Poissons Ratio (z) = 0.04768 0.41298
#
# Static dielectric constant tensor:
#      x y z
#    x 3.588810 -0.030900 -0.000250 
#    y -0.030900 4.005650 0.152710 
#    z -0.000250 0.152710 3.625420 
# 
# 
# High freq. dielectric constant tensor:
#      x y z
#    x 1.775700 0.000780 0.001580 
#    y 0.000780 1.824280 0.004780 
#    z 0.001580 0.004780 1.800980 
# 
# From -- ./inp_files/206248.got.cif
#   From: 2010.06.25/outbox.cif.g09.slc.cpg/sg2_104_cif.got.tgz:206248.got - 2010.06.27 13:26:56.
