data_PCOD8006452
_publ_section_title
;
Structure prediction by ZEFSAII (Michael W. Deem and Ramdas Pophale) SiO2 
 PCOD8006452
Probable space group: P -1
;
_chemical_formula_sum "Si O2"
_cell_formula_units_Z 14
_cell_length_a 18.759720
_cell_length_b 12.885437
_cell_length_c 8.098349
_cell_angle_alpha 148.535504
_cell_angle_beta 41.532944
_cell_angle_gamma 147.035537
_cell_volume 552.232780
_symmetry_space_group_name_H-M "P -1"
_symmetry_group_IT_number 2
_symmetry_cell_setting 'triclinic'
loop_
_space_group_symop_operation_xyz
x,y,z
-x,-y,-z
loop_
_atom_site_type_symbol
_atom_site_label
_atom_site_fract_x
_atom_site_fract_y
_atom_site_fract_z
Si Si1 0.790236 0.221969 0.072192
Si Si2 0.568407 0.723166 0.810920
Si Si3 0.074308 0.415959 0.943892
Si Si4 0.651937 0.689152 0.956700
Si Si5 0.860663 0.110158 0.364102
Si Si6 0.316420 0.613202 0.272419
Si Si7 0.102613 0.186697 0.865191
O O1 0.720181 0.210865 0.351880
O O2 0.925088 0.249322 0.910296
O O3 0.822684 0.439366 0.187415
O O4 0.673622 0.960613 0.840964
O O5 0.500000 0.500000 0.500000
O O6 0.660999 0.713477 0.775128
O O7 0.462861 0.749803 0.126812
O O8 0.093679 0.616020 0.314247
O O9 0.100055 0.228109 0.728641
O O10 0.717703 0.564797 0.753193
O O11 0.500000 0.500000 0.000000
O O12 0.719634 0.946743 0.290587
O O13 0.861338 0.000562 0.395905
O O14 0.960730 0.096862 0.057714
O O15 0.214917 0.457653 0.094591
#
# Coordination Sequence:
#
# PCOD8006452 Si02
#       7
#     2   2   2   2   2   2   2
#     4  11  25  44  62 102 139 175 227 278 339 405
#     4  11  25  44  70  96 134 181 227 281 336 407
#     4  11  24  42  68 101 144 175 224 283 341 403
#     4   9  21  39  66  93 129 171 224 275 338 394
#     4  10  20  39  71 100 134 180 227 280 334 414
#     4  10  22  44  66  97 132 172 229 279 337 406
#     4  10  21  38  70 100 130 181 225 274 342 400
#
# _framework density 25.351628999999999
#
# number of rings (size 3 to 8) (size 9 to 14) (size 15 to 20)
#    0.000    1.714    1.429    1.714    8.000    1.143 
#    0.000    2.857    0.000    0.000    0.000    0.000 
#    0.000    0.000    0.000    0.000    0.000    0.000 
#
# Total GULP energy -173433.224890 kJ/mol
# GULP energy per Si atom -12388.087492 kJ/mol
# Density = 2.529393 g / cm^3
# Si number density = 25.351629 Si / 1000 Ang^3
#
#
#
# Elastic Constant Matrix: (Units=GPa)
#
#
# Indices 1 2 3 4 5 6 
#
# 1 139.6706 44.4081 9.5609 3.4775 18.3749 -16.4223
# 2 44.4081 166.3306 29.0087 2.1207 10.9166 13.5327
# 3 9.5609 29.0087 46.5452 -1.4018 15.5550 11.0991
# 4 3.4775 2.1207 -1.4018 39.5312 6.5579 10.8471
# 5 18.3749 10.9166 15.5550 6.5579 24.3099 12.3497
# 6 -16.4223 13.5327 11.0991 10.8471 12.3497 44.2954
#
#
#
# Elastic Compliance Matrix: (Units=1/GPa)
#
#
# Indices 1 2 3 4 5 6 
#
# 1 0.010386 -0.002926 0.001564 -0.000959 -0.011195 0.007708
# 2 -0.002926 0.007620 -0.004477 0.000027 0.003279 -0.003212
# 3 0.001564 -0.004477 0.030999 0.004871 -0.019524 -0.001569
# 4 -0.000959 0.000027 0.004871 0.028500 -0.006689 -0.006699
# 5 -0.011195 0.003279 -0.019524 -0.006689 0.071906 -0.018670
# 6 0.007708 -0.003212 -0.001569 -0.006699 -0.018670 0.033654
#
#
# Mechanical properties :
#
#
# Convention : Reuss Voigt Hill
#
# Bulk Modulus (GPa) = 26.78995 57.61129 42.20062
# Shear Modulus (GPa) = 24.13308 39.59853 31.86580
#
# Velocity S-wave (km/s) = 3.08869 3.95647 3.54920
# Velocity P-wave (km/s) = 4.82807 6.60649 5.78602
#
# Compressibility (1/GPa) = 0.03732743
#
# Stress axis : x y z
#
# Youngs Moduli (GPa) = 96.28445 131.23570 32.25902
#
# Poissons Ratio (x) = 0.38398 -0.05046
# Poissons Ratio (y) = 0.28172 0.14442
# Poissons Ratio (z) = -0.15061 0.58754
#
# Static dielectric constant tensor:
#      x y z
#    x 5.368440 -0.260110 0.080250 
#    y -0.260110 4.750670 0.138650 
#    z 0.080250 0.138650 4.131480 
# 
# 
# High freq. dielectric constant tensor:
#      x y z
#    x 2.013850 0.001390 0.014810 
#    y 0.001390 2.029170 0.009770 
#    z 0.014810 0.009770 1.987460 
# 
# From -- ./inp_files/347431.got.cif
#   From: 2010.06.25/outbox.cif.g09.slc.cpg/sg2_174_cif.got.tgz:347431.got - 2010.06.27 13:26:56.
