data_PCOD8006036
_publ_section_title
;
Structure prediction by ZEFSAII (Michael W. Deem and Ramdas Pophale) SiO2 
 PCOD8006036
Probable space group: P -1
;
_chemical_formula_sum "Si O2"
_cell_formula_units_Z 16
_cell_length_a 15.301295
_cell_length_b 11.446386
_cell_length_c 9.551004
_cell_angle_alpha 84.058565
_cell_angle_beta 74.017685
_cell_angle_gamma 28.683173
_cell_volume 736.504485
_symmetry_space_group_name_H-M "P -1"
_symmetry_group_IT_number 2
_symmetry_cell_setting 'triclinic'
loop_
_space_group_symop_operation_xyz
x,y,z
-x,-y,-z
loop_
_atom_site_type_symbol
_atom_site_label
_atom_site_fract_x
_atom_site_fract_y
_atom_site_fract_z
Si Si1 0.160075 0.739527 0.379402
Si Si2 0.895808 0.338536 0.330495
Si Si3 0.932927 0.058385 0.179193
Si Si4 0.340753 0.166077 0.667693
Si Si5 0.726303 0.008041 0.669505
Si Si6 0.491553 0.501616 0.667693
Si Si7 0.960524 0.639875 0.379402
Si Si8 0.387880 0.120808 0.179193
O O1 0.177293 0.601511 0.482651
O O2 0.370113 0.563738 0.306526
O O3 0.000000 0.000000 0.500000
O O4 0.086518 0.808653 0.241591
O O5 0.884251 0.237605 0.251918
O O6 0.759783 0.592871 0.289796
O O7 0.119057 0.130943 0.261887
O O8 0.732982 0.213660 0.227284
O O9 0.000000 0.000000 0.000000
O O10 0.176639 0.257212 0.693475
O O11 0.500000 0.000000 0.500000
O O12 0.460266 0.986375 0.772716
O O13 0.840056 0.881140 0.482650
O O14 0.636168 0.985687 0.748081
O O15 0.549579 0.303075 0.710203
O O16 0.500000 0.500000 0.500000
O O17 0.000000 0.500000 0.500000
O O18 0.171891 0.432939 0.241591
O O19 0.500000 0.000000 0.000000
#
# Coordination Sequence:
#
# PCOD8006036 Si02
#       8
#     2   2   2   2   2   2   2   2
#     4  10  20  39  64  97 125 160 216 272 305 380
#     4  11  20  40  68  91 127 171 211 262 324 370
#     4  11  24  41  63  92 134 172 210 262 321 381
#     4  12  21  39  70  94 122 168 216 261 318 379
#     4  11  20  40  68  91 127 171 211 262 324 370
#     4  12  21  39  70  94 122 168 216 261 318 379
#     4  10  20  39  64  97 125 160 216 272 305 380
#     4  11  24  41  63  92 134 172 210 262 321 381
#
# _framework density 21.724240999999999
#
# number of rings (size 3 to 8) (size 9 to 14) (size 15 to 20)
#    0.000    1.000   10.000    0.750    0.000    1.000 
#    0.000    7.500    0.000    0.000    0.000    0.000 
#    0.000    0.000    0.000    0.000    0.000    0.000 
#
# Total GULP energy -198301.363390 kJ/mol
# GULP energy per Si atom -12393.835212 kJ/mol
# Density = 2.167480 g / cm^3
# Si number density = 21.724241 Si / 1000 Ang^3
#
#
#
# Elastic Constant Matrix: (Units=GPa)
#
#
# Indices 1 2 3 4 5 6 
#
# 1 69.9206 35.7825 10.8532 -1.2920 1.2128 -38.6696
# 2 35.7825 92.8517 35.0763 -2.1624 0.4927 -45.5755
# 3 10.8532 35.0763 134.6453 -1.4174 -2.4664 -33.3742
# 4 -1.2920 -2.1624 -1.4174 24.3519 -9.6279 1.1530
# 5 1.2128 0.4927 -2.4664 -9.6279 23.5923 -0.2666
# 6 -38.6696 -45.5755 -33.3742 1.1530 -0.2666 49.5017
#
#
#
# Elastic Compliance Matrix: (Units=1/GPa)
#
#
# Indices 1 2 3 4 5 6 
#
# 1 0.026584 -0.000394 0.003610 0.000261 -0.000617 0.022828
# 2 -0.000394 0.019740 -0.000812 0.000900 0.000086 0.017299
# 3 0.003610 -0.000812 0.009472 0.000755 0.001225 0.008447
# 4 0.000261 0.000900 0.000755 0.049125 0.020100 0.000505
# 5 -0.000617 0.000086 0.001225 0.020100 0.050750 0.000229
# 6 0.022828 0.017299 0.008447 0.000505 0.000229 0.059646
#
#
# Mechanical properties :
#
#
# Convention : Reuss Voigt Hill
#
# Bulk Modulus (GPa) = 16.50074 51.20460 33.85267
# Shear Modulus (GPa) = 21.67229 33.86955 27.77092
#
# Velocity S-wave (km/s) = 3.16192 3.95279 3.57926
# Velocity P-wave (km/s) = 4.57628 6.66739 5.71824
#
# Compressibility (1/GPa) = 0.06060333
#
# Stress axis : x y z
#
# Youngs Moduli (GPa) = 37.61663 50.65940 105.57860
#
# Poissons Ratio (x) = 0.01995 -0.38110
# Poissons Ratio (y) = 0.01481 0.08571
# Poissons Ratio (z) = -0.13578 0.04113
#
# Static dielectric constant tensor:
#      x y z
#    x 3.702300 0.036310 -0.003480 
#    y 0.036310 4.002200 -0.002480 
#    z -0.003480 -0.002480 3.766780 
# 
# 
# High freq. dielectric constant tensor:
#      x y z
#    x 1.855740 -0.023580 0.002320 
#    y -0.023580 1.865250 -0.001960 
#    z 0.002320 -0.001960 1.812380 
# 
# From -- ./inp_files/307516.got.cif
#   From: 2010.06.25/outbox.cif.g09.slc.cpg/sg2_154_cif.got.tgz:307516.got - 2010.06.27 13:26:56.
