data_PCOD8006773
_publ_section_title
;
Structure prediction by ZEFSAII (Michael W. Deem and Ramdas Pophale) SiO2 
 PCOD8006773
Probable space group: P -1
;
_chemical_formula_sum "Si O2"
_cell_formula_units_Z 16
_cell_length_a 9.830557
_cell_length_b 15.696504
_cell_length_c 15.307100
_cell_angle_alpha 152.146179
_cell_angle_beta 92.445774
_cell_angle_gamma 68.186856
_cell_volume 770.588211
_symmetry_space_group_name_H-M "P -1"
_symmetry_group_IT_number 2
_symmetry_cell_setting 'triclinic'
loop_
_space_group_symop_operation_xyz
x,y,z
-x,-y,-z
loop_
_atom_site_type_symbol
_atom_site_label
_atom_site_fract_x
_atom_site_fract_y
_atom_site_fract_z
Si Si1 0.011251 0.220229 0.931303
Si Si2 0.165305 0.806674 0.259293
Si Si3 0.745751 0.171215 0.092524
Si Si4 0.605304 0.560230 0.302994
Si Si5 0.831415 0.206765 0.312979
Si Si6 0.509088 0.342800 0.963307
Si Si7 0.563982 0.803251 0.897475
Si Si8 0.348971 0.138656 0.865801
O O1 0.955887 0.190976 0.810972
O O2 0.121152 0.308004 0.996507
O O3 0.812968 0.448913 0.184171
O O4 0.148950 0.946292 0.741747
O O5 0.276661 0.872403 0.274082
O O6 0.342696 0.526823 0.053121
O O7 0.000000 0.000000 0.500000
O O8 0.632116 0.450670 0.300627
O O9 0.726551 0.205354 0.227866
O O10 0.635371 0.099634 0.990241
O O11 0.959341 0.937818 0.849427
O O12 0.454282 0.865430 0.580073
O O13 0.523631 0.493392 0.169838
O O14 0.721369 0.498334 0.598726
O O15 0.443167 0.223851 0.901524
O O16 0.642032 0.851799 0.021616
O O17 0.500000 0.000000 0.000000
#
# Coordination Sequence:
#
# PCOD8006773 Si02
#       8
#     2   2   2   2   2   2   2   2
#     4  10  23  41  63  94 124 169 212 261 319 373
#     4  10  22  42  70  90 125 167 211 266 320 378
#     4  10  20  40  64  86 124 177 206 258 318 364
#     4  10  21  43  63  90 132 168 211 259 316 376
#     4  10  22  39  64  88 126 169 215 256 312 379
#     4  10  23  43  64  97 123 167 216 256 324 379
#     4  12  24  36  58  97 130 166 214 259 310 371
#     4  12  24  38  66  95 130 168 209 264 315 378
#
# _framework density 20.763358
#
# number of rings (size 3 to 8) (size 9 to 14) (size 15 to 20)
#    0.000    1.500    1.250    3.375    1.750    3.000 
#    0.000    8.750    0.000    0.000    0.000    0.000 
#    0.000    0.000    0.000    0.000    0.000    0.000 
#
# Total GULP energy -198243.984698 kJ/mol
# GULP energy per Si atom -12390.249044 kJ/mol
# Density = 2.071610 g / cm^3
# Si number density = 20.763358 Si / 1000 Ang^3
#
#
#
# Elastic Constant Matrix: (Units=GPa)
#
#
# Indices 1 2 3 4 5 6 
#
# 1 174.7341 58.4470 46.9159 -8.9762 -5.5343 -1.7397
# 2 58.4470 125.8466 34.4252 -15.8584 -2.6414 -14.4973
# 3 46.9159 34.4252 71.9591 -8.0306 6.4468 2.5757
# 4 -8.9762 -15.8584 -8.0306 21.2914 -4.5414 -1.4146
# 5 -5.5343 -2.6414 6.4468 -4.5414 16.0058 0.8155
# 6 -1.7397 -14.4973 2.5757 -1.4146 0.8155 35.3897
#
#
#
# Elastic Compliance Matrix: (Units=1/GPa)
#
#
# Indices 1 2 3 4 5 6 
#
# 1 0.007817 -0.002296 -0.004276 0.000871 0.004309 -0.000310
# 2 -0.002296 0.011721 -0.003855 0.007631 0.004595 0.005168
# 3 -0.004276 -0.003855 0.019554 0.000431 -0.009717 -0.002971
# 4 0.000871 0.007631 0.000431 0.057219 0.017366 0.005025
# 5 0.004309 0.004595 -0.009717 0.017366 0.073475 0.001802
# 6 -0.000310 0.005168 -0.002971 0.005025 0.001802 0.030734
#
#
# Mechanical properties :
#
#
# Convention : Reuss Voigt Hill
#
# Bulk Modulus (GPa) = 54.83280 72.45735 63.64508
# Shear Modulus (GPa) = 21.98257 30.05417 26.01837
#
# Velocity S-wave (km/s) = 3.25733 3.80868 3.54374
# Velocity P-wave (km/s) = 6.37281 7.36980 6.88936
#
# Compressibility (1/GPa) = 0.01823726
#
# Stress axis : x y z
#
# Youngs Moduli (GPa) = 127.92081 85.31965 51.14099
#
# Poissons Ratio (x) = 0.19593 0.21867
# Poissons Ratio (y) = 0.29376 0.19714
# Poissons Ratio (z) = 0.54698 0.32890
#
# Static dielectric constant tensor:
#      x y z
#    x 5.135880 -0.068500 -0.035490 
#    y -0.068500 3.798380 0.033060 
#    z -0.035490 0.033060 3.607510 
# 
# 
# High freq. dielectric constant tensor:
#      x y z
#    x 1.831690 -0.006860 -0.024290 
#    y -0.006860 1.828720 -0.010420 
#    z -0.024290 -0.010420 1.795350 
# 
# From -- ./inp_files/505829.got.cif
#   From: 2010.06.25/outbox.cif.g09.slc.cpg/sg2_253_cif.got.tgz:505829.got - 2010.06.27 13:26:56.
