data_PCOD8006460
_publ_section_title
;
Structure prediction by ZEFSAII (Michael W. Deem and Ramdas Pophale) SiO2 
 PCOD8006460
Probable space group: P -1
;
_chemical_formula_sum "Si O2"
_cell_formula_units_Z 16
_cell_length_a 12.386296
_cell_length_b 16.609943
_cell_length_c 8.820813
_cell_angle_alpha 42.473279
_cell_angle_beta 90.240519
_cell_angle_gamma 124.121567
_cell_volume 690.437781
_symmetry_space_group_name_H-M "P -1"
_symmetry_group_IT_number 2
_symmetry_cell_setting 'triclinic'
loop_
_space_group_symop_operation_xyz
x,y,z
-x,-y,-z
loop_
_atom_site_type_symbol
_atom_site_label
_atom_site_fract_x
_atom_site_fract_y
_atom_site_fract_z
Si Si1 0.701575 0.404283 0.781169
Si Si2 0.999379 0.340867 0.824087
Si Si3 0.008705 0.085118 0.230796
Si Si4 0.985921 0.541209 0.780729
Si Si5 0.394851 0.301340 0.368363
Si Si6 0.690676 0.664743 0.364763
Si Si7 0.614049 0.006059 0.818308
Si Si8 0.429767 0.076431 0.727241
O O1 0.721783 0.563479 0.576146
O O2 0.847790 0.484964 0.545548
O O3 0.781373 0.419271 0.917166
O O4 0.480802 0.168566 0.066453
O O5 0.017332 0.460571 0.779318
O O6 0.068394 0.278029 0.988304
O O7 0.790993 0.143420 0.018354
O O8 0.137880 0.143585 0.016444
O O9 0.000000 0.000000 0.500000
O O10 0.793784 0.895943 0.446537
O O11 0.157502 0.796049 0.429988
O O12 0.000000 0.500000 0.000000
O O13 0.334446 0.270557 0.584063
O O14 0.508777 0.279065 0.394938
O O15 0.500000 0.500000 0.000000
O O16 0.500000 0.500000 0.500000
O O17 0.557945 0.087246 0.644197
O O18 0.526568 0.891276 0.138323
#
# Coordination Sequence:
#
# PCOD8006460 Si02
#       8
#     2   2   2   2   2   2   2   2
#     4  11  23  44  70  94 134 174 225 279 327 407
#     4  10  20  43  67  91 133 170 220 276 334 400
#     4  10  23  42  68  97 131 181 226 280 337 398
#     4  12  26  42  61  99 138 173 218 277 344 397
#     4  11  24  43  67  99 138 178 226 280 338 403
#     4  11  24  44  68 100 135 179 229 280 342 406
#     4  11  22  39  70  99 125 172 226 269 338 406
#     4  10  20  39  71  98 122 175 226 272 331 405
#
# _framework density 23.173703
#
# number of rings (size 3 to 8) (size 9 to 14) (size 15 to 20)
#    0.000    1.250    2.500    3.750    0.000    5.500 
#   11.250    0.000    0.000    0.000    0.000    0.000 
#    0.000    0.000    0.000    0.000    0.000    0.000 
#
# Total GULP energy -198246.197513 kJ/mol
# GULP energy per Si atom -12390.387345 kJ/mol
# Density = 2.312096 g / cm^3
# Si number density = 23.173703 Si / 1000 Ang^3
#
#
#
# Elastic Constant Matrix: (Units=GPa)
#
#
# Indices 1 2 3 4 5 6 
#
# 1 69.0697 23.4914 17.6765 7.3424 17.8899 10.3769
# 2 23.4914 107.4190 20.4440 -3.0591 14.4007 18.6594
# 3 17.6765 20.4440 87.8353 2.7119 24.5073 2.9742
# 4 7.3424 -3.0591 2.7119 42.1597 7.1823 3.0901
# 5 17.8899 14.4007 24.5073 7.1823 31.0798 4.1353
# 6 10.3769 18.6594 2.9742 3.0901 4.1353 31.6953
#
#
#
# Elastic Compliance Matrix: (Units=1/GPa)
#
#
# Indices 1 2 3 4 5 6 
#
# 1 0.018184 -0.002224 -0.000738 -0.001668 -0.008021 -0.003366
# 2 -0.002224 0.011479 -0.001337 0.002193 -0.002725 -0.005762
# 3 -0.000738 -0.001337 0.014854 0.000878 -0.011002 0.000985
# 4 -0.001668 0.002193 0.000878 0.025364 -0.006280 -0.002481
# 5 -0.008021 -0.002725 -0.011002 -0.006280 0.048237 -0.000419
# 6 -0.003366 -0.005762 0.000985 -0.002481 -0.000419 0.036249
#
#
# Mechanical properties :
#
#
# Convention : Reuss Voigt Hill
#
# Bulk Modulus (GPa) = 27.84007 43.06089 35.45048
# Shear Modulus (GPa) = 28.58166 34.50108 31.54137
#
# Velocity S-wave (km/s) = 3.51574 3.86269 3.69329
# Velocity P-wave (km/s) = 5.34044 6.20612 5.78948
#
# Compressibility (1/GPa) = 0.03591945
#
# Stress axis : x y z
#
# Youngs Moduli (GPa) = 54.99370 87.11786 67.32194
#
# Poissons Ratio (x) = 0.19371 0.04971
# Poissons Ratio (y) = 0.12228 0.08998
# Poissons Ratio (z) = 0.04061 0.11644
#
# Static dielectric constant tensor:
#      x y z
#    x 3.389520 0.321770 -0.751290 
#    y 0.321770 4.005040 0.079440 
#    z -0.751290 0.079440 3.375930 
# 
# 
# High freq. dielectric constant tensor:
#      x y z
#    x 1.918790 0.019920 0.017590 
#    y 0.019920 1.924570 -0.008040 
#    z 0.017590 -0.008040 1.906100 
# 
# From -- ./inp_files/278814.got.cif
#   From: 2010.06.25/outbox.cif.g09.slc.cpg/sg2_140_cif.got.tgz:278814.got - 2010.06.27 13:26:56.
