data_PCOD8006429
_publ_section_title
;
Structure prediction by ZEFSAII (Michael W. Deem and Ramdas Pophale) SiO2 
 PCOD8006429
Probable space group: P -1
;
_chemical_formula_sum "Si O2"
_cell_formula_units_Z 14
_cell_length_a 9.435663
_cell_length_b 11.687622
_cell_length_c 8.485800
_cell_angle_alpha 113.194927
_cell_angle_beta 50.019758
_cell_angle_gamma 103.374713
_cell_volume 658.809429
_symmetry_space_group_name_H-M "P -1"
_symmetry_group_IT_number 2
_symmetry_cell_setting 'triclinic'
loop_
_space_group_symop_operation_xyz
x,y,z
-x,-y,-z
loop_
_atom_site_type_symbol
_atom_site_label
_atom_site_fract_x
_atom_site_fract_y
_atom_site_fract_z
Si Si1 0.219524 0.719863 0.626452
Si Si2 0.920698 0.122738 0.464985
Si Si3 0.457480 0.878599 0.761540
Si Si4 0.523124 0.153800 0.915758
Si Si5 0.450264 0.379544 0.873722
Si Si6 0.055601 0.386224 0.007972
Si Si7 0.134908 0.149993 0.623998
O O1 0.086179 0.792107 0.637494
O O2 0.291865 0.820816 0.752285
O O3 0.388997 0.646871 0.382457
O O4 0.906627 0.380338 0.252040
O O5 0.734413 0.135860 0.705718
O O6 0.087662 0.166225 0.480440
O O7 0.950970 0.977593 0.318654
O O8 0.644215 0.852780 0.514021
O O9 0.414979 0.026609 0.891918
O O10 0.478931 0.812463 0.880014
O O11 0.423923 0.263520 0.946789
O O12 0.500000 0.500000 0.000000
O O13 0.259269 0.408378 0.938088
O O14 0.043903 0.260049 0.849342
O O15 0.000000 0.500000 0.000000
#
# Coordination Sequence:
#
# PCOD8006429 Si02
#       7
#     2   2   2   2   2   2   2
#     4  11  25  44  71  96 129 171 219 273 331 388
#     4   9  21  39  66  98 132 170 209 274 328 391
#     4  10  20  39  70 100 130 172 208 273 333 390
#     4   9  21  39  67  97 136 166 217 266 332 384
#     4  11  27  47  67  94 132 178 220 271 318 388
#     4  12  29  45  65  96 131 176 224 272 316 391
#     4  10  21  41  64  97 137 168 215 267 330 385
#
# _framework density 21.250453
#
# number of rings (size 3 to 8) (size 9 to 14) (size 15 to 20)
#    0.000    1.714    1.429    0.857   10.000    5.714 
#    0.000    0.000    0.000    0.000    0.000    0.000 
#    0.000    0.000    0.000    0.000    0.000    0.000 
#
# Total GULP energy -173669.870676 kJ/mol
# GULP energy per Si atom -12404.990763 kJ/mol
# Density = 2.120209 g / cm^3
# Si number density = 21.250453 Si / 1000 Ang^3
#
#
#
# Elastic Constant Matrix: (Units=GPa)
#
#
# Indices 1 2 3 4 5 6 
#
# 1 125.4930 68.4775 31.6346 3.5390 11.6967 -14.7339
# 2 68.4775 132.0281 60.6988 -13.2341 2.5038 -18.1494
# 3 31.6346 60.6988 100.2022 2.1869 9.4816 -1.4889
# 4 3.5390 -13.2341 2.1869 37.6425 0.0049 6.1777
# 5 11.6967 2.5038 9.4816 0.0049 20.0001 1.7680
# 6 -14.7339 -18.1494 -1.4889 6.1777 1.7680 32.1084
#
#
#
# Elastic Compliance Matrix: (Units=1/GPa)
#
#
# Indices 1 2 3 4 5 6 
#
# 1 0.012623 -0.006845 0.000988 -0.004170 -0.007273 0.003172
# 2 -0.006845 0.015873 -0.008045 0.006035 0.005475 0.003996
# 3 0.000988 -0.008045 0.015202 -0.003415 -0.006567 -0.002371
# 4 -0.004170 0.006035 -0.003415 0.030040 0.003705 -0.004644
# 5 -0.007273 0.005475 -0.006567 0.003705 0.057069 -0.004402
# 6 0.003172 0.003996 -0.002371 -0.004644 -0.004402 0.035885
#
#
# Mechanical properties :
#
#
# Convention : Reuss Voigt Hill
#
# Bulk Modulus (GPa) = 62.91855 75.48278 69.20067
# Shear Modulus (GPa) = 25.02585 31.07769 28.05177
#
# Velocity S-wave (km/s) = 3.43543 3.82835 3.63720
# Velocity P-wave (km/s) = 6.73859 7.42558 7.09041
#
# Compressibility (1/GPa) = 0.01589356
#
# Stress axis : x y z
#
# Youngs Moduli (GPa) = 79.22353 62.99881 65.78078
#
# Poissons Ratio (x) = 0.43122 -0.06497
# Poissons Ratio (y) = 0.54228 0.52920
# Poissons Ratio (z) = -0.07825 0.50682
#
# Static dielectric constant tensor:
#      x y z
#    x 3.841180 -0.085670 0.064180 
#    y -0.085670 3.832030 -0.033030 
#    z 0.064180 -0.033030 3.822340 
# 
# 
# High freq. dielectric constant tensor:
#      x y z
#    x 1.842150 -0.001060 0.002580 
#    y -0.001060 1.826610 -0.003420 
#    z 0.002580 -0.003420 1.834630 
# 
# From -- ./inp_files/172793.got.cif
#   From: 2010.06.25/outbox.cif.g09.slc.cpg/sg2_87_cif.got.tgz:172793.got - 2010.06.27 13:26:56.
