data_PCOD8006073
_publ_section_title
;
Structure prediction by ZEFSAII (Michael W. Deem and Ramdas Pophale) SiO2 
 PCOD8006073
Probable space group: P -1
;
_chemical_formula_sum "Si O2"
_cell_formula_units_Z 12
_cell_length_a 8.882657
_cell_length_b 13.620968
_cell_length_c 9.742954
_cell_angle_alpha 125.770577
_cell_angle_beta 95.584438
_cell_angle_gamma 46.352448
_cell_volume 590.534527
_symmetry_space_group_name_H-M "P -1"
_symmetry_group_IT_number 2
_symmetry_cell_setting 'triclinic'
loop_
_space_group_symop_operation_xyz
x,y,z
-x,-y,-z
loop_
_atom_site_type_symbol
_atom_site_label
_atom_site_fract_x
_atom_site_fract_y
_atom_site_fract_z
Si Si1 0.522118 0.822204 0.239439
Si Si2 0.225985 0.085140 0.680432
Si Si3 0.323734 0.532097 0.103431
Si Si4 0.369072 0.483784 0.383412
Si Si5 0.243094 0.929087 0.824666
Si Si6 0.931957 0.891236 0.759093
O O1 0.709041 0.814819 0.236577
O O2 0.386728 0.908201 0.443511
O O3 0.328391 0.949161 0.203950
O O4 0.680104 0.601897 0.062926
O O5 0.944943 0.243610 0.745641
O O6 0.283149 0.998674 0.764654
O O7 0.419699 0.476499 0.222091
O O8 0.500000 0.500000 0.000000
O O9 0.500000 0.500000 0.500000
O O10 0.488646 0.280306 0.268549
O O11 0.080804 0.676640 0.550730
O O12 0.081587 0.917164 0.747579
O O13 0.099262 0.088286 0.062990
#
# Coordination Sequence:
#
# PCOD8006073 Si02
#       6
#     2   2   2   2   2   2
#     4  11  24  44  63  91 133 170 209 255 315 379
#     4  11  26  42  64  93 130 171 209 256 314 380
#     4  12  25  41  69  96 122 167 215 264 315 365
#     4  10  22  39  61  94 127 154 204 268 309 368
#     4  10  22  39  64  93 123 162 212 262 310 364
#     4  10  20  39  65  89 126 161 208 263 309 367
#
# _framework density 20.320575000000002
#
# number of rings (size 3 to 8) (size 9 to 14) (size 15 to 20)
#    0.000    1.333    3.333    1.500    9.333    2.000 
#    0.000    0.833    0.000    0.000    0.000    0.000 
#    0.000    0.000    0.000    0.000    0.000    0.000 
#
# Total GULP energy -148829.545563 kJ/mol
# GULP energy per Si atom -12402.462130 kJ/mol
# Density = 2.027432 g / cm^3
# Si number density = 20.320575 Si / 1000 Ang^3
#
#
#
# Elastic Constant Matrix: (Units=GPa)
#
#
# Indices 1 2 3 4 5 6 
#
# 1 56.7722 21.9353 34.2507 -10.3946 -13.9970 3.8618
# 2 21.9353 108.4809 41.7684 -11.4327 -13.6728 14.0522
# 3 34.2507 41.7684 123.4757 -9.3066 -3.2468 23.3465
# 4 -10.3946 -11.4327 -9.3066 37.0615 -2.3118 -5.3645
# 5 -13.9970 -13.6728 -3.2468 -2.3118 27.6011 -2.6184
# 6 3.8618 14.0522 23.3465 -5.3645 -2.6184 27.7263
#
#
#
# Elastic Compliance Matrix: (Units=1/GPa)
#
#
# Indices 1 2 3 4 5 6 
#
# 1 0.026462 -0.000882 -0.007193 0.006952 0.013232 0.005413
# 2 -0.000882 0.011747 -0.002954 0.002605 0.005018 -0.002366
# 3 -0.007193 -0.002954 0.012524 -0.001334 -0.004578 -0.008738
# 4 0.006952 0.002605 -0.001334 0.030681 0.007751 0.005503
# 5 0.013232 0.005018 -0.004578 0.007751 0.046042 0.005316
# 6 0.005413 -0.002366 -0.008738 0.005503 0.005316 0.045436
#
#
# Mechanical properties :
#
#
# Convention : Reuss Voigt Hill
#
# Bulk Modulus (GPa) = 34.87238 53.84863 44.36051
# Shear Modulus (GPa) = 24.44894 31.19606 27.82250
#
# Velocity S-wave (km/s) = 3.47243 3.92241 3.70426
# Velocity P-wave (km/s) = 5.76848 6.86082 6.33822
#
# Compressibility (1/GPa) = 0.02867599
#
# Stress axis : x y z
#
# Youngs Moduli (GPa) = 37.79048 85.12613 79.84439
#
# Poissons Ratio (x) = 0.07506 0.57435
# Poissons Ratio (y) = 0.03332 0.23582
# Poissons Ratio (z) = 0.27184 0.25142
#
# Static dielectric constant tensor:
#      x y z
#    x 3.480050 -0.139560 -0.042390 
#    y -0.139560 3.885370 0.326040 
#    z -0.042390 0.326040 4.274920 
# 
# 
# High freq. dielectric constant tensor:
#      x y z
#    x 1.763940 -0.012170 -0.003610 
#    y -0.012170 1.799670 0.001540 
#    z -0.003610 0.001540 1.819060 
# 
# From -- ./inp_files/149544.got.cif
#   From: 2010.06.25/outbox.cif.g09.slc.cpg/sg2_75_cif.got.tgz:149544.got - 2010.06.27 13:26:56.
