data_PCOD8006324
_publ_section_title
;
Structure prediction by ZEFSAII (Michael W. Deem and Ramdas Pophale) SiO2 
 PCOD8006324
Probable space group: P -1
;
_chemical_formula_sum "Si O2"
_cell_formula_units_Z 14
_cell_length_a 8.033354
_cell_length_b 7.647399
_cell_length_c 10.873666
_cell_angle_alpha 92.232046
_cell_angle_beta 62.025730
_cell_angle_gamma 73.237096
_cell_volume 552.773334
_symmetry_space_group_name_H-M "P -1"
_symmetry_group_IT_number 2
_symmetry_cell_setting 'triclinic'
loop_
_space_group_symop_operation_xyz
x,y,z
-x,-y,-z
loop_
_atom_site_type_symbol
_atom_site_label
_atom_site_fract_x
_atom_site_fract_y
_atom_site_fract_z
Si Si1 0.287764 0.404413 0.444321
Si Si2 0.137755 0.795601 0.611675
Si Si3 0.280920 0.794310 0.814381
Si Si4 0.709881 0.488889 0.990252
Si Si5 0.937165 0.338812 0.676855
Si Si6 0.387728 0.090153 0.918053
Si Si7 0.764183 0.033005 0.635857
O O1 0.277943 0.580867 0.537715
O O2 0.511811 0.266577 0.336807
O O3 0.189410 0.475110 0.348150
O O4 0.172012 0.285797 0.555056
O O5 0.111521 0.845419 0.767213
O O6 0.233583 0.931883 0.510445
O O7 0.918256 0.830578 0.624167
O O8 0.266480 0.623462 0.894411
O O9 0.245653 0.976209 0.918451
O O10 0.725432 0.690665 0.018992
O O11 0.500000 0.500000 0.000000
O O12 0.900784 0.387651 0.834949
O O13 0.850290 0.176191 0.677978
O O14 0.542283 0.061020 0.752361
O O15 0.500000 0.000000 0.000000
#
# Coordination Sequence:
#
# PCOD8006324 Si02
#       7
#     2   2   2   2   2   2   2
#     4  10  21  38  68  96 130 171 220 275 335 388
#     4  10  24  42  67  97 138 170 218 285 337 392
#     4  12  25  44  68 103 136 173 227 282 327 393
#     4  12  21  44  69  96 136 179 225 268 332 403
#     4  10  20  39  67  97 127 172 224 273 323 404
#     4  12  24  40  74  99 131 184 225 267 331 406
#     4  10  22  43  66  98 130 175 221 272 344 401
#
# _framework density 25.326837999999999
#
# number of rings (size 3 to 8) (size 9 to 14) (size 15 to 20)
#    0.000    1.143    4.286    1.286   10.000    0.571 
#    2.571    3.571    0.000    0.000    0.000    0.000 
#    0.000    0.000    0.000    0.000    0.000    0.000 
#
# Total GULP energy -173544.119447 kJ/mol
# GULP energy per Si atom -12396.008532 kJ/mol
# Density = 2.526919 g / cm^3
# Si number density = 25.326838 Si / 1000 Ang^3
#
#
#
# Elastic Constant Matrix: (Units=GPa)
#
#
# Indices 1 2 3 4 5 6 
#
# 1 25.8346 21.6501 19.3849 -14.3668 19.0146 9.7414
# 2 21.6501 146.6462 32.9977 -1.3714 30.1097 36.6127
# 3 19.3849 32.9977 144.3398 -23.9650 22.2622 3.4196
# 4 -14.3668 -1.3714 -23.9650 38.7584 -1.9950 6.3762
# 5 19.0146 30.1097 22.2622 -1.9950 52.5766 5.2596
# 6 9.7414 36.6127 3.4196 6.3762 5.2596 32.4660
#
#
#
# Elastic Compliance Matrix: (Units=1/GPa)
#
#
# Indices 1 2 3 4 5 6 
#
# 1 0.092817 0.000600 -0.001222 0.037291 -0.028873 -0.031043
# 2 0.000600 0.011001 -0.001336 0.001515 -0.004695 -0.011982
# 3 -0.001222 -0.001336 0.008493 0.004561 -0.002261 0.000449
# 4 0.037291 0.001515 0.004561 0.045177 -0.012548 -0.020218
# 5 -0.028873 -0.004695 -0.002261 -0.012548 0.031475 0.011562
# 6 -0.031043 -0.011982 0.000449 -0.020218 0.011562 0.055679
#
#
# Mechanical properties :
#
#
# Convention : Reuss Voigt Hill
#
# Bulk Modulus (GPa) = 9.22566 51.65400 30.43983
# Shear Modulus (GPa) = 17.56295 40.94608 29.25451
#
# Velocity S-wave (km/s) = 2.63620 4.02519 3.40233
# Velocity P-wave (km/s) = 3.59397 6.48399 5.24208
#
# Compressibility (1/GPa) = 0.10839329
#
# Stress axis : x y z
#
# Youngs Moduli (GPa) = 10.77394 90.90143 117.74492
#
# Poissons Ratio (x) = -0.05450 0.14391
# Poissons Ratio (y) = -0.00646 0.15730
# Poissons Ratio (z) = 0.01317 0.12144
#
# Static dielectric constant tensor:
#      x y z
#    x 4.329150 0.281020 -0.015950 
#    y 0.281020 4.808850 0.075610 
#    z -0.015950 0.075610 4.870310 
# 
# 
# High freq. dielectric constant tensor:
#      x y z
#    x 1.971120 0.021210 -0.002930 
#    y 0.021210 2.023800 0.004250 
#    z -0.002930 0.004250 2.024010 
# 
# From -- ./inp_files/158477.got.cif
#   From: 2010.06.25/outbox.cif.g09.slc.cpg/sg2_80_cif.got.tgz:158477.got - 2010.06.27 13:26:56.
