data_PCOD8006520
_publ_section_title
;
Structure prediction by ZEFSAII (Michael W. Deem and Ramdas Pophale) SiO2 
 PCOD8006520
Probable space group: P -1
;
_chemical_formula_sum "Si O2"
_cell_formula_units_Z 14
_cell_length_a 15.088652
_cell_length_b 7.109149
_cell_length_c 8.446564
_cell_angle_alpha 68.719567
_cell_angle_beta 99.320734
_cell_angle_gamma 65.503047
_cell_volume 714.206486
_symmetry_space_group_name_H-M "P -1"
_symmetry_group_IT_number 2
_symmetry_cell_setting 'triclinic'
loop_
_space_group_symop_operation_xyz
x,y,z
-x,-y,-z
loop_
_atom_site_type_symbol
_atom_site_label
_atom_site_fract_x
_atom_site_fract_y
_atom_site_fract_z
Si Si1 0.990389 0.939436 0.777975
Si Si2 0.719429 0.425356 0.296053
Si Si3 0.585334 0.232048 0.272931
Si Si4 0.750590 0.720256 0.476980
Si Si5 0.832572 0.299198 0.855341
Si Si6 0.359012 0.564140 0.045051
Si Si7 0.098225 0.092739 0.540608
O O1 0.968268 0.803604 0.672721
O O2 0.884299 0.097825 0.798466
O O3 0.024201 0.118726 0.659226
O O4 0.081646 0.743940 0.974189
O O5 0.633688 0.359059 0.355118
O O6 0.728737 0.602388 0.358905
O O7 0.829813 0.185682 0.384571
O O8 0.682513 0.540222 0.073944
O O9 0.460890 0.353744 0.226636
O O10 0.641987 0.957196 0.416905
O O11 0.610052 0.259054 0.085688
O O12 0.789299 0.556793 0.691767
O O13 0.838775 0.780357 0.434372
O O14 0.733938 0.291253 0.900916
#
# Coordination Sequence:
#
# PCOD8006520 Si02
#       7
#     2   2   2   2   2   2   2
#     4  10  21  39  59  79 116 151 190 228 283 323
#     4   9  17  37  60  83 109 148 185 232 267 343
#     4   8  19  38  64  79 109 156 187 221 277 347
#     4  11  21  34  61  87 112 142 194 227 283 331
#     4  11  21  34  58  88 114 146 181 245 278 324
#     4   9  18  40  60  80 118 145 189 230 280 325
#     4  10  20  40  60  79 110 158 188 225 271 347
#
# _framework density 19.602174999999999
#
# number of rings (size 3 to 8) (size 9 to 14) (size 15 to 20)
#    0.857    1.429    2.857    0.000    0.000    2.286 
#    0.000    5.000    0.000    0.000    0.000    0.000 
#    0.000    0.000    0.000    0.000    0.000    0.000 
#
# Total GULP energy -173478.077653 kJ/mol
# GULP energy per Si atom -12391.291261 kJ/mol
# Density = 1.955756 g / cm^3
# Si number density = 19.602175 Si / 1000 Ang^3
#
#
#
# Elastic Constant Matrix: (Units=GPa)
#
#
# Indices 1 2 3 4 5 6 
#
# 1 114.6915 46.8604 42.5268 5.4311 9.5440 -18.5681
# 2 46.8604 89.0998 41.2327 4.8108 8.8566 8.1072
# 3 42.5268 41.2327 100.4844 2.6480 14.9288 -9.0024
# 4 5.4311 4.8108 2.6480 29.5128 -1.8265 7.8167
# 5 9.5440 8.8566 14.9288 -1.8265 23.0066 1.6804
# 6 -18.5681 8.1072 -9.0024 7.8167 1.6804 28.8407
#
#
#
# Elastic Compliance Matrix: (Units=1/GPa)
#
#
# Indices 1 2 3 4 5 6 
#
# 1 0.015102 -0.007897 -0.001281 -0.005090 -0.003757 0.013141
# 2 -0.007897 0.019033 -0.005816 0.002352 0.000854 -0.012937
# 3 -0.001281 -0.005816 0.014609 -0.002282 -0.007359 0.006417
# 4 -0.005090 0.002352 -0.002282 0.039226 0.006947 -0.015687
# 5 -0.003757 0.000854 -0.007359 0.006947 0.050738 -0.009795
# 6 0.013141 -0.012937 0.006417 -0.015687 -0.009795 0.053596
#
#
# Mechanical properties :
#
#
# Convention : Reuss Voigt Hill
#
# Bulk Modulus (GPa) = 53.31706 62.83507 58.07606
# Shear Modulus (GPa) = 21.87757 27.84906 24.86332
#
# Velocity S-wave (km/s) = 3.34440 3.77332 3.56532
# Velocity P-wave (km/s) = 6.49399 7.14904 6.82937
#
# Compressibility (1/GPa) = 0.01875572
#
# Stress axis : x y z
#
# Youngs Moduli (GPa) = 66.21693 52.53936 68.45117
#
# Poissons Ratio (x) = 0.41491 0.08770
# Poissons Ratio (y) = 0.52292 0.39811
# Poissons Ratio (z) = 0.08484 0.30557
#
# Static dielectric constant tensor:
#      x y z
#    x 3.646680 -0.080930 0.231340 
#    y -0.080930 3.096070 -0.023520 
#    z 0.231340 -0.023520 3.715840 
# 
# 
# High freq. dielectric constant tensor:
#      x y z
#    x 1.769540 -0.009730 0.023250 
#    y -0.009730 1.717810 0.001010 
#    z 0.023250 0.001010 1.764780 
# 
# From -- ./inp_files/287746.got.cif
#   From: 2010.06.25/outbox.cif.g09.slc.cpg/sg2_144_cif.got.tgz:287746.got - 2010.06.27 13:26:56.
