data_PCOD8006580
_publ_section_title
;
Structure prediction by ZEFSAII (Michael W. Deem and Ramdas Pophale) SiO2 
 PCOD8006580
Probable space group: P -1
;
_chemical_formula_sum "Si O2"
_cell_formula_units_Z 14
_cell_length_a 9.750657
_cell_length_b 8.856356
_cell_length_c 14.280743
_cell_angle_alpha 65.561023
_cell_angle_beta 57.253784
_cell_angle_gamma 108.290349
_cell_volume 672.395036
_symmetry_space_group_name_H-M "P -1"
_symmetry_group_IT_number 2
_symmetry_cell_setting 'triclinic'
loop_
_space_group_symop_operation_xyz
x,y,z
-x,-y,-z
loop_
_atom_site_type_symbol
_atom_site_label
_atom_site_fract_x
_atom_site_fract_y
_atom_site_fract_z
Si Si1 0.073252 0.880211 0.616053
Si Si2 0.223368 0.598306 0.442909
Si Si3 0.287935 0.366471 0.339294
Si Si4 0.100487 0.935546 0.796103
Si Si5 0.261902 0.400064 0.649787
Si Si6 0.268106 0.491382 0.840550
Si Si7 0.501542 0.010164 0.348563
O O1 0.976323 0.813590 0.774186
O O2 0.862998 0.672291 0.681267
O O3 0.147889 0.120381 0.504069
O O4 0.291760 0.912566 0.519319
O O5 0.345128 0.551269 0.344392
O O6 0.169145 0.479185 0.595562
O O7 0.000000 0.500000 0.500000
O O8 0.386239 0.876061 0.325925
O O9 0.536194 0.478120 0.187824
O O10 0.364039 0.061012 0.651649
O O11 0.089048 0.119855 0.782533
O O12 0.977777 0.741790 0.971923
O O13 0.500000 0.500000 0.500000
O O14 0.279721 0.485405 0.725726
O O15 0.312270 0.711616 0.800021
#
# Coordination Sequence:
#
# PCOD8006580 Si02
#       7
#     2   2   2   2   2   2   2
#     4  10  21  37  65  89 123 164 215 259 300 364
#     4  12  23  39  66  96 120 156 215 273 306 357
#     4  10  20  40  61  91 121 164 214 255 307 366
#     4  12  23  40  63  95 131 166 205 255 319 378
#     4  12  22  41  67  92 122 166 215 259 307 368
#     4  11  25  39  62  95 133 165 203 254 320 386
#     4  11  23  38  63  92 128 161 211 262 305 363
#
# _framework density 20.821093999999999
#
# number of rings (size 3 to 8) (size 9 to 14) (size 15 to 20)
#    0.000    0.857    5.714    2.143    2.000    0.571 
#    0.000    0.000    0.000    2.571    0.000    0.000 
#    0.000    0.000    0.000    0.000    0.000    0.000 
#
# Total GULP energy -173562.889812 kJ/mol
# GULP energy per Si atom -12397.349272 kJ/mol
# Density = 2.077370 g / cm^3
# Si number density = 20.821094 Si / 1000 Ang^3
#
#
#
# Elastic Constant Matrix: (Units=GPa)
#
#
# Indices 1 2 3 4 5 6 
#
# 1 105.0788 26.2321 32.1500 4.4628 8.0468 9.3292
# 2 26.2321 168.5803 40.6396 -4.7102 9.4084 9.2213
# 3 32.1500 40.6396 67.2752 5.5923 8.9686 10.2701
# 4 4.4628 -4.7102 5.5923 24.3574 -0.9720 4.7110
# 5 8.0468 9.4084 8.9686 -0.9720 18.0364 2.6946
# 6 9.3292 9.2213 10.2701 4.7110 2.6946 36.3613
#
#
#
# Elastic Compliance Matrix: (Units=1/GPa)
#
#
# Indices 1 2 3 4 5 6 
#
# 1 0.011365 -0.000501 -0.004539 -0.001003 -0.002427 -0.001197
# 2 -0.000501 0.007158 -0.004003 0.002497 -0.001268 -0.000786
# 3 -0.004539 -0.004003 0.021068 -0.004499 -0.006198 -0.002729
# 4 -0.001003 0.002497 -0.004499 0.043927 0.004516 -0.005131
# 5 -0.002427 -0.001268 -0.006198 0.004516 0.060872 -0.002401
# 6 -0.001197 -0.000786 -0.002729 -0.005131 -0.002401 0.029622
#
#
# Mechanical properties :
#
#
# Convention : Reuss Voigt Hill
#
# Bulk Modulus (GPa) = 46.50014 59.88641 53.19328
# Shear Modulus (GPa) = 25.09185 31.87854 28.48520
#
# Velocity S-wave (km/s) = 3.47525 3.91713 3.70279
# Velocity P-wave (km/s) = 6.20361 7.02021 6.62451
#
# Compressibility (1/GPa) = 0.02150531
#
# Stress axis : x y z
#
# Youngs Moduli (GPa) = 87.98745 139.69482 47.46435
#
# Poissons Ratio (x) = 0.07005 0.21543
# Poissons Ratio (y) = 0.04412 0.19001
# Poissons Ratio (z) = 0.39935 0.55923
#
# Static dielectric constant tensor:
#      x y z
#    x 3.898040 -0.032520 0.067500 
#    y -0.032520 4.366670 -0.016580 
#    z 0.067500 -0.016580 3.283280 
# 
# 
# High freq. dielectric constant tensor:
#      x y z
#    x 1.817840 -0.000130 0.000910 
#    y -0.000130 1.846900 0.001050 
#    z 0.000910 0.001050 1.765420 
# 
# From -- ./inp_files/174528.got.cif
#   From: 2010.06.25/outbox.cif.g09.slc.cpg/sg2_88_cif.got.tgz:174528.got - 2010.06.27 13:26:56.
