data_PCOD8006178
_publ_section_title
;
Structure prediction by ZEFSAII (Michael W. Deem and Ramdas Pophale) SiO2 
 PCOD8006178
Probable space group: P -1
;
_chemical_formula_sum "Si O2"
_cell_formula_units_Z 16
_cell_length_a 9.789158
_cell_length_b 9.382910
_cell_length_c 11.246546
_cell_angle_alpha 61.359263
_cell_angle_beta 109.139380
_cell_angle_gamma 114.827203
_cell_volume 812.356707
_symmetry_space_group_name_H-M "P -1"
_symmetry_group_IT_number 2
_symmetry_cell_setting 'triclinic'
loop_
_space_group_symop_operation_xyz
x,y,z
-x,-y,-z
loop_
_atom_site_type_symbol
_atom_site_label
_atom_site_fract_x
_atom_site_fract_y
_atom_site_fract_z
Si Si1 0.419109 0.977201 0.610827
Si Si2 0.132882 0.334949 0.634428
Si Si3 0.418388 0.313990 0.600855
Si Si4 0.881344 0.820027 0.064417
Si Si5 0.969863 0.448888 0.876551
Si Si6 0.877518 0.335491 0.383170
Si Si7 0.573026 0.877010 0.916444
Si Si8 0.627231 0.239553 0.885234
O O1 0.408738 0.162896 0.566107
O O2 0.500000 0.000000 0.500000
O O3 0.252773 0.839454 0.613515
O O4 0.521748 0.910884 0.757596
O O5 0.249769 0.311959 0.581002
O O6 0.112907 0.193518 0.786429
O O7 0.190285 0.519922 0.642775
O O8 0.975851 0.299573 0.533687
O O9 0.500000 0.500000 0.500000
O O10 0.498884 0.282027 0.755345
O O11 0.938239 0.681130 0.069902
O O12 0.710208 0.796541 0.978598
O O13 0.000000 0.000000 0.000000
O O14 0.788378 0.372297 0.842889
O O15 0.025290 0.602786 0.734969
O O16 0.000000 0.500000 0.000000
O O17 0.638662 0.052385 0.938353
O O18 0.425561 0.753138 0.995335
#
# Coordination Sequence:
#
# PCOD8006178 Si02
#       8
#     2   2   2   2   2   2   2   2
#     4  11  25  41  63  90 128 165 202 260 317 371
#     4  10  22  41  65  90 122 166 211 259 302 369
#     4  11  22  40  66  93 120 160 210 255 311 375
#     4  11  22  39  65  93 122 163 215 254 304 372
#     4  11  23  40  61  93 130 166 201 256 318 370
#     4  10  23  43  63  89 127 166 208 256 314 370
#     4  10  21  40  65  92 122 163 211 257 306 370
#     4  10  20  39  66  89 123 162 206 258 309 365
#
# _framework density 19.695782999999999
#
# number of rings (size 3 to 8) (size 9 to 14) (size 15 to 20)
#    0.000    1.500    2.500    2.250    1.750    3.500 
#    6.750    1.875    0.000    0.000    0.000    0.000 
#    0.000    0.000    0.000    0.000    0.000    0.000 
#
# Total GULP energy -198402.681663 kJ/mol
# GULP energy per Si atom -12400.167604 kJ/mol
# Density = 1.965095 g / cm^3
# Si number density = 19.695783 Si / 1000 Ang^3
#
#
#
# Elastic Constant Matrix: (Units=GPa)
#
#
# Indices 1 2 3 4 5 6 
#
# 1 131.0269 48.4499 53.1158 -2.9836 -14.3954 8.4598
# 2 48.4499 105.6381 51.5870 -5.3029 -11.8028 12.5107
# 3 53.1158 51.5870 123.5019 -3.4370 -17.2589 -0.6757
# 4 -2.9836 -5.3029 -3.4370 33.2790 1.0247 -6.5107
# 5 -14.3954 -11.8028 -17.2589 1.0247 40.9395 -1.1636
# 6 8.4598 12.5107 -0.6757 -6.5107 -1.1636 29.1118
#
#
#
# Elastic Compliance Matrix: (Units=1/GPa)
#
#
# Indices 1 2 3 4 5 6 
#
# 1 0.010167 -0.002833 -0.003004 -0.000248 0.001447 -0.001804
# 2 -0.002833 0.013608 -0.004348 0.000461 0.000940 -0.004985
# 3 -0.003004 -0.004348 0.011618 0.000801 0.002661 0.003297
# 4 -0.000248 0.000461 0.000801 0.031547 -0.000209 0.006939
# 5 0.001447 0.000940 0.002661 -0.000209 0.026340 0.000243
# 6 -0.001804 -0.004985 0.003297 0.006939 0.000243 0.038655
#
#
# Mechanical properties :
#
#
# Convention : Reuss Voigt Hill
#
# Bulk Modulus (GPa) = 66.57197 74.05246 70.31221
# Shear Modulus (GPa) = 31.78373 34.46701 33.12537
#
# Velocity S-wave (km/s) = 4.02149 4.18780 4.10549
# Velocity P-wave (km/s) = 7.44558 7.81430 7.63217
#
# Compressibility (1/GPa) = 0.01502134
#
# Stress axis : x y z
#
# Youngs Moduli (GPa) = 98.35560 73.48701 86.07683
#
# Poissons Ratio (x) = 0.20821 0.25856
# Poissons Ratio (y) = 0.27867 0.37430
# Poissons Ratio (z) = 0.29544 0.31956
#
# Static dielectric constant tensor:
#      x y z
#    x 3.562250 0.110890 -0.146420 
#    y 0.110890 3.539610 -0.202360 
#    z -0.146420 -0.202360 3.889290 
# 
# 
# High freq. dielectric constant tensor:
#      x y z
#    x 1.781120 0.002500 -0.005170 
#    y 0.002500 1.753070 -0.005100 
#    z -0.005170 -0.005100 1.785260 
# 
# From -- ./inp_files/308191.got.cif
#   From: 2010.06.25/outbox.cif.g09.slc.cpg/sg2_155_cif.got.tgz:308191.got - 2010.06.27 13:26:56.
