data_PCOD8006830
_publ_section_title
;
Structure prediction by ZEFSAII (Michael W. Deem and Ramdas Pophale) SiO2 
 PCOD8006830
Probable space group: P -1
;
_chemical_formula_sum "Si O2"
_cell_formula_units_Z 14
_cell_length_a 12.147632
_cell_length_b 17.219243
_cell_length_c 8.468471
_cell_angle_alpha 138.148782
_cell_angle_beta 50.903755
_cell_angle_gamma 148.751521
_cell_volume 612.992110
_symmetry_space_group_name_H-M "P -1"
_symmetry_group_IT_number 2
_symmetry_cell_setting 'triclinic'
loop_
_space_group_symop_operation_xyz
x,y,z
-x,-y,-z
loop_
_atom_site_type_symbol
_atom_site_label
_atom_site_fract_x
_atom_site_fract_y
_atom_site_fract_z
Si Si1 0.075005 0.466617 0.659164
Si Si2 0.441343 0.838129 0.744102
Si Si3 0.406868 0.351414 0.135753
Si Si4 0.342109 0.678434 0.270610
Si Si5 0.841043 0.645130 0.863416
Si Si6 0.182049 0.331125 0.580019
Si Si7 0.899781 0.062653 0.682919
O O1 0.249198 0.670100 0.766102
O O2 0.044164 0.357050 0.380213
O O3 0.147564 0.440148 0.707475
O O4 0.847768 0.391093 0.775111
O O5 0.390398 0.804846 0.551682
O O6 0.649342 0.886716 0.651532
O O7 0.500000 0.000000 0.000000
O O8 0.322634 0.360022 0.065117
O O9 0.231495 0.263918 0.299345
O O10 0.623209 0.548697 0.291415
O O11 0.454835 0.241405 0.896883
O O12 0.283224 0.519833 0.163605
O O13 0.030815 0.820511 0.052178
O O14 0.967293 0.166471 0.615867
O O15 0.000000 0.000000 0.500000
#
# Coordination Sequence:
#
# PCOD8006830 Si02
#       7
#     2   2   2   2   2   2   2
#     4  10  23  43  71  91 128 175 221 258 314 393
#     4  11  24  42  65 100 133 163 213 275 327 370
#     4  10  21  38  69  92 127 163 229 259 301 375
#     4  11  20  39  71  96 122 178 220 256 311 395
#     4  10  20  40  64  95 127 168 219 258 312 394
#     4  10  24  42  64  98 130 170 218 264 315 386
#     4  12  25  40  66  99 133 164 211 273 332 370
#
# _framework density 22.838795000000001
#
# number of rings (size 3 to 8) (size 9 to 14) (size 15 to 20)
#    0.000    1.429    1.429    4.714    8.000    0.571 
#    0.000    7.143    3.143    0.000    0.000    0.000 
#    0.000    0.000    0.000    0.000    0.000    0.000 
#
# Total GULP energy -173562.488373 kJ/mol
# GULP energy per Si atom -12397.320598 kJ/mol
# Density = 2.278681 g / cm^3
# Si number density = 22.838795 Si / 1000 Ang^3
#
#
#
# Elastic Constant Matrix: (Units=GPa)
#
#
# Indices 1 2 3 4 5 6 
#
# 1 114.0308 50.2411 21.4301 -11.6886 -9.9397 22.3061
# 2 50.2411 55.5950 38.0439 0.6712 -2.1657 15.1747
# 3 21.4301 38.0439 107.6772 0.4668 -12.7753 1.0634
# 4 -11.6886 0.6712 0.4668 30.3166 9.1635 -3.0915
# 5 -9.9397 -2.1657 -12.7753 9.1635 35.1355 -5.1589
# 6 22.3061 15.1747 1.0634 -3.0915 -5.1589 37.2907
#
#
#
# Elastic Compliance Matrix: (Units=1/GPa)
#
#
# Indices 1 2 3 4 5 6 
#
# 1 0.016766 -0.016282 0.002760 0.005643 0.002887 -0.002615
# 2 -0.016282 0.043828 -0.012881 -0.006061 -0.006345 -0.009108
# 3 0.002760 -0.012881 0.013924 -0.000177 0.005678 0.003965
# 4 0.005643 -0.006061 -0.000177 0.038004 -0.008598 0.001057
# 5 0.002887 -0.006345 0.005678 -0.008598 0.033879 0.004667
# 6 -0.002615 -0.009108 0.003965 0.001057 0.004667 0.032707
#
#
# Mechanical properties :
#
#
# Convention : Reuss Voigt Hill
#
# Bulk Modulus (GPa) = 46.05851 55.19256 50.62553
# Shear Modulus (GPa) = 20.90708 31.72109 26.31408
#
# Velocity S-wave (km/s) = 3.02887 3.73086 3.39804
# Velocity P-wave (km/s) = 5.69585 6.54046 6.13271
#
# Compressibility (1/GPa) = 0.02171152
#
# Stress axis : x y z
#
# Youngs Moduli (GPa) = 59.64352 22.81639 71.81775
#
# Poissons Ratio (x) = 0.37150 -0.19820
# Poissons Ratio (y) = 0.97112 0.92510
# Poissons Ratio (z) = -0.16460 0.29390
#
# Static dielectric constant tensor:
#      x y z
#    x 4.175130 0.012930 -0.049950 
#    y 0.012930 4.766620 -0.486540 
#    z -0.049950 -0.486540 3.855020 
# 
# 
# High freq. dielectric constant tensor:
#      x y z
#    x 1.904820 0.024250 0.001740 
#    y 0.024250 1.872140 -0.021700 
#    z 0.001740 -0.021700 1.918870 
# 
# From -- ./inp_files/160179.got.cif
#   From: 2010.06.25/outbox.cif.g09.slc.cpg/sg2_81_cif.got.tgz:160179.got - 2010.06.27 13:26:56.
