data_PCOD8006304
_publ_section_title
;
Structure prediction by ZEFSAII (Michael W. Deem and Ramdas Pophale) SiO2 
 PCOD8006304
Probable space group: P -1
;
_chemical_formula_sum "Si O2"
_cell_formula_units_Z 16
_cell_length_a 9.589422
_cell_length_b 15.808168
_cell_length_c 10.861329
_cell_angle_alpha 71.240236
_cell_angle_beta 135.807150
_cell_angle_gamma 134.877191
_cell_volume 754.567264
_symmetry_space_group_name_H-M "P -1"
_symmetry_group_IT_number 2
_symmetry_cell_setting 'triclinic'
loop_
_space_group_symop_operation_xyz
x,y,z
-x,-y,-z
loop_
_atom_site_type_symbol
_atom_site_label
_atom_site_fract_x
_atom_site_fract_y
_atom_site_fract_z
Si Si1 0.177056 0.204176 0.632479
Si Si2 0.441665 0.125171 0.938979
Si Si3 0.128234 0.753230 0.204284
Si Si4 0.058492 0.345660 0.602814
Si Si5 0.507956 0.594068 0.886578
Si Si6 0.839405 0.366615 0.225060
Si Si7 0.450457 0.999579 0.776901
Si Si8 0.786565 0.401698 0.803001
O O1 0.178084 0.108964 0.750120
O O2 0.195043 0.290844 0.701176
O O3 0.450352 0.302713 0.669058
O O4 0.888597 0.118601 0.408503
O O5 0.508896 0.087581 0.881667
O O6 0.716105 0.276984 0.068282
O O7 0.400912 0.047087 0.067979
O O8 0.388119 0.908072 0.283112
O O9 0.157036 0.681692 0.160775
O O10 0.130615 0.716657 0.362822
O O11 0.838828 0.715380 0.001560
O O12 0.292601 0.502267 0.680030
O O13 0.869508 0.304834 0.382592
O O14 0.398179 0.639159 0.878874
O O15 0.500000 0.500000 0.000000
O O16 0.137933 0.509908 0.307239
O O17 0.000000 0.500000 0.000000
#
# Coordination Sequence:
#
# PCOD8006304 Si02
#       8
#     2   2   2   2   2   2   2   2
#     4  12  24  45  71  99 139 183 224 279 347 390
#     4  11  23  44  70  95 137 178 229 287 328 393
#     4  11  23  44  68  97 135 181 228 272 344 405
#     4  11  24  42  67 103 141 176 221 286 339 415
#     4  10  20  39  67  94 132 177 214 278 348 391
#     4  12  22  44  66 103 140 168 231 285 342 407
#     4  11  25  47  67  99 136 184 235 276 327 412
#     4  12  23  39  74 102 131 179 224 280 345 409
#
# _framework density 21.204208000000001
#
# number of rings (size 3 to 8) (size 9 to 14) (size 15 to 20)
#    0.000    0.750    6.250    3.000    0.000    1.000 
#    6.750    1.250    0.000    0.000    0.000    0.000 
#    0.000    0.000    0.000    0.000    0.000    0.000 
#
# Total GULP energy -198295.674561 kJ/mol
# GULP energy per Si atom -12393.479660 kJ/mol
# Density = 2.115595 g / cm^3
# Si number density = 21.204208 Si / 1000 Ang^3
#
#
#
# Elastic Constant Matrix: (Units=GPa)
#
#
# Indices 1 2 3 4 5 6 
#
# 1 101.3278 49.9296 41.0069 11.2141 11.1063 -0.2072
# 2 49.9296 116.2336 47.6567 -0.1601 9.6139 6.7129
# 3 41.0069 47.6567 102.7891 -5.9540 3.8721 3.3575
# 4 11.2141 -0.1601 -5.9540 42.9438 -0.6610 1.6290
# 5 11.1063 9.6139 3.8721 -0.6610 28.4195 3.2274
# 6 -0.2072 6.7129 3.3575 1.6290 3.2274 35.1426
#
#
#
# Elastic Compliance Matrix: (Units=1/GPa)
#
#
# Indices 1 2 3 4 5 6 
#
# 1 0.014587 -0.004439 -0.003934 -0.004504 -0.003982 0.001884
# 2 -0.004439 0.012304 -0.003766 0.000729 -0.001682 -0.001896
# 3 -0.003934 -0.003766 0.013194 0.002891 0.001173 -0.000806
# 4 -0.004504 0.000729 0.002891 0.024962 0.001902 -0.001774
# 5 -0.003982 -0.001682 0.001173 0.001902 0.037577 -0.003353
# 6 0.001884 -0.001896 -0.000806 -0.001774 -0.003353 0.029296
#
#
# Mechanical properties :
#
#
# Convention : Reuss Voigt Hill
#
# Bulk Modulus (GPa) = 63.26291 66.39298 64.82795
# Shear Modulus (GPa) = 30.96606 33.41833 32.19219
#
# Velocity S-wave (km/s) = 3.82563 3.97422 3.90063
# Velocity P-wave (km/s) = 7.02949 7.24144 7.13625
#
# Compressibility (1/GPa) = 0.01580705
#
# Stress axis : x y z
#
# Youngs Moduli (GPa) = 68.55458 81.27495 75.79334
#
# Poissons Ratio (x) = 0.36076 0.29815
# Poissons Ratio (y) = 0.30430 0.28545
# Poissons Ratio (z) = 0.26968 0.30610
#
# Static dielectric constant tensor:
#      x y z
#    x 3.971760 -0.315710 -0.166250 
#    y -0.315710 4.473910 0.380270 
#    z -0.166250 0.380270 4.555660 
# 
# 
# High freq. dielectric constant tensor:
#      x y z
#    x 1.827490 -0.020640 -0.008580 
#    y -0.020640 1.837310 -0.002570 
#    z -0.008580 -0.002570 1.826170 
# 
# From -- ./inp_files/399010.got.cif
#   From: 2010.06.25/outbox.cif.g09.slc.cpg/sg2_200_cif.got.tgz:399010.got - 2010.06.27 13:26:56.
