data_PCOD8006694
_publ_section_title
;
Structure prediction by ZEFSAII (Michael W. Deem and Ramdas Pophale) SiO2 
 PCOD8006694
Probable space group: P -1
;
_chemical_formula_sum "Si O2"
_cell_formula_units_Z 16
_cell_length_a 6.784657
_cell_length_b 12.177798
_cell_length_c 26.415823
_cell_angle_alpha 153.309933
_cell_angle_beta 124.661233
_cell_angle_gamma 52.833445
_cell_volume 778.635263
_symmetry_space_group_name_H-M "P -1"
_symmetry_group_IT_number 2
_symmetry_cell_setting 'triclinic'
loop_
_space_group_symop_operation_xyz
x,y,z
-x,-y,-z
loop_
_atom_site_type_symbol
_atom_site_label
_atom_site_fract_x
_atom_site_fract_y
_atom_site_fract_z
Si Si1 0.185854 0.780788 0.668619
Si Si2 0.465322 0.839329 0.380829
Si Si3 0.080912 0.592967 0.759875
Si Si4 0.567192 0.949649 0.263456
Si Si5 0.208555 0.074863 0.989096
Si Si6 0.646475 0.768105 0.557678
Si Si7 0.028165 0.595930 0.233703
Si Si8 0.046986 0.032653 0.185156
O O1 0.374401 0.500419 0.577966
O O2 0.931767 0.772981 0.601676
O O3 0.300589 0.977401 0.736337
O O4 0.143893 0.870960 0.757300
O O5 0.672261 0.577067 0.300242
O O6 0.197975 0.778477 0.318021
O O7 0.500000 0.000000 0.500000
O O8 0.495871 0.003383 0.404319
O O9 0.960535 0.430768 0.714142
O O10 0.911588 0.724031 0.741159
O O11 0.139387 0.822662 0.896193
O O12 0.748910 0.715043 0.222225
O O13 0.316308 0.871525 0.177655
O O14 0.481022 0.187221 0.387246
O O15 0.115335 0.317378 0.109546
O O16 0.085282 0.133422 0.938732
O O17 0.500000 0.000000 0.000000
#
# Coordination Sequence:
#
# PCOD8006694 Si02
#       8
#     2   2   2   2   2   2   2   2
#     4  10  20  40  63  87 132 170 213 254 325 380
#     4  12  24  40  65  98 133 168 215 266 320 382
#     4  10  23  44  65  97 128 167 221 258 318 392
#     4  11  22  39  65  94 132 163 213 264 325 383
#     4  10  22  44  70  92 126 177 215 265 324 381
#     4  10  21  38  60  92 126 174 211 257 313 391
#     4  12  23  43  69  94 130 174 212 270 329 372
#     4   9  23  40  62  97 123 163 217 261 312 383
#
# _framework density 20.548774000000002
#
# number of rings (size 3 to 8) (size 9 to 14) (size 15 to 20)
#    0.750    0.750    3.750    1.500    0.000    4.000 
#    2.250    0.625    0.000    0.000    0.000    0.000 
#    0.000    0.000    0.000    0.000    0.000    0.000 
#
# Total GULP energy -198301.862062 kJ/mol
# GULP energy per Si atom -12393.866379 kJ/mol
# Density = 2.050200 g / cm^3
# Si number density = 20.548774 Si / 1000 Ang^3
#
#
#
# Elastic Constant Matrix: (Units=GPa)
#
#
# Indices 1 2 3 4 5 6 
#
# 1 87.9008 31.8693 32.8918 -4.1475 -21.2668 7.6751
# 2 31.8693 88.5430 23.4405 -1.6119 -11.7308 -2.3502
# 3 32.8918 23.4405 83.5730 -2.4324 -11.0474 -6.0497
# 4 -4.1475 -1.6119 -2.4324 33.5247 0.5118 -4.1804
# 5 -21.2668 -11.7308 -11.0474 0.5118 22.6149 0.3546
# 6 7.6751 -2.3502 -6.0497 -4.1804 0.3546 45.3238
#
#
#
# Elastic Compliance Matrix: (Units=1/GPa)
#
#
# Indices 1 2 3 4 5 6 
#
# 1 0.017862 -0.003613 -0.004582 0.001032 0.012721 -0.003828
# 2 -0.003613 0.013485 -0.001932 0.000151 0.002634 0.001047
# 3 -0.004582 -0.001932 0.014771 0.000720 0.001846 0.002699
# 4 0.001032 0.000151 0.000720 0.030345 0.000672 0.002723
# 5 0.012721 0.002634 0.001846 0.000672 0.058468 -0.002167
# 6 -0.003828 0.001047 0.002699 0.002723 -0.002167 0.023394
#
#
# Mechanical properties :
#
#
# Convention : Reuss Voigt Hill
#
# Bulk Modulus (GPa) = 38.66401 48.49112 43.57756
# Shear Modulus (GPa) = 26.70918 31.74702 29.22810
#
# Velocity S-wave (km/s) = 3.60918 3.93486 3.77553
# Velocity P-wave (km/s) = 6.01870 6.65533 6.34501
#
# Compressibility (1/GPa) = 0.02586385
#
# Stress axis : x y z
#
# Youngs Moduli (GPa) = 55.98574 74.15401 67.69961
#
# Poissons Ratio (x) = 0.26795 0.31019
# Poissons Ratio (y) = 0.20230 0.13079
# Poissons Ratio (z) = 0.25652 0.14326
#
# Static dielectric constant tensor:
#      x y z
#    x 5.011030 -0.259120 -0.981200 
#    y -0.259120 3.851980 0.173100 
#    z -0.981200 0.173100 4.051010 
# 
# 
# High freq. dielectric constant tensor:
#      x y z
#    x 1.803180 -0.001160 -0.017100 
#    y -0.001160 1.808800 -0.001140 
#    z -0.017100 -0.001140 1.786430 
# 
# From -- ./inp_files/604510.got.cif
#   From: 2010.06.25/outbox.cif.g09.slc.cpg/sg2_303_cif.got.tgz:604510.got - 2010.06.27 13:26:56.
