data_PCOD8006664
_publ_section_title
;
Structure prediction by ZEFSAII (Michael W. Deem and Ramdas Pophale) SiO2 
 PCOD8006664
Probable space group: P -1
;
_chemical_formula_sum "Si O2"
_cell_formula_units_Z 16
_cell_length_a 11.762549
_cell_length_b 10.707573
_cell_length_c 11.455670
_cell_angle_alpha 142.340262
_cell_angle_beta 105.732965
_cell_angle_gamma 59.533497
_cell_volume 736.202982
_symmetry_space_group_name_H-M "P -1"
_symmetry_group_IT_number 2
_symmetry_cell_setting 'triclinic'
loop_
_space_group_symop_operation_xyz
x,y,z
-x,-y,-z
loop_
_atom_site_type_symbol
_atom_site_label
_atom_site_fract_x
_atom_site_fract_y
_atom_site_fract_z
Si Si1 0.356807 0.220043 0.661165
Si Si2 0.359244 0.612060 0.407153
Si Si3 0.361574 0.298169 0.987949
Si Si4 0.912393 0.716137 0.438255
Si Si5 0.899562 0.112913 0.301310
Si Si6 0.544420 0.783438 0.677935
Si Si7 0.083138 0.366980 0.036434
Si Si8 0.216629 0.495521 0.618302
O O1 0.361818 0.315781 0.860953
O O2 0.236056 0.149421 0.568762
O O3 0.311013 0.440509 0.720874
O O4 0.500000 0.000000 0.500000
O O5 0.210871 0.770574 0.539606
O O6 0.440488 0.756590 0.539552
O O7 0.446414 0.360335 0.309919
O O8 0.352786 0.534451 0.214477
O O9 0.240134 0.268382 0.983871
O O10 0.492898 0.057304 0.889312
O O11 0.904039 0.560423 0.427343
O O12 0.959756 0.894210 0.631445
O O13 0.033963 0.544552 0.261084
O O14 0.841854 0.243392 0.257069
O O15 0.943023 0.844720 0.095101
O O16 0.692192 0.684275 0.590115
O O17 0.000000 0.500000 0.000000
#
# Coordination Sequence:
#
# PCOD8006664 Si02
#       8
#     2   2   2   2   2   2   2   2
#     4  10  21  41  66  89 129 175 205 263 321 382
#     4  10  22  36  64  99 124 167 216 264 323 383
#     4  12  20  40  62  91 131 166 212 265 322 382
#     4  10  22  42  63  94 129 168 221 257 320 387
#     4  11  22  41  67  94 128 172 217 267 323 379
#     4  10  20  40  62  93 133 164 212 268 318 375
#     4  12  24  40  61  96 131 164 209 272 325 383
#     4   9  21  41  66  90 131 176 214 262 319 380
#
# _framework density 21.733135999999998
#
# number of rings (size 3 to 8) (size 9 to 14) (size 15 to 20)
#    0.750    0.750    5.000    0.750    0.000    1.000 
#    2.250    3.125    0.000    0.000    0.000    0.000 
#    0.000    0.000    0.000    0.000    0.000    0.000 
#
# Total GULP energy -198284.719099 kJ/mol
# GULP energy per Si atom -12392.794944 kJ/mol
# Density = 2.168367 g / cm^3
# Si number density = 21.733136 Si / 1000 Ang^3
#
#
#
# Elastic Constant Matrix: (Units=GPa)
#
#
# Indices 1 2 3 4 5 6 
#
# 1 67.9413 16.6603 17.5854 -8.4903 -10.3175 6.4737
# 2 16.6603 61.4268 17.3367 -3.7987 -1.9727 -12.7546
# 3 17.5854 17.3367 62.8131 -13.6068 4.1652 4.6959
# 4 -8.4903 -3.7987 -13.6068 31.7963 4.2914 -2.6518
# 5 -10.3175 -1.9727 4.1652 4.2914 28.6471 -1.8702
# 6 6.4737 -12.7546 4.6959 -2.6518 -1.8702 25.2840
#
#
#
# Elastic Compliance Matrix: (Units=1/GPa)
#
#
# Indices 1 2 3 4 5 6 
#
# 1 0.018547 -0.005016 -0.003436 0.001543 0.006210 -0.006020
# 2 -0.005016 0.022168 -0.005895 -0.000279 0.001510 0.013644
# 3 -0.003436 -0.005895 0.021022 0.007744 -0.006229 -0.005647
# 4 0.001543 -0.000279 0.007744 0.036053 -0.005901 0.001371
# 5 0.006210 0.001510 -0.006229 -0.005901 0.039208 0.002610
# 6 -0.006020 0.013644 -0.005647 0.001371 0.002610 0.049360
#
#
# Mechanical properties :
#
#
# Convention : Reuss Voigt Hill
#
# Bulk Modulus (GPa) = 30.26252 32.81624 31.53938
# Shear Modulus (GPa) = 22.11739 26.51873 24.31806
#
# Velocity S-wave (km/s) = 3.19357 3.49692 3.34868
# Velocity P-wave (km/s) = 5.24913 5.60687 5.43095
#
# Compressibility (1/GPa) = 0.03304417
#
# Stress axis : x y z
#
# Youngs Moduli (GPa) = 53.91631 45.11022 47.56965
#
# Poissons Ratio (x) = 0.22627 0.16343
# Poissons Ratio (y) = 0.27044 0.28042
# Poissons Ratio (z) = 0.18524 0.26592
#
# Static dielectric constant tensor:
#      x y z
#    x 3.947270 -0.103380 -0.000570 
#    y -0.103380 3.978030 -0.213970 
#    z -0.000570 -0.213970 3.820030 
# 
# 
# High freq. dielectric constant tensor:
#      x y z
#    x 1.856590 -0.003370 -0.015600 
#    y -0.003370 1.853120 -0.005090 
#    z -0.015600 -0.005090 1.831610 
# 
# From -- ./inp_files/429260.got.cif
#   From: 2010.06.25/outbox.cif.g09.slc.cpg/sg2_215_cif.got.tgz:429260.got - 2010.06.27 13:26:56.
