data_PCOD8006290
_publ_section_title
;
Structure prediction by ZEFSAII (Michael W. Deem and Ramdas Pophale) SiO2 
 PCOD8006290
Probable space group: P -1
;
_chemical_formula_sum "Si O2"
_cell_formula_units_Z 16
_cell_length_a 8.607326
_cell_length_b 9.253483
_cell_length_c 23.580052
_cell_angle_alpha 150.520125
_cell_angle_beta 53.296597
_cell_angle_gamma 126.109979
_cell_volume 729.570015
_symmetry_space_group_name_H-M "P -1"
_symmetry_group_IT_number 2
_symmetry_cell_setting 'triclinic'
loop_
_space_group_symop_operation_xyz
x,y,z
-x,-y,-z
loop_
_atom_site_type_symbol
_atom_site_label
_atom_site_fract_x
_atom_site_fract_y
_atom_site_fract_z
Si Si1 0.022352 0.817216 0.672497
Si Si2 0.408670 0.240602 0.534711
Si Si3 0.602748 0.084581 0.226080
Si Si4 0.724213 0.233098 0.891290
Si Si5 0.437635 0.102471 0.710627
Si Si6 0.817809 0.193843 0.485128
Si Si7 0.943364 0.836880 0.016198
Si Si8 0.336736 0.717228 0.949984
O O1 0.040003 0.867919 0.617952
O O2 0.922025 0.481804 0.595472
O O3 0.232519 0.872323 0.674977
O O4 0.894885 0.047159 0.802874
O O5 0.384306 0.574597 0.641467
O O6 0.612463 0.259505 0.529285
O O7 0.406545 0.032276 0.408114
O O8 0.223181 0.091500 0.562441
O O9 0.465434 0.981072 0.166442
O O10 0.499992 0.888085 0.233967
O O11 0.825529 0.043738 0.149985
O O12 0.797899 0.516965 0.931284
O O13 0.677640 0.353730 0.004293
O O14 0.405753 0.428742 0.807162
O O15 0.134771 0.777672 0.987668
O O16 0.000000 0.000000 0.000000
O O17 0.500000 0.000000 0.000000
#
# Coordination Sequence:
#
# PCOD8006290 Si02
#       8
#     2   2   2   2   2   2   2   2
#     4  10  20  39  67  93 127 173 222 271 325 400
#     4  10  22  40  66  97 129 172 218 279 332 393
#     4  12  25  44  67  98 137 176 221 276 339 393
#     4  12  24  44  71  97 137 180 223 275 336 401
#     4  11  24  44  66  93 137 174 225 276 329 397
#     4   9  20  38  64  97 125 171 225 269 328 398
#     4  12  27  44  69 104 138 174 223 281 336 399
#     4  12  27  46  71 101 132 182 227 273 336 402
#
# _framework density 21.930724999999999
#
# number of rings (size 3 to 8) (size 9 to 14) (size 15 to 20)
#    0.000    1.000    3.750    2.625    5.250    2.000 
#    0.000    0.625    0.000    0.000    0.000    0.000 
#    0.000    0.000    0.000    0.000    0.000    0.000 
#
# Total GULP energy -198413.242685 kJ/mol
# GULP energy per Si atom -12400.827668 kJ/mol
# Density = 2.188081 g / cm^3
# Si number density = 21.930725 Si / 1000 Ang^3
#
#
#
# Elastic Constant Matrix: (Units=GPa)
#
#
# Indices 1 2 3 4 5 6 
#
# 1 56.9280 31.0545 33.2324 0.3941 0.4931 -13.2836
# 2 31.0545 112.9542 33.8698 19.1931 6.0715 3.4744
# 3 33.2324 33.8698 137.0029 10.0909 -7.2289 2.7769
# 4 0.3941 19.1931 10.0909 30.5487 -1.2791 0.8617
# 5 0.4931 6.0715 -7.2289 -1.2791 30.9124 -0.8483
# 6 -13.2836 3.4744 2.7769 0.8617 -0.8483 27.3850
#
#
#
# Elastic Compliance Matrix: (Units=1/GPa)
#
#
# Indices 1 2 3 4 5 6 
#
# 1 0.028621 -0.007629 -0.005783 0.005918 0.000353 0.015262
# 2 -0.007629 0.012817 -0.000810 -0.007670 -0.003042 -0.005097
# 3 -0.005783 -0.000810 0.009259 -0.002283 0.002226 -0.003500
# 4 0.005918 -0.007670 -0.002283 0.038254 0.002542 0.002950
# 5 0.000353 -0.003042 0.002226 0.002542 0.033603 0.001292
# 6 0.015262 -0.005097 -0.003500 0.002950 0.001292 0.044868
#
#
# Mechanical properties :
#
#
# Convention : Reuss Voigt Hill
#
# Bulk Modulus (GPa) = 44.93936 55.91094 50.42515
# Shear Modulus (GPa) = 24.59615 31.68445 28.14030
#
# Velocity S-wave (km/s) = 3.35257 3.80511 3.58599
# Velocity P-wave (km/s) = 5.96006 6.69738 6.33945
#
# Compressibility (1/GPa) = 0.02225221
#
# Stress axis : x y z
#
# Youngs Moduli (GPa) = 34.93983 78.02053 108.00535
#
# Poissons Ratio (x) = 0.59519 0.62460
# Poissons Ratio (y) = 0.26654 0.08754
# Poissons Ratio (z) = 0.20206 0.06323
#
# Static dielectric constant tensor:
#      x y z
#    x 3.760520 0.087740 0.030210 
#    y 0.087740 4.137360 -0.062590 
#    z 0.030210 -0.062590 4.100410 
# 
# 
# High freq. dielectric constant tensor:
#      x y z
#    x 1.846010 0.003640 0.000590 
#    y 0.003640 1.863930 0.003290 
#    z 0.000590 0.003290 1.876720 
# 
# From -- ./inp_files/274830.got.cif
#   From: 2010.06.25/outbox.cif.g09.slc.cpg/sg2_138_cif.got.tgz:274830.got - 2010.06.27 13:26:56.
