data_PCOD8006612
_publ_section_title
;
Structure prediction by ZEFSAII (Michael W. Deem and Ramdas Pophale) SiO2 
 PCOD8006612
Probable space group: P -1
;
_chemical_formula_sum "Si O2"
_cell_formula_units_Z 14
_cell_length_a 15.877613
_cell_length_b 8.166430
_cell_length_c 11.501896
_cell_angle_alpha 50.750149
_cell_angle_beta 148.566533
_cell_angle_gamma 120.824500
_cell_volume 600.904113
_symmetry_space_group_name_H-M "P -1"
_symmetry_group_IT_number 2
_symmetry_cell_setting 'triclinic'
loop_
_space_group_symop_operation_xyz
x,y,z
-x,-y,-z
loop_
_atom_site_type_symbol
_atom_site_label
_atom_site_fract_x
_atom_site_fract_y
_atom_site_fract_z
Si Si1 0.907406 0.976068 0.021229
Si Si2 0.591903 0.804829 0.753238
Si Si3 0.824405 0.418018 0.832509
Si Si4 0.449687 0.361689 0.730639
Si Si5 0.957424 0.791259 0.399615
Si Si6 0.778762 0.206182 0.108107
Si Si7 0.368286 0.330423 0.900579
O O1 0.012973 0.879723 0.299121
O O2 0.774722 0.806215 0.920662
O O3 0.820173 0.204910 0.847065
O O4 0.000000 0.000000 0.000000
O O5 0.524986 0.584540 0.740133
O O6 0.500000 0.000000 0.500000
O O7 0.585621 0.847505 0.866866
O O8 0.697414 0.600726 0.550449
O O9 0.782617 0.380253 0.933811
O O10 0.000000 0.500000 0.000000
O O11 0.380726 0.261043 0.812222
O O12 0.590576 0.194873 0.925991
O O13 0.826290 0.605345 0.327876
O O14 0.117343 0.718369 0.692713
O O15 0.848445 0.976748 0.253508
O O16 0.500000 0.500000 0.000000
#
# Coordination Sequence:
#
# PCOD8006612 Si02
#       7
#     2   2   2   2   2   2   2
#     4  10  22  40  63  93 118 168 214 250 315 375
#     4  10  20  40  62  87 129 166 201 262 314 370
#     4  11  23  40  62  89 132 163 205 263 312 372
#     4  11  22  39  64  96 123 164 212 259 313 376
#     4   9  20  43  63  87 131 164 204 266 312 369
#     4  10  22  39  63  90 123 168 212 253 316 372
#     4   9  20  38  60  90 124 160 204 256 318 364
#
# _framework density 23.298227000000001
#
# number of rings (size 3 to 8) (size 9 to 14) (size 15 to 20)
#    0.000    2.000    1.429    1.286    2.000    1.714 
#    2.571    3.571    0.000    0.000    0.000    0.000 
#    0.000    0.000    0.000    0.000    0.000    0.000 
#
# Total GULP energy -173434.917332 kJ/mol
# GULP energy per Si atom -12388.208381 kJ/mol
# Density = 2.324520 g / cm^3
# Si number density = 23.298227 Si / 1000 Ang^3
#
#
#
# Elastic Constant Matrix: (Units=GPa)
#
#
# Indices 1 2 3 4 5 6 
#
# 1 190.8312 12.8947 73.8331 5.3936 -28.7556 31.4629
# 2 12.8947 54.2080 16.3733 14.3933 -2.3501 14.2887
# 3 73.8331 16.3733 165.3615 19.1552 -21.7530 7.1625
# 4 5.3936 14.3933 19.1552 34.2888 3.0281 6.1837
# 5 -28.7556 -2.3501 -21.7530 3.0281 37.5064 2.5622
# 6 31.4629 14.2887 7.1625 6.1837 2.5622 32.9372
#
#
#
# Elastic Compliance Matrix: (Units=1/GPa)
#
#
# Indices 1 2 3 4 5 6 
#
# 1 0.008495 0.001113 -0.002927 0.000897 0.005397 -0.008549
# 2 0.001113 0.023277 -0.001079 -0.007860 0.002982 -0.009682
# 3 -0.002927 -0.001079 0.008217 -0.004286 0.002659 0.002075
# 4 0.000897 -0.007860 -0.004286 0.035666 -0.004977 -0.002824
# 5 0.005397 0.002982 0.002659 -0.004977 0.033525 -0.008700
# 6 -0.008549 -0.009682 0.002075 -0.002824 -0.008700 0.043483
#
#
# Mechanical properties :
#
#
# Convention : Reuss Voigt Hill
#
# Bulk Modulus (GPa) = 29.23777 68.51142 48.87460
# Shear Modulus (GPa) = 29.43756 41.43310 35.43533
#
# Velocity S-wave (km/s) = 3.55845 4.22166 3.90416
# Velocity P-wave (km/s) = 5.42770 7.29612 6.43014
#
# Compressibility (1/GPa) = 0.03420233
#
# Stress axis : x y z
#
# Youngs Moduli (GPa) = 117.71976 42.96016 121.69354
#
# Poissons Ratio (x) = -0.04780 0.35616
# Poissons Ratio (y) = -0.13097 0.13136
# Poissons Ratio (z) = 0.34453 0.04637
#
# Static dielectric constant tensor:
#      x y z
#    x 4.542370 0.290230 -0.324170 
#    y 0.290230 4.478450 0.223640 
#    z -0.324170 0.223640 4.459510 
# 
# 
# High freq. dielectric constant tensor:
#      x y z
#    x 1.930290 0.022660 -0.020950 
#    y 0.022660 1.910100 0.021810 
#    z -0.020950 0.021810 1.922260 
# 
# From -- ./inp_files/154715.got.cif
#   From: 2010.06.25/outbox.cif.g09.slc.cpg/sg2_78_cif.got.tgz:154715.got - 2010.06.27 13:26:56.
