data_PCOD8006483
_publ_section_title
;
Structure prediction by ZEFSAII (Michael W. Deem and Ramdas Pophale) SiO2 
 PCOD8006483
Probable space group: P -1
;
_chemical_formula_sum "Si O2"
_cell_formula_units_Z 16
_cell_length_a 24.618955
_cell_length_b 18.827545
_cell_length_c 6.127813
_cell_angle_alpha 54.088783
_cell_angle_beta 55.275405
_cell_angle_gamma 18.634463
_cell_volume 734.010959
_symmetry_space_group_name_H-M "P -1"
_symmetry_group_IT_number 2
_symmetry_cell_setting 'triclinic'
loop_
_space_group_symop_operation_xyz
x,y,z
-x,-y,-z
loop_
_atom_site_type_symbol
_atom_site_label
_atom_site_fract_x
_atom_site_fract_y
_atom_site_fract_z
Si Si1 0.996434 0.381792 0.142958
Si Si2 0.947000 0.268655 0.205943
Si Si3 0.666918 0.552318 0.034932
Si Si4 0.312069 0.821070 0.008926
Si Si5 0.666280 0.019156 0.167902
Si Si6 0.140167 0.770682 0.207712
Si Si7 0.584248 0.492726 0.637382
Si Si8 0.121561 0.318633 0.360830
O O1 0.940570 0.354435 0.243497
O O2 0.030434 0.348845 0.384814
O O3 0.853196 0.629151 0.953829
O O4 0.174530 0.192265 0.968981
O O5 0.774294 0.483299 0.073997
O O6 0.956845 0.165553 0.498725
O O7 0.106175 0.078647 0.017768
O O8 0.606895 0.536989 0.320525
O O9 0.504347 0.809020 0.866101
O O10 0.778740 0.393867 0.854989
O O11 0.377642 0.823944 0.990311
O O12 0.390624 0.731177 0.745984
O O13 0.375832 0.653628 0.282478
O O14 0.702435 0.931116 0.482351
O O15 0.285745 0.652174 0.196883
O O16 0.000000 0.000000 0.000000
O O17 0.000000 0.500000 0.500000
#
# Coordination Sequence:
#
# PCOD8006483 Si02
#       8
#     2   2   2   2   2   2   2   2
#     4   9  20  39  63  93 116 157 197 254 305 360
#     4  10  23  40  61  89 124 160 212 247 305 369
#     4  11  23  40  57  88 127 170 200 250 310 366
#     4  10  20  40  57  88 117 162 215 264 288 351
#     4  10  21  36  61  90 120 160 202 250 309 364
#     4  11  22  38  57  83 124 175 206 253 309 357
#     4  10  22  38  57  83 127 161 215 258 300 355
#     4   9  19  37  64  92 123 145 197 249 312 369
#
# _framework density 21.79804
#
# number of rings (size 3 to 8) (size 9 to 14) (size 15 to 20)
#    0.000    2.000    1.250    1.500    1.750    6.500 
#    9.000    0.625    0.000    7.500    0.000    0.000 
#    0.000    0.000    0.000    0.000    0.000    0.000 
#
# Total GULP energy -198313.360116 kJ/mol
# GULP energy per Si atom -12394.585007 kJ/mol
# Density = 2.174843 g / cm^3
# Si number density = 21.798040 Si / 1000 Ang^3
#
#
#
# Elastic Constant Matrix: (Units=GPa)
#
#
# Indices 1 2 3 4 5 6 
#
# 1 95.9961 60.1851 33.5985 -17.8040 9.6100 1.0975
# 2 60.1851 102.5803 47.7408 -17.8955 7.3948 -15.0934
# 3 33.5985 47.7408 72.6354 -12.6924 14.9425 -19.4742
# 4 -17.8040 -17.8955 -12.6924 40.3043 -8.8501 9.7577
# 5 9.6100 7.3948 14.9425 -8.8501 31.4665 -2.8679
# 6 1.0975 -15.0934 -19.4742 9.7577 -2.8679 36.3398
#
#
#
# Elastic Compliance Matrix: (Units=1/GPa)
#
#
# Indices 1 2 3 4 5 6 
#
# 1 0.018689 -0.009690 -0.003274 0.004487 -0.001311 -0.007652
# 2 -0.009690 0.019683 -0.007626 0.001667 0.002803 0.004155
# 3 -0.003274 -0.007626 0.024361 -0.001321 -0.008265 0.009689
# 4 0.004487 0.001667 -0.001321 0.030484 0.006728 -0.007806
# 5 -0.001311 0.002803 -0.008265 0.006728 0.037147 -0.002100
# 6 -0.007652 0.004155 0.009689 -0.007806 -0.002100 0.036597
#
#
# Mechanical properties :
#
#
# Convention : Reuss Voigt Hill
#
# Bulk Modulus (GPa) = 46.39594 61.58453 53.99024
# Shear Modulus (GPa) = 23.22063 30.26793 26.74428
#
# Velocity S-wave (km/s) = 3.26738 3.73038 3.50653
# Velocity P-wave (km/s) = 5.96364 6.84602 6.42001
#
# Compressibility (1/GPa) = 0.02155361
#
# Stress axis : x y z
#
# Youngs Moduli (GPa) = 53.50742 50.80525 41.04913
#
# Poissons Ratio (x) = 0.49231 0.13438
# Poissons Ratio (y) = 0.51849 0.31304
# Poissons Ratio (z) = 0.17516 0.38744
#
# Static dielectric constant tensor:
#      x y z
#    x 3.985710 -0.010410 0.116600 
#    y -0.010410 4.273370 -0.213790 
#    z 0.116600 -0.213790 4.104060 
# 
# 
# High freq. dielectric constant tensor:
#      x y z
#    x 1.851730 0.006300 0.013800 
#    y 0.006300 1.851170 -0.006700 
#    z 0.013800 -0.006700 1.847020 
# 
# From -- ./inp_files/52477.got.cif
#   From: 2010.06.25/outbox.cif.g09.slc.cpg/sg2_27_cif.got.tgz:52477.got - 2010.06.27 13:26:56.
