data_PCOD8006172
_publ_section_title
;
Structure prediction by ZEFSAII (Michael W. Deem and Ramdas Pophale) SiO2 
 PCOD8006172
Probable space group: P -1
;
_chemical_formula_sum "Si O2"
_cell_formula_units_Z 14
_cell_length_a 9.131871
_cell_length_b 10.055923
_cell_length_c 13.342314
_cell_angle_alpha 93.412941
_cell_angle_beta 107.963478
_cell_angle_gamma 136.712982
_cell_volume 719.369659
_symmetry_space_group_name_H-M "P -1"
_symmetry_group_IT_number 2
_symmetry_cell_setting 'triclinic'
loop_
_space_group_symop_operation_xyz
x,y,z
-x,-y,-z
loop_
_atom_site_type_symbol
_atom_site_label
_atom_site_fract_x
_atom_site_fract_y
_atom_site_fract_z
Si Si1 0.303524 0.458064 0.900538
Si Si2 0.542330 0.425561 0.593344
Si Si3 0.847602 0.793504 0.326191
Si Si4 0.423557 0.091864 0.023583
Si Si5 0.763574 0.999087 0.806026
Si Si6 0.026608 0.121070 0.215039
Si Si7 0.386280 0.061547 0.446911
O O1 0.307943 0.417679 0.782839
O O2 0.030066 0.252024 0.877634
O O3 0.500000 0.500000 0.000000
O O4 0.363406 0.653839 0.938403
O O5 0.500000 0.500000 0.500000
O O6 0.805447 0.637617 0.709984
O O7 0.563114 0.293989 0.543303
O O8 0.310740 0.272697 0.614245
O O9 0.911561 0.968853 0.281490
O O10 0.104321 0.896322 0.418791
O O11 0.179474 0.968626 0.907949
O O12 0.385985 0.055378 0.132335
O O13 0.500000 0.000000 0.000000
O O14 0.801210 0.865391 0.808818
O O15 0.605894 0.930516 0.671593
O O16 0.500000 0.000000 0.500000
#
# Coordination Sequence:
#
# PCOD8006172 Si02
#       7
#     2   2   2   2   2   2   2
#     4  10  20  39  66  88 119 166 199 242 311 359
#     4  12  22  39  67  92 119 162 214 249 293 362
#     4  10  22  39  67  91 120 160 212 248 297 368
#     4  12  25  39  61  98 127 152 205 258 305 362
#     4  10  22  41  65  88 123 163 208 245 300 372
#     4  10  22  39  64  94 118 164 207 246 304 363
#     4  10  23  43  62  91 128 163 198 255 312 354
#
# _framework density 19.461483000000001
#
# number of rings (size 3 to 8) (size 9 to 14) (size 15 to 20)
#    0.000    1.714    5.714    1.714    2.000    4.000 
#    0.000    0.714    0.000    0.000    0.000    0.000 
#    0.000    0.000    0.000    0.000    0.000    0.000 
#
# Total GULP energy -173579.921535 kJ/mol
# GULP energy per Si atom -12398.565824 kJ/mol
# Density = 1.941719 g / cm^3
# Si number density = 19.461483 Si / 1000 Ang^3
#
#
#
# Elastic Constant Matrix: (Units=GPa)
#
#
# Indices 1 2 3 4 5 6 
#
# 1 79.4771 57.9077 51.5854 -9.8667 -14.3824 -27.0057
# 2 57.9077 103.8591 56.3736 15.6312 -17.4130 -18.3317
# 3 51.5854 56.3736 125.5682 17.8382 -4.0636 -17.5755
# 4 -9.8667 15.6312 17.8382 42.2140 -3.3691 -8.5958
# 5 -14.3824 -17.4130 -4.0636 -3.3691 31.1400 -4.5166
# 6 -27.0057 -18.3317 -17.5755 -8.5958 -4.5166 40.0254
#
#
#
# Elastic Compliance Matrix: (Units=1/GPa)
#
#
# Indices 1 2 3 4 5 6 
#
# 1 0.052223 -0.018186 -0.012957 0.032216 0.020156 0.030410
# 2 -0.018186 0.021550 -0.001114 -0.012770 0.001329 -0.005482
# 3 -0.012957 -0.001114 0.014202 -0.010379 -0.006748 -0.006007
# 4 0.032216 -0.012770 -0.010379 0.046170 0.014702 0.022905
# 5 0.020156 0.001329 -0.006748 0.014702 0.045712 0.019561
# 6 0.030410 -0.005482 -0.006007 0.022905 0.019561 0.047480
#
#
# Mechanical properties :
#
#
# Convention : Reuss Voigt Hill
#
# Bulk Modulus (GPa) = 42.62513 71.18199 56.90356
# Shear Modulus (GPa) = 16.68486 32.21173 24.44829
#
# Velocity S-wave (km/s) = 2.93119 4.07277 3.54819
# Velocity P-wave (km/s) = 5.77977 7.66628 6.78887
#
# Compressibility (1/GPa) = 0.02346034
#
# Stress axis : x y z
#
# Youngs Moduli (GPa) = 19.14869 46.40370 70.41120
#
# Poissons Ratio (x) = 0.84391 0.91234
# Poissons Ratio (y) = 0.34824 0.07843
# Poissons Ratio (z) = 0.24812 0.05169
#
# Static dielectric constant tensor:
#      x y z
#    x 3.609350 -0.468960 -0.336870 
#    y -0.468960 4.333360 0.585590 
#    z -0.336870 0.585590 4.031330 
# 
# 
# High freq. dielectric constant tensor:
#      x y z
#    x 1.732260 -0.000350 -0.009090 
#    y -0.000350 1.759070 0.011030 
#    z -0.009090 0.011030 1.781410 
# 
# From -- ./inp_files/495261.got.cif
#   From: 2010.06.25/outbox.cif.g09.slc.cpg/sg2_248_cif.got.tgz:495261.got - 2010.06.27 13:26:56.
