data_PCOD8006390
_publ_section_title
;
Structure prediction by ZEFSAII (Michael W. Deem and Ramdas Pophale) SiO2 
 PCOD8006390
Probable space group: P -1
;
_chemical_formula_sum "Si O2"
_cell_formula_units_Z 14
_cell_length_a 15.578131
_cell_length_b 12.671837
_cell_length_c 21.587358
_cell_angle_alpha 26.219163
_cell_angle_beta 158.807913
_cell_angle_gamma 153.729054
_cell_volume 630.276932
_symmetry_space_group_name_H-M "P -1"
_symmetry_group_IT_number 2
_symmetry_cell_setting 'triclinic'
loop_
_space_group_symop_operation_xyz
x,y,z
-x,-y,-z
loop_
_atom_site_type_symbol
_atom_site_label
_atom_site_fract_x
_atom_site_fract_y
_atom_site_fract_z
Si Si1 0.705248 0.861961 0.481653
Si Si2 0.200077 0.445556 0.397043
Si Si3 0.904161 0.296968 0.095881
Si Si4 0.208022 0.193879 0.785422
Si Si5 0.204496 0.951913 0.310549
Si Si6 0.254972 0.479436 0.011972
Si Si7 0.054800 0.409154 0.450668
O O1 0.405205 0.717613 0.367923
O O2 0.769744 0.797898 0.488970
O O3 0.852557 0.745609 0.689084
O O4 0.783266 0.169117 0.382935
O O5 0.230858 0.405306 0.512024
O O6 0.928760 0.469786 0.188771
O O7 0.722503 0.031130 0.081804
O O8 0.754589 0.390671 0.996886
O O9 0.000000 0.500000 0.000000
O O10 0.454951 0.375471 0.895119
O O11 0.174849 0.377155 0.613082
O O12 0.952712 0.071063 0.719537
O O13 0.051471 0.694328 0.303081
O O14 0.500000 0.000000 0.500000
O O15 0.190580 0.178565 0.138396
#
# Coordination Sequence:
#
# PCOD8006390 Si02
#       7
#     2   2   2   2   2   2   2
#     4   9  22  42  67  95 134 170 218 267 329 387
#     4  10  23  44  65  97 132 174 214 273 325 391
#     4  10  20  39  68  99 126 167 219 277 330 376
#     4  11  24  42  68  97 129 170 223 276 327 384
#     4  12  26  43  68  96 134 175 221 273 320 390
#     4  11  24  43  65  99 132 171 217 275 328 382
#     4  11  24  39  69  93 126 175 219 260 323 394
#
# _framework density 22.212457000000001
#
# number of rings (size 3 to 8) (size 9 to 14) (size 15 to 20)
#    0.000    1.429    2.857    1.286    6.000    1.714 
#    2.571    1.429    0.000    0.000    0.000    0.000 
#    0.000    0.000    0.000    0.000    0.000    0.000 
#
# Total GULP energy -173551.773222 kJ/mol
# GULP energy per Si atom -12396.555230 kJ/mol
# Density = 2.216190 g / cm^3
# Si number density = 22.212457 Si / 1000 Ang^3
#
#
#
# Elastic Constant Matrix: (Units=GPa)
#
#
# Indices 1 2 3 4 5 6 
#
# 1 59.8927 5.0489 -0.8571 8.1732 2.5515 4.1949
# 2 5.0489 147.3179 23.6733 -2.7681 16.5386 -11.6640
# 3 -0.8571 23.6733 43.1149 12.1836 11.7118 10.8870
# 4 8.1732 -2.7681 12.1836 36.2752 1.7183 6.8901
# 5 2.5515 16.5386 11.7118 1.7183 21.3756 -0.6729
# 6 4.1949 -11.6640 10.8870 6.8901 -0.6729 33.7582
#
#
#
# Elastic Compliance Matrix: (Units=1/GPa)
#
#
# Indices 1 2 3 4 5 6 
#
# 1 0.017844 -0.001232 0.003960 -0.004726 -0.003062 -0.003016
# 2 -0.001232 0.008473 -0.005417 0.002085 -0.003472 0.004333
# 3 0.003960 -0.005417 0.036662 -0.010518 -0.015912 -0.012358
# 4 -0.004726 0.002085 -0.010518 0.032590 0.002034 -0.001911
# 5 -0.003062 -0.003472 -0.015912 0.002034 0.058548 0.005065
# 6 -0.003016 0.004333 -0.012358 -0.001911 0.005065 0.035971
#
#
# Mechanical properties :
#
#
# Convention : Reuss Voigt Hill
#
# Bulk Modulus (GPa) = 17.36073 34.00619 25.68346
# Shear Modulus (GPa) = 23.29206 33.11248 28.20227
#
# Velocity S-wave (km/s) = 3.24173 3.86517 3.56709
# Velocity P-wave (km/s) = 4.67381 5.93819 5.34353
#
# Compressibility (1/GPa) = 0.05760128
#
# Stress axis : x y z
#
# Youngs Moduli (GPa) = 56.04210 118.02626 27.27622
#
# Poissons Ratio (x) = 0.14539 -0.10802
# Poissons Ratio (y) = 0.06903 0.14775
# Poissons Ratio (z) = -0.22193 0.63932
#
# Static dielectric constant tensor:
#      x y z
#    x 3.961540 -0.015790 0.035140 
#    y -0.015790 4.153810 0.102400 
#    z 0.035140 0.102400 3.629780 
# 
# 
# High freq. dielectric constant tensor:
#      x y z
#    x 1.871760 0.005190 -0.002450 
#    y 0.005190 1.898390 -0.003860 
#    z -0.002450 -0.003860 1.844980 
# 
# From -- ./inp_files/75874.got.cif
#   From: 2010.06.25/outbox.cif.g09.slc.cpg/sg2_38_cif.got.tgz:75874.got - 2010.06.27 13:26:56.
