data_PCOD8006018
_publ_section_title
;
Structure prediction by ZEFSAII (Michael W. Deem and Ramdas Pophale) SiO2 
 PCOD8006018
Probable space group: P -1
;
_chemical_formula_sum "Si O2"
_cell_formula_units_Z 16
_cell_length_a 9.047466
_cell_length_b 12.238593
_cell_length_c 14.539975
_cell_angle_alpha 109.638710
_cell_angle_beta 143.464989
_cell_angle_gamma 54.855815
_cell_volume 756.832579
_symmetry_space_group_name_H-M "P -1"
_symmetry_group_IT_number 2
_symmetry_cell_setting 'triclinic'
loop_
_space_group_symop_operation_xyz
x,y,z
-x,-y,-z
loop_
_atom_site_type_symbol
_atom_site_label
_atom_site_fract_x
_atom_site_fract_y
_atom_site_fract_z
Si Si1 0.092534 0.089320 0.630435
Si Si2 0.306578 0.106905 0.560227
Si Si3 0.319648 0.636740 0.387792
Si Si4 0.693786 0.635758 0.407777
Si Si5 0.852326 0.222194 0.938793
Si Si6 0.103320 0.349554 0.974411
Si Si7 0.957328 0.938077 0.841483
Si Si8 0.255892 0.880772 0.792184
O O1 0.287289 0.119470 0.666919
O O2 0.815422 0.232534 0.573547
O O3 0.292613 0.995805 0.791112
O O4 0.000000 0.000000 0.500000
O O5 0.248248 0.243638 0.522194
O O6 0.044296 0.093557 0.391834
O O7 0.631738 0.976748 0.655960
O O8 0.500000 0.500000 0.500000
O O9 0.552273 0.633805 0.432982
O O10 0.057824 0.642161 0.199585
O O11 0.479648 0.657692 0.221590
O O12 0.000000 0.500000 0.500000
O O13 0.066013 0.259570 0.007126
O O14 0.903189 0.075870 0.898249
O O15 0.910935 0.202250 0.071638
O O16 0.455781 0.272154 0.116800
O O17 0.000000 0.500000 0.000000
O O18 0.200466 0.907166 0.879049
#
# Coordination Sequence:
#
# PCOD8006018 Si02
#       8
#     2   2   2   2   2   2   2   2
#     4  10  22  39  68  97 131 170 220 276 330 388
#     4  10  21  37  62  93 128 164 209 271 335 385
#     4  11  25  44  69  98 132 175 230 271 333 401
#     4  10  21  38  65  89 127 173 216 270 326 391
#     4   9  21  40  64  87 127 165 213 269 339 388
#     4  11  26  43  64  92 138 181 218 271 336 402
#     4  10  20  39  64  95 121 161 216 281 333 392
#     4  11  23  38  63  93 132 164 221 268 334 388
#
# _framework density 21.140740000000001
#
# number of rings (size 3 to 8) (size 9 to 14) (size 15 to 20)
#    0.000    1.750    0.000    4.125    7.000    7.000 
#    2.250    0.625    0.000    0.000    0.000    0.000 
#    0.000    0.000    0.000    0.000    0.000    0.000 
#
# Total GULP energy -198245.750569 kJ/mol
# GULP energy per Si atom -12390.359411 kJ/mol
# Density = 2.109262 g / cm^3
# Si number density = 21.140740 Si / 1000 Ang^3
#
#
#
# Elastic Constant Matrix: (Units=GPa)
#
#
# Indices 1 2 3 4 5 6 
#
# 1 114.7179 45.6182 44.9383 -26.0922 -6.1623 7.5390
# 2 45.6182 106.9454 51.6272 -29.3252 0.2843 -8.7772
# 3 44.9383 51.6272 77.3318 -21.0456 -7.5638 5.9846
# 4 -26.0922 -29.3252 -21.0456 38.6050 3.5490 2.2913
# 5 -6.1623 0.2843 -7.5638 3.5490 37.7979 -11.0632
# 6 7.5390 -8.7772 5.9846 2.2913 -11.0632 39.2122
#
#
#
# Elastic Compliance Matrix: (Units=1/GPa)
#
#
# Indices 1 2 3 4 5 6 
#
# 1 0.012496 -0.002171 -0.004378 0.004554 0.000024 -0.002480
# 2 -0.002171 0.016509 -0.008554 0.006264 -0.001416 0.004653
# 3 -0.004378 -0.008554 0.022500 0.002823 0.002420 -0.003989
# 4 0.004554 0.006264 0.002823 0.035714 -0.002917 -0.002814
# 5 0.000024 -0.001416 0.002420 -0.002917 0.029514 0.007806
# 6 -0.002480 0.004653 -0.003989 -0.002814 0.007806 0.029996
#
#
# Mechanical properties :
#
#
# Convention : Reuss Voigt Hill
#
# Bulk Modulus (GPa) = 46.95168 64.81805 55.88487
# Shear Modulus (GPa) = 27.16874 33.57712 30.37293
#
# Velocity S-wave (km/s) = 3.58877 3.98963 3.79450
# Velocity P-wave (km/s) = 6.27930 7.20761 6.75941
#
# Compressibility (1/GPa) = 0.02129849
#
# Stress axis : x y z
#
# Youngs Moduli (GPa) = 80.02827 60.57173 44.44492
#
# Poissons Ratio (x) = 0.13152 0.19458
# Poissons Ratio (y) = 0.17377 0.38017
# Poissons Ratio (z) = 0.35036 0.51812
#
# Static dielectric constant tensor:
#      x y z
#    x 4.838440 0.234440 -0.246410 
#    y 0.234440 3.573450 -0.225030 
#    z -0.246410 -0.225030 4.060230 
# 
# 
# High freq. dielectric constant tensor:
#      x y z
#    x 1.852020 0.012310 -0.003440 
#    y 0.012310 1.809350 -0.017690 
#    z -0.003440 -0.017690 1.830240 
# 
# From -- ./inp_files/314481.got.cif
#   From: 2010.06.25/outbox.cif.g09.slc.cpg/sg2_158_cif.got.tgz:314481.got - 2010.06.27 13:26:56.
