data_PCOD8006757
_publ_section_title
;
Structure prediction by ZEFSAII (Michael W. Deem and Ramdas Pophale) SiO2 
 PCOD8006757
Probable space group: P -1
;
_chemical_formula_sum "Si O2"
_cell_formula_units_Z 16
_cell_length_a 8.631550
_cell_length_b 12.231462
_cell_length_c 18.388538
_cell_angle_alpha 135.878600
_cell_angle_beta 32.191604
_cell_angle_gamma 126.835266
_cell_volume 719.881375
_symmetry_space_group_name_H-M "P -1"
_symmetry_group_IT_number 2
_symmetry_cell_setting 'triclinic'
loop_
_space_group_symop_operation_xyz
x,y,z
-x,-y,-z
loop_
_atom_site_type_symbol
_atom_site_label
_atom_site_fract_x
_atom_site_fract_y
_atom_site_fract_z
Si Si1 0.725364 0.459327 0.994177
Si Si2 0.291448 0.606670 0.876821
Si Si3 0.502322 0.991434 0.205523
Si Si4 0.235539 0.637640 0.466308
Si Si5 0.700808 0.300655 0.789049
Si Si6 0.871734 0.114967 0.501260
Si Si7 0.275812 0.940297 0.002279
Si Si8 0.334155 0.913020 0.664461
O O1 0.866184 0.358771 0.823714
O O2 0.948203 0.584560 0.995062
O O3 0.636555 0.352408 0.047482
O O4 0.436062 0.550156 0.126267
O O5 0.457782 0.449520 0.710229
O O6 0.360855 0.756237 0.872000
O O7 0.545315 0.818678 0.141958
O O8 0.703465 0.991946 0.054969
O O9 0.593299 0.113263 0.291017
O O10 0.167789 0.016205 0.324615
O O11 0.165454 0.757534 0.486315
O O12 0.265613 0.741386 0.576931
O O13 0.000000 0.500000 0.500000
O O14 0.913533 0.206124 0.604929
O O15 0.597199 0.998842 0.558414
O O16 0.500000 0.000000 0.000000
O O17 0.952959 0.975974 0.177515
#
# Coordination Sequence:
#
# PCOD8006757 Si02
#       8
#     2   2   2   2   2   2   2   2
#     4  10  22  37  64  95 126 167 210 274 324 390
#     4  11  23  40  64  92 133 167 223 260 332 394
#     4  11  24  42  70  99 135 171 227 278 337 399
#     4  12  26  44  64  97 139 180 221 278 341 403
#     4  10  20  40  63  98 128 164 216 272 331 386
#     4  11  23  44  69 100 133 175 230 278 334 408
#     4  12  25  45  68  98 136 181 224 276 337 403
#     4  11  25  44  72  99 133 180 232 280 334 401
#
# _framework density 22.225884000000001
#
# number of rings (size 3 to 8) (size 9 to 14) (size 15 to 20)
#    0.000    1.000    1.250    6.750    5.250    0.000 
#    2.250    1.250    0.000    0.000    0.000    0.000 
#    0.000    0.000    0.000    0.000    0.000    0.000 
#
# Total GULP energy -198332.068822 kJ/mol
# GULP energy per Si atom -12395.754301 kJ/mol
# Density = 2.217530 g / cm^3
# Si number density = 22.225884 Si / 1000 Ang^3
#
#
#
# Elastic Constant Matrix: (Units=GPa)
#
#
# Indices 1 2 3 4 5 6 
#
# 1 116.2712 38.9085 33.4067 1.1467 19.0235 5.5564
# 2 38.9085 91.9075 22.7950 -2.1997 8.1969 3.4866
# 3 33.4067 22.7950 80.7243 2.8549 -2.8152 8.8698
# 4 1.1467 -2.1997 2.8549 31.7417 0.0187 3.9714
# 5 19.0235 8.1969 -2.8152 0.0187 44.0015 0.8905
# 6 5.5564 3.4866 8.8698 3.9714 0.8905 32.0296
#
#
#
# Elastic Compliance Matrix: (Units=1/GPa)
#
#
# Indices 1 2 3 4 5 6 
#
# 1 0.011706 -0.003553 -0.003951 -0.000262 -0.004644 -0.000388
# 2 -0.003553 0.013083 -0.002272 0.001279 -0.001041 -0.000308
# 3 -0.003951 -0.002272 0.015165 -0.000976 0.003167 -0.003234
# 4 -0.000262 0.001279 -0.000976 0.032167 -0.000124 -0.003808
# 5 -0.004644 -0.001041 0.003167 -0.000124 0.025144 -0.000642
# 6 -0.000388 -0.000308 -0.003234 -0.003808 -0.000642 0.032708
#
#
# Mechanical properties :
#
#
# Convention : Reuss Voigt Hill
#
# Bulk Modulus (GPa) = 49.01436 53.23594 51.12515
# Shear Modulus (GPa) = 31.98494 34.47408 33.22951
#
# Velocity S-wave (km/s) = 3.79764 3.94265 3.87082
# Velocity P-wave (km/s) = 6.42885 6.68806 6.55974
#
# Compressibility (1/GPa) = 0.02040218
#
# Stress axis : x y z
#
# Youngs Moduli (GPa) = 85.42911 76.43387 65.94275
#
# Poissons Ratio (x) = 0.27157 0.26054
# Poissons Ratio (y) = 0.30353 0.14980
# Poissons Ratio (z) = 0.33752 0.17364
#
# Static dielectric constant tensor:
#      x y z
#    x 4.279470 -0.112430 0.224980 
#    y -0.112430 4.088030 0.067970 
#    z 0.224980 0.067970 3.983510 
# 
# 
# High freq. dielectric constant tensor:
#      x y z
#    x 1.889570 -0.007080 0.008240 
#    y -0.007080 1.866580 0.007600 
#    z 0.008240 0.007600 1.872650 
# 
# From -- ./inp_files/559886.got.cif
#   From: 2010.06.25/outbox.cif.g09.slc.cpg/sg2_280_cif.got.tgz:559886.got - 2010.06.27 13:26:56.
