data_PCOD8006933
_publ_section_title
;
Structure prediction by ZEFSAII (Michael W. Deem and Ramdas Pophale) SiO2 
 PCOD8006933
Probable space group: P -1
;
_chemical_formula_sum "Si O2"
_cell_formula_units_Z 16
_cell_length_a 11.722005
_cell_length_b 30.776914
_cell_length_c 24.052450
_cell_angle_alpha 170.654747
_cell_angle_beta 30.087323
_cell_angle_gamma 150.292237
_cell_volume 694.635856
_symmetry_space_group_name_H-M "P -1"
_symmetry_group_IT_number 2
_symmetry_cell_setting 'triclinic'
loop_
_space_group_symop_operation_xyz
x,y,z
-x,-y,-z
loop_
_atom_site_type_symbol
_atom_site_label
_atom_site_fract_x
_atom_site_fract_y
_atom_site_fract_z
Si Si1 0.250708 0.287676 0.716461
Si Si2 0.244048 0.847839 0.918557
Si Si3 0.345384 0.293615 0.149232
Si Si4 0.736212 0.135802 0.727416
Si Si5 0.916117 0.900529 0.795808
Si Si6 0.549811 0.808624 0.286267
Si Si7 0.020471 0.452894 0.254853
Si Si8 0.656471 0.094401 0.245627
O O1 0.433779 0.244236 0.535511
O O2 0.999437 0.281261 0.784922
O O3 0.243377 0.054775 0.470051
O O4 0.328977 0.564324 0.068087
O O5 0.228237 0.557109 0.528163
O O6 0.151501 0.787561 0.944149
O O7 0.104786 0.045997 0.193664
O O8 0.500000 0.000000 0.000000
O O9 0.583873 0.353045 0.088034
O O10 0.178237 0.035963 0.868736
O O11 0.389719 0.199142 0.074361
O O12 0.587001 0.975803 0.538597
O O13 0.719112 0.034337 0.079813
O O14 0.892069 0.580312 0.418613
O O15 0.500000 0.000000 0.500000
O O16 0.778352 0.683637 0.026189
O O17 0.115629 0.703550 0.572451
#
# Coordination Sequence:
#
# PCOD8006933 Si02
#       8
#     2   2   2   2   2   2   2   2
#     4   9  21  41  66  97 128 171 224 274 318 395
#     4  12  26  39  60 101 133 165 209 267 333 390
#     4  10  20  40  65  94 126 162 218 267 318 392
#     4  10  22  42  66  96 129 175 221 269 330 384
#     4  11  21  40  72  89 121 180 208 270 326 376
#     4  11  25  41  66  94 133 179 215 272 328 391
#     4  10  22  44  61  96 131 161 224 267 316 394
#     4   9  17  38  70  90 122 170 216 266 323 377
#
# _framework density 23.033652
#
# number of rings (size 3 to 8) (size 9 to 14) (size 15 to 20)
#    0.000    1.750    2.500    2.250    1.750    4.000 
#    6.750    0.000    0.000    0.000    0.000    0.000 
#    0.000    0.000    0.000    0.000    0.000    0.000 
#
# Total GULP energy -198267.840439 kJ/mol
# GULP energy per Si atom -12391.740027 kJ/mol
# Density = 2.298123 g / cm^3
# Si number density = 23.033652 Si / 1000 Ang^3
#
#
#
# Elastic Constant Matrix: (Units=GPa)
#
#
# Indices 1 2 3 4 5 6 
#
# 1 63.8923 25.8666 22.9762 4.7645 -13.4016 1.0603
# 2 25.8666 111.3755 20.9379 7.1042 -8.6940 10.5419
# 3 22.9762 20.9379 49.7627 3.2279 -14.7411 -7.5862
# 4 4.7645 7.1042 3.2279 27.8143 -1.2213 -3.2671
# 5 -13.4016 -8.6940 -14.7411 -1.2213 30.6219 9.1559
# 6 1.0603 10.5419 -7.5862 -3.2671 9.1559 29.7943
#
#
#
# Elastic Compliance Matrix: (Units=1/GPa)
#
#
# Indices 1 2 3 4 5 6 
#
# 1 0.020722 -0.002500 -0.007184 -0.002258 0.005933 -0.003753
# 2 -0.002500 0.011086 -0.003645 -0.002558 0.001877 -0.005619
# 3 -0.007184 -0.003645 0.028131 -0.000022 0.007443 0.006418
# 4 -0.002258 -0.002558 -0.000022 0.037579 -0.001928 0.005693
# 5 0.005933 0.001877 0.007443 -0.001928 0.043001 -0.012406
# 6 -0.003753 -0.005619 0.006418 0.005693 -0.012406 0.041756
#
#
# Mechanical properties :
#
#
# Convention : Reuss Voigt Hill
#
# Bulk Modulus (GPa) = 30.04714 40.51022 35.27868
# Shear Modulus (GPa) = 22.72458 27.99609 25.36033
#
# Velocity S-wave (km/s) = 3.14440 3.49010 3.32175
# Velocity P-wave (km/s) = 5.12408 5.81951 5.48283
#
# Compressibility (1/GPa) = 0.03328104
#
# Stress axis : x y z
#
# Youngs Moduli (GPa) = 48.25821 90.20463 35.54839
#
# Poissons Ratio (x) = 0.22548 0.25538
# Poissons Ratio (y) = 0.12063 0.12957
# Poissons Ratio (z) = 0.34669 0.32879
#
# Static dielectric constant tensor:
#      x y z
#    x -0.724560 2.034330 4.842860 
#    y 2.034330 3.607140 -2.349050 
#    z 4.842860 -2.349050 -2.007450 
# 
# 
# High freq. dielectric constant tensor:
#      x y z
#    x 1.882180 0.003070 -0.016390 
#    y 0.003070 1.919830 -0.002980 
#    z -0.016390 -0.002980 1.899870 
# 
# From -- ./inp_files/308753.got.cif
#   From: 2010.06.25/outbox.cif.g09.slc.cpg/sg2_155_cif.got.tgz:308753.got - 2010.06.27 13:26:56.
