data_PCOD8006767
_publ_section_title
;
Structure prediction by ZEFSAII (Michael W. Deem and Ramdas Pophale) SiO2 
 PCOD8006767
Probable space group: P -1
;
_chemical_formula_sum "Si O2"
_cell_formula_units_Z 16
_cell_length_a 12.286800
_cell_length_b 10.097663
_cell_length_c 16.557939
_cell_angle_alpha 46.918161
_cell_angle_beta 138.177538
_cell_angle_gamma 142.661823
_cell_volume 809.758921
_symmetry_space_group_name_H-M "P -1"
_symmetry_group_IT_number 2
_symmetry_cell_setting 'triclinic'
loop_
_space_group_symop_operation_xyz
x,y,z
-x,-y,-z
loop_
_atom_site_type_symbol
_atom_site_label
_atom_site_fract_x
_atom_site_fract_y
_atom_site_fract_z
Si Si1 0.303679 0.391793 0.209020
Si Si2 0.066439 0.457459 0.184974
Si Si3 0.495513 0.308594 0.482797
Si Si4 0.016570 0.977862 0.113411
Si Si5 0.613799 0.243144 0.998544
Si Si6 0.715649 0.126437 0.753080
Si Si7 0.419982 0.249705 0.043100
Si Si8 0.835317 0.773081 0.548690
O O1 0.203812 0.456290 0.193543
O O2 0.424470 0.303463 0.353944
O O3 0.451537 0.618955 0.144547
O O4 0.143924 0.209855 0.133850
O O5 0.186047 0.704530 0.187123
O O6 0.029628 0.286574 0.305743
O O7 0.854076 0.378430 0.063709
O O8 0.573561 0.156702 0.605350
O O9 0.674839 0.569499 0.486905
O O10 0.299856 0.197523 0.477646
O O11 0.116881 0.842959 0.229974
O O12 0.792732 0.851331 0.077646
O O13 0.000000 0.000000 0.000000
O O14 0.563533 0.233054 0.069000
O O15 0.500000 0.000000 0.000000
O O16 0.594053 0.877370 0.829047
O O17 0.500000 0.500000 0.000000
O O18 0.000000 0.000000 0.500000
#
# Coordination Sequence:
#
# PCOD8006767 Si02
#       8
#     2   2   2   2   2   2   2   2
#     4  11  22  40  58  83 127 155 194 242 302 362
#     4  10  21  37  58  89 115 158 199 240 299 350
#     4   9  21  37  59  90 118 163 198 241 304 356
#     4  10  21  40  61  78 113 163 197 235 299 356
#     4  12  23  32  56  89 119 150 191 251 293 343
#     4  10  20  40  64  82 113 156 207 237 289 374
#     4  11  22  37  59  86 114 146 199 252 295 348
#     4   9  19  35  61  86 127 159 195 247 297 359
#
# _framework density 19.758966999999998
#
# number of rings (size 3 to 8) (size 9 to 14) (size 15 to 20)
#    0.000    1.750    0.000    6.375    3.500    0.500 
#    0.000    0.000    0.000    1.500    0.000    0.000 
#    0.000    0.000    0.000    0.000    0.000    0.000 
#
# Total GULP energy -198301.891207 kJ/mol
# GULP energy per Si atom -12393.868200 kJ/mol
# Density = 1.971399 g / cm^3
# Si number density = 19.758967 Si / 1000 Ang^3
#
#
#
# Elastic Constant Matrix: (Units=GPa)
#
#
# Indices 1 2 3 4 5 6 
#
# 1 51.1697 18.0606 12.2852 -4.6946 10.3490 2.9257
# 2 18.0606 123.5001 45.0647 -11.2263 -3.4131 -2.6256
# 3 12.2852 45.0647 123.3775 -12.0382 9.9188 14.1929
# 4 -4.6946 -11.2263 -12.0382 30.6112 -1.1805 -2.8045
# 5 10.3490 -3.4131 9.9188 -1.1805 31.8669 -2.4826
# 6 2.9257 -2.6256 14.1929 -2.8045 -2.4826 34.3367
#
#
#
# Elastic Compliance Matrix: (Units=1/GPa)
#
#
# Indices 1 2 3 4 5 6 
#
# 1 0.022650 -0.003480 0.000126 0.001696 -0.007914 -0.002682
# 2 -0.003480 0.010402 -0.003908 0.002180 0.003788 0.003159
# 3 0.000126 -0.003908 0.010611 0.002162 -0.004057 -0.004812
# 4 0.001696 0.002180 0.002162 0.034778 0.000454 0.002002
# 5 -0.007914 0.003788 -0.004057 0.000454 0.036048 0.005284
# 6 -0.002682 0.003159 -0.004812 0.002002 0.005284 0.032128
#
#
# Mechanical properties :
#
#
# Convention : Reuss Voigt Hill
#
# Bulk Modulus (GPa) = 34.31838 49.87426 42.09632
# Shear Modulus (GPa) = 29.26467 34.20542 31.73505
#
# Velocity S-wave (km/s) = 3.85266 4.16520 4.01198
# Velocity P-wave (km/s) = 6.09892 6.95902 6.54312
#
# Compressibility (1/GPa) = 0.02913890
#
# Stress axis : x y z
#
# Youngs Moduli (GPa) = 44.14951 96.13436 94.24346
#
# Poissons Ratio (x) = 0.33453 -0.01186
# Poissons Ratio (y) = 0.15363 0.36832
# Poissons Ratio (z) = -0.00556 0.37571
#
# Static dielectric constant tensor:
#      x y z
#    x 3.745310 0.024920 0.293020 
#    y 0.024920 3.494200 -0.002840 
#    z 0.293020 -0.002840 3.939580 
# 
# 
# High freq. dielectric constant tensor:
#      x y z
#    x 1.765730 -0.003660 0.012010 
#    y -0.003660 1.766680 -0.004010 
#    z 0.012010 -0.004010 1.773540 
# 
# From -- ./inp_files/345822.got.cif
#   From: 2010.06.25/outbox.cif.g09.slc.cpg/sg2_173_cif.got.tgz:345822.got - 2010.06.27 13:26:56.
