data_PCOD8006296
_publ_section_title
;
Structure prediction by ZEFSAII (Michael W. Deem and Ramdas Pophale) SiO2 
 PCOD8006296
Probable space group: P -1
;
_chemical_formula_sum "Si O2"
_cell_formula_units_Z 16
_cell_length_a 10.665168
_cell_length_b 8.005367
_cell_length_c 14.465162
_cell_angle_alpha 127.920365
_cell_angle_beta 129.674033
_cell_angle_gamma 74.900952
_cell_volume 731.981104
_symmetry_space_group_name_H-M "P -1"
_symmetry_group_IT_number 2
_symmetry_cell_setting 'triclinic'
loop_
_space_group_symop_operation_xyz
x,y,z
-x,-y,-z
loop_
_atom_site_type_symbol
_atom_site_label
_atom_site_fract_x
_atom_site_fract_y
_atom_site_fract_z
Si Si1 0.224974 0.231749 0.134386
Si Si2 0.151305 0.466286 0.620672
Si Si3 0.679758 0.277193 0.676204
Si Si4 0.585451 0.808141 0.163854
Si Si5 0.145678 0.846038 0.098782
Si Si6 0.231681 0.546058 0.884034
Si Si7 0.355489 0.145266 0.584195
Si Si8 0.459092 0.829784 0.841957
O O1 0.243166 0.487487 0.251215
O O2 0.366091 0.220052 0.122999
O O3 0.241531 0.079630 0.180106
O O4 0.046098 0.140238 0.970885
O O5 0.113930 0.512177 0.725902
O O6 0.181331 0.226670 0.531242
O O7 0.331693 0.611023 0.731385
O O8 0.000000 0.500000 0.500000
O O9 0.776355 0.208022 0.786982
O O10 0.486234 0.258801 0.606094
O O11 0.693229 0.112081 0.543547
O O12 0.727541 0.687872 0.151903
O O13 0.556387 0.793484 0.254838
O O14 0.632755 0.059693 0.243813
O O15 0.409123 0.703759 0.996771
O O16 0.142141 0.646455 0.958082
O O17 0.500000 0.000000 0.000000
#
# Coordination Sequence:
#
# PCOD8006296 Si02
#       8
#     2   2   2   2   2   2   2   2
#     4  11  24  40  66  99 130 172 224 269 333 396
#     4  11  24  43  65  96 136 169 213 277 336 388
#     4  11  22  42  65  94 132 178 215 269 329 398
#     4  10  20  39  67  94 123 169 221 270 321 386
#     4  11  23  43  66  98 136 166 221 281 327 389
#     4  10  20  40  67  93 125 171 208 273 332 375
#     4  10  22  42  65  91 132 175 220 261 331 397
#     4  12  22  40  68 100 124 168 232 269 326 403
#
# _framework density 21.858485000000002
#
# number of rings (size 3 to 8) (size 9 to 14) (size 15 to 20)
#    0.000    1.250    5.000    0.375    1.750    3.000 
#    6.750    3.125    0.000    0.000    0.000    0.000 
#    0.000    0.000    0.000    0.000    0.000    0.000 
#
# Total GULP energy -198319.151273 kJ/mol
# GULP energy per Si atom -12394.946955 kJ/mol
# Density = 2.180873 g / cm^3
# Si number density = 21.858485 Si / 1000 Ang^3
#
#
#
# Elastic Constant Matrix: (Units=GPa)
#
#
# Indices 1 2 3 4 5 6 
#
# 1 74.5029 24.8619 31.9558 5.2871 0.7735 -12.3418
# 2 24.8619 97.3179 37.3553 10.0811 -13.1216 -13.5868
# 3 31.9558 37.3553 98.1968 0.6611 -11.3581 -17.8003
# 4 5.2871 10.0811 0.6611 41.4392 -3.5885 8.3706
# 5 0.7735 -13.1216 -11.3581 -3.5885 23.7542 2.3582
# 6 -12.3418 -13.5868 -17.8003 8.3706 2.3582 25.3383
#
#
#
# Elastic Compliance Matrix: (Units=1/GPa)
#
#
# Indices 1 2 3 4 5 6 
#
# 1 0.017227 -0.002319 -0.004245 -0.003134 -0.004907 0.005658
# 2 -0.002319 0.013756 -0.002972 -0.003526 0.005240 0.004836
# 3 -0.004245 -0.002972 0.014310 0.000269 0.004798 0.005857
# 4 -0.003134 -0.003526 0.000269 0.028334 0.003848 -0.012947
# 5 -0.004907 0.005240 0.004798 0.003848 0.048224 -0.001969
# 6 0.005658 0.004836 0.005857 -0.012947 -0.001969 0.053389
#
#
# Mechanical properties :
#
#
# Convention : Reuss Voigt Hill
#
# Bulk Modulus (GPa) = 38.13529 50.92929 44.53229
# Shear Modulus (GPa) = 24.62428 29.82932 27.22680
#
# Velocity S-wave (km/s) = 3.36003 3.69813 3.53313
# Velocity P-wave (km/s) = 5.70415 6.44865 6.08779
#
# Compressibility (1/GPa) = 0.02622243
#
# Stress axis : x y z
#
# Youngs Moduli (GPa) = 58.04710 72.69716 69.87918
#
# Poissons Ratio (x) = 0.16856 0.29664
# Poissons Ratio (y) = 0.13459 0.20766
# Poissons Ratio (z) = 0.24641 0.21604
#
# Static dielectric constant tensor:
#      x y z
#    x 3.762740 -0.079510 -0.094900 
#    y -0.079510 4.666520 0.128720 
#    z -0.094900 0.128720 3.810920 
# 
# 
# High freq. dielectric constant tensor:
#      x y z
#    x 1.846740 -0.015270 -0.009090 
#    y -0.015270 1.875650 0.005880 
#    z -0.009090 0.005880 1.841830 
# 
# From -- ./inp_files/513739.got.cif
#   From: 2010.06.25/outbox.cif.g09.slc.cpg/sg2_257_cif.got.tgz:513739.got - 2010.06.27 13:26:56.
