data_PCOD8006617
_publ_section_title
;
Structure prediction by ZEFSAII (Michael W. Deem and Ramdas Pophale) SiO2 
 PCOD8006617
Probable space group: P -1
;
_chemical_formula_sum "Si O2"
_cell_formula_units_Z 14
_cell_length_a 8.163600
_cell_length_b 13.058657
_cell_length_c 20.495780
_cell_angle_alpha 153.754058
_cell_angle_beta 128.886815
_cell_angle_gamma 41.991516
_cell_volume 640.846003
_symmetry_space_group_name_H-M "P -1"
_symmetry_group_IT_number 2
_symmetry_cell_setting 'triclinic'
loop_
_space_group_symop_operation_xyz
x,y,z
-x,-y,-z
loop_
_atom_site_type_symbol
_atom_site_label
_atom_site_fract_x
_atom_site_fract_y
_atom_site_fract_z
Si Si1 0.330433 0.933806 0.877701
Si Si2 0.094653 0.644383 0.727239
Si Si3 0.626741 0.126043 0.842256
Si Si4 0.418684 0.149041 0.441678
Si Si5 0.109974 0.332124 0.667553
Si Si6 0.408493 0.538127 0.425266
Si Si7 0.868252 0.457910 0.073204
O O1 0.233856 0.793697 0.823620
O O2 0.467371 0.752617 0.745997
O O3 0.500000 0.000000 0.000000
O O4 0.102871 0.221827 0.958134
O O5 0.179609 0.380964 0.552400
O O6 0.159132 0.541061 0.758582
O O7 0.795837 0.848234 0.766334
O O8 0.329910 0.287596 0.876523
O O9 0.659279 0.039623 0.724009
O O10 0.718390 0.331893 0.996022
O O11 0.514985 0.271693 0.481928
O O12 0.642555 0.966732 0.443578
O O13 0.038819 0.433990 0.782440
O O14 0.888017 0.317857 0.570114
O O15 0.500000 0.500000 0.500000
#
# Coordination Sequence:
#
# PCOD8006617 Si02
#       7
#     2   2   2   2   2   2   2
#     4  10  20  40  62  88 126 161 202 249 307 365
#     4  10  21  35  61  92 117 161 203 252 303 358
#     4   9  18  34  57  85 118 149 206 243 298 354
#     4  10  21  38  59  87 123 166 195 253 310 357
#     4  11  21  37  60  88 124 157 214 246 298 368
#     4  11  23  39  62  92 123 161 204 250 307 363
#     4   9  19  35  59  87 115 165 195 249 304 355
#
# _framework density 21.846124
#
# number of rings (size 3 to 8) (size 9 to 14) (size 15 to 20)
#    0.000    2.000    1.429    2.143    0.000    4.571 
#    2.571    1.429    0.000    9.429    0.000    0.000 
#    0.000    0.000    0.000    0.000    0.000    0.000 
#
# Total GULP energy -173505.187930 kJ/mol
# GULP energy per Si atom -12393.227709 kJ/mol
# Density = 2.179640 g / cm^3
# Si number density = 21.846124 Si / 1000 Ang^3
#
#
#
# Elastic Constant Matrix: (Units=GPa)
#
#
# Indices 1 2 3 4 5 6 
#
# 1 53.4709 41.0061 15.7247 4.0198 -5.8579 -0.2254
# 2 41.0061 168.6162 44.6392 17.0901 -9.6855 -12.9377
# 3 15.7247 44.6392 97.2173 2.6769 -7.0888 -10.5933
# 4 4.0198 17.0901 2.6769 42.9574 -13.8655 -4.1205
# 5 -5.8579 -9.6855 -7.0888 -13.8655 21.4581 -0.0160
# 6 -0.2254 -12.9377 -10.5933 -4.1205 -0.0160 26.7031
#
#
#
# Elastic Compliance Matrix: (Units=1/GPa)
#
#
# Indices 1 2 3 4 5 6 
#
# 1 0.023677 -0.005492 -0.001332 0.001171 0.004299 -0.002807
# 2 -0.005492 0.008403 -0.002631 -0.002471 -0.000170 0.002600
# 3 -0.001332 -0.002631 0.012363 0.002017 0.003839 0.003932
# 4 0.001171 -0.002471 0.002017 0.030838 0.019801 0.004384
# 5 0.004299 -0.000170 0.003839 0.019801 0.061765 0.004569
# 6 -0.002807 0.002600 0.003932 0.004384 0.004569 0.040924
#
#
# Mechanical properties :
#
#
# Convention : Reuss Voigt Hill
#
# Bulk Modulus (GPa) = 39.16841 58.00492 48.58667
# Shear Modulus (GPa) = 24.34374 32.75267 28.54821
#
# Velocity S-wave (km/s) = 3.34178 3.87621 3.61887
# Velocity P-wave (km/s) = 5.73220 6.82953 6.30479
#
# Compressibility (1/GPa) = 0.02553078
#
# Stress axis : x y z
#
# Youngs Moduli (GPa) = 42.23574 119.00528 80.88834
#
# Poissons Ratio (x) = 0.65362 0.10777
# Poissons Ratio (y) = 0.23197 0.21283
# Poissons Ratio (z) = 0.05627 0.31312
#
# Static dielectric constant tensor:
#      x y z
#    x 3.664680 -0.344610 -0.112600 
#    y -0.344610 4.289660 0.346290 
#    z -0.112600 0.346290 4.101600 
# 
# 
# High freq. dielectric constant tensor:
#      x y z
#    x 1.820290 -0.028770 0.000840 
#    y -0.028770 1.870790 0.014770 
#    z 0.000840 0.014770 1.867770 
# 
# From -- ./inp_files/175044.got.cif
#   From: 2010.06.25/outbox.cif.g09.slc.cpg/sg2_88_cif.got.tgz:175044.got - 2010.06.27 13:26:56.
