data_PCOD8006708
_publ_section_title
;
Structure prediction by ZEFSAII (Michael W. Deem and Ramdas Pophale) SiO2 
 PCOD8006708
Probable space group: P -1
;
_chemical_formula_sum "Si O2"
_cell_formula_units_Z 16
_cell_length_a 11.443284
_cell_length_b 11.082163
_cell_length_c 13.073632
_cell_angle_alpha 138.038261
_cell_angle_beta 43.710331
_cell_angle_gamma 116.619724
_cell_volume 751.543355
_symmetry_space_group_name_H-M "P -1"
_symmetry_group_IT_number 2
_symmetry_cell_setting 'triclinic'
loop_
_space_group_symop_operation_xyz
x,y,z
-x,-y,-z
loop_
_atom_site_type_symbol
_atom_site_label
_atom_site_fract_x
_atom_site_fract_y
_atom_site_fract_z
Si Si1 0.309073 0.706132 0.258582
Si Si2 0.674139 0.384925 0.278013
Si Si3 0.637883 0.170477 0.981409
Si Si4 0.483015 0.021591 0.809097
Si Si5 0.123934 0.945603 0.980477
Si Si6 0.425478 0.454263 0.856112
Si Si7 0.715898 0.717183 0.344212
Si Si8 0.015136 0.027867 0.691758
O O1 0.441997 0.818604 0.193746
O O2 0.384815 0.638475 0.279483
O O3 0.119284 0.830093 0.464111
O O4 0.302405 0.530163 0.078941
O O5 0.500000 0.500000 0.500000
O O6 0.801349 0.277232 0.215524
O O7 0.774162 0.512039 0.226166
O O8 0.628730 0.204984 0.131741
O O9 0.527455 0.033272 0.911463
O O10 0.838947 0.084931 0.774029
O O11 0.564140 0.375447 0.116321
O O12 0.278087 0.059917 0.947260
O O13 0.567983 0.826984 0.581506
O O14 0.016298 0.992508 0.181546
O O15 0.000000 0.000000 0.000000
O O16 0.354804 0.300231 0.737362
O O17 0.878499 0.812847 0.296108
#
# Coordination Sequence:
#
# PCOD8006708 Si02
#       8
#     2   2   2   2   2   2   2   2
#     4   9  20  37  61  88 118 163 197 239 305 351
#     4  10  20  40  63  90 118 164 199 243 296 357
#     4   9  21  39  62  84 122 155 205 246 290 357
#     4  10  21  39  62  88 117 164 200 236 302 367
#     4  11  25  39  60  92 127 152 197 252 301 354
#     4   9  19  35  60  87 121 157 198 246 287 366
#     4  10  21  37  66  91 115 158 208 241 301 349
#     4  10  23  39  61  92 119 156 199 255 294 345
#
# _framework density 21.289522000000002
#
# number of rings (size 3 to 8) (size 9 to 14) (size 15 to 20)
#    0.000    2.250    1.250    0.000    3.500   12.000 
#    0.000    0.000    0.000    7.500    0.000    0.000 
#    0.000    0.000    0.000    0.000    0.000    0.000 
#
# Total GULP energy -198279.407444 kJ/mol
# GULP energy per Si atom -12392.462965 kJ/mol
# Density = 2.124107 g / cm^3
# Si number density = 21.289522 Si / 1000 Ang^3
#
#
#
# Elastic Constant Matrix: (Units=GPa)
#
#
# Indices 1 2 3 4 5 6 
#
# 1 144.5248 35.1954 57.1776 8.1062 -3.7571 6.4598
# 2 35.1954 51.7163 29.7283 0.7228 -4.9123 5.5391
# 3 57.1776 29.7283 134.3250 5.5577 -3.9126 8.3547
# 4 8.1062 0.7228 5.5577 32.4069 0.8324 -3.2414
# 5 -3.7571 -4.9123 -3.9126 0.8324 32.6877 4.3523
# 6 6.4598 5.5391 8.3547 -3.2414 4.3523 35.5587
#
#
#
# Elastic Compliance Matrix: (Units=1/GPa)
#
#
# Indices 1 2 3 4 5 6 
#
# 1 0.009283 -0.004603 -0.002824 -0.001788 0.000148 -0.000487
# 2 -0.004603 0.024955 -0.003346 0.000831 0.003142 -0.002574
# 3 -0.002824 -0.003346 0.009529 -0.001002 0.000520 -0.001359
# 4 -0.001788 0.000831 -0.001002 0.031848 -0.001480 0.003515
# 5 0.000148 0.003142 0.000520 -0.001480 0.031803 -0.004666
# 6 -0.000487 -0.002574 -0.001359 0.003515 -0.004666 0.029823
#
#
# Mechanical properties :
#
#
# Convention : Reuss Voigt Hill
#
# Bulk Modulus (GPa) = 45.00566 63.86321 54.43444
# Shear Modulus (GPa) = 30.08524 34.02832 32.05678
#
# Velocity S-wave (km/s) = 3.76326 4.00229 3.88461
# Velocity P-wave (km/s) = 6.32998 7.17080 6.76347
#
# Compressibility (1/GPa) = 0.02221943
#
# Stress axis : x y z
#
# Youngs Moduli (GPa) = 107.71848 40.07213 104.94705
#
# Poissons Ratio (x) = 0.18446 0.29641
# Poissons Ratio (y) = 0.49584 0.35119
# Poissons Ratio (z) = 0.30424 0.13409
#
# Static dielectric constant tensor:
#      x y z
#    x 4.133290 -0.107930 0.194570 
#    y -0.107930 3.931980 0.217450 
#    z 0.194570 0.217450 4.040510 
# 
# 
# High freq. dielectric constant tensor:
#      x y z
#    x 1.834330 -0.012870 0.007940 
#    y -0.012870 1.832240 0.009920 
#    z 0.007940 0.009920 1.837850 
# 
# From -- ./inp_files/261597.got.cif
#   From: 2010.06.25/outbox.cif.g09.slc.cpg/sg2_131_cif.got.tgz:261597.got - 2010.06.27 13:26:56.
