data_PCOD8006795
_publ_section_title
;
Structure prediction by ZEFSAII (Michael W. Deem and Ramdas Pophale) SiO2 
 PCOD8006795
Probable space group: P -1
;
_chemical_formula_sum "Si O2"
_cell_formula_units_Z 16
_cell_length_a 24.984416
_cell_length_b 8.109814
_cell_length_c 9.150834
_cell_angle_alpha 101.461159
_cell_angle_beta 141.001062
_cell_angle_gamma 51.637645
_cell_volume 748.663515
_symmetry_space_group_name_H-M "P -1"
_symmetry_group_IT_number 2
_symmetry_cell_setting 'triclinic'
loop_
_space_group_symop_operation_xyz
x,y,z
-x,-y,-z
loop_
_atom_site_type_symbol
_atom_site_label
_atom_site_fract_x
_atom_site_fract_y
_atom_site_fract_z
Si Si1 0.818823 0.043064 0.614035
Si Si2 0.014164 0.878813 0.763243
Si Si3 0.977561 0.746551 0.175449
Si Si4 0.701240 0.492651 0.634251
Si Si5 0.610161 0.473458 0.743574
Si Si6 0.527970 0.946058 0.720884
Si Si7 0.772691 0.803346 0.292011
Si Si8 0.147496 0.097215 0.772170
O O1 0.918947 0.996176 0.718308
O O2 0.714634 0.328090 0.510927
O O3 0.739204 0.024334 0.348680
O O4 0.905918 0.821708 0.883628
O O5 0.006169 0.081101 0.726376
O O6 0.977990 0.809239 0.542885
O O7 0.162117 0.616850 0.075060
O O8 0.118703 0.452597 0.427069
O O9 0.884989 0.803456 0.113498
O O10 0.654212 0.473957 0.679512
O O11 0.598061 0.789615 0.416877
O O12 0.500000 0.500000 0.500000
O O13 0.555938 0.707784 0.770877
O O14 0.730581 0.210822 0.036476
O O15 0.500000 0.000000 0.500000
O O16 0.648719 0.873626 0.020017
O O17 0.825255 0.773368 0.237377
#
# Coordination Sequence:
#
# PCOD8006795 Si02
#       8
#     2   2   2   2   2   2   2   2
#     4  10  22  42  64  94 132 172 204 260 322 379
#     4  10  21  37  66  95 128 165 211 267 316 374
#     4  11  20  37  61  92 130 167 211 260 317 366
#     4  10  20  40  64  90 127 175 207 251 324 374
#     4  11  22  41  63  92 127 161 212 262 325 369
#     4  10  23  40  63  90 126 165 210 267 311 373
#     4  11  24  39  61  96 131 166 215 261 310 377
#     4  11  21  36  62  96 125 166 214 264 318 367
#
# _framework density 21.371417000000001
#
# number of rings (size 3 to 8) (size 9 to 14) (size 15 to 20)
#    0.000    1.500    2.500    4.875    3.500    0.500 
#    4.500    1.250    0.000    6.750    0.000    0.000 
#    0.000    0.000    0.000    0.000    0.000    0.000 
#
# Total GULP energy -198390.041607 kJ/mol
# GULP energy per Si atom -12399.377600 kJ/mol
# Density = 2.132277 g / cm^3
# Si number density = 21.371417 Si / 1000 Ang^3
#
#
#
# Elastic Constant Matrix: (Units=GPa)
#
#
# Indices 1 2 3 4 5 6 
#
# 1 70.8458 24.9449 20.4554 7.4132 4.9613 -6.1305
# 2 24.9449 105.0480 72.3703 -8.4210 22.7529 -0.9465
# 3 20.4554 72.3703 111.9647 1.9130 17.3333 6.9847
# 4 7.4132 -8.4210 1.9130 36.5845 5.1821 2.1154
# 5 4.9613 22.7529 17.3333 5.1821 31.5641 7.5288
# 6 -6.1305 -0.9465 6.9847 2.1154 7.5288 28.6097
#
#
#
# Elastic Compliance Matrix: (Units=1/GPa)
#
#
# Indices 1 2 3 4 5 6 
#
# 1 0.016435 -0.003757 -0.000795 -0.004428 0.000378 0.003820
# 2 -0.003757 0.021853 -0.012197 0.007682 -0.010969 0.005214
# 3 -0.000795 -0.012197 0.017131 -0.003437 0.001225 -0.004824
# 4 -0.004428 0.007682 -0.003437 0.031327 -0.008087 -0.000044
# 5 0.000378 -0.010969 0.001225 -0.008087 0.042871 -0.011265
# 6 0.003820 0.005214 -0.004824 -0.000044 -0.011265 0.040090
#
#
# Mechanical properties :
#
#
# Convention : Reuss Voigt Hill
#
# Bulk Modulus (GPa) = 45.62103 58.15552 51.88827
# Shear Modulus (GPa) = 23.75157 30.69083 27.22120
#
# Velocity S-wave (km/s) = 3.33734 3.79366 3.57279
# Velocity P-wave (km/s) = 6.02026 6.81616 6.43054
#
# Compressibility (1/GPa) = 0.02191972
#
# Stress axis : x y z
#
# Youngs Moduli (GPa) = 60.84544 45.75986 58.37541
#
# Poissons Ratio (x) = 0.17193 0.04642
# Poissons Ratio (y) = 0.22861 0.71201
# Poissons Ratio (z) = 0.04838 0.55814
#
# Static dielectric constant tensor:
#      x y z
#    x 3.830890 0.012650 -0.060770 
#    y 0.012650 4.275390 -0.227220 
#    z -0.060770 -0.227220 3.934860 
# 
# 
# High freq. dielectric constant tensor:
#      x y z
#    x 1.823660 0.005380 -0.001040 
#    y 0.005380 1.846720 -0.004150 
#    z -0.001040 -0.004150 1.839130 
# 
# From -- ./inp_files/352279.got.cif
#   From: 2010.06.25/outbox.cif.g09.slc.cpg/sg2_177_cif.got.tgz:352279.got - 2010.06.27 13:26:56.
