data_PCOD8006241
_publ_section_title
;
Structure prediction by ZEFSAII (Michael W. Deem and Ramdas Pophale) SiO2 
 PCOD8006241
Probable space group: P -1
;
_chemical_formula_sum "Si O2"
_cell_formula_units_Z 16
_cell_length_a 28.242580
_cell_length_b 15.908801
_cell_length_c 18.212909
_cell_angle_alpha 26.487489
_cell_angle_beta 17.714773
_cell_angle_gamma 17.259163
_cell_volume 728.953466
_symmetry_space_group_name_H-M "P -1"
_symmetry_group_IT_number 2
_symmetry_cell_setting 'triclinic'
loop_
_space_group_symop_operation_xyz
x,y,z
-x,-y,-z
loop_
_atom_site_type_symbol
_atom_site_label
_atom_site_fract_x
_atom_site_fract_y
_atom_site_fract_z
Si Si1 0.264904 0.211307 0.469279
Si Si2 0.412652 0.135293 0.600952
Si Si3 0.949563 0.232103 0.349397
Si Si4 0.912064 0.385007 0.756221
Si Si5 0.031198 0.186203 0.106229
Si Si6 0.725323 0.789145 0.032207
Si Si7 0.985529 0.169586 0.664575
Si Si8 0.409271 0.921988 0.141964
O O1 0.166134 0.514018 0.386980
O O2 0.062221 0.242776 0.721830
O O3 0.376565 0.046530 0.509822
O O4 0.449436 0.033072 0.268797
O O5 0.300436 0.443944 0.515282
O O6 0.500000 0.000000 0.500000
O O7 0.225722 0.143825 0.889683
O O8 0.918201 0.202940 0.333583
O O9 0.157219 0.187615 0.097693
O O10 0.000000 0.000000 0.500000
O O11 0.983889 0.165226 0.759958
O O12 0.000000 0.500000 0.500000
O O13 0.635381 0.616158 0.007404
O O14 0.844366 0.473738 0.108132
O O15 0.132731 0.920265 0.115824
O O16 0.755633 0.838950 0.865754
O O17 0.248175 0.934578 0.422271
O O18 0.500000 0.000000 0.000000
#
# Coordination Sequence:
#
# PCOD8006241 Si02
#       8
#     2   2   2   2   2   2   2   2
#     4  11  20  41  67  90 131 175 218 270 330 384
#     4  11  25  42  65  98 134 176 218 268 337 399
#     4  11  23  42  65  95 127 174 223 266 328 404
#     4  10  20  39  66  97 128 171 222 275 325 389
#     4  11  24  44  62  98 138 169 218 274 341 400
#     4  11  21  41  68  89 132 180 211 275 339 385
#     4  11  24  40  68 101 132 170 229 274 332 399
#     4  12  21  40  70  98 125 178 233 269 329 400
#
# _framework density 21.949275
#
# number of rings (size 3 to 8) (size 9 to 14) (size 15 to 20)
#    0.000    1.000    7.500    1.500    5.250    1.500 
#    2.250    2.500    0.000    2.250    0.000    0.000 
#    0.000    0.000    0.000    0.000    0.000    0.000 
#
# Total GULP energy -198253.196684 kJ/mol
# GULP energy per Si atom -12390.824793 kJ/mol
# Density = 2.189932 g / cm^3
# Si number density = 21.949275 Si / 1000 Ang^3
#
#
#
# Elastic Constant Matrix: (Units=GPa)
#
#
# Indices 1 2 3 4 5 6 
#
# 1 168.0561 76.5654 29.9374 2.4239 -1.0936 5.8230
# 2 76.5654 142.6321 42.5982 0.0139 -3.7920 3.2516
# 3 29.9374 42.5982 42.4276 11.4840 9.5022 -6.6334
# 4 2.4239 0.0139 11.4840 33.7094 6.6355 -4.1088
# 5 -1.0936 -3.7920 9.5022 6.6355 31.7026 8.9217
# 6 5.8230 3.2516 -6.6334 -4.1088 8.9217 38.6865
#
#
#
# Elastic Compliance Matrix: (Units=1/GPa)
#
#
# Indices 1 2 3 4 5 6 
#
# 1 0.008076 -0.003447 -0.002741 -0.000081 0.001176 -0.001676
# 2 -0.003447 0.013184 -0.013639 0.003227 0.005987 -0.003966
# 3 -0.002741 -0.013639 0.048093 -0.011231 -0.017339 0.012611
# 4 -0.000081 0.003227 -0.011231 0.034620 -0.004188 0.002458
# 5 0.001176 0.005987 -0.017339 -0.004188 0.042270 -0.013846
# 6 -0.001676 -0.003966 0.012611 0.002458 -0.013846 0.032051
#
#
# Mechanical properties :
#
#
# Convention : Reuss Voigt Hill
#
# Bulk Modulus (GPa) = 33.67222 72.36865 53.02043
# Shear Modulus (GPa) = 21.94447 34.42069 28.18258
#
# Velocity S-wave (km/s) = 3.16536 3.96434 3.58716
# Velocity P-wave (km/s) = 5.36037 7.34827 6.43159
#
# Compressibility (1/GPa) = 0.02969808
#
# Stress axis : x y z
#
# Youngs Moduli (GPa) = 123.82266 75.84846 20.79326
#
# Poissons Ratio (x) = 0.26146 0.05699
# Poissons Ratio (y) = 0.42683 0.28360
# Poissons Ratio (z) = 0.33940 1.03451
#
# Static dielectric constant tensor:
#      x y z
#    x 4.349330 0.070060 -0.187930 
#    y 0.070060 4.051570 0.044250 
#    z -0.187930 0.044250 3.784880 
# 
# 
# High freq. dielectric constant tensor:
#      x y z
#    x 1.888430 0.006740 -0.000380 
#    y 0.006740 1.849350 0.017150 
#    z -0.000380 0.017150 1.842330 
# 
# From -- ./inp_files/579880.got.cif
#   From: 2010.06.25/outbox.cif.g09.slc.cpg/sg2_290_cif.got.tgz:579880.got - 2010.06.27 13:26:56.
