data_PCOD8006249
_publ_section_title
;
Structure prediction by ZEFSAII (Michael W. Deem and Ramdas Pophale) SiO2 
 PCOD8006249
Probable space group: P -1
;
_chemical_formula_sum "Si O2"
_cell_formula_units_Z 16
_cell_length_a 9.083502
_cell_length_b 9.381235
_cell_length_c 14.877774
_cell_angle_alpha 140.602789
_cell_angle_beta 74.330061
_cell_angle_gamma 114.157793
_cell_volume 731.857611
_symmetry_space_group_name_H-M "P -1"
_symmetry_group_IT_number 2
_symmetry_cell_setting 'triclinic'
loop_
_space_group_symop_operation_xyz
x,y,z
-x,-y,-z
loop_
_atom_site_type_symbol
_atom_site_label
_atom_site_fract_x
_atom_site_fract_y
_atom_site_fract_z
Si Si1 0.322649 0.525732 0.040827
Si Si2 0.769348 0.013608 0.709770
Si Si3 0.688131 0.642498 0.390366
Si Si4 0.874163 0.739073 0.886872
Si Si5 0.909526 0.446265 0.344599
Si Si6 0.847801 0.753188 0.232895
Si Si7 0.844191 0.224798 0.421291
Si Si8 0.679293 0.614918 0.682641
O O1 0.328680 0.797861 0.184932
O O2 0.221692 0.351469 0.050232
O O3 0.500000 0.500000 0.000000
O O4 0.231215 0.453281 0.925725
O O5 0.958723 0.148229 0.762735
O O6 0.730739 0.889429 0.557871
O O7 0.698664 0.815626 0.702174
O O8 0.732370 0.445747 0.346884
O O9 0.805546 0.668659 0.299294
O O10 0.505338 0.530686 0.337186
O O11 0.753116 0.734724 0.822577
O O12 0.978651 0.566764 0.764206
O O13 0.000000 0.000000 0.000000
O O14 0.893578 0.228415 0.309603
O O15 0.992771 0.692592 0.505142
O O16 0.758330 0.951527 0.327095
O O17 0.747181 0.406555 0.539977
#
# Coordination Sequence:
#
# PCOD8006249 Si02
#       8
#     2   2   2   2   2   2   2   2
#     4  12  29  48  67 101 141 184 228 286 349 402
#     4  12  25  46  70  99 141 182 227 279 347 414
#     4  12  25  41  69 108 137 176 228 288 349 394
#     4  11  24  46  72  98 135 189 235 274 339 417
#     4  10  20  39  66  99 131 174 230 275 326 409
#     4  12  25  44  70 101 138 182 228 281 340 414
#     4  10  20  39  66  98 137 172 224 273 338 400
#     4  11  25  42  69 105 137 178 227 287 342 405
#
# _framework density 21.862176999999999
#
# number of rings (size 3 to 8) (size 9 to 14) (size 15 to 20)
#    0.000    0.750    2.500    5.625    5.250    2.500 
#    0.000    1.875    0.000    0.000    0.000    0.000 
#    0.000    0.000    0.000    0.000    0.000    0.000 
#
# Total GULP energy -198331.188573 kJ/mol
# GULP energy per Si atom -12395.699286 kJ/mol
# Density = 2.181242 g / cm^3
# Si number density = 21.862177 Si / 1000 Ang^3
#
#
#
# Elastic Constant Matrix: (Units=GPa)
#
#
# Indices 1 2 3 4 5 6 
#
# 1 131.7125 26.3238 55.7725 6.7492 0.6227 4.1117
# 2 26.3238 91.1663 47.0360 -1.4941 -9.6360 -1.5894
# 3 55.7725 47.0360 107.4726 -13.3545 10.1833 -11.7555
# 4 6.7492 -1.4941 -13.3545 31.1077 -3.1628 1.8007
# 5 0.6227 -9.6360 10.1833 -3.1628 32.1076 2.5473
# 6 4.1117 -1.5894 -11.7555 1.8007 2.5473 23.9324
#
#
#
# Elastic Compliance Matrix: (Units=1/GPa)
#
#
# Indices 1 2 3 4 5 6 
#
# 1 0.011025 0.000744 -0.007479 -0.005020 0.002314 -0.005387
# 2 0.000744 0.016026 -0.008844 -0.002169 0.007709 -0.004065
# 3 -0.007479 -0.008844 0.020129 0.008298 -0.008942 0.010912
# 4 -0.005020 -0.002169 0.008298 0.036604 0.000260 0.002013
# 5 0.002314 0.007709 -0.008942 0.000260 0.036928 -0.008228
# 6 -0.005387 -0.004065 0.010912 0.002013 -0.008228 0.048524
#
#
# Mechanical properties :
#
#
# Convention : Reuss Voigt Hill
#
# Bulk Modulus (GPa) = 62.42244 65.40177 63.91211
# Shear Modulus (GPa) = 24.30298 30.84416 27.57357
#
# Velocity S-wave (km/s) = 3.33775 3.76020 3.55525
# Velocity P-wave (km/s) = 6.59309 6.98803 6.79343
#
# Compressibility (1/GPa) = 0.01601988
#
# Stress axis : x y z
#
# Youngs Moduli (GPa) = 90.70150 62.39956 49.67978
#
# Poissons Ratio (x) = -0.04642 0.37157
# Poissons Ratio (y) = -0.06747 0.43939
# Poissons Ratio (z) = 0.67839 0.55189
#
# Static dielectric constant tensor:
#      x y z
#    x 4.064520 -0.051820 -0.078450 
#    y -0.051820 3.978500 -0.102720 
#    z -0.078450 -0.102720 4.150550 
# 
# 
# High freq. dielectric constant tensor:
#      x y z
#    x 1.864740 -0.008630 -0.000590 
#    y -0.008630 1.862980 -0.009190 
#    z -0.000590 -0.009190 1.863330 
# 
# From -- ./inp_files/495829.got.cif
#   From: 2010.06.25/outbox.cif.g09.slc.cpg/sg2_248_cif.got.tgz:495829.got - 2010.06.27 13:26:56.
