data_PCOD8006349
_publ_section_title
;
Structure prediction by ZEFSAII (Michael W. Deem and Ramdas Pophale) SiO2 
 PCOD8006349
Probable space group: P -1
;
_chemical_formula_sum "Si O2"
_cell_formula_units_Z 16
_cell_length_a 14.431795
_cell_length_b 6.135268
_cell_length_c 14.647646
_cell_angle_alpha 67.988223
_cell_angle_beta 140.081123
_cell_angle_gamma 92.903940
_cell_volume 707.837599
_symmetry_space_group_name_H-M "P -1"
_symmetry_group_IT_number 2
_symmetry_cell_setting 'triclinic'
loop_
_space_group_symop_operation_xyz
x,y,z
-x,-y,-z
loop_
_atom_site_type_symbol
_atom_site_label
_atom_site_fract_x
_atom_site_fract_y
_atom_site_fract_z
Si Si1 0.912070 0.650157 0.275168
Si Si2 0.401145 0.126179 0.281862
Si Si3 0.033449 0.054835 0.264033
Si Si4 0.344569 0.951853 0.868883
Si Si5 0.876208 0.912023 0.469911
Si Si6 0.844297 0.086782 0.811263
Si Si7 0.276046 0.521426 0.976741
Si Si8 0.374853 0.380638 0.409850
O O1 0.776371 0.597085 0.129591
O O2 0.981270 0.821116 0.243185
O O3 0.060467 0.392311 0.452066
O O4 0.819148 0.814025 0.265597
O O5 0.368721 0.328372 0.306668
O O6 0.273825 0.999308 0.206866
O O7 0.574161 0.891001 0.455196
O O8 0.395785 0.284186 0.161768
O O9 0.136787 0.047343 0.253541
O O10 0.130179 0.024065 0.436527
O O11 0.878151 0.317591 0.105432
O O12 0.364982 0.695076 0.979464
O O13 0.301637 0.940149 0.730355
O O14 0.500000 0.000000 0.000000
O O15 0.000000 0.000000 0.500000
O O16 0.786526 0.397681 0.710636
O O17 0.000000 0.000000 0.000000
O O18 0.500000 0.500000 0.500000
#
# Coordination Sequence:
#
# PCOD8006349 Si02
#       8
#     2   2   2   2   2   2   2   2
#     4  10  20  39  68  86 125 165 213 258 333 388
#     4  10  21  41  66  85 128 175 208 263 317 392
#     4  10  22  36  63 100 124 164 221 265 326 392
#     4  11  24  41  63  95 128 165 215 279 331 382
#     4  11  20  42  67  91 124 177 216 263 332 397
#     4  11  22  38  64  99 134 162 213 276 318 373
#     4  10  21  39  63  93 120 166 221 256 330 396
#     4   9  21  40  61  85 123 175 212 248 331 384
#
# _framework density 22.604056
#
# number of rings (size 3 to 8) (size 9 to 14) (size 15 to 20)
#    0.000    1.750    3.750    1.875    0.000    7.500 
#    0.000   10.000    0.000    0.000    0.000    0.000 
#    0.000    0.000    0.000    0.000    0.000    0.000 
#
# Total GULP energy -198293.110824 kJ/mol
# GULP energy per Si atom -12393.319427 kJ/mol
# Density = 2.255261 g / cm^3
# Si number density = 22.604056 Si / 1000 Ang^3
#
#
#
# Elastic Constant Matrix: (Units=GPa)
#
#
# Indices 1 2 3 4 5 6 
#
# 1 66.2965 25.3906 48.0616 -4.2118 -16.2852 0.8661
# 2 25.3906 99.1538 42.4811 -5.3409 -6.8342 2.7158
# 3 48.0616 42.4811 158.3449 3.4743 -22.1109 3.8342
# 4 -4.2118 -5.3409 3.4743 40.7079 5.0157 7.1806
# 5 -16.2852 -6.8342 -22.1109 5.0157 31.3285 0.6987
# 6 0.8661 2.7158 3.8342 7.1806 0.6987 32.9171
#
#
#
# Elastic Compliance Matrix: (Units=1/GPa)
#
#
# Indices 1 2 3 4 5 6 
#
# 1 0.021460 -0.002877 -0.004802 0.001441 0.006912 -0.000229
# 2 -0.002877 0.011941 -0.002470 0.001764 -0.000894 -0.000988
# 3 -0.004802 -0.002470 0.008996 -0.001973 0.003638 -0.000365
# 4 0.001441 0.001764 -0.001973 0.026657 -0.004399 -0.005675
# 5 0.006912 -0.000894 0.003638 -0.004399 0.038598 -0.000391
# 6 -0.000229 -0.000988 -0.000365 -0.005675 -0.000391 0.031756
#
#
# Mechanical properties :
#
#
# Convention : Reuss Voigt Hill
#
# Bulk Modulus (GPa) = 45.25520 61.74022 53.49771
# Shear Modulus (GPa) = 29.92710 34.84818 32.38764
#
# Velocity S-wave (km/s) = 3.64259 3.93068 3.78937
# Velocity P-wave (km/s) = 6.14455 6.92628 6.54710
#
# Compressibility (1/GPa) = 0.02209691
#
# Stress axis : x y z
#
# Youngs Moduli (GPa) = 46.59856 83.74680 111.16451
#
# Poissons Ratio (x) = 0.24097 0.53387
# Poissons Ratio (y) = 0.13408 0.27456
# Poissons Ratio (z) = 0.22379 0.20684
#
# Static dielectric constant tensor:
#      x y z
#    x 3.691940 0.338910 -0.224630 
#    y 0.338910 2.262990 0.744450 
#    z -0.224630 0.744450 3.873530 
# 
# 
# High freq. dielectric constant tensor:
#      x y z
#    x 1.858830 -0.000780 -0.009690 
#    y -0.000780 1.912040 0.000150 
#    z -0.009690 0.000150 1.895990 
# 
# From -- ./inp_files/39707.got.cif
#   From: 2010.06.25/outbox.cif.g09.slc.cpg/sg2_20_cif.got.tgz:39707.got - 2010.06.27 13:26:56.
