data_PCOD8006039
_publ_section_title
;
Structure prediction by ZEFSAII (Michael W. Deem and Ramdas Pophale) SiO2 
 PCOD8006039
Probable space group: P -1
;
_chemical_formula_sum "Si O2"
_cell_formula_units_Z 16
_cell_length_a 9.673753
_cell_length_b 11.806863
_cell_length_c 18.729797
_cell_angle_alpha 127.466590
_cell_angle_beta 34.930932
_cell_angle_gamma 102.102657
_cell_volume 750.247774
_symmetry_space_group_name_H-M "P -1"
_symmetry_group_IT_number 2
_symmetry_cell_setting 'triclinic'
loop_
_space_group_symop_operation_xyz
x,y,z
-x,-y,-z
loop_
_atom_site_type_symbol
_atom_site_label
_atom_site_fract_x
_atom_site_fract_y
_atom_site_fract_z
Si Si1 0.534116 0.212826 0.529407
Si Si2 0.828243 0.726387 0.970842
Si Si3 0.835824 0.310789 0.537300
Si Si4 0.751079 0.833006 0.254040
Si Si5 0.313855 0.424275 0.558862
Si Si6 0.491078 0.151480 0.248937
Si Si7 0.665324 0.169550 0.676834
Si Si8 0.282456 0.683763 0.866705
O O1 0.796655 0.216634 0.452330
O O2 0.242081 0.302809 0.744111
O O3 0.439087 0.286188 0.518579
O O4 0.691621 0.000422 0.384391
O O5 0.573696 0.717564 0.111992
O O6 0.683196 0.940258 0.110525
O O7 0.949208 0.608342 0.800146
O O8 0.152153 0.618360 0.838410
O O9 0.706025 0.297389 0.662249
O O10 0.638586 0.522381 0.677532
O O11 0.198556 0.210504 0.349211
O O12 0.482993 0.902796 0.334866
O O13 0.084750 0.733600 0.039960
O O14 0.500000 0.500000 0.500000
O O15 0.355255 0.304551 0.427912
O O16 0.727731 0.153225 0.099533
O O17 0.000000 0.000000 0.500000
#
# Coordination Sequence:
#
# PCOD8006039 Si02
#       8
#     2   2   2   2   2   2   2   2
#     4  10  21  42  62  96 127 164 222 267 321 389
#     4  11  23  41  69  96 126 181 217 265 326 394
#     4  11  23  41  66  91 134 174 205 278 334 376
#     4   9  22  38  69  89 124 175 220 267 321 390
#     4  12  24  40  68  99 131 169 226 270 318 393
#     4  12  25  44  65  98 139 170 216 275 334 380
#     4  10  20  39  64  97 131 170 216 270 340 380
#     4  11  22  41  66  94 125 175 224 261 324 395
#
# _framework density 21.326288999999999
#
# number of rings (size 3 to 8) (size 9 to 14) (size 15 to 20)
#    0.000    1.250    3.750    2.250    3.500    1.500 
#    2.250    1.250    0.000    0.000    0.000    0.000 
#    0.000    0.000    0.000    0.000    0.000    0.000 
#
# Total GULP energy -198256.641071 kJ/mol
# GULP energy per Si atom -12391.040067 kJ/mol
# Density = 2.127775 g / cm^3
# Si number density = 21.326289 Si / 1000 Ang^3
#
#
#
# Elastic Constant Matrix: (Units=GPa)
#
#
# Indices 1 2 3 4 5 6 
#
# 1 71.9478 25.0096 31.2538 -3.5993 -4.8225 0.8979
# 2 25.0096 77.0672 6.0427 -5.7125 -2.4187 -8.8859
# 3 31.2538 6.0427 77.6093 -4.6642 -0.3382 2.4476
# 4 -3.5993 -5.7125 -4.6642 36.4672 4.9531 -2.0456
# 5 -4.8225 -2.4187 -0.3382 4.9531 34.6637 4.0397
# 6 0.8979 -8.8859 2.4476 -2.0456 4.0397 30.2851
#
#
#
# Elastic Compliance Matrix: (Units=1/GPa)
#
#
# Indices 1 2 3 4 5 6 
#
# 1 0.019262 -0.005872 -0.007248 -0.000401 0.002498 -0.002069
# 2 -0.005872 0.015509 0.001142 0.002355 -0.000628 0.004875
# 3 -0.007248 0.001142 0.015822 0.001588 -0.000943 -0.000496
# 4 -0.000401 0.002355 0.001588 0.028717 -0.004340 0.003093
# 5 0.002498 -0.000628 -0.000943 -0.004340 0.030289 -0.004516
# 6 -0.002069 0.004875 -0.000496 0.003093 -0.004516 0.035363
#
#
# Mechanical properties :
#
#
# Convention : Reuss Voigt Hill
#
# Bulk Modulus (GPa) = 37.54180 39.02627 38.28404
# Shear Modulus (GPa) = 28.12222 31.23775 29.67999
#
# Velocity S-wave (km/s) = 3.63528 3.83136 3.73461
# Velocity P-wave (km/s) = 5.93819 6.15725 6.04871
#
# Compressibility (1/GPa) = 0.02663697
#
# Stress axis : x y z
#
# Youngs Moduli (GPa) = 51.91653 64.47998 63.20439
#
# Poissons Ratio (x) = 0.37865 0.45808
# Poissons Ratio (y) = 0.30487 -0.07220
# Poissons Ratio (z) = 0.37627 -0.07366
#
# Static dielectric constant tensor:
#      x y z
#    x 3.799630 -0.108320 0.187650 
#    y -0.108320 4.181350 -0.246460 
#    z 0.187650 -0.246460 4.031100 
# 
# 
# High freq. dielectric constant tensor:
#      x y z
#    x 1.816900 -0.008350 0.003250 
#    y -0.008350 1.860060 -0.010760 
#    z 0.003250 -0.010760 1.830030 
# 
# From -- ./inp_files/347199.got.cif
#   From: 2010.06.25/outbox.cif.g09.slc.cpg/sg2_174_cif.got.tgz:347199.got - 2010.06.27 13:26:56.
