data_PCOD8006414
_publ_section_title
;
Structure prediction by ZEFSAII (Michael W. Deem and Ramdas Pophale) SiO2 
 PCOD8006414
Probable space group: P -1
;
_chemical_formula_sum "Si O2"
_cell_formula_units_Z 16
_cell_length_a 9.850412
_cell_length_b 13.677821
_cell_length_c 9.348887
_cell_angle_alpha 83.658986
_cell_angle_beta 113.214007
_cell_angle_gamma 50.359496
_cell_volume 766.062010
_symmetry_space_group_name_H-M "P -1"
_symmetry_group_IT_number 2
_symmetry_cell_setting 'triclinic'
loop_
_space_group_symop_operation_xyz
x,y,z
-x,-y,-z
loop_
_atom_site_type_symbol
_atom_site_label
_atom_site_fract_x
_atom_site_fract_y
_atom_site_fract_z
Si Si1 0.180703 0.830669 0.638333
Si Si2 0.825763 0.392500 0.933773
Si Si3 0.206115 0.875496 0.943319
Si Si4 0.529181 0.593940 0.292598
Si Si5 0.436360 0.342118 0.392146
Si Si6 0.157680 0.069719 0.076401
Si Si7 0.073087 0.665609 0.684295
Si Si8 0.425534 0.131577 0.535856
O O1 0.301878 0.811055 0.835093
O O2 0.346667 0.735006 0.592775
O O3 0.067426 0.783889 0.633463
O O4 0.000000 0.000000 0.500000
O O5 0.610674 0.433231 0.801034
O O6 0.781032 0.518330 0.814184
O O7 0.846730 0.397363 0.111168
O O8 0.050940 0.231243 0.991131
O O9 0.986172 0.917745 0.866226
O O10 0.396181 0.754622 0.155352
O O11 0.141633 0.021262 0.924920
O O12 0.563812 0.592777 0.475056
O O13 0.767417 0.470489 0.336271
O O14 0.441170 0.223036 0.434499
O O15 0.413237 0.946394 0.248312
O O16 0.826780 0.749820 0.536773
O O17 0.500000 0.000000 0.500000
#
# Coordination Sequence:
#
# PCOD8006414 Si02
#       8
#     2   2   2   2   2   2   2   2
#     4  12  24  39  67 103 128 170 228 280 323 386
#     4  11  22  41  69 101 133 170 222 278 326 388
#     4  10  20  39  69  96 131 171 230 265 330 391
#     4  11  22  41  69  99 130 172 224 280 324 387
#     4  12  26  41  69 103 133 169 228 279 329 381
#     4  10  20  39  69  94 126 179 219 266 324 394
#     4  12  24  42  68  93 140 179 214 268 341 399
#     4  12  24  46  66  96 135 182 219 264 335 408
#
# _framework density 20.886037999999999
#
# number of rings (size 3 to 8) (size 9 to 14) (size 15 to 20)
#    0.000    0.750    6.250    3.000    3.500    1.000 
#    0.000    0.000    0.000    2.250    0.000    0.000 
#    0.000    0.000    0.000    0.000    0.000    0.000 
#
# Total GULP energy -198385.525346 kJ/mol
# GULP energy per Si atom -12399.095334 kJ/mol
# Density = 2.083850 g / cm^3
# Si number density = 20.886038 Si / 1000 Ang^3
#
#
#
# Elastic Constant Matrix: (Units=GPa)
#
#
# Indices 1 2 3 4 5 6 
#
# 1 56.9824 26.1793 51.3712 -9.6497 8.1315 -5.1571
# 2 26.1793 118.4125 57.1868 -0.2488 3.0323 -14.5493
# 3 51.3712 57.1868 122.5718 -15.5512 -0.0376 -12.3412
# 4 -9.6497 -0.2488 -15.5512 42.2153 1.9297 -7.7440
# 5 8.1315 3.0323 -0.0376 1.9297 28.1857 -7.4452
# 6 -5.1571 -14.5493 -12.3412 -7.7440 -7.4452 36.8316
#
#
#
# Elastic Compliance Matrix: (Units=1/GPa)
#
#
# Indices 1 2 3 4 5 6 
#
# 1 0.030634 -0.000770 -0.012298 0.002625 -0.009340 -0.001472
# 2 -0.000770 0.011266 -0.004884 -0.001466 -0.000278 0.002342
# 3 -0.012298 -0.004884 0.016416 0.003646 0.004793 0.003585
# 4 0.002625 -0.001466 0.003646 0.026849 -0.000713 0.006511
# 5 -0.009340 -0.000278 0.004793 -0.000713 0.040427 0.008211
# 6 -0.001472 0.002342 0.003585 0.006511 0.008211 0.032099
#
#
# Mechanical properties :
#
#
# Convention : Reuss Voigt Hill
#
# Bulk Modulus (GPa) = 44.61719 63.04906 53.83312
# Shear Modulus (GPa) = 24.86748 32.32850 28.59799
#
# Velocity S-wave (km/s) = 3.45429 3.93854 3.70434
# Velocity P-wave (km/s) = 6.10885 7.13691 6.64280
#
# Compressibility (1/GPa) = 0.02241289
#
# Stress axis : x y z
#
# Youngs Moduli (GPa) = 32.64357 88.76600 60.91499
#
# Poissons Ratio (x) = 0.06831 0.74913
# Poissons Ratio (y) = 0.02512 0.29750
# Poissons Ratio (z) = 0.40145 0.43352
#
# Static dielectric constant tensor:
#      x y z
#    x 3.599430 0.050080 -0.100310 
#    y 0.050080 3.326420 -0.171440 
#    z -0.100310 -0.171440 3.981950 
# 
# 
# High freq. dielectric constant tensor:
#      x y z
#    x 1.779310 0.008780 -0.003580 
#    y 0.008780 1.844080 -0.008900 
#    z -0.003580 -0.008900 1.821680 
# 
# From -- ./inp_files/207016.got.cif
#   From: 2010.06.25/outbox.cif.g09.slc.cpg/sg2_104_cif.got.tgz:207016.got - 2010.06.27 13:26:56.
