data_PCOD8006319
_publ_section_title
;
Structure prediction by ZEFSAII (Michael W. Deem and Ramdas Pophale) SiO2 
 PCOD8006319
Probable space group: P -1
;
_chemical_formula_sum "Si O2"
_cell_formula_units_Z 8
_cell_length_a 10.669534
_cell_length_b 13.294413
_cell_length_c 7.491860
_cell_angle_alpha 119.002893
_cell_angle_beta 84.166454
_cell_angle_gamma 148.494605
_cell_volume 355.175569
_symmetry_space_group_name_H-M "P -1"
_symmetry_group_IT_number 2
_symmetry_cell_setting 'triclinic'
loop_
_space_group_symop_operation_xyz
x,y,z
-x,-y,-z
loop_
_atom_site_type_symbol
_atom_site_label
_atom_site_fract_x
_atom_site_fract_y
_atom_site_fract_z
Si Si1 0.682809 0.946688 0.660409
Si Si2 0.421485 0.722878 0.892637
Si Si3 0.771971 0.236759 0.438752
Si Si4 0.565153 0.421120 0.912190
O O1 0.520254 0.771464 0.719818
O O2 0.497354 0.901626 0.560645
O O3 0.658003 0.819691 0.418820
O O4 0.060050 0.293213 0.941104
O O5 0.022065 0.395354 0.686091
O O6 0.541948 0.725214 0.010341
O O7 0.584445 0.981156 0.137553
O O8 0.000000 0.500000 0.500000
O O9 0.500000 0.500000 0.000000
#
# Coordination Sequence:
#
# PCOD8006319 Si02
#       4
#     2   2   2   2
#     4  11  23  42  65  90 127 162 199 261 312 356
#     4  11  23  41  66  94 126 160 199 257 315 365
#     4  10  20  39  67  97 123 154 201 253 319 380
#     4  12  27  42  61  92 124 168 220 245 289 372
#
# _framework density 22.524070999999999
#
# number of rings (size 3 to 8) (size 9 to 14) (size 15 to 20)
#    0.000    1.000    0.000    9.750    0.000    8.000 
#    0.000    0.000    0.000    0.000    0.000    0.000 
#    0.000    0.000    0.000    0.000    0.000    0.000 
#
# Total GULP energy -99232.811521 kJ/mol
# GULP energy per Si atom -12404.101440 kJ/mol
# Density = 2.247280 g / cm^3
# Si number density = 22.524071 Si / 1000 Ang^3
#
#
#
# Elastic Constant Matrix: (Units=GPa)
#
#
# Indices 1 2 3 4 5 6 
#
# 1 101.8269 25.8804 17.4652 -14.5083 -13.5365 -13.4213
# 2 25.8804 64.3979 13.0163 -15.1749 7.2555 -11.0303
# 3 17.4652 13.0163 108.7853 -19.8015 1.7830 -7.0306
# 4 -14.5083 -15.1749 -19.8015 32.7677 13.9441 9.2037
# 5 -13.5365 7.2555 1.7830 13.9441 32.6206 7.5041
# 6 -13.4213 -11.0303 -7.0306 9.2037 7.5041 28.7747
#
#
#
# Elastic Compliance Matrix: (Units=1/GPa)
#
#
# Indices 1 2 3 4 5 6 
#
# 1 0.012400 -0.005343 -0.001554 -0.001263 0.006483 0.002069
# 2 -0.005343 0.023408 0.001206 0.013750 -0.014802 0.006238
# 3 -0.001554 0.001206 0.011008 0.008511 -0.005409 0.001115
# 4 -0.001263 0.013750 0.008511 0.053593 -0.026137 -0.003564
# 5 0.006483 -0.014802 -0.005409 -0.026137 0.050102 -0.008678
# 6 0.002069 0.006238 0.001115 -0.003564 -0.008678 0.041785
#
#
# Mechanical properties :
#
#
# Convention : Reuss Voigt Hill
#
# Bulk Modulus (GPa) = 28.22195 43.08154 35.65174
# Shear Modulus (GPa) = 23.20310 33.40915 28.30612
#
# Velocity S-wave (km/s) = 3.21307 3.85550 3.54885
# Velocity P-wave (km/s) = 5.13050 6.24405 5.71446
#
# Compressibility (1/GPa) = 0.03543341
#
# Stress axis : x y z
#
# Youngs Moduli (GPa) = 80.64813 42.72006 90.84695
#
# Poissons Ratio (x) = 0.22824 0.14116
# Poissons Ratio (y) = 0.43087 -0.10952
# Poissons Ratio (z) = 0.12532 -0.05150
#
# Static dielectric constant tensor:
#      x y z
#    x 4.241470 -0.001940 0.490960 
#    y -0.001940 3.955340 0.151610 
#    z 0.490960 0.151610 4.359320 
# 
# 
# High freq. dielectric constant tensor:
#      x y z
#    x 1.878400 -0.005830 0.010460 
#    y -0.005830 1.890160 0.008330 
#    z 0.010460 0.008330 1.906430 
# 
# From -- ./inp_files/214.got.cif
#   From: 2010.06.25/outbox.cif.g09.slc.cpg/sg2_1_cif.got.tgz:214.got - 2010.06.27 13:26:56.
