data_PCOD8006976
_publ_section_title
;
Structure prediction by ZEFSAII (Michael W. Deem and Ramdas Pophale) SiO2 
 PCOD8006976
Probable space group: P -1
;
_chemical_formula_sum "Si O2"
_cell_formula_units_Z 14
_cell_length_a 12.969815
_cell_length_b 7.415822
_cell_length_c 8.700217
_cell_angle_alpha 88.259720
_cell_angle_beta 129.690914
_cell_angle_gamma 99.442766
_cell_volume 632.136206
_symmetry_space_group_name_H-M "P -1"
_symmetry_group_IT_number 2
_symmetry_cell_setting 'triclinic'
loop_
_space_group_symop_operation_xyz
x,y,z
-x,-y,-z
loop_
_atom_site_type_symbol
_atom_site_label
_atom_site_fract_x
_atom_site_fract_y
_atom_site_fract_z
Si Si1 0.076415 0.983007 0.913917
Si Si2 0.839738 0.000093 0.449687
Si Si3 0.186858 0.405968 0.633601
Si Si4 0.896919 0.323049 0.252591
Si Si5 0.433119 0.098841 0.637169
Si Si6 0.530482 0.519790 0.205726
Si Si7 0.377392 0.168062 0.231598
O O1 0.116154 0.779370 0.924438
O O2 0.977526 0.017972 0.680447
O O3 0.216485 0.130107 0.044503
O O4 0.000000 0.000000 0.000000
O O5 0.857551 0.167216 0.347323
O O6 0.813162 0.809833 0.331070
O O7 0.710982 0.007981 0.434009
O O8 0.195650 0.521919 0.802021
O O9 0.308445 0.486844 0.628649
O O10 0.051999 0.431447 0.413404
O O11 0.498132 0.282988 0.781062
O O12 0.408104 0.153016 0.439076
O O13 0.545186 0.973767 0.777241
O O14 0.438044 0.371314 0.226941
O O15 0.500000 0.500000 0.000000
#
# Coordination Sequence:
#
# PCOD8006976 Si02
#       7
#     2   2   2   2   2   2   2
#     4  11  22  38  63  94 119 156 206 255 303 362
#     4  10  20  40  66  88 118 161 202 249 309 359
#     4   9  20  38  57  91 118 155 199 245 302 359
#     4  10  21  37  67  84 122 158 200 253 305 361
#     4  10  23  44  64  87 125 171 204 244 310 373
#     4  11  25  38  64  94 124 156 209 257 302 366
#     4  11  24  42  64  88 128 167 202 252 308 366
#
# _framework density 22.147126
#
# number of rings (size 3 to 8) (size 9 to 14) (size 15 to 20)
#    0.000    1.714    1.429    3.000    8.000    0.571 
#    0.000    0.000    0.000   14.571    0.000    0.000 
#    0.000    0.000    0.000    0.000    0.000    0.000 
#
# Total GULP energy -173496.106867 kJ/mol
# GULP energy per Si atom -12392.579062 kJ/mol
# Density = 2.209672 g / cm^3
# Si number density = 22.147126 Si / 1000 Ang^3
#
#
#
# Elastic Constant Matrix: (Units=GPa)
#
#
# Indices 1 2 3 4 5 6 
#
# 1 133.9322 45.4065 22.7555 11.2346 12.5068 12.3200
# 2 45.4065 77.6379 37.3731 12.9185 6.4865 5.1299
# 3 22.7555 37.3731 56.3634 15.7798 2.9321 7.3600
# 4 11.2346 12.9185 15.7798 30.8359 0.1404 -1.3911
# 5 12.5068 6.4865 2.9321 0.1404 39.2810 16.0855
# 6 12.3200 5.1299 7.3600 -1.3911 16.0855 39.1466
#
#
#
# Elastic Compliance Matrix: (Units=1/GPa)
#
#
# Indices 1 2 3 4 5 6 
#
# 1 0.009643 -0.005325 0.000395 -0.001562 -0.001448 -0.001872
# 2 -0.005325 0.022159 -0.012438 -0.000889 -0.001772 0.001807
# 3 0.000395 -0.012438 0.029239 -0.010135 0.001880 -0.005124
# 4 -0.001562 -0.000889 -0.010135 0.038742 -0.000398 0.004054
# 5 -0.001448 -0.001772 0.001880 -0.000398 0.031189 -0.012495
# 6 -0.001872 0.001807 -0.005124 0.004054 -0.012495 0.032139
#
#
# Mechanical properties :
#
#
# Convention : Reuss Voigt Hill
#
# Bulk Modulus (GPa) = 38.01697 53.22264 45.61980
# Shear Modulus (GPa) = 24.19949 32.67926 28.43937
#
# Velocity S-wave (km/s) = 3.30914 3.84546 3.58734
# Velocity P-wave (km/s) = 5.63946 6.61818 6.14832
#
# Compressibility (1/GPa) = 0.02630404
#
# Stress axis : x y z
#
# Youngs Moduli (GPa) = 103.69936 45.12914 34.20132
#
# Poissons Ratio (x) = 0.24033 -0.01351
# Poissons Ratio (y) = 0.55224 0.42539
# Poissons Ratio (z) = -0.04096 0.56131
#
# Static dielectric constant tensor:
#      x y z
#    x 4.648030 -0.400720 0.033970 
#    y -0.400720 3.924780 0.432050 
#    z 0.033970 0.432050 3.950970 
# 
# 
# High freq. dielectric constant tensor:
#      x y z
#    x 1.902670 -0.008940 0.011320 
#    y -0.008940 1.861790 0.032090 
#    z 0.011320 0.032090 1.853240 
# 
# From -- ./inp_files/235421.got.cif
#   From: 2010.06.25/outbox.cif.g09.slc.cpg/sg2_118_cif.got.tgz:235421.got - 2010.06.27 13:26:56.
