data_PCOD8006485
_publ_section_title
;
Structure prediction by ZEFSAII (Michael W. Deem and Ramdas Pophale) SiO2 
 PCOD8006485
Probable space group: P -1
;
_chemical_formula_sum "Si O2"
_cell_formula_units_Z 14
_cell_length_a 13.180406
_cell_length_b 9.563365
_cell_length_c 28.404954
_cell_angle_alpha 144.439564
_cell_angle_beta 20.157948
_cell_angle_gamma 144.261353
_cell_volume 696.656497
_symmetry_space_group_name_H-M "P -1"
_symmetry_group_IT_number 2
_symmetry_cell_setting 'triclinic'
loop_
_space_group_symop_operation_xyz
x,y,z
-x,-y,-z
loop_
_atom_site_type_symbol
_atom_site_label
_atom_site_fract_x
_atom_site_fract_y
_atom_site_fract_z
Si Si1 0.596177 0.230110 0.292671
Si Si2 0.117492 0.545060 0.097202
Si Si3 0.766496 0.504009 0.421222
Si Si4 0.757855 0.504913 0.146423
Si Si5 0.797887 0.015585 0.238670
Si Si6 0.470248 0.032929 0.917491
Si Si7 0.424573 0.777809 0.178245
O O1 0.327817 0.376171 0.456889
O O2 0.625388 0.068835 0.281708
O O3 0.910658 0.427258 0.199287
O O4 0.519149 0.052362 0.233054
O O5 0.275698 0.831847 0.118762
O O6 0.912379 0.532578 0.137456
O O7 0.373205 0.394237 0.934580
O O8 0.500000 0.500000 0.500000
O O9 0.793234 0.220480 0.337355
O O10 0.075074 0.668135 0.311082
O O11 0.624782 0.745928 0.260607
O O12 0.499383 0.246739 0.184146
O O13 0.000000 0.500000 0.000000
O O14 0.143139 0.022043 0.078356
O O15 0.516314 0.203414 0.897887
#
# Coordination Sequence:
#
# PCOD8006485 Si02
#       7
#     2   2   2   2   2   2   2
#     4  11  22  38  64  91 121 161 202 249 303 352
#     4  12  22  38  66  94 119 158 203 254 300 354
#     4  10  22  38  59  87 122 163 200 248 301 359
#     4  10  23  38  57  93 129 155 195 253 303 361
#     4  10  20  40  57  88 127 157 199 249 301 359
#     4  11  20  36  62  90 123 154 202 249 303 345
#     4  12  20  37  64  93 122 151 210 257 294 352
#
# _framework density 20.095987000000001
#
# number of rings (size 3 to 8) (size 9 to 14) (size 15 to 20)
#    0.000    1.143    4.286    4.714    0.000    2.286 
#    2.571    0.714    0.000    4.286    0.000    0.000 
#    0.000    0.000    0.000    0.000    0.000    0.000 
#
# Total GULP energy -173559.242551 kJ/mol
# GULP energy per Si atom -12397.088754 kJ/mol
# Density = 2.005025 g / cm^3
# Si number density = 20.095987 Si / 1000 Ang^3
#
#
#
# Elastic Constant Matrix: (Units=GPa)
#
#
# Indices 1 2 3 4 5 6 
#
# 1 71.0335 41.4571 20.1039 10.0524 8.0379 7.8857
# 2 41.4571 157.9970 58.7130 17.0154 1.1312 23.0492
# 3 20.1039 58.7130 96.6755 1.9453 2.2200 0.4693
# 4 10.0524 17.0154 1.9453 26.1347 4.7446 2.7119
# 5 8.0379 1.1312 2.2200 4.7446 14.4469 3.4306
# 6 7.8857 23.0492 0.4693 2.7119 3.4306 32.4273
#
#
#
# Elastic Compliance Matrix: (Units=1/GPa)
#
#
# Indices 1 2 3 4 5 6 
#
# 1 0.018084 -0.003897 -0.001140 -0.002728 -0.008572 -0.000476
# 2 -0.003897 0.011152 -0.005947 -0.005630 0.005726 -0.007028
# 3 -0.001140 -0.005947 0.014177 0.003388 -0.003226 0.004357
# 4 -0.002728 -0.005630 0.003388 0.045007 -0.013895 0.002322
# 5 -0.008572 0.005726 -0.003226 -0.013895 0.080814 -0.009327
# 6 -0.000476 -0.007028 0.004357 0.002322 -0.009327 0.036679
#
#
# Mechanical properties :
#
#
# Convention : Reuss Voigt Hill
#
# Bulk Modulus (GPa) = 46.62803 62.91712 54.77257
# Shear Modulus (GPa) = 21.27404 28.29725 24.78564
#
# Velocity S-wave (km/s) = 3.25718 3.75654 3.51574
# Velocity P-wave (km/s) = 6.11544 7.08461 6.61779
#
# Compressibility (1/GPa) = 0.02144633
#
# Stress axis : x y z
#
# Youngs Moduli (GPa) = 55.29858 89.66908 70.53575
#
# Poissons Ratio (x) = 0.34942 0.08041
# Poissons Ratio (y) = 0.21548 0.41945
# Poissons Ratio (z) = 0.06304 0.53323
#
# Static dielectric constant tensor:
#      x y z
#    x 3.374650 0.325940 0.212030 
#    y 0.325940 4.245680 0.507360 
#    z 0.212030 0.507360 3.951000 
# 
# 
# High freq. dielectric constant tensor:
#      x y z
#    x 1.768110 0.017510 0.014990 
#    y 0.017510 1.803270 0.007630 
#    z 0.014990 0.007630 1.764970 
# 
# From -- ./inp_files/153811.got.cif
#   From: 2010.06.25/outbox.cif.g09.slc.cpg/sg2_77_cif.got.tgz:153811.got - 2010.06.27 13:26:56.
