data_PCOD8006422
_publ_section_title
;
Structure prediction by ZEFSAII (Michael W. Deem and Ramdas Pophale) SiO2 
 PCOD8006422
Probable space group: P -1
;
_chemical_formula_sum "Si O2"
_cell_formula_units_Z 16
_cell_length_a 8.011524
_cell_length_b 10.130172
_cell_length_c 12.052287
_cell_angle_alpha 67.826347
_cell_angle_beta 57.671325
_cell_angle_gamma 94.716655
_cell_volume 713.184264
_symmetry_space_group_name_H-M "P -1"
_symmetry_group_IT_number 2
_symmetry_cell_setting 'triclinic'
loop_
_space_group_symop_operation_xyz
x,y,z
-x,-y,-z
loop_
_atom_site_type_symbol
_atom_site_label
_atom_site_fract_x
_atom_site_fract_y
_atom_site_fract_z
Si Si1 0.496278 0.316330 0.630251
Si Si2 0.824105 0.873223 0.033573
Si Si3 0.643756 0.634214 0.562536
Si Si4 0.078057 0.685067 0.903517
Si Si5 0.848186 0.110751 0.396778
Si Si6 0.798994 0.981096 0.778250
Si Si7 0.913455 0.273624 0.534465
Si Si8 0.541052 0.834370 0.713930
O O1 0.378807 0.181829 0.798313
O O2 0.476537 0.467544 0.643560
O O3 0.367865 0.269718 0.574232
O O4 0.748256 0.346685 0.522102
O O5 0.737257 0.939942 0.939611
O O6 0.900105 0.738217 0.005254
O O7 0.000000 0.000000 0.000000
O O8 0.568002 0.697963 0.676830
O O9 0.872583 0.618952 0.513540
O O10 0.144756 0.751469 0.732569
O O11 0.297682 0.773838 0.860226
O O12 0.000000 0.500000 0.000000
O O13 0.982432 0.191973 0.432051
O O14 0.955734 0.003071 0.333699
O O15 0.617714 0.994133 0.563004
O O16 0.660094 0.852820 0.782844
O O17 0.783587 0.144987 0.710238
#
# Coordination Sequence:
#
# PCOD8006422 Si02
#       8
#     2   2   2   2   2   2   2   2
#     4  11  26  40  62  95 137 179 213 267 338 408
#     4  11  26  45  63  91 138 182 215 262 336 411
#     4  11  22  43  66  98 132 166 223 283 333 384
#     4  11  25  43  64  99 135 174 222 274 334 396
#     4  10  20  39  69  97 122 163 223 281 327 381
#     4  10  21  41  65  97 124 162 222 282 319 389
#     4  11  20  40  68  97 127 164 225 273 332 387
#     4  11  20  40  73  95 121 169 225 286 323 377
#
# _framework density 22.434593
#
# number of rings (size 3 to 8) (size 9 to 14) (size 15 to 20)
#    0.000    1.250    2.500    3.750    5.250    1.500 
#    4.500    1.875    0.000    0.000    0.000    0.000 
#    0.000    0.000    0.000    0.000    0.000    0.000 
#
# Total GULP energy -198225.535683 kJ/mol
# GULP energy per Si atom -12389.095980 kJ/mol
# Density = 2.238353 g / cm^3
# Si number density = 22.434593 Si / 1000 Ang^3
#
#
#
# Elastic Constant Matrix: (Units=GPa)
#
#
# Indices 1 2 3 4 5 6 
#
# 1 97.3973 6.2276 20.7681 -0.1322 6.3782 20.1590
# 2 6.2276 64.2392 -1.4870 -7.0422 14.2262 24.0435
# 3 20.7681 -1.4870 78.9336 -5.4757 10.9672 13.2098
# 4 -0.1322 -7.0422 -5.4757 28.5528 3.1329 6.4034
# 5 6.3782 14.2262 10.9672 3.1329 37.5835 0.9888
# 6 20.1590 24.0435 13.2098 6.4034 0.9888 33.8339
#
#
#
# Elastic Compliance Matrix: (Units=1/GPa)
#
#
# Indices 1 2 3 4 5 6 
#
# 1 0.012586 0.003842 -0.000760 0.003590 -0.003391 -0.010513
# 2 0.003842 0.033247 0.008642 0.018949 -0.016486 -0.032394
# 3 -0.000760 0.008642 0.017221 0.009504 -0.008592 -0.013960
# 4 0.003590 0.018949 0.009504 0.049401 -0.013930 -0.028258
# 5 -0.003391 -0.016486 -0.008592 -0.013930 0.036601 0.018657
# 6 -0.010513 -0.032394 -0.013960 -0.028258 0.018657 0.069093
#
#
# Mechanical properties :
#
#
# Convention : Reuss Voigt Hill
#
# Bulk Modulus (GPa) = 11.56046 32.39861 21.97953
# Shear Modulus (GPa) = 22.36778 34.33146 28.34962
#
# Velocity S-wave (km/s) = 3.16099 3.91614 3.55865
# Velocity P-wave (km/s) = 4.29961 5.90939 5.16757
#
# Compressibility (1/GPa) = 0.08650177
#
# Stress axis : x y z
#
# Youngs Moduli (GPa) = 79.45042 30.07796 58.06899
#
# Poissons Ratio (x) = -0.11555 0.04411
# Poissons Ratio (y) = -0.30521 -0.50182
# Poissons Ratio (z) = 0.06035 -0.25993
#
# Static dielectric constant tensor:
#      x y z
#    x 4.180070 0.087240 0.113770 
#    y 0.087240 3.927490 0.021640 
#    z 0.113770 0.021640 3.939650 
# 
# 
# High freq. dielectric constant tensor:
#      x y z
#    x 1.890140 0.010750 0.003860 
#    y 0.010750 1.883650 0.004130 
#    z 0.003860 0.004130 1.865080 
# 
# From -- ./inp_files/389722.got.cif
#   From: 2010.06.25/outbox.cif.g09.slc.cpg/sg2_195_cif.got.tgz:389722.got - 2010.06.27 13:26:56.
