data_PCOD8006372
_publ_section_title
;
Structure prediction by ZEFSAII (Michael W. Deem and Ramdas Pophale) SiO2 
 PCOD8006372
Probable space group: P -1
;
_chemical_formula_sum "Si O2"
_cell_formula_units_Z 16
_cell_length_a 12.183528
_cell_length_b 9.884645
_cell_length_c 11.786401
_cell_angle_alpha 143.256225
_cell_angle_beta 69.309906
_cell_angle_gamma 123.194492
_cell_volume 700.176065
_symmetry_space_group_name_H-M "P -1"
_symmetry_group_IT_number 2
_symmetry_cell_setting 'triclinic'
loop_
_space_group_symop_operation_xyz
x,y,z
-x,-y,-z
loop_
_atom_site_type_symbol
_atom_site_label
_atom_site_fract_x
_atom_site_fract_y
_atom_site_fract_z
Si Si1 0.012252 0.541572 0.283589
Si Si2 0.205206 0.282889 0.515275
Si Si3 0.590423 0.670312 0.349975
Si Si4 0.373106 0.728569 0.586291
Si Si5 0.134604 0.941289 0.126701
Si Si6 0.983902 0.157544 0.215383
Si Si7 0.587584 0.917517 0.990463
Si Si8 0.762027 0.093709 0.416224
O O1 0.162090 0.770034 0.400670
O O2 0.915306 0.660458 0.375133
O O3 0.987843 0.413498 0.333425
O O4 0.988580 0.334740 0.052427
O O5 0.281832 0.322276 0.631088
O O6 0.307184 0.469424 0.509041
O O7 0.152951 0.989008 0.288522
O O8 0.520637 0.787725 0.536163
O O9 0.479686 0.383975 0.169999
O O10 0.637308 0.827390 0.321100
O O11 0.287595 0.722079 0.502783
O O12 0.391654 0.967397 0.815328
O O13 0.266072 0.967222 0.038106
O O14 0.104569 0.179532 0.265457
O O15 0.850719 0.023706 0.250322
O O16 0.000000 0.000000 0.000000
O O17 0.500000 0.000000 0.000000
#
# Coordination Sequence:
#
# PCOD8006372 Si02
#       8
#     2   2   2   2   2   2   2   2
#     4  11  22  41  68  98 128 172 228 280 324 399
#     4  12  21  42  71  95 129 178 234 273 326 396
#     4  12  28  43  65 100 143 178 218 282 341 394
#     4  12  23  45  69  98 131 184 229 269 328 413
#     4  11  21  37  69 102 121 170 235 280 317 386
#     4  10  20  39  68  96 125 169 227 269 326 397
#     4  12  23  43  72 100 131 175 235 277 324 402
#     4  12  25  45  65 102 144 173 215 286 347 391
#
# _framework density 22.851396999999999
#
# number of rings (size 3 to 8) (size 9 to 14) (size 15 to 20)
#    0.000    0.500    6.250    3.375    0.000    1.000 
#    4.500    0.625    0.000    0.000    0.000    0.000 
#    0.000    0.000    0.000    0.000    0.000    0.000 
#
# Total GULP energy -198304.223439 kJ/mol
# GULP energy per Si atom -12394.013965 kJ/mol
# Density = 2.279939 g / cm^3
# Si number density = 22.851397 Si / 1000 Ang^3
#
#
#
# Elastic Constant Matrix: (Units=GPa)
#
#
# Indices 1 2 3 4 5 6 
#
# 1 106.7170 -9.7495 3.5999 -1.5328 -11.5702 6.4140
# 2 -9.7495 46.3351 -1.7590 7.9841 -9.0207 -1.8163
# 3 3.5999 -1.7590 108.7336 -2.8386 11.8624 3.6253
# 4 -1.5328 7.9841 -2.8386 22.8556 3.5156 0.5055
# 5 -11.5702 -9.0207 11.8624 3.5156 41.8505 -3.2493
# 6 6.4140 -1.8163 3.6253 0.5055 -3.2493 20.3094
#
#
#
# Elastic Compliance Matrix: (Units=1/GPa)
#
#
# Indices 1 2 3 4 5 6 
#
# 1 0.010155 0.002858 -0.000619 -0.000882 0.003498 -0.002259
# 2 0.002858 0.025481 -0.000875 -0.010055 0.007608 0.003000
# 3 -0.000619 -0.000875 0.009708 0.002050 -0.003456 -0.002220
# 4 -0.000882 -0.010055 0.002050 0.048665 -0.007342 -0.003373
# 5 0.003498 0.007608 -0.003456 -0.007342 0.028481 0.004932
# 6 -0.002259 0.003000 -0.002220 -0.003373 0.004932 0.051489
#
#
# Mechanical properties :
#
#
# Convention : Reuss Voigt Hill
#
# Bulk Modulus (GPa) = 20.80268 27.32983 24.06626
# Shear Modulus (GPa) = 26.69861 34.98271 30.84066
#
# Velocity S-wave (km/s) = 3.42183 3.91689 3.67770
# Velocity P-wave (km/s) = 4.97344 5.69577 5.34682
#
# Compressibility (1/GPa) = 0.04807072
#
# Stress axis : x y z
#
# Youngs Moduli (GPa) = 98.47489 39.24439 103.01103
#
# Poissons Ratio (x) = -0.11214 0.06379
# Poissons Ratio (y) = -0.28140 0.09013
# Poissons Ratio (z) = 0.06098 0.03434
#
# Static dielectric constant tensor:
#      x y z
#    x 4.622840 -0.126380 0.137850 
#    y -0.126380 3.828100 0.014760 
#    z 0.137850 0.014760 4.315110 
# 
# 
# High freq. dielectric constant tensor:
#      x y z
#    x 1.923300 0.002190 0.002070 
#    y 0.002190 1.867300 -0.004870 
#    z 0.002070 -0.004870 1.910920 
# 
# From -- ./inp_files/519367.got.cif
#   From: 2010.06.25/outbox.cif.g09.slc.cpg/sg2_260_cif.got.tgz:519367.got - 2010.06.27 13:26:56.
