data_PCOD8006780
_publ_section_title
;
Structure prediction by ZEFSAII (Michael W. Deem and Ramdas Pophale) SiO2 
 PCOD8006780
Probable space group: P -1
;
_chemical_formula_sum "Si O2"
_cell_formula_units_Z 14
_cell_length_a 11.258261
_cell_length_b 10.831592
_cell_length_c 8.066518
_cell_angle_alpha 70.675864
_cell_angle_beta 67.664632
_cell_angle_gamma 115.384326
_cell_volume 663.145363
_symmetry_space_group_name_H-M "P -1"
_symmetry_group_IT_number 2
_symmetry_cell_setting 'triclinic'
loop_
_space_group_symop_operation_xyz
x,y,z
-x,-y,-z
loop_
_atom_site_type_symbol
_atom_site_label
_atom_site_fract_x
_atom_site_fract_y
_atom_site_fract_z
Si Si1 0.930417 0.770092 0.250111
Si Si2 0.584673 0.443256 0.587725
Si Si3 0.425785 0.843685 0.321903
Si Si4 0.046932 0.120250 0.170866
Si Si5 0.611994 0.687973 0.925970
Si Si6 0.268213 0.993327 0.420674
Si Si7 0.250526 0.877257 0.137841
O O1 0.759586 0.608377 0.492318
O O2 0.070918 0.747050 0.203634
O O3 0.894416 0.770487 0.075667
O O4 0.990366 0.937526 0.238908
O O5 0.500000 0.500000 0.500000
O O6 0.610379 0.326417 0.516683
O O7 0.469065 0.319978 0.854077
O O8 0.362268 0.916812 0.449539
O O9 0.327971 0.796379 0.216494
O O10 0.623170 0.987380 0.128150
O O11 0.890077 0.096291 0.338708
O O12 0.195512 0.226334 0.178669
O O13 0.500000 0.500000 0.000000
O O14 0.610874 0.800483 0.733218
O O15 0.219310 0.961483 0.265448
#
# Coordination Sequence:
#
# PCOD8006780 Si02
#       7
#     2   2   2   2   2   2   2
#     4  11  23  37  65  90 128 167 199 258 311 369
#     4  12  23  40  63  95 126 159 205 261 315 366
#     4   9  19  40  66  86 127 159 212 254 300 380
#     4  11  22  40  58  96 127 161 208 250 315 371
#     4  12  23  38  64  93 126 160 211 263 300 359
#     4  10  20  40  64  88 122 164 209 255 300 367
#     4   9  18  39  66  86 117 164 210 245 299 370
#
# _framework density 21.111508000000001
#
# number of rings (size 3 to 8) (size 9 to 14) (size 15 to 20)
#    0.857    0.571    4.286    1.286    4.000    0.571 
#    0.000    2.857    3.143    0.000    0.000    0.000 
#    0.000    0.000    0.000    0.000    0.000    0.000 
#
# Total GULP energy -173449.999873 kJ/mol
# GULP energy per Si atom -12389.285705 kJ/mol
# Density = 2.106346 g / cm^3
# Si number density = 21.111508 Si / 1000 Ang^3
#
#
#
# Elastic Constant Matrix: (Units=GPa)
#
#
# Indices 1 2 3 4 5 6 
#
# 1 119.9334 45.3565 29.3393 -20.4384 -14.8436 -9.4389
# 2 45.3565 81.9964 26.1294 -15.4466 -5.6280 -12.3619
# 3 29.3393 26.1294 82.8879 -10.5785 -25.4750 -12.5376
# 4 -20.4384 -15.4466 -10.5785 33.7504 -4.4877 -3.3699
# 5 -14.8436 -5.6280 -25.4750 -4.4877 30.7846 -8.1169
# 6 -9.4389 -12.3619 -12.5376 -3.3699 -8.1169 33.1132
#
#
#
# Elastic Compliance Matrix: (Units=1/GPa)
#
#
# Indices 1 2 3 4 5 6 
#
# 1 0.012557 -0.004526 0.001653 0.007831 0.009205 0.005569
# 2 -0.004526 0.017209 -0.001818 0.005324 0.001658 0.005394
# 3 0.001653 -0.001818 0.024826 0.013335 0.027512 0.017294
# 4 0.007831 0.005324 0.013335 0.046818 0.028128 0.020928
# 5 0.009205 0.001658 0.027512 0.028128 0.073179 0.034460
# 6 0.005569 0.005394 0.017294 0.020928 0.034460 0.050925
#
#
# Mechanical properties :
#
#
# Convention : Reuss Voigt Hill
#
# Bulk Modulus (GPa) = 22.11919 54.05202 38.08560
# Shear Modulus (GPa) = 20.00270 31.79582 25.89926
#
# Velocity S-wave (km/s) = 3.08145 3.88505 3.50635
# Velocity P-wave (km/s) = 4.81254 6.76635 5.87129
#
# Compressibility (1/GPa) = 0.04520961
#
# Stress axis : x y z
#
# Youngs Moduli (GPa) = 79.63385 58.11047 40.28048
#
# Poissons Ratio (x) = 0.26303 -0.06658
# Poissons Ratio (y) = 0.36045 0.07322
# Poissons Ratio (z) = -0.13163 0.10563
#
# Static dielectric constant tensor:
#      x y z
#    x 3.789640 -0.106590 -0.166020 
#    y -0.106590 3.501520 -0.063110 
#    z -0.166020 -0.063110 3.762930 
# 
# 
# High freq. dielectric constant tensor:
#      x y z
#    x 1.830930 -0.008860 -0.015300 
#    y -0.008860 1.795510 -0.007940 
#    z -0.015300 -0.007940 1.822800 
# 
# From -- ./inp_files/252462.got.cif
#   From: 2010.06.25/outbox.cif.g09.slc.cpg/sg2_127_cif.got.tgz:252462.got - 2010.06.27 13:26:56.
