data_PCOD8006857
_publ_section_title
;
Structure prediction by ZEFSAII (Michael W. Deem and Ramdas Pophale) SiO2 
 PCOD8006857
Probable space group: P -1
;
_chemical_formula_sum "Si O2"
_cell_formula_units_Z 14
_cell_length_a 8.531559
_cell_length_b 17.394430
_cell_length_c 8.580497
_cell_angle_alpha 136.193556
_cell_angle_beta 109.801983
_cell_angle_gamma 51.578133
_cell_volume 676.298269
_symmetry_space_group_name_H-M "P -1"
_symmetry_group_IT_number 2
_symmetry_cell_setting 'triclinic'
loop_
_space_group_symop_operation_xyz
x,y,z
-x,-y,-z
loop_
_atom_site_type_symbol
_atom_site_label
_atom_site_fract_x
_atom_site_fract_y
_atom_site_fract_z
Si Si1 0.008884 0.619246 0.742556
Si Si2 0.404937 0.141544 0.095174
Si Si3 0.463540 0.518908 0.697736
Si Si4 0.350532 0.767088 0.523590
Si Si5 0.918691 0.970236 0.580056
Si Si6 0.762817 0.788904 0.175544
Si Si7 0.466380 0.753921 0.184317
O O1 0.226729 0.590012 0.754836
O O2 0.000000 0.500000 0.500000
O O3 0.835966 0.755782 0.788903
O O4 0.946337 0.648046 0.947763
O O5 0.522353 0.207318 0.277700
O O6 0.417219 0.122063 0.883597
O O7 0.500000 0.000000 0.000000
O O8 0.500000 0.500000 0.500000
O O9 0.607015 0.376454 0.627308
O O10 0.524042 0.615172 0.924095
O O11 0.421376 0.760743 0.361644
O O12 0.110013 0.888697 0.644207
O O13 0.845713 0.873861 0.384167
O O14 0.726888 0.118410 0.788248
O O15 0.000000 0.000000 0.500000
O O16 0.664045 0.757534 0.237756
#
# Coordination Sequence:
#
# PCOD8006857 Si02
#       7
#     2   2   2   2   2   2   2
#     4  10  20  40  65  84 128 166 208 255 322 366
#     4  10  21  38  67  91 125 163 216 257 315 374
#     4  12  24  45  63  93 128 172 214 265 319 385
#     4  11  23  42  64  98 127 164 218 266 317 377
#     4  10  21  40  65  94 132 167 206 263 324 368
#     4  10  22  42  65  93 131 168 211 258 323 381
#     4  11  23  40  68  91 130 170 210 267 321 379
#
# _framework density 20.700925000000002
#
# number of rings (size 3 to 8) (size 9 to 14) (size 15 to 20)
#    0.857    0.571    1.429    6.000    2.000    0.000 
#    5.143    2.857    0.000    0.000    0.000    0.000 
#    0.000    0.000    0.000    0.000    0.000    0.000 
#
# Total GULP energy -173501.321767 kJ/mol
# GULP energy per Si atom -12392.951555 kJ/mol
# Density = 2.065381 g / cm^3
# Si number density = 20.700925 Si / 1000 Ang^3
#
#
#
# Elastic Constant Matrix: (Units=GPa)
#
#
# Indices 1 2 3 4 5 6 
#
# 1 113.1722 33.8520 7.5126 7.0975 3.8484 4.8803
# 2 33.8520 105.4328 4.8484 16.2093 -2.2331 -10.3234
# 3 7.5126 4.8484 40.8900 11.0712 11.9612 8.8961
# 4 7.0975 16.2093 11.0712 42.1698 -0.3826 2.2651
# 5 3.8484 -2.2331 11.9612 -0.3826 39.5317 0.3932
# 6 4.8803 -10.3234 8.8961 2.2651 0.3932 33.0128
#
#
#
# Elastic Compliance Matrix: (Units=1/GPa)
#
#
# Indices 1 2 3 4 5 6 
#
# 1 0.010046 -0.003436 -0.000615 -0.000089 -0.000963 -0.002376
# 2 -0.003436 0.011724 -0.001099 -0.003882 0.001245 0.004722
# 3 -0.000615 -0.001099 0.031188 -0.007316 -0.009430 -0.008043
# 4 -0.000089 -0.003882 -0.007316 0.027223 0.002278 -0.001124
# 5 -0.000963 0.001245 -0.009430 0.002278 0.028310 0.002579
# 6 -0.002376 0.004722 -0.008043 -0.001124 0.002579 0.034333
#
#
# Mechanical properties :
#
#
# Convention : Reuss Voigt Hill
#
# Bulk Modulus (GPa) = 23.44326 39.10232 31.27279
# Shear Modulus (GPa) = 29.87860 37.16166 33.52013
#
# Velocity S-wave (km/s) = 3.80326 4.24154 4.02837
# Velocity P-wave (km/s) = 5.53495 6.55116 6.06438
#
# Compressibility (1/GPa) = 0.04265619
#
# Stress axis : x y z
#
# Youngs Moduli (GPa) = 99.54533 85.29400 32.06342
#
# Poissons Ratio (x) = 0.29311 0.01973
# Poissons Ratio (y) = 0.34208 0.03524
# Poissons Ratio (z) = 0.06125 0.09376
#
# Static dielectric constant tensor:
#      x y z
#    x 3.754100 -0.345220 -0.010530 
#    y -0.345220 3.939320 0.166990 
#    z -0.010530 0.166990 3.878450 
# 
# 
# High freq. dielectric constant tensor:
#      x y z
#    x 1.812810 -0.010610 0.010720 
#    y -0.010610 1.803880 0.015530 
#    z 0.010720 0.015530 1.813310 
# 
# From -- ./inp_files/216181.got.cif
#   From: 2010.06.25/outbox.cif.g09.slc.cpg/sg2_109_cif.got.tgz:216181.got - 2010.06.27 13:26:56.
