data_PCOD8006476
_publ_section_title
;
Structure prediction by ZEFSAII (Michael W. Deem and Ramdas Pophale) SiO2 
 PCOD8006476
Probable space group: P -1
;
_chemical_formula_sum "Si O2"
_cell_formula_units_Z 16
_cell_length_a 15.421206
_cell_length_b 5.429557
_cell_length_c 10.993645
_cell_angle_alpha 79.966510
_cell_angle_beta 48.227858
_cell_angle_gamma 67.110671
_cell_volume 627.607419
_symmetry_space_group_name_H-M "P -1"
_symmetry_group_IT_number 2
_symmetry_cell_setting 'triclinic'
loop_
_space_group_symop_operation_xyz
x,y,z
-x,-y,-z
loop_
_atom_site_type_symbol
_atom_site_label
_atom_site_fract_x
_atom_site_fract_y
_atom_site_fract_z
Si Si1 0.696437 0.470653 0.034801
Si Si2 0.087362 0.588902 0.781604
Si Si3 0.483609 0.821230 0.357964
Si Si4 0.376722 0.387149 0.509415
Si Si5 0.314827 0.206381 0.210820
Si Si6 0.971241 0.189005 0.878449
Si Si7 0.074388 0.395813 0.561525
Si Si8 0.562635 0.226374 0.035947
O O1 0.606994 0.745773 0.161345
O O2 0.617828 0.272930 0.111241
O O3 0.725362 0.532759 0.863417
O O4 0.820350 0.319183 0.010211
O O5 0.234495 0.469190 0.681643
O O6 0.063977 0.628140 0.652400
O O7 0.023375 0.373767 0.899718
O O8 0.025474 0.870963 0.891402
O O9 0.396397 0.653210 0.412751
O O10 0.529431 0.722480 0.458101
O O11 0.407892 0.145036 0.402091
O O12 0.218558 0.242614 0.405986
O O13 0.450750 0.110724 0.159749
O O14 0.320484 0.963724 0.137213
O O15 0.021816 0.188074 0.693233
O O16 0.000000 0.500000 0.500000
O O17 0.500000 0.500000 0.000000
#
# Coordination Sequence:
#
# PCOD8006476 Si02
#       8
#     2   2   2   2   2   2   2   2
#     4  11  23  37  60  89 126 161 206 257 315 369
#     4  10  23  41  64  88 126 165 210 263 298 366
#     4  10  24  40  73  95 125 159 199 265 320 380
#     4  10  22  47  66  99 122 156 210 255 324 381
#     4  10  20  40  54  87 121 163 213 248 309 365
#     4  10  24  39  60  91 122 170 211 247 306 362
#     4  10  22  38  59  86 122 173 210 254 291 358
#     4   9  22  35  55  83 123 161 202 259 307 366
#
# _framework density 25.493642999999999
#
# number of rings (size 3 to 8) (size 9 to 14) (size 15 to 20)
#    0.750    1.250    1.250    0.750    7.000    4.500 
#    0.000    1.250    0.000    0.000    0.000    0.000 
#    0.000    0.000    0.000    0.000    0.000    0.000 
#
# Total GULP energy -198268.198408 kJ/mol
# GULP energy per Si atom -12391.762401 kJ/mol
# Density = 2.543562 g / cm^3
# Si number density = 25.493643 Si / 1000 Ang^3
#
#
#
# Elastic Constant Matrix: (Units=GPa)
#
#
# Indices 1 2 3 4 5 6 
#
# 1 79.6912 46.0956 48.6307 20.8076 -21.6854 27.6623
# 2 46.0956 129.9679 57.4007 27.9051 -8.7054 29.6215
# 3 48.6307 57.4007 122.1468 33.4732 -10.0707 22.1600
# 4 20.8076 27.9051 33.4732 48.4475 -1.5368 8.0802
# 5 -21.6854 -8.7054 -10.0707 -1.5368 51.5366 2.4810
# 6 27.6623 29.6215 22.1600 8.0802 2.4810 38.0273
#
#
#
# Elastic Compliance Matrix: (Units=1/GPa)
#
#
# Indices 1 2 3 4 5 6 
#
# 1 0.025028 -0.002303 -0.004606 -0.003663 0.009787 -0.013588
# 2 -0.002303 0.011557 -0.002733 -0.002899 0.000611 -0.005158
# 3 -0.004606 -0.002733 0.012902 -0.005206 0.000011 -0.000933
# 4 -0.003663 -0.002899 -0.005206 0.027011 -0.002357 0.002371
# 5 0.009787 0.000611 0.000011 -0.002357 0.023974 -0.008665
# 6 -0.013588 -0.005158 -0.000933 0.002371 -0.008665 0.040804
#
#
# Mechanical properties :
#
#
# Convention : Reuss Voigt Hill
#
# Bulk Modulus (GPa) = 33.11099 70.67331 51.89215
# Shear Modulus (GPa) = 29.30336 39.58090 34.44213
#
# Velocity S-wave (km/s) = 3.39401 3.94455 3.67959
# Velocity P-wave (km/s) = 5.32684 6.96621 6.20094
#
# Compressibility (1/GPa) = 0.03020145
#
# Stress axis : x y z
#
# Youngs Moduli (GPa) = 39.95548 86.52468 77.50744
#
# Poissons Ratio (x) = 0.19930 0.35700
# Poissons Ratio (y) = 0.09203 0.21186
# Poissons Ratio (z) = 0.18404 0.23651
#
# Static dielectric constant tensor:
#      x y z
#    x 4.772780 0.525880 -0.043440 
#    y 0.525880 4.765490 -0.076780 
#    z -0.043440 -0.076780 4.708780 
# 
# 
# High freq. dielectric constant tensor:
#      x y z
#    x 2.021900 0.006230 0.016070 
#    y 0.006230 2.011420 -0.002230 
#    z 0.016070 -0.002230 2.028660 
# 
# From -- ./inp_files/536189.got.cif
#   From: 2010.06.25/outbox.cif.g09.slc.cpg/sg2_269_cif.got.tgz:536189.got - 2010.06.27 13:26:56.
