data_PCOD8006283
_publ_section_title
;
Structure prediction by ZEFSAII (Michael W. Deem and Ramdas Pophale) SiO2 
 PCOD8006283
Probable space group: P -1
;
_chemical_formula_sum "Si O2"
_cell_formula_units_Z 16
_cell_length_a 26.405653
_cell_length_b 9.668112
_cell_length_c 8.675784
_cell_angle_alpha 75.318455
_cell_angle_beta 42.275021
_cell_angle_gamma 43.387678
_cell_volume 806.884559
_symmetry_space_group_name_H-M "P -1"
_symmetry_group_IT_number 2
_symmetry_cell_setting 'triclinic'
loop_
_space_group_symop_operation_xyz
x,y,z
-x,-y,-z
loop_
_atom_site_type_symbol
_atom_site_label
_atom_site_fract_x
_atom_site_fract_y
_atom_site_fract_z
Si Si1 0.218414 0.648628 0.164068
Si Si2 0.835891 0.984189 0.236503
Si Si3 0.771930 0.057098 0.860076
Si Si4 0.737028 0.901378 0.246728
Si Si5 0.987540 0.311509 0.796236
Si Si6 0.527771 0.817639 0.093199
Si Si7 0.048883 0.920038 0.181607
Si Si8 0.382142 0.595650 0.173151
O O1 0.251897 0.763528 0.034207
O O2 0.151729 0.695102 0.143630
O O3 0.350717 0.351823 0.007294
O O4 0.106582 0.820046 0.498738
O O5 0.720725 0.261853 0.495332
O O6 0.781337 0.939113 0.271352
O O7 0.916990 0.970517 0.959471
O O8 0.929105 0.770040 0.219509
O O9 0.679542 0.209363 0.875888
O O10 0.927305 0.793524 0.524778
O O11 0.714547 0.020926 0.104594
O O12 0.604414 0.024159 0.561354
O O13 0.850836 0.611852 0.025293
O O14 0.949666 0.201153 0.922826
O O15 0.572729 0.628811 0.923203
O O16 0.500000 0.000000 0.000000
O O17 0.500000 0.500000 0.000000
#
# Coordination Sequence:
#
# PCOD8006283 Si02
#       8
#     2   2   2   2   2   2   2   2
#     4   9  20  41  64  91 122 165 211 254 302 369
#     4  11  22  38  66  93 119 166 214 252 304 369
#     4   9  20  40  63  88 124 159 207 254 299 365
#     4  12  23  40  63  94 126 167 200 254 317 369
#     4  10  23  38  59  98 129 157 202 261 314 358
#     4  11  26  42  61  91 133 165 202 254 320 371
#     4  10  20  39  67  90 120 165 214 256 301 361
#     4  10  21  42  62  89 120 160 207 254 302 364
#
# _framework density 19.829357000000002
#
# number of rings (size 3 to 8) (size 9 to 14) (size 15 to 20)
#    0.000    1.750    2.500    1.875    3.500    3.000 
#    2.250    0.625    0.000    0.000    0.000    0.000 
#    0.000    0.000    0.000    0.000    0.000    0.000 
#
# Total GULP energy -198276.484154 kJ/mol
# GULP energy per Si atom -12392.280260 kJ/mol
# Density = 1.978422 g / cm^3
# Si number density = 19.829357 Si / 1000 Ang^3
#
#
#
# Elastic Constant Matrix: (Units=GPa)
#
#
# Indices 1 2 3 4 5 6 
#
# 1 81.3125 19.4189 27.3536 6.2783 -8.6784 -4.9312
# 2 19.4189 107.3411 68.7510 0.0347 -7.5134 0.4743
# 3 27.3536 68.7510 109.1383 3.2863 -10.8569 1.0895
# 4 6.2783 0.0347 3.2863 33.1982 1.3248 -3.3228
# 5 -8.6784 -7.5134 -10.8569 1.3248 32.4641 4.6649
# 6 -4.9312 0.4743 1.0895 -3.3228 4.6649 16.6911
#
#
#
# Elastic Compliance Matrix: (Units=1/GPa)
#
#
# Indices 1 2 3 4 5 6 
#
# 1 0.014012 -0.000511 -0.002934 -0.002120 0.002260 0.003292
# 2 -0.000511 0.015671 -0.009762 0.001062 0.000152 0.000210
# 3 -0.002934 -0.009762 0.016407 -0.001451 0.002899 -0.002760
# 4 -0.002120 0.001062 -0.001451 0.031441 -0.003030 0.006544
# 5 0.002260 0.000152 0.002899 -0.003030 0.033916 -0.009608
# 6 0.003292 0.000210 -0.002760 0.006544 -0.009608 0.065047
#
#
# Mechanical properties :
#
#
# Convention : Reuss Voigt Hill
#
# Bulk Modulus (GPa) = 50.82744 58.75988 54.79366
# Shear Modulus (GPa) = 23.86993 28.62191 26.24592
#
# Velocity S-wave (km/s) = 3.47330 3.80335 3.64206
# Velocity P-wave (km/s) = 6.46321 6.99888 6.73638
#
# Compressibility (1/GPa) = 0.01967441
#
# Stress axis : x y z
#
# Youngs Moduli (GPa) = 71.36837 63.81313 60.94776
#
# Poissons Ratio (x) = 0.03263 0.17882
# Poissons Ratio (y) = 0.03650 0.59500
# Poissons Ratio (z) = 0.20939 0.62298
#
# Static dielectric constant tensor:
#      x y z
#    x 3.652860 -0.181210 -0.025790 
#    y -0.181210 3.357220 0.104570 
#    z -0.025790 0.104570 3.733210 
# 
# 
# High freq. dielectric constant tensor:
#      x y z
#    x 1.779160 -0.007140 -0.004810 
#    y -0.007140 1.760080 0.002210 
#    z -0.004810 0.002210 1.778140 
# 
# From -- ./inp_files/273879.got.cif
#   From: 2010.06.25/outbox.cif.g09.slc.cpg/sg2_137_cif.got.tgz:273879.got - 2010.06.27 13:26:56.
