data_PCOD8006651
_publ_section_title
;
Structure prediction by ZEFSAII (Michael W. Deem and Ramdas Pophale) SiO2 
 PCOD8006651
Probable space group: P -1
;
_chemical_formula_sum "Si O2"
_cell_formula_units_Z 16
_cell_length_a 14.967867
_cell_length_b 14.347673
_cell_length_c 11.310810
_cell_angle_alpha 130.363655
_cell_angle_beta 28.427487
_cell_angle_gamma 136.626604
_cell_volume 793.852371
_symmetry_space_group_name_H-M "P -1"
_symmetry_group_IT_number 2
_symmetry_cell_setting 'triclinic'
loop_
_space_group_symop_operation_xyz
x,y,z
-x,-y,-z
loop_
_atom_site_type_symbol
_atom_site_label
_atom_site_fract_x
_atom_site_fract_y
_atom_site_fract_z
Si Si1 0.588861 0.900485 0.434247
Si Si2 0.302524 0.799834 0.478049
Si Si3 0.276396 0.711489 0.176494
Si Si4 0.118379 0.852032 0.304687
Si Si5 0.750759 0.279991 0.164792
Si Si6 0.666058 0.727735 0.376001
Si Si7 0.052125 0.407922 0.120695
Si Si8 0.283110 0.159885 0.339523
O O1 0.509687 0.831586 0.341095
O O2 0.376032 0.858997 0.726093
O O3 0.730435 0.838653 0.284809
O O4 0.718342 0.061015 0.405430
O O5 0.331382 0.736748 0.270627
O O6 0.092687 0.696955 0.700247
O O7 0.168021 0.807279 0.337839
O O8 0.114612 0.556773 0.218855
O O9 0.485643 0.739722 0.884857
O O10 0.880272 0.830413 0.556115
O O11 0.270428 0.009212 0.233905
O O12 0.158705 0.755135 0.085743
O O13 0.586382 0.341836 0.372803
O O14 0.933824 0.391709 0.120519
O O15 0.772308 0.802464 0.435546
O O16 0.742591 0.615279 0.159925
#
# Coordination Sequence:
#
# PCOD8006651 Si02
#       8
#     2   2   2   2   2   2   2   2
#     4   8  18  36  67  86 110 152 199 255 289 337
#     4  10  20  41  60  89 115 161 203 241 297 345
#     4  12  24  40  60  87 128 163 190 241 301 358
#     4  11  22  40  63  94 118 152 196 250 307 350
#     4   9  19  39  61  87 121 155 192 253 292 347
#     4  10  20  40  62  92 115 157 196 252 297 344
#     4  11  24  39  60  85 124 163 206 235 284 363
#     4  11  23  39  65  94 118 147 200 254 299 358
#
# _framework density 20.154879999999999
#
# number of rings (size 3 to 8) (size 9 to 14) (size 15 to 20)
#    0.750    1.000    2.500    2.250    0.000    2.500 
#    2.250    0.625    0.000    0.000    0.000    0.000 
#    0.000    0.000    0.000    0.000    0.000    0.000 
#
# Total GULP energy -198359.648485 kJ/mol
# GULP energy per Si atom -12397.478030 kJ/mol
# Density = 2.010901 g / cm^3
# Si number density = 20.154880 Si / 1000 Ang^3
#
#
#
# Elastic Constant Matrix: (Units=GPa)
#
#
# Indices 1 2 3 4 5 6 
#
# 1 81.4664 9.0444 31.6522 1.0056 11.1302 9.8608
# 2 9.0444 82.3962 28.5977 -1.1135 -0.3591 17.6674
# 3 31.6522 28.5977 70.8258 6.2179 -5.1468 0.2010
# 4 1.0056 -1.1135 6.2179 18.0174 6.7435 -0.2544
# 5 11.1302 -0.3591 -5.1468 6.7435 32.2188 8.9510
# 6 9.8608 17.6674 0.2010 -0.2544 8.9510 16.7045
#
#
#
# Elastic Compliance Matrix: (Units=1/GPa)
#
#
# Indices 1 2 3 4 5 6 
#
# 1 0.018083 0.004335 -0.010625 0.004832 -0.005550 -0.012084
# 2 0.004335 0.021027 -0.010308 0.002762 0.003942 -0.026745
# 3 -0.010625 -0.010308 0.024333 -0.010440 0.005854 0.013585
# 4 0.004832 0.002762 -0.010440 0.066047 -0.018611 0.005331
# 5 -0.005550 0.003942 0.005854 -0.018611 0.044853 -0.025281
# 6 -0.012084 -0.026745 0.013585 0.005331 -0.025281 0.108748
#
#
# Mechanical properties :
#
#
# Convention : Reuss Voigt Hill
#
# Bulk Modulus (GPa) = 33.06026 41.47524 37.26775
# Shear Modulus (GPa) = 15.32007 24.41440 19.86724
#
# Velocity S-wave (km/s) = 2.76001 3.48421 3.14304
# Velocity P-wave (km/s) = 5.15709 6.06706 5.63049
#
# Compressibility (1/GPa) = 0.03024779
#
# Stress axis : x y z
#
# Youngs Moduli (GPa) = 55.30018 47.55734 41.09672
#
# Poissons Ratio (x) = -0.20615 0.43665
# Poissons Ratio (y) = -0.23972 0.42361
# Poissons Ratio (z) = 0.58756 0.49020
#
# Static dielectric constant tensor:
#      x y z
#    x 3.930730 0.026240 -0.015210 
#    y 0.026240 3.420570 -0.017450 
#    z -0.015210 -0.017450 3.293890 
# 
# 
# High freq. dielectric constant tensor:
#      x y z
#    x 1.803250 0.007040 -0.000180 
#    y 0.007040 1.777010 -0.000460 
#    z -0.000180 -0.000460 1.760890 
# 
# From -- ./inp_files/455046.got.cif
#   From: 2010.06.25/outbox.cif.g09.slc.cpg/sg2_228_cif.got.tgz:455046.got - 2010.06.27 13:26:56.
