data_PCOD8006232
_publ_section_title
;
Structure prediction by ZEFSAII (Michael W. Deem and Ramdas Pophale) SiO2 
 PCOD8006232
Probable space group: P -1
;
_chemical_formula_sum "Si O2"
_cell_formula_units_Z 16
_cell_length_a 10.851085
_cell_length_b 13.676344
_cell_length_c 18.653086
_cell_angle_alpha 150.286134
_cell_angle_beta 38.340880
_cell_angle_gamma 148.255493
_cell_volume 710.710739
_symmetry_space_group_name_H-M "P -1"
_symmetry_group_IT_number 2
_symmetry_cell_setting 'triclinic'
loop_
_space_group_symop_operation_xyz
x,y,z
-x,-y,-z
loop_
_atom_site_type_symbol
_atom_site_label
_atom_site_fract_x
_atom_site_fract_y
_atom_site_fract_z
Si Si1 0.029302 0.853406 0.718200
Si Si2 0.257475 0.979864 0.113930
Si Si3 0.861810 0.442197 0.428953
Si Si4 0.311607 0.127339 0.486050
Si Si5 0.143173 0.513345 0.051906
Si Si6 0.895432 0.407454 0.722298
Si Si7 0.857478 0.044037 0.695848
Si Si8 0.465545 0.383035 0.864631
O O1 0.018046 0.700192 0.557791
O O2 0.025213 0.710320 0.699004
O O3 0.814548 0.898621 0.837151
O O4 0.274266 0.104185 0.769754
O O5 0.249963 0.090319 0.264799
O O6 0.064796 0.700779 0.034775
O O7 0.500000 0.000000 0.000000
O O8 0.587263 0.309478 0.495398
O O9 0.869803 0.479930 0.362772
O O10 0.145778 0.181253 0.644065
O O11 0.229138 0.863368 0.373210
O O12 0.265133 0.143811 0.432957
O O13 0.051230 0.453018 0.138669
O O14 0.210292 0.764177 0.154719
O O15 0.383555 0.514138 0.932785
O O16 0.720354 0.428206 0.760190
O O17 0.500000 0.500000 0.000000
#
# Coordination Sequence:
#
# PCOD8006232 Si02
#       8
#     2   2   2   2   2   2   2   2
#     4  10  23  43  56  98 128 161 221 257 325 385
#     4  11  24  40  62  90 130 167 208 267 312 384
#     4  11  23  40  68  95 129 164 210 279 319 374
#     4  10  22  42  66  94 129 163 216 269 312 390
#     4   9  21  39  60  90 123 165 218 251 320 384
#     4  10  20  39  66  95 122 168 210 265 328 375
#     4  10  22  42  63  91 124 173 214 255 326 378
#     4   9  18  39  63  84 128 163 201 266 308 381
#
# _framework density 22.512675000000002
#
# number of rings (size 3 to 8) (size 9 to 14) (size 15 to 20)
#    0.000    2.000    1.250    1.125    3.500    1.500 
#    9.000    8.125    0.000    0.000    0.000    0.000 
#    0.000    0.000    0.000    0.000    0.000    0.000 
#
# Total GULP energy -198221.681474 kJ/mol
# GULP energy per Si atom -12388.855092 kJ/mol
# Density = 2.246144 g / cm^3
# Si number density = 22.512675 Si / 1000 Ang^3
#
#
#
# Elastic Constant Matrix: (Units=GPa)
#
#
# Indices 1 2 3 4 5 6 
#
# 1 85.8931 34.3550 22.7426 -14.8835 -2.5639 12.5162
# 2 34.3550 64.0783 23.2080 -12.5580 2.2008 2.5449
# 3 22.7426 23.2080 74.8503 3.5655 -6.6686 3.6411
# 4 -14.8835 -12.5580 3.5655 34.1264 -0.5646 3.0848
# 5 -2.5639 2.2008 -6.6686 -0.5646 34.8364 -10.8296
# 6 12.5162 2.5449 3.6411 3.0848 -10.8296 25.8115
#
#
#
# Elastic Compliance Matrix: (Units=1/GPa)
#
#
# Indices 1 2 3 4 5 6 
#
# 1 0.017448 -0.006522 -0.003293 0.006320 -0.001555 -0.008761
# 2 -0.006522 0.022357 -0.005482 0.005925 -0.002907 -0.000196
# 3 -0.003293 -0.005482 0.016554 -0.005304 0.003821 0.002039
# 4 0.006320 0.005925 -0.005304 0.035502 -0.002955 -0.008383
# 5 -0.001555 -0.002907 0.003821 -0.002955 0.034182 0.015197
# 6 -0.008761 -0.000196 0.002039 -0.008383 0.015197 0.050100
#
#
# Mechanical properties :
#
#
# Convention : Reuss Voigt Hill
#
# Bulk Modulus (GPa) = 38.81136 42.82586 40.81861
# Shear Modulus (GPa) = 23.22055 28.58928 25.90491
#
# Velocity S-wave (km/s) = 3.21509 3.56746 3.39585
# Velocity P-wave (km/s) = 5.57312 6.00278 5.79193
#
# Compressibility (1/GPa) = 0.02576565
#
# Stress axis : x y z
#
# Youngs Moduli (GPa) = 57.31233 44.72877 60.40828
#
# Poissons Ratio (x) = 0.29173 0.19890
# Poissons Ratio (y) = 0.37381 0.33115
# Poissons Ratio (z) = 0.18871 0.24520
#
# Static dielectric constant tensor:
#      x y z
#    x 4.567510 0.181160 -0.232350 
#    y 0.181160 3.958620 -0.207210 
#    z -0.232350 -0.207210 4.280340 
# 
# 
# High freq. dielectric constant tensor:
#      x y z
#    x 1.902370 0.007170 -0.013480 
#    y 0.007170 1.848840 0.003520 
#    z -0.013480 0.003520 1.894370 
# 
# From -- ./inp_files/595397.got.cif
#   From: 2010.06.25/outbox.cif.g09.slc.cpg/sg2_298_cif.got.tgz:595397.got - 2010.06.27 13:26:56.
