data_PCOD8006335
_publ_section_title
;
Structure prediction by ZEFSAII (Michael W. Deem and Ramdas Pophale) SiO2 
 PCOD8006335
Probable space group: P -1
;
_chemical_formula_sum "Si O2"
_cell_formula_units_Z 14
_cell_length_a 4.922677
_cell_length_b 9.082541
_cell_length_c 13.506806
_cell_angle_alpha 87.937532
_cell_angle_beta 71.354571
_cell_angle_gamma 81.642314
_cell_volume 566.087438
_symmetry_space_group_name_H-M "P -1"
_symmetry_group_IT_number 2
_symmetry_cell_setting 'triclinic'
loop_
_space_group_symop_operation_xyz
x,y,z
-x,-y,-z
loop_
_atom_site_type_symbol
_atom_site_label
_atom_site_fract_x
_atom_site_fract_y
_atom_site_fract_z
Si Si1 0.211472 0.009854 0.752944
Si Si2 0.599191 0.328243 0.973318
Si Si3 0.980124 0.757150 0.906053
Si Si4 0.993887 0.629608 0.416292
Si Si5 0.337791 0.234813 0.385148
Si Si6 0.147100 0.602290 0.698745
Si Si7 0.342652 0.791395 0.246018
O O1 0.361316 0.139426 0.783442
O O2 0.939355 0.082383 0.718808
O O3 0.087605 0.907877 0.852229
O O4 0.456469 0.917852 0.657916
O O5 0.894236 0.279745 0.999096
O O6 0.366088 0.226815 0.044521
O O7 0.500000 0.500000 0.000000
O O8 0.657181 0.301878 0.852006
O O9 0.083609 0.619624 0.822728
O O10 0.791994 0.769702 0.487806
O O11 0.868666 0.565712 0.331635
O O12 0.000000 0.500000 0.500000
O O13 0.298909 0.682505 0.347097
O O14 0.525738 0.370528 0.358771
O O15 0.080311 0.271439 0.333654
#
# Coordination Sequence:
#
# PCOD8006335 Si02
#       7
#     2   2   2   2   2   2   2
#     4  11  25  44  66 100 134 177 221 261 328 394
#     4  12  26  44  69 102 132 172 220 273 330 384
#     4  11  23  44  72  95 138 181 211 265 331 396
#     4  10  24  44  69  98 131 176 221 275 340 385
#     4  10  21  40  67  94 130 171 216 268 321 393
#     4  10  20  39  68 100 125 166 224 267 319 393
#     4  12  27  43  66  99 136 168 224 282 313 395
#
# _framework density 24.731165000000001
#
# number of rings (size 3 to 8) (size 9 to 14) (size 15 to 20)
#    0.000    1.143    0.000    6.857    0.000   12.571 
#    0.000    0.000    0.000    0.000    0.000    0.000 
#    0.000    0.000    0.000    0.000    0.000    0.000 
#
# Total GULP energy -173561.058303 kJ/mol
# GULP energy per Si atom -12397.218450 kJ/mol
# Density = 2.467488 g / cm^3
# Si number density = 24.731165 Si / 1000 Ang^3
#
#
#
# Elastic Constant Matrix: (Units=GPa)
#
#
# Indices 1 2 3 4 5 6 
#
# 1 81.5801 8.9056 14.7593 -12.6835 -1.6050 13.8835
# 2 8.9056 94.7358 38.6695 -6.6709 0.9139 7.3548
# 3 14.7593 38.6695 122.1652 -4.3828 -31.4458 13.7057
# 4 -12.6835 -6.6709 -4.3828 32.6779 -2.2553 -1.4611
# 5 -1.6050 0.9139 -31.4458 -2.2553 26.3715 0.9640
# 6 13.8835 7.3548 13.7057 -1.4611 0.9640 32.0700
#
#
#
# Elastic Compliance Matrix: (Units=1/GPa)
#
#
# Indices 1 2 3 4 5 6 
#
# 1 0.014170 -0.000298 -0.000596 0.005165 0.000809 -0.005600
# 2 -0.000298 0.013217 -0.006052 0.001246 -0.007585 -0.000031
# 3 -0.000596 -0.006052 0.015880 0.001754 0.019466 -0.005646
# 4 0.005165 0.001246 0.001754 0.033375 0.005287 -0.001910
# 5 0.000809 -0.007585 0.019466 0.005287 0.062208 -0.008559
# 6 -0.005600 -0.000031 -0.005646 -0.001910 -0.008559 0.036197
#
#
# Mechanical properties :
#
#
# Convention : Reuss Voigt Hill
#
# Bulk Modulus (GPa) = 34.04172 47.01666 40.52919
# Shear Modulus (GPa) = 25.15958 33.96698 29.56328
#
# Velocity S-wave (km/s) = 3.19301 3.71003 3.46119
# Velocity P-wave (km/s) = 5.23339 6.11594 5.69180
#
# Compressibility (1/GPa) = 0.02937572
#
# Stress axis : x y z
#
# Youngs Moduli (GPa) = 70.57067 75.65842 62.97167
#
# Poissons Ratio (x) = 0.02256 0.03752
# Poissons Ratio (y) = 0.02105 0.38110
# Poissons Ratio (z) = 0.04205 0.45788
#
# Static dielectric constant tensor:
#      x y z
#    x 4.551240 0.218270 -0.178430 
#    y 0.218270 4.629670 0.252560 
#    z -0.178430 0.252560 4.666580 
# 
# 
# High freq. dielectric constant tensor:
#      x y z
#    x 1.990800 0.013590 -0.013500 
#    y 0.013590 1.977380 0.014150 
#    z -0.013500 0.014150 1.990060 
# 
# From -- ./inp_files/478537.got.cif
#   From: 2010.06.25/outbox.cif.g09.slc.cpg/sg2_240_cif.got.tgz:478537.got - 2010.06.27 13:26:56.
