data_PCOD8006576
_publ_section_title
;
Structure prediction by ZEFSAII (Michael W. Deem and Ramdas Pophale) SiO2 
 PCOD8006576
Probable space group: P -1
;
_chemical_formula_sum "Si O2"
_cell_formula_units_Z 16
_cell_length_a 9.148933
_cell_length_b 22.152666
_cell_length_c 14.937560
_cell_angle_alpha 21.657401
_cell_angle_beta 65.143842
_cell_angle_gamma 52.738695
_cell_volume 777.797017
_symmetry_space_group_name_H-M "P -1"
_symmetry_group_IT_number 2
_symmetry_cell_setting 'triclinic'
loop_
_space_group_symop_operation_xyz
x,y,z
-x,-y,-z
loop_
_atom_site_type_symbol
_atom_site_label
_atom_site_fract_x
_atom_site_fract_y
_atom_site_fract_z
Si Si1 0.758343 0.699210 0.777363
Si Si2 0.392049 0.537597 0.602011
Si Si3 0.759842 0.504841 0.475997
Si Si4 0.888067 0.785040 0.074643
Si Si5 0.593321 0.152967 0.198010
Si Si6 0.791128 0.316309 0.012958
Si Si7 0.274144 0.590967 0.908141
Si Si8 0.669599 0.262542 0.479513
O O1 0.626481 0.747814 0.834191
O O2 0.721100 0.910588 0.468158
O O3 0.691039 0.625082 0.816558
O O4 0.000000 0.500000 0.000000
O O5 0.541096 0.586617 0.461578
O O6 0.230155 0.576219 0.515599
O O7 0.264123 0.689782 0.510896
O O8 0.542676 0.289325 0.934409
O O9 0.758867 0.702446 0.207191
O O10 0.964260 0.310251 0.744634
O O11 0.025706 0.723561 0.036191
O O12 0.721382 0.038240 0.780164
O O13 0.744190 0.158505 0.217348
O O14 0.579889 0.558751 0.716677
O O15 0.870897 0.275783 0.151858
O O16 0.200382 0.732867 0.640965
O O17 0.500000 0.500000 0.000000
#
# Coordination Sequence:
#
# PCOD8006576 Si02
#       8
#     2   2   2   2   2   2   2   2
#     4  11  23  37  60  92 122 159 203 244 292 369
#     4  10  20  43  66  86 126 164 198 254 313 356
#     4  10  23  41  64  93 119 158 212 257 305 358
#     4  11  23  41  65  93 120 157 210 258 301 357
#     4  10  21  40  62  84 126 164 193 249 308 351
#     4  10  21  42  62  89 128 164 196 251 303 365
#     4  10  20  40  61  90 125 160 200 240 299 374
#     4  10  21  39  66  87 123 161 200 247 308 364
#
# _framework density 20.570919
#
# number of rings (size 3 to 8) (size 9 to 14) (size 15 to 20)
#    0.000    1.750    6.250    0.000    1.750    4.500 
#    0.000    0.000    0.000    0.000    0.000    0.000 
#    0.000    0.000    0.000    0.000    0.000    0.000 
#
# Total GULP energy -198321.335416 kJ/mol
# GULP energy per Si atom -12395.083464 kJ/mol
# Density = 2.052410 g / cm^3
# Si number density = 20.570919 Si / 1000 Ang^3
#
#
#
# Elastic Constant Matrix: (Units=GPa)
#
#
# Indices 1 2 3 4 5 6 
#
# 1 116.8679 59.0644 61.9246 -5.5547 -23.8234 20.5496
# 2 59.0644 116.7084 56.0287 12.7457 -8.3698 28.7121
# 3 61.9246 56.0287 142.9965 -11.2290 -38.0431 7.9520
# 4 -5.5547 12.7457 -11.2290 26.9443 0.3453 1.1244
# 5 -23.8234 -8.3698 -38.0431 0.3453 27.3721 -3.0945
# 6 20.5496 28.7121 7.9520 1.1244 -3.0945 38.0700
#
#
#
# Elastic Compliance Matrix: (Units=1/GPa)
#
#
# Indices 1 2 3 4 5 6 
#
# 1 0.014915 -0.006568 -0.000741 0.005847 0.009605 -0.002335
# 2 -0.006568 0.018769 -0.008330 -0.013148 -0.012462 -0.009495
# 3 -0.000741 -0.008330 0.016468 0.010202 0.020084 0.004574
# 4 0.005847 -0.013148 0.010202 0.048412 0.015138 0.004430
# 5 0.009605 -0.012462 0.020084 0.015138 0.069395 0.005212
# 6 -0.002335 -0.009495 0.004574 0.004430 0.005212 0.034026
#
#
# Mechanical properties :
#
#
# Convention : Reuss Voigt Hill
#
# Bulk Modulus (GPa) = 52.98082 81.17869 67.07975
# Shear Modulus (GPa) = 20.87206 31.78097 26.32652
#
# Velocity S-wave (km/s) = 3.18880 3.93485 3.58130
# Velocity P-wave (km/s) = 6.27447 7.75838 7.05555
#
# Compressibility (1/GPa) = 0.01887475
#
# Stress axis : x y z
#
# Youngs Moduli (GPa) = 67.04537 53.27839 60.72408
#
# Poissons Ratio (x) = 0.34993 0.04501
# Poissons Ratio (y) = 0.44035 0.50582
# Poissons Ratio (z) = 0.04969 0.44380
#
# Static dielectric constant tensor:
#      x y z
#    x 3.737050 0.476750 -0.087720 
#    y 0.476750 4.943080 0.592240 
#    z -0.087720 0.592240 3.986220 
# 
# 
# High freq. dielectric constant tensor:
#      x y z
#    x 1.798880 0.009250 -0.017210 
#    y 0.009250 1.805100 0.004470 
#    z -0.017210 0.004470 1.800250 
# 
# From -- ./inp_files/508060.got.cif
#   From: 2010.06.25/outbox.cif.g09.slc.cpg/sg2_255_cif.got.tgz:508060.got - 2010.06.27 13:26:56.
