data_PCOD8006811
_publ_section_title
;
Structure prediction by ZEFSAII (Michael W. Deem and Ramdas Pophale) SiO2 
 PCOD8006811
Probable space group: P -1
;
_chemical_formula_sum "Si O2"
_cell_formula_units_Z 16
_cell_length_a 18.027054
_cell_length_b 9.137515
_cell_length_c 5.847862
_cell_angle_alpha 77.737421
_cell_angle_beta 86.593754
_cell_angle_gamma 129.176596
_cell_volume 705.466006
_symmetry_space_group_name_H-M "P -1"
_symmetry_group_IT_number 2
_symmetry_cell_setting 'triclinic'
loop_
_space_group_symop_operation_xyz
x,y,z
-x,-y,-z
loop_
_atom_site_type_symbol
_atom_site_label
_atom_site_fract_x
_atom_site_fract_y
_atom_site_fract_z
Si Si1 0.135724 0.638858 0.714564
Si Si2 0.585847 0.234156 0.144481
Si Si3 0.374629 0.972626 0.098057
Si Si4 0.033848 0.112493 0.206760
Si Si5 0.754289 0.644348 0.744421
Si Si6 0.280262 0.607771 0.542212
Si Si7 0.940510 0.251832 0.955988
Si Si8 0.225822 0.004569 0.244941
O O1 0.205228 0.584883 0.743748
O O2 0.182462 0.824075 0.481519
O O3 0.028510 0.434542 0.719320
O O4 0.121403 0.690788 0.950589
O O5 0.617699 0.297811 0.380341
O O6 0.472719 0.134944 0.175040
O O7 0.595328 0.068622 0.131897
O O8 0.653461 0.434029 0.916321
O O9 0.300794 0.756483 0.296381
O O10 0.315810 0.052048 0.063225
O O11 0.153089 0.277540 0.138348
O O12 0.000000 0.000000 0.500000
O O13 0.985953 0.214531 0.169241
O O14 0.000000 0.000000 0.000000
O O15 0.769662 0.605751 0.493487
O O16 0.737242 0.800644 0.689500
O O17 0.863884 0.056644 0.879321
#
# Coordination Sequence:
#
# PCOD8006811 Si02
#       8
#     2   2   2   2   2   2   2   2
#     4  10  23  39  62  92 126 171 229 276 332 403
#     4  10  20  40  64  92 127 165 223 274 339 403
#     4   9  21  39  65  93 121 169 219 279 335 407
#     4  12  27  45  68 101 140 185 228 281 342 411
#     4  11  25  38  63  95 130 173 220 273 344 401
#     4  10  21  39  64  91 126 170 218 279 337 410
#     4  11  23  40  65  91 124 181 222 283 333 400
#     4  11  22  41  61  91 133 168 223 275 342 399
#
# _framework density 22.680043999999999
#
# number of rings (size 3 to 8) (size 9 to 14) (size 15 to 20)
#    0.000    1.500    1.250    3.000    3.500    6.500 
#    0.000    0.625    0.000    0.000    0.000    0.000 
#    0.000    0.000    0.000    0.000    0.000    0.000 
#
# Total GULP energy -198240.761315 kJ/mol
# GULP energy per Si atom -12390.047582 kJ/mol
# Density = 2.262842 g / cm^3
# Si number density = 22.680044 Si / 1000 Ang^3
#
#
#
# Elastic Constant Matrix: (Units=GPa)
#
#
# Indices 1 2 3 4 5 6 
#
# 1 94.5680 74.4194 13.6545 2.8538 0.6755 -1.9593
# 2 74.4194 138.5072 31.2093 22.4674 0.7883 -7.5353
# 3 13.6545 31.2093 53.5710 6.8355 6.5733 -8.3931
# 4 2.8538 22.4674 6.8355 36.7173 6.4814 6.7775
# 5 0.6755 0.7883 6.5733 6.4814 27.2208 -0.9426
# 6 -1.9593 -7.5353 -8.3931 6.7775 -0.9426 34.9265
#
#
#
# Elastic Compliance Matrix: (Units=1/GPa)
#
#
# Indices 1 2 3 4 5 6 
#
# 1 0.019562 -0.011894 0.000975 0.006393 -0.001986 -0.002529
# 2 -0.011894 0.016500 -0.005240 -0.009465 0.003460 0.003564
# 3 0.000975 -0.005240 0.022929 -0.001089 -0.004994 0.004511
# 4 0.006393 -0.009465 -0.001089 0.035920 -0.008491 -0.009145
# 5 -0.001986 0.003460 -0.004994 -0.008491 0.039988 0.002162
# 6 -0.002529 0.003564 0.004511 -0.009145 0.002162 0.032175
#
#
# Mechanical properties :
#
#
# Convention : Reuss Voigt Hill
#
# Bulk Modulus (GPa) = 37.48886 58.35697 47.92292
# Shear Modulus (GPa) = 24.00569 30.93045 27.46807
#
# Velocity S-wave (km/s) = 3.25691 3.69694 3.48388
# Velocity P-wave (km/s) = 5.54154 6.63397 6.11221
#
# Compressibility (1/GPa) = 0.02667459
#
# Stress axis : x y z
#
# Youngs Moduli (GPa) = 51.11935 60.60458 43.61211
#
# Poissons Ratio (x) = 0.72080 -0.04250
# Poissons Ratio (y) = 0.60799 0.22851
# Poissons Ratio (z) = -0.04982 0.31755
#
# Static dielectric constant tensor:
#      x y z
#    x 4.374610 -0.050120 -0.283630 
#    y -0.050120 4.239070 0.195180 
#    z -0.283630 0.195180 3.939410 
# 
# 
# High freq. dielectric constant tensor:
#      x y z
#    x 1.895970 0.002540 -0.012950 
#    y 0.002540 1.901280 0.007000 
#    z -0.012950 0.007000 1.873590 
# 
# From -- ./inp_files/106714.got.cif
#   From: 2010.06.25/outbox.cif.g09.slc.cpg/sg2_54_cif.got.tgz:106714.got - 2010.06.27 13:26:56.
