data_PCOD8006623
_publ_section_title
;
Structure prediction by ZEFSAII (Michael W. Deem and Ramdas Pophale) SiO2 
 PCOD8006623
Probable space group: P -1
;
_chemical_formula_sum "Si O2"
_cell_formula_units_Z 14
_cell_length_a 9.522821
_cell_length_b 7.041942
_cell_length_c 22.943465
_cell_angle_alpha 53.399528
_cell_angle_beta 139.011429
_cell_angle_gamma 96.496389
_cell_volume 622.623044
_symmetry_space_group_name_H-M "P -1"
_symmetry_group_IT_number 2
_symmetry_cell_setting 'triclinic'
loop_
_space_group_symop_operation_xyz
x,y,z
-x,-y,-z
loop_
_atom_site_type_symbol
_atom_site_label
_atom_site_fract_x
_atom_site_fract_y
_atom_site_fract_z
Si Si1 0.665971 0.680526 0.265868
Si Si2 0.235459 0.248473 0.181296
Si Si3 0.283682 0.335492 0.509050
Si Si4 0.629462 0.645954 0.912304
Si Si5 0.236693 0.350070 0.361973
Si Si6 0.381204 0.331407 0.879400
Si Si7 0.592130 0.337147 0.703248
O O1 0.557977 0.700429 0.164285
O O2 0.534970 0.578116 0.287209
O O3 0.997081 0.414355 0.423149
O O4 0.594601 0.001144 0.202517
O O5 0.330379 0.380701 0.140690
O O6 0.470915 0.040695 0.342737
O O7 0.204071 0.030543 0.172145
O O8 0.924225 0.504392 0.062555
O O9 0.260418 0.455053 0.414460
O O10 0.351507 0.492288 0.548946
O O11 0.526476 0.455500 0.932744
O O12 0.233599 0.548510 0.273805
O O13 0.947465 0.413197 0.256108
O O14 0.500000 0.000000 0.500000
O O15 0.500000 0.000000 0.000000
#
# Coordination Sequence:
#
# PCOD8006623 Si02
#       7
#     2   2   2   2   2   2   2
#     4  10  22  40  68  91 114 166 205 248 310 352
#     4   8  19  35  64  87 117 155 207 249 295 353
#     4   9  20  38  64  88 120 158 199 256 302 347
#     4  10  20  40  62  89 119 163 204 245 299 366
#     4  11  24  38  58  95 124 161 201 245 311 362
#     4  11  26  43  59  91 132 156 199 257 301 367
#     4   9  19  39  63  85 123 154 203 251 301 354
#
# _framework density 22.485513999999998
#
# number of rings (size 3 to 8) (size 9 to 14) (size 15 to 20)
#    0.857    1.429    0.000    1.714    2.000    2.857 
#    0.000   12.857    0.000    0.000    0.000    0.000 
#    0.000    0.000    0.000    0.000    0.000    0.000 
#
# Total GULP energy -173486.934943 kJ/mol
# GULP energy per Si atom -12391.923924 kJ/mol
# Density = 2.243434 g / cm^3
# Si number density = 22.485514 Si / 1000 Ang^3
#
#
#
# Elastic Constant Matrix: (Units=GPa)
#
#
# Indices 1 2 3 4 5 6 
#
# 1 140.7224 32.2212 34.9784 -2.3972 7.8049 11.7984
# 2 32.2212 49.9241 12.0038 -5.4905 5.5344 11.8309
# 3 34.9784 12.0038 124.0934 -8.3026 9.2082 1.6623
# 4 -2.3972 -5.4905 -8.3026 21.1233 -0.9970 -7.5280
# 5 7.8049 5.5344 9.2082 -0.9970 24.5941 -2.9289
# 6 11.7984 11.8309 1.6623 -7.5280 -2.9289 32.5526
#
#
#
# Elastic Compliance Matrix: (Units=1/GPa)
#
#
# Indices 1 2 3 4 5 6 
#
# 1 0.008930 -0.004881 -0.002046 -0.001791 -0.001267 -0.001886
# 2 -0.004881 0.025915 -0.000461 0.003159 -0.004855 -0.007332
# 3 -0.002046 -0.000461 0.009075 0.003471 -0.002381 0.001034
# 4 -0.001791 0.003159 0.003471 0.053677 0.002155 0.011931
# 5 -0.001267 -0.004855 -0.002381 0.002155 0.043943 0.006797
# 6 -0.001886 -0.007332 0.001034 0.011931 0.006797 0.037386
#
#
# Mechanical properties :
#
#
# Convention : Reuss Voigt Hill
#
# Bulk Modulus (GPa) = 34.31261 52.57187 43.44224
# Shear Modulus (GPa) = 24.58018 31.35643 27.96830
#
# Velocity S-wave (km/s) = 3.30988 3.73837 3.53063
# Velocity P-wave (km/s) = 5.46809 6.48575 5.99854
#
# Compressibility (1/GPa) = 0.02914381
#
# Stress axis : x y z
#
# Youngs Moduli (GPa) = 111.97923 38.58799 110.19674
#
# Poissons Ratio (x) = 0.18836 0.22542
# Poissons Ratio (y) = 0.54660 0.05081
# Poissons Ratio (z) = 0.22906 0.01779
#
# Static dielectric constant tensor:
#      x y z
#    x 4.094600 -0.000340 0.024500 
#    y -0.000340 3.593570 -0.074480 
#    z 0.024500 -0.074480 3.998910 
# 
# 
# High freq. dielectric constant tensor:
#      x y z
#    x 1.890460 0.003010 0.004370 
#    y 0.003010 1.851340 -0.004720 
#    z 0.004370 -0.004720 1.888200 
# 
# From -- ./inp_files/616649.got.cif
#   From: 2010.06.25/outbox.cif.g09.slc.cpg/sg2_309_cif.got.tgz:616649.got - 2010.06.27 13:26:56.
