data_PCOD8006121
_publ_section_title
;
Structure prediction by ZEFSAII (Michael W. Deem and Ramdas Pophale) SiO2 
 PCOD8006121
Probable space group: P -1
;
_chemical_formula_sum "Si O2"
_cell_formula_units_Z 14
_cell_length_a 9.695530
_cell_length_b 15.716032
_cell_length_c 9.285119
_cell_angle_alpha 106.304222
_cell_angle_beta 57.963018
_cell_angle_gamma 145.172556
_cell_volume 649.043311
_symmetry_space_group_name_H-M "P -1"
_symmetry_group_IT_number 2
_symmetry_cell_setting 'triclinic'
loop_
_space_group_symop_operation_xyz
x,y,z
-x,-y,-z
loop_
_atom_site_type_symbol
_atom_site_label
_atom_site_fract_x
_atom_site_fract_y
_atom_site_fract_z
Si Si1 0.879374 0.601847 0.353888
Si Si2 0.894897 0.241944 0.398377
Si Si3 0.581362 0.440976 0.872331
Si Si4 0.544778 0.238611 0.939932
Si Si5 0.071726 0.005506 0.302829
Si Si6 0.283285 0.025147 0.712996
Si Si7 0.301223 0.318588 0.676216
O O1 0.587861 0.419021 0.474959
O O2 0.787182 0.619964 0.277422
O O3 0.990775 0.713772 0.478532
O O4 0.123931 0.643544 0.187406
O O5 0.574576 0.136045 0.517711
O O6 0.086318 0.401832 0.287412
O O7 0.907434 0.151536 0.268108
O O8 0.542109 0.342203 0.956808
O O9 0.363695 0.325555 0.809257
O O10 0.500000 0.500000 0.000000
O O11 0.354740 0.093638 0.865558
O O12 0.405305 0.163725 0.140935
O O13 0.883206 0.974325 0.278384
O O14 0.983451 0.863803 0.288632
O O15 0.000000 0.000000 0.500000
#
# Coordination Sequence:
#
# PCOD8006121 Si02
#       7
#     2   2   2   2   2   2   2
#     4   9  21  42  64  94 130 169 210 260 324 384
#     4   9  20  36  65  94 129 165 211 268 312 379
#     4  11  23  39  63  96 127 168 218 267 313 373
#     4  11  24  41  68  94 126 168 225 262 308 392
#     4  12  25  40  63  92 131 168 214 268 324 373
#     4  10  20  39  65  94 125 168 217 260 316 378
#     4  10  22  41  65  91 131 172 200 268 330 370
#
# _framework density 21.570209999999999
#
# number of rings (size 3 to 8) (size 9 to 14) (size 15 to 20)
#    0.000    1.714    1.429    2.143    4.000    4.571 
#    2.571    1.429    0.000    0.000    0.000    0.000 
#    0.000    0.000    0.000    0.000    0.000    0.000 
#
# Total GULP energy -173513.015878 kJ/mol
# GULP energy per Si atom -12393.786848 kJ/mol
# Density = 2.152111 g / cm^3
# Si number density = 21.570210 Si / 1000 Ang^3
#
#
#
# Elastic Constant Matrix: (Units=GPa)
#
#
# Indices 1 2 3 4 5 6 
#
# 1 78.1160 17.2768 46.3609 -19.9454 -15.9863 -7.4185
# 2 17.2768 98.8538 39.0345 -15.1528 1.4885 -24.8096
# 3 46.3609 39.0345 126.7056 -13.5799 -1.3956 -14.3669
# 4 -19.9454 -15.1528 -13.5799 23.5738 -5.5309 -4.5488
# 5 -15.9863 1.4885 -1.3956 -5.5309 28.9707 -2.7297
# 6 -7.4185 -24.8096 -14.3669 -4.5488 -2.7297 28.2068
#
#
#
# Elastic Compliance Matrix: (Units=1/GPa)
#
#
# Indices 1 2 3 4 5 6 
#
# 1 0.032999 0.008038 -0.007742 0.038903 0.026798 0.020672
# 2 0.008038 0.019073 -0.003741 0.023389 0.009785 0.021703
# 3 -0.007742 -0.003741 0.011403 -0.003476 -0.004240 -0.000490
# 4 0.038903 0.023389 -0.003476 0.108935 0.045703 0.051023
# 5 0.026798 0.009785 -0.004240 0.045703 0.059835 0.026656
# 6 0.020672 0.021703 -0.000490 0.051023 0.026656 0.070537
#
#
# Mechanical properties :
#
#
# Convention : Reuss Voigt Hill
#
# Bulk Modulus (GPa) = 17.67287 56.55775 37.11531
# Shear Modulus (GPa) = 15.21912 29.55047 22.38479
#
# Velocity S-wave (km/s) = 2.65912 3.70532 3.22493
# Velocity P-wave (km/s) = 4.19987 6.67706 5.57772
#
# Compressibility (1/GPa) = 0.05658391
#
# Stress axis : x y z
#
# Youngs Moduli (GPa) = 30.30411 52.42935 87.69763
#
# Poissons Ratio (x) = -0.42140 0.67892
# Poissons Ratio (y) = -0.24357 0.32812
# Poissons Ratio (z) = 0.23460 0.19616
#
# Static dielectric constant tensor:
#      x y z
#    x 3.685750 0.247400 -0.003490 
#    y 0.247400 4.103430 0.082030 
#    z -0.003490 0.082030 4.323010 
# 
# 
# High freq. dielectric constant tensor:
#      x y z
#    x 1.835580 -0.001530 -0.007770 
#    y -0.001530 1.853400 -0.014720 
#    z -0.007770 -0.014720 1.846210 
# 
# From -- ./inp_files/158480.got.cif
#   From: 2010.06.25/outbox.cif.g09.slc.cpg/sg2_80_cif.got.tgz:158480.got - 2010.06.27 13:26:56.
