data_PCOD8006384
_publ_section_title
;
Structure prediction by ZEFSAII (Michael W. Deem and Ramdas Pophale) SiO2 
 PCOD8006384
Probable space group: P -1
;
_chemical_formula_sum "Si O2"
_cell_formula_units_Z 16
_cell_length_a 8.210222
_cell_length_b 15.134921
_cell_length_c 12.701278
_cell_angle_alpha 39.793226
_cell_angle_beta 134.188317
_cell_angle_gamma 110.370046
_cell_volume 661.117823
_symmetry_space_group_name_H-M "P -1"
_symmetry_group_IT_number 2
_symmetry_cell_setting 'triclinic'
loop_
_space_group_symop_operation_xyz
x,y,z
-x,-y,-z
loop_
_atom_site_type_symbol
_atom_site_label
_atom_site_fract_x
_atom_site_fract_y
_atom_site_fract_z
Si Si1 0.165568 0.477322 0.437488
Si Si2 0.567118 0.707551 0.729885
Si Si3 0.629768 0.033230 0.750812
Si Si4 0.340069 0.271951 0.016043
Si Si5 0.222561 0.632522 0.913954
Si Si6 0.984348 0.234829 0.509123
Si Si7 0.838693 0.065927 0.026418
Si Si8 0.295250 0.637033 0.171481
O O1 0.227649 0.513724 0.314091
O O2 0.409062 0.438120 0.656086
O O3 0.100584 0.332967 0.534599
O O4 0.934481 0.621525 0.249957
O O5 0.682174 0.748569 0.849076
O O6 0.744370 0.539151 0.928415
O O7 0.293925 0.715999 0.619834
O O8 0.565393 0.823454 0.531481
O O9 0.550610 0.891739 0.840781
O O10 0.896652 0.975272 0.869176
O O11 0.637688 0.081077 0.831337
O O12 0.517593 0.356698 0.000688
O O13 0.138531 0.683580 0.949662
O O14 0.016457 0.740150 0.640511
O O15 0.151578 0.060195 0.769277
O O16 0.754410 0.222580 0.904105
#
# Coordination Sequence:
#
# PCOD8006384 Si02
#       8
#     2   2   2   2   2   2   2   2
#     4  11  23  42  65  89 131 170 206 264 309 370
#     4  10  20  39  68  98 128 154 215 272 304 374
#     4  10  22  38  67  94 123 172 209 255 325 367
#     4  11  20  42  67  96 124 166 218 256 309 383
#     4  11  23  41  67 100 124 166 209 263 321 371
#     4  10  21  43  68  89 128 168 212 261 313 372
#     4  10  23  43  61  91 132 167 212 261 308 381
#     4  11  27  41  60  95 136 164 211 263 312 376
#
# _framework density 24.201435
#
# number of rings (size 3 to 8) (size 9 to 14) (size 15 to 20)
#    0.000    1.500    3.750    1.125    5.250    3.000 
#    0.000    0.000    0.000    0.000    0.000    0.000 
#    0.000    0.000    0.000    0.000    0.000    0.000 
#
# Total GULP energy -198456.036375 kJ/mol
# GULP energy per Si atom -12403.502273 kJ/mol
# Density = 2.414635 g / cm^3
# Si number density = 24.201435 Si / 1000 Ang^3
#
#
#
# Elastic Constant Matrix: (Units=GPa)
#
#
# Indices 1 2 3 4 5 6 
#
# 1 6.4075 2.3541 -4.6644 -5.6496 -0.9190 -8.1672
# 2 2.3541 119.0643 36.5614 -11.8443 -10.6074 -18.0188
# 3 -4.6644 36.5614 119.4229 -8.5112 -18.3540 -11.8039
# 4 -5.6496 -11.8443 -8.5112 34.4479 -0.1813 -10.3229
# 5 -0.9190 -10.6074 -18.3540 -0.1813 17.1226 11.1626
# 6 -8.1672 -18.0188 -11.8039 -10.3229 11.1626 40.0844
#
#
#
# Elastic Compliance Matrix: (Units=1/GPa)
#
#
# Indices 1 2 3 4 5 6 
#
# 1 0.545370 0.017149 0.040169 0.159319 -0.033338 0.180971
# 2 0.017149 0.010889 -0.000967 0.009493 -0.000180 0.010599
# 3 0.040169 -0.000967 0.013711 0.013612 0.007855 0.013105
# 4 0.159319 0.009493 0.013612 0.081248 -0.012603 0.065171
# 5 -0.033338 -0.000180 0.007855 -0.012603 0.085376 -0.031582
# 6 0.180971 0.010599 0.013105 0.065171 -0.031582 0.096022
#
#
# Mechanical properties :
#
#
# Convention : Reuss Voigt Hill
#
# Bulk Modulus (GPa) = 1.46484 34.82189 18.14336
# Shear Modulus (GPa) = 5.27720 32.37389 18.82554
#
# Velocity S-wave (km/s) = 1.47826 3.66141 2.79206
# Velocity P-wave (km/s) = 1.87624 5.68279 4.23169
#
# Compressibility (1/GPa) = 0.68267015
#
# Stress axis : x y z
#
# Youngs Moduli (GPa) = 1.83362 91.83492 72.93273
#
# Poissons Ratio (x) = -1.57484 -2.92963
# Poissons Ratio (y) = -0.03144 0.07056
# Poissons Ratio (z) = -0.07365 0.08885
#
# Static dielectric constant tensor:
#      x y z
#    x 4.151280 0.146740 -0.192470 
#    y 0.146740 4.252060 0.115190 
#    z -0.192470 0.115190 4.674550 
# 
# 
# High freq. dielectric constant tensor:
#      x y z
#    x 1.944850 0.013600 -0.010490 
#    y 0.013600 1.959790 0.003220 
#    z -0.010490 0.003220 1.969540 
# 
# From -- ./inp_files/205143.got.cif
#   From: 2010.06.25/outbox.cif.g09.slc.cpg/sg2_103_cif.got.tgz:205143.got - 2010.06.27 13:26:56.
