data_PCOD8006227
_publ_section_title
;
Structure prediction by ZEFSAII (Michael W. Deem and Ramdas Pophale) SiO2 
 PCOD8006227
Probable space group: P -1
;
_chemical_formula_sum "Si O2"
_cell_formula_units_Z 16
_cell_length_a 16.263136
_cell_length_b 11.390656
_cell_length_c 16.579606
_cell_angle_alpha 33.529785
_cell_angle_beta 148.964649
_cell_angle_gamma 148.353229
_cell_volume 766.755276
_symmetry_space_group_name_H-M "P -1"
_symmetry_group_IT_number 2
_symmetry_cell_setting 'triclinic'
loop_
_space_group_symop_operation_xyz
x,y,z
-x,-y,-z
loop_
_atom_site_type_symbol
_atom_site_label
_atom_site_fract_x
_atom_site_fract_y
_atom_site_fract_z
Si Si1 0.552786 0.003546 0.410483
Si Si2 0.834607 0.512817 0.315026
Si Si3 0.652483 0.929745 0.190748
Si Si4 0.769321 0.666098 0.334006
Si Si5 0.017197 0.353669 0.327275
Si Si6 0.102135 0.286142 0.924413
Si Si7 0.600516 0.789594 0.718845
Si Si8 0.392922 0.488165 0.497769
O O1 0.678999 0.970683 0.604399
O O2 0.468217 0.768451 0.419595
O O3 0.673040 0.239798 0.323086
O O4 0.396097 0.046899 0.296043
O O5 0.794814 0.673496 0.254802
O O6 0.870727 0.633044 0.190759
O O7 0.000000 0.500000 0.500000
O O8 0.725730 0.882813 0.194501
O O9 0.561680 0.674044 0.309528
O O10 0.820079 0.135279 0.263687
O O11 0.500000 0.000000 0.000000
O O12 0.604926 0.401434 0.369933
O O13 0.936680 0.698527 0.513300
O O14 0.001437 0.599688 0.177017
O O15 0.170788 0.375927 0.378305
O O16 0.293257 0.359492 0.087091
O O17 0.000000 0.000000 0.000000
O O18 0.500000 0.500000 0.500000
#
# Coordination Sequence:
#
# PCOD8006227 Si02
#       8
#     2   2   2   2   2   2   2   2
#     4  10  21  38  67  90 134 173 224 266 335 392
#     4  11  23  39  63  99 130 171 220 273 330 404
#     4  11  24  45  68  97 133 175 222 275 333 392
#     4  10  20  41  66  91 127 174 219 262 332 394
#     4  11  23  43  70  94 132 178 220 273 328 408
#     4  12  25  40  64  97 135 166 221 274 347 390
#     4  10  20  39  66  94 128 174 211 273 335 393
#     4  11  24  43  67  97 128 179 230 271 327 393
#
# _framework density 20.867152000000001
#
# number of rings (size 3 to 8) (size 9 to 14) (size 15 to 20)
#    0.000    1.250    3.750    3.750    3.500    3.000 
#    4.500    0.625    0.000    0.000    0.000    0.000 
#    0.000    0.000    0.000    0.000    0.000    0.000 
#
# Total GULP energy -198235.350380 kJ/mol
# GULP energy per Si atom -12389.709399 kJ/mol
# Density = 2.081966 g / cm^3
# Si number density = 20.867152 Si / 1000 Ang^3
#
#
#
# Elastic Constant Matrix: (Units=GPa)
#
#
# Indices 1 2 3 4 5 6 
#
# 1 109.2755 32.4872 49.8917 -9.0548 5.7246 -2.6309
# 2 32.4872 106.3375 29.3125 -2.9235 5.0600 -14.1884
# 3 49.8917 29.3125 137.6012 -0.0071 20.5782 -1.1697
# 4 -9.0548 -2.9235 -0.0071 34.6987 -1.1452 5.2038
# 5 5.7246 5.0600 20.5782 -1.1452 37.2651 -13.3160
# 6 -2.6309 -14.1884 -1.1697 5.2038 -13.3160 28.2905
#
#
#
# Elastic Compliance Matrix: (Units=1/GPa)
#
#
# Indices 1 2 3 4 5 6 
#
# 1 0.011882 -0.002605 -0.003833 0.002998 0.000495 -0.000679
# 2 -0.002605 0.011438 -0.001756 -0.000627 0.002135 0.006542
# 3 -0.003833 -0.001756 0.009882 -0.000823 -0.005887 -0.003448
# 4 0.002998 -0.000627 -0.000823 0.030445 -0.001216 -0.006242
# 5 0.000495 0.002135 -0.005887 -0.001216 0.036156 0.018115
# 6 -0.000679 0.006542 -0.003448 -0.006242 0.018115 0.048097
#
#
# Mechanical properties :
#
#
# Convention : Reuss Voigt Hill
#
# Bulk Modulus (GPa) = 59.47176 64.06633 61.76905
# Shear Modulus (GPa) = 29.43050 36.15237 32.79144
#
# Velocity S-wave (km/s) = 3.75957 4.16685 3.96844
# Velocity P-wave (km/s) = 6.88534 7.34294 7.11782
#
# Compressibility (1/GPa) = 0.01681470
#
# Stress axis : x y z
#
# Youngs Moduli (GPa) = 84.16232 87.42860 101.19265
#
# Poissons Ratio (x) = 0.22777 0.38784
# Poissons Ratio (y) = 0.21926 0.17766
# Poissons Ratio (z) = 0.32257 0.15350
#
# Static dielectric constant tensor:
#      x y z
#    x 3.648800 -0.266880 0.452260 
#    y -0.266880 3.203210 1.097720 
#    z 0.452260 1.097720 2.623570 
# 
# 
# High freq. dielectric constant tensor:
#      x y z
#    x 1.811110 -0.010340 0.018160 
#    y -0.010340 1.824430 -0.008250 
#    z 0.018160 -0.008250 1.811440 
# 
# From -- ./inp_files/575838.got.cif
#   From: 2010.06.25/outbox.cif.g09.slc.cpg/sg2_288_cif.got.tgz:575838.got - 2010.06.27 13:26:56.
