data_PCOD8006425
_publ_section_title
;
Structure prediction by ZEFSAII (Michael W. Deem and Ramdas Pophale) SiO2 
 PCOD8006425
Probable space group: P -1
;
_chemical_formula_sum "Si O2"
_cell_formula_units_Z 16
_cell_length_a 15.044758
_cell_length_b 12.333340
_cell_length_c 9.873467
_cell_angle_alpha 128.655296
_cell_angle_beta 137.294819
_cell_angle_gamma 39.175245
_cell_volume 778.419431
_symmetry_space_group_name_H-M "P -1"
_symmetry_group_IT_number 2
_symmetry_cell_setting 'triclinic'
loop_
_space_group_symop_operation_xyz
x,y,z
-x,-y,-z
loop_
_atom_site_type_symbol
_atom_site_label
_atom_site_fract_x
_atom_site_fract_y
_atom_site_fract_z
Si Si1 0.836667 0.506440 0.990351
Si Si2 0.521933 0.856401 0.005197
Si Si3 0.770923 0.105968 0.431300
Si Si4 0.111463 0.768935 0.552878
Si Si5 0.170006 0.433642 0.285796
Si Si6 0.191025 0.787217 0.177775
Si Si7 0.604119 0.960233 0.717250
Si Si8 0.183557 0.908019 0.985001
O O1 0.701892 0.686723 0.049945
O O2 0.835281 0.511744 0.831333
O O3 0.800725 0.379975 0.914406
O O4 0.014973 0.449123 0.183815
O O5 0.379729 0.840628 0.790120
O O6 0.500000 0.000000 0.000000
O O7 0.509740 0.909466 0.189011
O O8 0.850732 0.193097 0.523346
O O9 0.708804 0.190758 0.577585
O O10 0.912288 0.898271 0.442208
O O11 0.179156 0.569645 0.488967
O O12 0.210299 0.795687 0.795724
O O13 0.323718 0.235488 0.316922
O O14 0.263022 0.780176 0.104892
O O15 0.007879 0.956261 0.108187
O O16 0.500000 0.000000 0.500000
O O17 0.743693 0.985123 0.867098
#
# Coordination Sequence:
#
# PCOD8006425 Si02
#       8
#     2   2   2   2   2   2   2   2
#     4  11  23  40  70 101 131 167 224 283 323 379
#     4  12  25  42  63 101 135 171 219 278 332 387
#     4  10  21  37  67  96 134 168 221 267 328 389
#     4  10  20  39  69  98 123 179 219 266 323 393
#     4  11  23  43  70  99 131 170 228 271 328 392
#     4  10  21  40  67  97 127 173 222 270 317 389
#     4  12  27  47  66  94 138 181 213 266 343 399
#     4  10  22  43  65  92 136 175 217 261 330 399
#
# _framework density 20.554472000000001
#
# number of rings (size 3 to 8) (size 9 to 14) (size 15 to 20)
#    0.000    1.250    5.000    0.750    3.500    1.500 
#    4.500    2.500    0.000    0.000    0.000    0.000 
#    0.000    0.000    0.000    0.000    0.000    0.000 
#
# Total GULP energy -198349.415791 kJ/mol
# GULP energy per Si atom -12396.838487 kJ/mol
# Density = 2.050769 g / cm^3
# Si number density = 20.554472 Si / 1000 Ang^3
#
#
#
# Elastic Constant Matrix: (Units=GPa)
#
#
# Indices 1 2 3 4 5 6 
#
# 1 60.3664 20.7725 13.3548 5.7789 -14.3451 8.4157
# 2 20.7725 89.6256 26.2297 22.5788 -3.5906 6.9126
# 3 13.3548 26.2297 113.8904 5.6037 -13.9234 -3.2673
# 4 5.7789 22.5788 5.6037 30.4111 5.2557 4.2326
# 5 -14.3451 -3.5906 -13.9234 5.2557 30.6495 0.0754
# 6 8.4157 6.9126 -3.2673 4.2326 0.0754 35.5159
#
#
#
# Elastic Compliance Matrix: (Units=1/GPa)
#
#
# Indices 1 2 3 4 5 6 
#
# 1 0.020926 -0.003385 -0.000495 -0.002465 0.009605 -0.004072
# 2 -0.003385 0.015419 -0.002582 -0.010302 0.000819 -0.001211
# 3 -0.000495 -0.002582 0.010025 -0.000780 0.004150 0.001626
# 4 -0.002465 -0.010302 -0.000780 0.043258 -0.010126 -0.002616
# 5 0.009605 0.000819 0.004150 -0.010126 0.040842 -0.000934
# 6 -0.004072 -0.001211 0.001626 -0.002616 -0.000934 0.029820
#
#
# Mechanical properties :
#
#
# Convention : Reuss Voigt Hill
#
# Bulk Modulus (GPa) = 29.89925 42.73295 36.31610
# Shear Modulus (GPa) = 27.12015 32.88365 30.00190
#
# Velocity S-wave (km/s) = 3.63633 4.00413 3.82465
# Velocity P-wave (km/s) = 5.67525 6.49712 6.10004
#
# Compressibility (1/GPa) = 0.03344566
#
# Stress axis : x y z
#
# Youngs Moduli (GPa) = 47.78710 64.85419 99.74625
#
# Poissons Ratio (x) = 0.21954 0.04942
# Poissons Ratio (y) = 0.16177 0.25754
# Poissons Ratio (z) = 0.02368 0.16745
#
# Static dielectric constant tensor:
#      x y z
#    x 3.849490 0.165980 -0.183400 
#    y 0.165980 3.359620 0.098370 
#    z -0.183400 0.098370 3.776400 
# 
# 
# High freq. dielectric constant tensor:
#      x y z
#    x 1.805060 0.009440 -0.003770 
#    y 0.009440 1.794650 0.011590 
#    z -0.003770 0.011590 1.805540 
# 
# From -- ./inp_files/299275.got.cif
#   From: 2010.06.25/outbox.cif.g09.slc.cpg/sg2_150_cif.got.tgz:299275.got - 2010.06.27 13:26:56.
