data_PCOD8006437
_publ_section_title
;
Structure prediction by ZEFSAII (Michael W. Deem and Ramdas Pophale) SiO2 
 PCOD8006437
Probable space group: P -1
;
_chemical_formula_sum "Si O2"
_cell_formula_units_Z 16
_cell_length_a 14.729065
_cell_length_b 9.438894
_cell_length_c 14.736898
_cell_angle_alpha 123.123392
_cell_angle_beta 40.432812
_cell_angle_gamma 92.120015
_cell_volume 797.271492
_symmetry_space_group_name_H-M "P -1"
_symmetry_group_IT_number 2
_symmetry_cell_setting 'triclinic'
loop_
_space_group_symop_operation_xyz
x,y,z
-x,-y,-z
loop_
_atom_site_type_symbol
_atom_site_label
_atom_site_fract_x
_atom_site_fract_y
_atom_site_fract_z
Si Si1 0.269512 0.121517 0.127709
Si Si2 0.995914 0.742509 0.130822
Si Si3 0.709191 0.686649 0.004863
Si Si4 0.297070 0.331662 0.348971
Si Si5 0.370196 0.732764 0.236648
Si Si6 0.922427 0.177305 0.371150
Si Si7 0.890304 0.774411 0.425454
Si Si8 0.280332 0.226053 0.772867
O O1 0.284135 0.196959 0.045414
O O2 0.224546 0.298640 0.300965
O O3 0.099978 0.126488 0.264569
O O4 0.469628 0.850565 0.897910
O O5 0.886780 0.785681 0.322528
O O6 0.867708 0.786380 0.159716
O O7 0.011685 0.932105 0.172393
O O8 0.210020 0.471735 0.876129
O O9 0.893199 0.403064 0.759279
O O10 0.511126 0.746940 0.185856
O O11 0.736341 0.774128 0.105764
O O12 0.191614 0.602510 0.534287
O O13 0.229877 0.288253 0.474190
O O14 0.244055 0.727122 0.397416
O O15 0.227050 0.960219 0.358499
O O16 0.500000 0.500000 0.000000
O O17 0.500000 0.000000 0.500000
#
# Coordination Sequence:
#
# PCOD8006437 Si02
#       8
#     2   2   2   2   2   2   2   2
#     4  11  24  39  61  91 129 170 211 241 303 373
#     4   9  22  41  61  97 119 150 209 262 312 364
#     4  11  22  41  64  92 119 166 210 245 312 375
#     4  11  23  39  64  87 128 177 205 239 305 375
#     4  11  24  38  58  95 129 158 212 260 292 361
#     4  11  23  40  62  92 130 158 204 267 304 353
#     4  10  21  39  63  88 123 166 203 249 302 369
#     4  10  20  39  70  88 117 159 205 257 319 369
#
# _framework density 20.068444
#
# number of rings (size 3 to 8) (size 9 to 14) (size 15 to 20)
#    0.000    1.500    2.500    2.625    3.500    4.500 
#    0.000    0.625    0.000    1.500    0.000    0.000 
#    0.000    0.000    0.000    0.000    0.000    0.000 
#
# Total GULP energy -198345.323186 kJ/mol
# GULP energy per Si atom -12396.582699 kJ/mol
# Density = 2.002277 g / cm^3
# Si number density = 20.068444 Si / 1000 Ang^3
#
#
#
# Elastic Constant Matrix: (Units=GPa)
#
#
# Indices 1 2 3 4 5 6 
#
# 1 109.0927 45.3391 39.0678 2.5414 -3.0123 0.9337
# 2 45.3391 122.9392 51.1696 13.7647 4.7610 11.2162
# 3 39.0678 51.1696 130.4904 25.2434 -11.0118 10.3452
# 4 2.5414 13.7647 25.2434 50.9399 7.5655 -0.0243
# 5 -3.0123 4.7610 -11.0118 7.5655 28.3310 -2.3085
# 6 0.9337 11.2162 10.3452 -0.0243 -2.3085 26.3578
#
#
#
# Elastic Compliance Matrix: (Units=1/GPa)
#
#
# Indices 1 2 3 4 5 6 
#
# 1 0.011508 -0.003622 -0.002432 0.001513 0.000658 0.002147
# 2 -0.003622 0.011392 -0.003250 -0.000744 -0.003671 -0.003766
# 3 -0.002432 -0.003250 0.011450 -0.005570 0.006021 -0.002503
# 4 0.001513 -0.000744 -0.005570 0.023716 -0.008068 0.001764
# 5 0.000658 -0.003671 0.006021 -0.008068 0.040701 0.002733
# 6 0.002147 -0.003766 -0.002503 0.001764 0.002733 0.040689
#
#
# Mechanical properties :
#
#
# Convention : Reuss Voigt Hill
#
# Bulk Modulus (GPa) = 63.53205 70.40835 66.97020
# Shear Modulus (GPa) = 30.61630 36.25548 33.43589
#
# Velocity S-wave (km/s) = 3.91012 4.25501 4.08621
# Velocity P-wave (km/s) = 7.21885 7.70068 7.46365
#
# Compressibility (1/GPa) = 0.01574009
#
# Stress axis : x y z
#
# Youngs Moduli (GPa) = 86.89937 87.78335 87.33538
#
# Poissons Ratio (x) = 0.31798 0.21243
# Poissons Ratio (y) = 0.31478 0.28383
# Poissons Ratio (z) = 0.21137 0.28529
#
# Static dielectric constant tensor:
#      x y z
#    x 3.675640 -0.033330 -0.170310 
#    y -0.033330 3.788050 0.280930 
#    z -0.170310 0.280930 4.134280 
# 
# 
# High freq. dielectric constant tensor:
#      x y z
#    x 1.764670 -0.006610 -0.015210 
#    y -0.006610 1.778780 0.017120 
#    z -0.015210 0.017120 1.805300 
# 
# From -- ./inp_files/313423.got.cif
#   From: 2010.06.25/outbox.cif.g09.slc.cpg/sg2_157_cif.got.tgz:313423.got - 2010.06.27 13:26:56.
