data_PCOD8006979
_publ_section_title
;
Structure prediction by ZEFSAII (Michael W. Deem and Ramdas Pophale) SiO2 
 PCOD8006979
Probable space group: P -1
;
_chemical_formula_sum "Si O2"
_cell_formula_units_Z 14
_cell_length_a 15.661743
_cell_length_b 15.466874
_cell_length_c 12.369738
_cell_angle_alpha 45.288618
_cell_angle_beta 25.086976
_cell_angle_gamma 32.253531
_cell_volume 651.729456
_symmetry_space_group_name_H-M "P -1"
_symmetry_group_IT_number 2
_symmetry_cell_setting 'triclinic'
loop_
_space_group_symop_operation_xyz
x,y,z
-x,-y,-z
loop_
_atom_site_type_symbol
_atom_site_label
_atom_site_fract_x
_atom_site_fract_y
_atom_site_fract_z
Si Si1 0.575200 0.649446 0.204524
Si Si2 0.800296 0.868488 0.083176
Si Si3 0.315614 0.231587 0.317027
Si Si4 0.717398 0.513714 0.766075
Si Si5 0.188440 0.411636 0.633552
Si Si6 0.574019 0.051699 0.971862
Si Si7 0.429775 0.616162 0.625278
O O1 0.350071 0.846286 0.252707
O O2 0.887873 0.563765 0.895969
O O3 0.560987 0.639056 0.358159
O O4 0.501708 0.554761 0.313412
O O5 0.719708 0.763999 0.291260
O O6 0.562639 0.051963 0.250829
O O7 0.809029 0.891502 0.921121
O O8 0.098926 0.776917 0.870455
O O9 0.389461 0.346141 0.143583
O O10 0.312020 0.190656 0.230790
O O11 0.009418 0.329247 0.631465
O O12 0.806937 0.564091 0.520195
O O13 0.500000 0.500000 0.000000
O O14 0.425456 0.401826 0.415929
O O15 0.500000 0.000000 0.000000
#
# Coordination Sequence:
#
# PCOD8006979 Si02
#       7
#     2   2   2   2   2   2   2
#     4  10  21  39  59  92 125 168 201 250 301 366
#     4   9  22  40  59  94 126 158 199 255 316 361
#     4   9  23  46  62  89 128 154 207 270 301 360
#     4  11  24  42  70  90 114 168 219 257 304 364
#     4  11  21  39  64  88 126 164 204 254 310 360
#     4  10  20  40  66  88 124 167 197 249 320 364
#     4  10  22  36  61  93 130 160 204 245 302 386
#
# _framework density 21.481307000000001
#
# number of rings (size 3 to 8) (size 9 to 14) (size 15 to 20)
#    0.857    1.143    1.429    1.286    2.000    5.714 
#    0.000    2.857    0.000    0.000    0.000    0.000 
#    0.000    0.000    0.000    0.000    0.000    0.000 
#
# Total GULP energy -173439.608005 kJ/mol
# GULP energy per Si atom -12388.543429 kJ/mol
# Density = 2.143241 g / cm^3
# Si number density = 21.481307 Si / 1000 Ang^3
#
#
#
# Elastic Constant Matrix: (Units=GPa)
#
#
# Indices 1 2 3 4 5 6 
#
# 1 68.0629 13.9313 24.7390 3.3371 -5.9234 13.3021
# 2 13.9313 109.6422 28.7508 -10.5912 7.6379 4.5891
# 3 24.7390 28.7508 76.0755 -9.9349 -10.7279 5.6983
# 4 3.3371 -10.5912 -9.9349 23.2911 1.0570 7.8697
# 5 -5.9234 7.6379 -10.7279 1.0570 28.7851 -3.4687
# 6 13.3021 4.5891 5.6983 7.8697 -3.4687 37.5026
#
#
#
# Elastic Compliance Matrix: (Units=1/GPa)
#
#
# Indices 1 2 3 4 5 6 
#
# 1 0.018110 -0.001202 -0.005392 -0.004008 0.001645 -0.004464
# 2 -0.001202 0.011119 -0.003807 0.004421 -0.004989 -0.001745
# 3 -0.005392 -0.003807 0.018227 0.006960 0.006285 -0.001270
# 4 -0.004008 0.004421 0.006960 0.052477 -0.002709 -0.011440
# 5 0.001645 -0.004989 0.006285 -0.002709 0.039238 0.003270
# 6 -0.004464 -0.001745 -0.001270 -0.011440 0.003270 0.031358
#
#
# Mechanical properties :
#
#
# Convention : Reuss Voigt Hill
#
# Bulk Modulus (GPa) = 37.51636 43.18032 40.34834
# Shear Modulus (GPa) = 24.97296 30.33973 27.65635
#
# Velocity S-wave (km/s) = 3.41331 3.76224 3.59201
# Velocity P-wave (km/s) = 5.74777 6.24641 6.00227
#
# Compressibility (1/GPa) = 0.02665504
#
# Stress axis : x y z
#
# Youngs Moduli (GPa) = 55.21709 89.93466 54.86249
#
# Poissons Ratio (x) = 0.10811 0.29582
# Poissons Ratio (y) = 0.06638 0.20885
# Poissons Ratio (z) = 0.29773 0.34237
#
# Static dielectric constant tensor:
#      x y z
#    x 3.755650 -0.091550 0.076850 
#    y -0.091550 4.153000 -0.020520 
#    z 0.076850 -0.020520 3.590280 
# 
# 
# High freq. dielectric constant tensor:
#      x y z
#    x 1.836840 -0.004250 0.001050 
#    y -0.004250 1.856660 -0.003030 
#    z 0.001050 -0.003030 1.820830 
# 
# From -- ./inp_files/538998.got.cif
#   From: 2010.06.25/outbox.cif.g09.slc.cpg/sg2_270_cif.got.tgz:538998.got - 2010.06.27 13:26:56.
