data_PCOD8006956
_publ_section_title
;
Structure prediction by ZEFSAII (Michael W. Deem and Ramdas Pophale) SiO2 
 PCOD8006956
Probable space group: P -1
;
_chemical_formula_sum "Si O2"
_cell_formula_units_Z 14
_cell_length_a 11.521407
_cell_length_b 13.242170
_cell_length_c 6.545611
_cell_angle_alpha 132.468863
_cell_angle_beta 57.535313
_cell_angle_gamma 122.220696
_cell_volume 597.678883
_symmetry_space_group_name_H-M "P -1"
_symmetry_group_IT_number 2
_symmetry_cell_setting 'triclinic'
loop_
_space_group_symop_operation_xyz
x,y,z
-x,-y,-z
loop_
_atom_site_type_symbol
_atom_site_label
_atom_site_fract_x
_atom_site_fract_y
_atom_site_fract_z
Si Si1 0.915451 0.638967 0.839846
Si Si2 0.219556 0.655602 0.611748
Si Si3 0.612282 0.156025 0.636778
Si Si4 0.554617 0.361389 0.306823
Si Si5 0.131553 0.181678 0.220021
Si Si6 0.276295 0.217359 0.527155
Si Si7 0.167159 0.972986 0.572479
O O1 0.849831 0.469927 0.655720
O O2 0.926736 0.704008 0.690602
O O3 0.073062 0.694746 0.874364
O O4 0.798230 0.688186 0.141610
O O5 0.330386 0.781666 0.555208
O O6 0.292877 0.604952 0.671514
O O7 0.500000 0.000000 0.500000
O O8 0.745915 0.141213 0.625987
O O9 0.551801 0.269413 0.976088
O O10 0.500000 0.500000 0.500000
O O11 0.447586 0.269511 0.454689
O O12 0.254638 0.251674 0.357716
O O13 0.201593 0.087911 0.879402
O O14 0.002654 0.091387 0.360314
O O15 0.220087 0.051553 0.415385
#
# Coordination Sequence:
#
# PCOD8006956 Si02
#       7
#     2   2   2   2   2   2   2
#     4  10  23  43  70 102 130 183 233 291 342 401
#     4  11  25  45  70  98 139 178 236 289 342 409
#     4  12  26  45  70 102 145 182 231 281 347 414
#     4  12  28  47  69 102 137 190 233 280 349 416
#     4  10  20  40  65  97 138 171 227 278 347 403
#     4  11  23  40  67  98 136 178 226 282 343 411
#     4  10  22  38  62 100 132 180 219 278 343 405
#
# _framework density 23.423952
#
# number of rings (size 3 to 8) (size 9 to 14) (size 15 to 20)
#    0.000    1.143    1.429    3.857    2.000    8.000 
#    0.000    3.571    0.000    0.000    0.000    0.000 
#    0.000    0.000    0.000    0.000    0.000    0.000 
#
# Total GULP energy -173526.715605 kJ/mol
# GULP energy per Si atom -12394.765400 kJ/mol
# Density = 2.337064 g / cm^3
# Si number density = 23.423952 Si / 1000 Ang^3
#
#
#
# Elastic Constant Matrix: (Units=GPa)
#
#
# Indices 1 2 3 4 5 6 
#
# 1 117.1853 26.2525 19.9217 -5.3158 -1.3779 -10.6080
# 2 26.2525 97.8912 14.2891 -0.8603 -4.8716 3.2382
# 3 19.9217 14.2891 74.6775 4.1930 -15.3517 9.3917
# 4 -5.3158 -0.8603 4.1930 34.2406 0.7609 -5.9341
# 5 -1.3779 -4.8716 -15.3517 0.7609 30.2643 2.1312
# 6 -10.6080 3.2382 9.3917 -5.9341 2.1312 40.9564
#
#
#
# Elastic Compliance Matrix: (Units=1/GPa)
#
#
# Indices 1 2 3 4 5 6 
#
# 1 0.010103 -0.002437 -0.003288 0.002655 -0.001952 0.004050
# 2 -0.002437 0.011126 -0.001034 -0.000238 0.001258 -0.001374
# 3 -0.003288 -0.001034 0.017240 -0.003842 0.008930 -0.005745
# 4 0.002655 -0.000238 -0.003842 0.031238 -0.003093 0.006274
# 5 -0.001952 0.001258 0.008930 -0.003093 0.038121 -0.005085
# 6 0.004050 -0.001374 -0.005745 0.006274 -0.005085 0.028065
#
#
# Mechanical properties :
#
#
# Convention : Reuss Voigt Hill
#
# Bulk Modulus (GPa) = 40.08109 45.63119 42.85614
# Shear Modulus (GPa) = 31.70017 36.37830 34.03924
#
# Velocity S-wave (km/s) = 3.68274 3.94514 3.81620
# Velocity P-wave (km/s) = 5.93564 6.34626 6.14438
#
# Compressibility (1/GPa) = 0.02494942
#
# Stress axis : x y z
#
# Youngs Moduli (GPa) = 98.98454 89.88046 58.00485
#
# Poissons Ratio (x) = 0.21905 0.19075
# Poissons Ratio (y) = 0.24123 0.05997
# Poissons Ratio (z) = 0.32551 0.09293
#
# Static dielectric constant tensor:
#      x y z
#    x 4.276020 -0.037260 -0.242660 
#    y -0.037260 4.458250 -0.089050 
#    z -0.242660 -0.089050 4.093400 
# 
# 
# High freq. dielectric constant tensor:
#      x y z
#    x 1.937330 0.001920 -0.016690 
#    y 0.001920 1.931500 -0.002350 
#    z -0.016690 -0.002350 1.917040 
# 
# From -- ./inp_files/72125.got.cif
#   From: 2010.06.25/outbox.cif.g09.slc.cpg/sg2_37_cif.got.tgz:72125.got - 2010.06.27 13:26:56.
