data_PCOD8006519
_publ_section_title
;
Structure prediction by ZEFSAII (Michael W. Deem and Ramdas Pophale) SiO2 
 PCOD8006519
Probable space group: P -1
;
_chemical_formula_sum "Si O2"
_cell_formula_units_Z 16
_cell_length_a 8.741517
_cell_length_b 15.438575
_cell_length_c 16.418726
_cell_angle_alpha 116.748395
_cell_angle_beta 41.267873
_cell_angle_gamma 84.247178
_cell_volume 871.280642
_symmetry_space_group_name_H-M "P -1"
_symmetry_group_IT_number 2
_symmetry_cell_setting 'triclinic'
loop_
_space_group_symop_operation_xyz
x,y,z
-x,-y,-z
loop_
_atom_site_type_symbol
_atom_site_label
_atom_site_fract_x
_atom_site_fract_y
_atom_site_fract_z
Si Si1 0.327034 0.351168 0.848955
Si Si2 0.810800 0.329310 0.559009
Si Si3 0.366131 0.434894 0.042382
Si Si4 0.519654 0.292986 0.081368
Si Si5 0.126295 0.394559 0.554179
Si Si6 0.864790 0.334638 0.060752
Si Si7 0.739241 0.834204 0.848483
Si Si8 0.729580 0.344472 0.301171
O O1 0.687367 0.264667 0.621097
O O2 0.352810 0.378856 0.942538
O O3 0.000000 0.500000 0.000000
O O4 0.231701 0.266069 0.853430
O O5 0.464385 0.501083 0.768401
O O6 0.093306 0.295966 0.489274
O O7 0.975362 0.261936 0.377114
O O8 0.599705 0.303676 0.960762
O O9 0.980552 0.568926 0.292008
O O10 0.500000 0.500000 0.000000
O O11 0.814823 0.243606 0.003081
O O12 0.513625 0.179700 0.048496
O O13 0.133567 0.452801 0.327797
O O14 0.514211 0.313457 0.357002
O O15 0.882122 0.332330 0.149924
O O16 0.943351 0.784282 0.829455
O O17 0.500000 0.000000 0.000000
O O18 0.500000 0.500000 0.500000
#
# Coordination Sequence:
#
# PCOD8006519 Si02
#       8
#     2   2   2   2   2   2   2   2
#     4  10  18  28  48  86 120 143 175 230 284 340
#     4  10  19  34  52  81 120 147 181 230 287 332
#     4  10  16  30  51  89 122 139 174 233 300 329
#     4   9  19  35  55  80 115 148 181 233 291 329
#     4   9  18  30  55  85 110 137 182 232 284 320
#     4  10  18  32  57  86 112 137 186 242 289 323
#     4  12  25  39  54  79 118 157 188 230 283 338
#     4  12  19  33  57  85 104 140 194 242 275 326
#
# _framework density 18.363772000000001
#
# number of rings (size 3 to 8) (size 9 to 14) (size 15 to 20)
#    0.750    1.000    3.750    3.000    1.750    2.000 
#    0.000    2.500    0.000    3.750    0.000    0.000 
#    0.000    0.000    0.000    0.000    0.000    0.000 
#
# Total GULP energy -198245.880204 kJ/mol
# GULP energy per Si atom -12390.367513 kJ/mol
# Density = 1.832198 g / cm^3
# Si number density = 18.363772 Si / 1000 Ang^3
#
#
#
# Elastic Constant Matrix: (Units=GPa)
#
#
# Indices 1 2 3 4 5 6 
#
# 1 129.8174 58.9630 19.2799 -13.8807 -8.5252 10.3137
# 2 58.9630 126.7889 36.7044 -26.1447 -9.4049 20.3897
# 3 19.2799 36.7044 20.9215 -11.8198 -6.0046 8.0760
# 4 -13.8807 -26.1447 -11.8198 33.3428 -1.4906 -5.2323
# 5 -8.5252 -9.4049 -6.0046 -1.4906 20.4286 -14.5008
# 6 10.3137 20.3897 8.0760 -5.2323 -14.5008 39.3521
#
#
#
# Elastic Compliance Matrix: (Units=1/GPa)
#
#
# Indices 1 2 3 4 5 6 
#
# 1 0.009901 -0.004045 -0.001162 0.000773 0.002535 0.000777
# 2 -0.004045 0.018342 -0.026563 0.002481 -0.003738 -0.004040
# 3 -0.001162 -0.026563 0.112645 0.020022 0.023459 0.002257
# 4 0.000773 0.002481 0.020022 0.040744 0.013807 0.004908
# 5 0.002535 -0.003738 0.023459 0.013807 0.074455 0.025729
# 6 0.000777 -0.004040 0.002257 0.004908 0.025729 0.036971
#
#
# Mechanical properties :
#
#
# Convention : Reuss Voigt Hill
#
# Bulk Modulus (GPa) = 12.92897 56.38027 34.65462
# Shear Modulus (GPa) = 13.07596 29.46338 21.26967
#
# Velocity S-wave (km/s) = 2.67133 4.00988 3.40699
# Velocity P-wave (km/s) = 4.07068 7.22547 5.86420
#
# Compressibility (1/GPa) = 0.07734566
#
# Stress axis : x y z
#
# Youngs Moduli (GPa) = 101.00491 54.51917 8.87746
#
# Poissons Ratio (x) = 0.22054 0.01032
# Poissons Ratio (y) = 0.40859 0.23582
# Poissons Ratio (z) = 0.11740 1.44822
#
# Static dielectric constant tensor:
#      x y z
#    x 4.134810 0.138340 0.086890 
#    y 0.138340 3.569150 -0.520700 
#    z 0.086890 -0.520700 3.000570 
# 
# 
# High freq. dielectric constant tensor:
#      x y z
#    x 1.732020 0.007910 0.000610 
#    y 0.007910 1.709160 -0.051050 
#    z 0.000610 -0.051050 1.646390 
# 
# From -- ./inp_files/561162.got.cif
#   From: 2010.06.25/outbox.cif.g09.slc.cpg/sg2_281_cif.got.tgz:561162.got - 2010.06.27 13:26:56.
