data_PCOD8006144
_publ_section_title
;
Structure prediction by ZEFSAII (Michael W. Deem and Ramdas Pophale) SiO2 
 PCOD8006144
Probable space group: P -1
;
_chemical_formula_sum "Si O2"
_cell_formula_units_Z 16
_cell_length_a 12.857414
_cell_length_b 9.565164
_cell_length_c 18.038901
_cell_angle_alpha 141.269311
_cell_angle_beta 137.368378
_cell_angle_gamma 36.094773
_cell_volume 783.585919
_symmetry_space_group_name_H-M "P -1"
_symmetry_group_IT_number 2
_symmetry_cell_setting 'triclinic'
loop_
_space_group_symop_operation_xyz
x,y,z
-x,-y,-z
loop_
_atom_site_type_symbol
_atom_site_label
_atom_site_fract_x
_atom_site_fract_y
_atom_site_fract_z
Si Si1 0.954763 0.453531 0.132428
Si Si2 0.571575 0.837483 0.304087
Si Si3 0.039288 0.322848 0.519261
Si Si4 0.825538 0.783226 0.711200
Si Si5 0.556565 0.346920 0.141903
Si Si6 0.145871 0.750457 0.137515
Si Si7 0.566566 0.682823 0.083446
Si Si8 0.923357 0.941700 0.246822
O O1 0.783539 0.492959 0.104327
O O2 0.130643 0.263552 0.197595
O O3 0.933507 0.734418 0.225025
O O4 0.972709 0.310538 0.004784
O O5 0.743247 0.852220 0.422480
O O6 0.615862 0.545278 0.227494
O O7 0.531162 0.890457 0.216112
O O8 0.394477 0.069127 0.351632
O O9 0.000000 0.500000 0.500000
O O10 0.926912 0.505708 0.605853
O O11 0.976902 0.121068 0.392299
O O12 0.889451 0.966808 0.787283
O O13 0.362045 0.513918 0.152216
O O14 0.713187 0.123128 0.183869
O O15 0.536635 0.190925 0.997014
O O16 0.067600 0.777085 0.189102
O O17 0.500000 0.500000 0.000000
#
# Coordination Sequence:
#
# PCOD8006144 Si02
#       8
#     2   2   2   2   2   2   2   2
#     4  11  24  42  63 101 133 164 212 267 329 378
#     4  10  20  39  65  97 118 164 223 269 304 364
#     4  12  23  42  67  91 129 176 219 258 311 383
#     4  11  23  41  68  96 122 168 225 265 307 382
#     4   9  20  37  63  94 125 166 213 261 320 374
#     4  10  22  40  65  95 127 165 214 266 321 382
#     4   9  19  37  64  92 125 159 210 260 314 376
#     4  12  25  41  64  94 138 174 204 265 325 380
#
# _framework density 20.418949000000001
#
# number of rings (size 3 to 8) (size 9 to 14) (size 15 to 20)
#    0.000    1.500    3.750    1.500    3.500    4.000 
#    2.250    0.625    0.000    0.000    0.000    0.000 
#    0.000    0.000    0.000    0.000    0.000    0.000 
#
# Total GULP energy -198410.653116 kJ/mol
# GULP energy per Si atom -12400.665820 kJ/mol
# Density = 2.037247 g / cm^3
# Si number density = 20.418949 Si / 1000 Ang^3
#
#
#
# Elastic Constant Matrix: (Units=GPa)
#
#
# Indices 1 2 3 4 5 6 
#
# 1 73.7873 47.7626 35.4229 -0.3175 4.1707 -6.0353
# 2 47.7626 70.9607 30.2185 -16.8029 13.1169 -8.7732
# 3 35.4229 30.2185 114.1684 -9.3363 5.3855 -8.7740
# 4 -0.3175 -16.8029 -9.3363 31.5061 -0.7816 1.4602
# 5 4.1707 13.1169 5.3855 -0.7816 19.1033 1.4587
# 6 -6.0353 -8.7732 -8.7740 1.4602 1.4587 24.4098
#
#
#
# Elastic Compliance Matrix: (Units=1/GPa)
#
#
# Indices 1 2 3 4 5 6 
#
# 1 0.030612 -0.024056 -0.004963 -0.013597 0.010883 -0.002698
# 2 -0.024056 0.040186 0.000203 0.020296 -0.022231 0.008683
# 3 -0.004963 0.000203 0.010806 0.003082 -0.002180 0.002676
# 4 -0.013597 0.020296 0.003082 0.042941 -0.010315 0.003088
# 5 0.010883 -0.022231 -0.002180 -0.010315 0.066147 -0.009419
# 6 -0.002698 0.008683 0.002676 0.003088 -0.009419 0.044761
#
#
# Mechanical properties :
#
#
# Convention : Reuss Voigt Hill
#
# Bulk Modulus (GPa) = 41.71634 53.96937 47.84286
# Shear Modulus (GPa) = 16.60700 24.70467 20.65583
#
# Velocity S-wave (km/s) = 2.85496 3.48212 3.18402
# Velocity P-wave (km/s) = 5.59842 6.53110 6.08266
#
# Compressibility (1/GPa) = 0.02397142
#
# Stress axis : x y z
#
# Youngs Moduli (GPa) = 32.66653 24.88402 92.54259
#
# Poissons Ratio (x) = 0.59861 0.45933
# Poissons Ratio (y) = 0.78583 -0.01877
# Poissons Ratio (z) = 0.16214 -0.00505
#
# Static dielectric constant tensor:
#      x y z
#    x 3.743770 -0.045760 -0.129730 
#    y -0.045760 3.545770 -0.192020 
#    z -0.129730 -0.192020 3.909530 
# 
# 
# High freq. dielectric constant tensor:
#      x y z
#    x 1.801650 -0.013020 -0.003520 
#    y -0.013020 1.781280 -0.015060 
#    z -0.003520 -0.015060 1.798190 
# 
# From -- ./inp_files/273863.got.cif
#   From: 2010.06.25/outbox.cif.g09.slc.cpg/sg2_137_cif.got.tgz:273863.got - 2010.06.27 13:26:56.
