data_PCOD8006104
_publ_section_title
;
Structure prediction by ZEFSAII (Michael W. Deem and Ramdas Pophale) SiO2 
 PCOD8006104
Probable space group: P -1
;
_chemical_formula_sum "Si O2"
_cell_formula_units_Z 16
_cell_length_a 6.374162
_cell_length_b 14.438401
_cell_length_c 15.129328
_cell_angle_alpha 48.149843
_cell_angle_beta 53.228605
_cell_angle_gamma 83.285274
_cell_volume 731.822895
_symmetry_space_group_name_H-M "P -1"
_symmetry_group_IT_number 2
_symmetry_cell_setting 'triclinic'
loop_
_space_group_symop_operation_xyz
x,y,z
-x,-y,-z
loop_
_atom_site_type_symbol
_atom_site_label
_atom_site_fract_x
_atom_site_fract_y
_atom_site_fract_z
Si Si1 0.839665 0.660943 0.693514
Si Si2 0.235802 0.102834 0.528698
Si Si3 0.203436 0.306525 0.682111
Si Si4 0.324539 0.106854 0.882708
Si Si5 0.914914 0.203725 0.277580
Si Si6 0.168596 0.943618 0.186339
Si Si7 0.773925 0.485089 0.324411
Si Si8 0.805232 0.555115 0.066851
O O1 0.901711 0.806441 0.538793
O O2 0.529625 0.530356 0.828335
O O3 0.856425 0.692597 0.773518
O O4 0.095340 0.622628 0.625552
O O5 0.591437 0.192828 0.381630
O O6 0.116428 0.072726 0.677937
O O7 0.116948 0.951950 0.607036
O O8 0.392347 0.259001 0.731382
O O9 0.423741 0.405614 0.486709
O O10 0.071612 0.386982 0.725580
O O11 0.930239 0.179302 0.784158
O O12 0.580439 0.067644 0.809341
O O13 0.313363 0.093035 0.001820
O O14 0.000000 0.000000 0.000000
O O15 0.053760 0.278426 0.101019
O O16 0.826756 0.542978 0.174174
O O17 0.000000 0.500000 0.000000
#
# Coordination Sequence:
#
# PCOD8006104 Si02
#       8
#     2   2   2   2   2   2   2   2
#     4  12  22  43  67  94 129 177 215 266 327 385
#     4  11  24  42  68  96 131 171 215 272 322 385
#     4  10  22  42  62  96 129 163 216 263 318 384
#     4   9  20  39  61  86 127 164 206 263 309 377
#     4  11  25  43  64  98 132 169 220 268 324 388
#     4  10  20  39  65  93 126 169 212 257 325 381
#     4  11  25  40  67  96 128 170 213 266 322 383
#     4  12  24  44  66  94 135 173 216 272 325 383
#
# _framework density 21.863212000000001
#
# number of rings (size 3 to 8) (size 9 to 14) (size 15 to 20)
#    0.000    1.250    2.500    3.000    1.750    2.000 
#    4.500    3.125    0.000    0.000    0.000    0.000 
#    0.000    0.000    0.000    0.000    0.000    0.000 
#
# Total GULP energy -198323.965164 kJ/mol
# GULP energy per Si atom -12395.247823 kJ/mol
# Density = 2.181345 g / cm^3
# Si number density = 21.863212 Si / 1000 Ang^3
#
#
#
# Elastic Constant Matrix: (Units=GPa)
#
#
# Indices 1 2 3 4 5 6 
#
# 1 92.3089 39.9086 33.2995 6.3624 -1.5644 -7.3030
# 2 39.9086 94.7254 35.8432 16.6925 -1.2304 -0.9018
# 3 33.2995 35.8432 126.4246 15.4801 12.2839 -2.5129
# 4 6.3624 16.6925 15.4801 30.9123 3.1948 5.5355
# 5 -1.5644 -1.2304 12.2839 3.1948 33.2482 -9.1296
# 6 -7.3030 -0.9018 -2.5129 5.5355 -9.1296 28.3655
#
#
#
# Elastic Compliance Matrix: (Units=1/GPa)
#
#
# Indices 1 2 3 4 5 6 
#
# 1 0.014262 -0.004991 -0.002509 0.000019 0.002539 0.004105
# 2 -0.004991 0.014618 -0.002259 -0.006078 0.001942 0.000791
# 3 -0.002509 -0.002259 0.009900 -0.002745 -0.003735 -0.000507
# 4 0.000019 -0.006078 -0.002745 0.039378 -0.005729 -0.009960
# 5 0.002539 0.001942 -0.003735 -0.005729 0.035772 0.013016
# 6 0.004105 0.000791 -0.000507 -0.009960 0.013016 0.042424
#
#
# Mechanical properties :
#
#
# Convention : Reuss Voigt Hill
#
# Bulk Modulus (GPa) = 51.91167 59.06238 55.48702
# Shear Modulus (GPa) = 27.42843 32.13237 29.78040
#
# Velocity S-wave (km/s) = 3.54580 3.83783 3.69470
# Velocity P-wave (km/s) = 6.36859 6.83460 6.60571
#
# Compressibility (1/GPa) = 0.01926349
#
# Stress axis : x y z
#
# Youngs Moduli (GPa) = 70.11410 68.40956 101.01041
#
# Poissons Ratio (x) = 0.34141 0.25344
# Poissons Ratio (y) = 0.34992 0.22814
# Poissons Ratio (z) = 0.17592 0.15451
#
# Static dielectric constant tensor:
#      x y z
#    x 4.090970 -0.235130 0.327480 
#    y -0.235130 3.899290 -0.149690 
#    z 0.327480 -0.149690 4.336440 
# 
# 
# High freq. dielectric constant tensor:
#      x y z
#    x 1.855630 -0.010500 0.007730 
#    y -0.010500 1.845570 -0.003360 
#    z 0.007730 -0.003360 1.876570 
# 
# From -- ./inp_files/484326.got.cif
#   From: 2010.06.25/outbox.cif.g09.slc.cpg/sg2_243_cif.got.tgz:484326.got - 2010.06.27 13:26:56.
