data_PCOD8006901
_publ_section_title
;
Structure prediction by ZEFSAII (Michael W. Deem and Ramdas Pophale) SiO2 
 PCOD8006901
Probable space group: P -1
;
_chemical_formula_sum "Si O2"
_cell_formula_units_Z 16
_cell_length_a 14.186218
_cell_length_b 11.103949
_cell_length_c 6.954116
_cell_angle_alpha 78.440339
_cell_angle_beta 80.187431
_cell_angle_gamma 52.238272
_cell_volume 846.833550
_symmetry_space_group_name_H-M "P -1"
_symmetry_group_IT_number 2
_symmetry_cell_setting 'triclinic'
loop_
_space_group_symop_operation_xyz
x,y,z
-x,-y,-z
loop_
_atom_site_type_symbol
_atom_site_label
_atom_site_fract_x
_atom_site_fract_y
_atom_site_fract_z
Si Si1 0.454950 0.156478 0.741105
Si Si2 0.885961 0.853296 0.786582
Si Si3 0.106212 0.699073 0.494612
Si Si4 0.521049 0.344459 0.493539
Si Si5 0.317091 0.366252 0.408712
Si Si6 0.673628 0.829277 0.839533
Si Si7 0.959548 0.905691 0.137503
Si Si8 0.206131 0.877407 0.545488
O O1 0.495627 0.270113 0.705677
O O2 0.361822 0.219415 0.576353
O O3 0.572486 0.984770 0.712416
O O4 0.382655 0.165916 0.943159
O O5 0.793414 0.813682 0.828239
O O6 0.999484 0.729650 0.654979
O O7 0.825769 0.023205 0.668643
O O8 0.921879 0.843313 0.999747
O O9 0.203313 0.517949 0.496593
O O10 0.160161 0.774836 0.562489
O O11 0.065328 0.764813 0.272014
O O12 0.500000 0.500000 0.500000
O O13 0.427023 0.379768 0.345443
O O14 0.655656 0.225486 0.416135
O O15 0.288440 0.326095 0.228894
O O16 0.851104 0.015282 0.283731
O O17 0.000000 0.000000 0.000000
#
# Coordination Sequence:
#
# PCOD8006901 Si02
#       8
#     2   2   2   2   2   2   2   2
#     4   9  22  40  65  87 124 156 205 255 291 356
#     4  11  22  38  62  88 121 161 203 250 295 361
#     4  11  22  38  61  89 129 156 200 254 307 358
#     4  10  20  40  65  91 121 157 193 249 320 356
#     4  10  23  40  61  87 128 160 195 249 308 354
#     4  11  22  41  64  90 122 163 210 242 295 364
#     4  11  21  36  61  91 118 161 206 249 303 353
#     4  11  19  38  63  91 121 155 198 253 307 363
#
# _framework density 18.893913000000001
#
# number of rings (size 3 to 8) (size 9 to 14) (size 15 to 20)
#    0.750    0.750    5.000    1.125    0.000    5.500 
#    2.250    1.875    0.000    0.000    0.000    0.000 
#    0.000    0.000    0.000    0.000    0.000    0.000 
#
# Total GULP energy -198281.203785 kJ/mol
# GULP energy per Si atom -12392.575237 kJ/mol
# Density = 1.885091 g / cm^3
# Si number density = 18.893913 Si / 1000 Ang^3
#
#
#
# Elastic Constant Matrix: (Units=GPa)
#
#
# Indices 1 2 3 4 5 6 
#
# 1 139.8898 51.0760 44.3742 12.0436 -0.5154 -5.7769
# 2 51.0760 79.5551 23.3174 12.3944 1.0712 -13.1220
# 3 44.3742 23.3174 80.7092 7.4283 9.6452 -5.4138
# 4 12.0436 12.3944 7.4283 22.4023 6.3852 1.2660
# 5 -0.5154 1.0712 9.6452 6.3852 28.9216 -1.3967
# 6 -5.7769 -13.1220 -5.4138 1.2660 -1.3967 34.6871
#
#
#
# Elastic Compliance Matrix: (Units=1/GPa)
#
#
# Indices 1 2 3 4 5 6 
#
# 1 0.010677 -0.005423 -0.004455 -0.001857 0.002248 -0.000811
# 2 -0.005423 0.018720 -0.001494 -0.007796 0.001734 0.006300
# 3 -0.004455 -0.001494 0.016019 -0.000674 -0.005169 0.001010
# 4 -0.001857 -0.007796 -0.000674 0.053831 -0.011684 -0.005799
# 5 0.002248 0.001734 -0.005169 -0.011684 0.038963 0.002219
# 6 -0.000811 0.006300 0.001010 -0.005799 0.002219 0.031536
#
#
# Mechanical properties :
#
#
# Convention : Reuss Voigt Hill
#
# Bulk Modulus (GPa) = 44.10977 59.74325 51.92651
# Shear Modulus (GPa) = 24.99420 29.29465 27.14443
#
# Velocity S-wave (km/s) = 3.64107 3.94189 3.79446
# Velocity P-wave (km/s) = 6.40884 7.23927 6.83667
#
# Compressibility (1/GPa) = 0.02267071
#
# Stress axis : x y z
#
# Youngs Moduli (GPa) = 93.66296 53.41871 62.42750
#
# Poissons Ratio (x) = 0.28972 0.27813
# Poissons Ratio (y) = 0.50798 0.09324
# Poissons Ratio (z) = 0.41729 0.07978
#
# Static dielectric constant tensor:
#      x y z
#    x 3.534950 -0.130760 0.088010 
#    y -0.130760 3.508110 -0.160600 
#    z 0.088010 -0.160600 3.246390 
# 
# 
# High freq. dielectric constant tensor:
#      x y z
#    x 1.741870 -0.008740 -0.001800 
#    y -0.008740 1.735140 -0.000010 
#    z -0.001800 -0.000010 1.719160 
# 
# From -- ./inp_files/93648.got.cif
#   From: 2010.06.25/outbox.cif.g09.slc.cpg/sg2_47_cif.got.tgz:93648.got - 2010.06.27 13:26:56.
