data_PCOD8006443
_publ_section_title
;
Structure prediction by ZEFSAII (Michael W. Deem and Ramdas Pophale) SiO2 
 PCOD8006443
Probable space group: P -1
;
_chemical_formula_sum "Si O2"
_cell_formula_units_Z 12
_cell_length_a 16.703711
_cell_length_b 9.608035
_cell_length_c 15.280283
_cell_angle_alpha 37.212265
_cell_angle_beta 152.578231
_cell_angle_gamma 148.057818
_cell_volume 588.067187
_symmetry_space_group_name_H-M "P -1"
_symmetry_group_IT_number 2
_symmetry_cell_setting 'triclinic'
loop_
_space_group_symop_operation_xyz
x,y,z
-x,-y,-z
loop_
_atom_site_type_symbol
_atom_site_label
_atom_site_fract_x
_atom_site_fract_y
_atom_site_fract_z
Si Si1 0.629021 0.790075 0.939933
Si Si2 0.264747 0.791690 0.863925
Si Si3 0.930793 0.772031 0.115928
Si Si4 0.911934 0.237158 0.105732
Si Si5 0.911095 0.122952 0.518643
Si Si6 0.759447 0.292732 0.445550
O O1 0.478802 0.823933 0.709751
O O2 0.500000 0.500000 0.000000
O O3 0.832029 0.837736 0.067933
O O4 0.699468 0.013300 0.971269
O O5 0.236633 0.513385 0.941302
O O6 0.136125 0.717526 0.865190
O O7 0.173394 0.907648 0.646477
O O8 0.500000 0.000000 0.000000
O O9 0.134932 0.781194 0.338823
O O10 0.000000 0.000000 0.000000
O O11 0.074464 0.138113 0.315641
O O12 0.000000 0.500000 0.000000
O O13 0.766378 0.162489 0.424994
O O14 0.132728 0.384952 0.615450
#
# Coordination Sequence:
#
# PCOD8006443 Si02
#       6
#     2   2   2   2   2   2
#     4  12  21  41  73  90 119 176 226 250 305 399
#     4  11  24  41  63  95 127 172 216 256 317 390
#     4  11  24  43  64  94 136 162 208 278 318 367
#     4  12  24  41  64  98 135 165 203 273 336 363
#     4  10  20  41  65  92 131 167 215 265 312 382
#     4  10  20  39  70  95 117 171 227 257 304 383
#
# _framework density 20.405833000000001
#
# number of rings (size 3 to 8) (size 9 to 14) (size 15 to 20)
#    0.000    1.000    3.333    5.500    0.000    0.667 
#    3.000    1.667    0.000    0.000    0.000    0.000 
#    0.000    0.000    0.000    0.000    0.000    0.000 
#
# Total GULP energy -148789.398856 kJ/mol
# GULP energy per Si atom -12399.116571 kJ/mol
# Density = 2.035939 g / cm^3
# Si number density = 20.405833 Si / 1000 Ang^3
#
#
#
# Elastic Constant Matrix: (Units=GPa)
#
#
# Indices 1 2 3 4 5 6 
#
# 1 90.1389 35.8521 34.1643 -8.5803 -20.3825 -2.8884
# 2 35.8521 95.2772 63.9222 -11.2937 -21.1607 7.1064
# 3 34.1643 63.9222 132.0495 -6.8550 -9.1936 1.9813
# 4 -8.5803 -11.2937 -6.8550 37.3934 2.6199 -9.3678
# 5 -20.3825 -21.1607 -9.1936 2.6199 29.4924 -2.4497
# 6 -2.8884 7.1064 1.9813 -9.3678 -2.4497 30.6855
#
#
#
# Elastic Compliance Matrix: (Units=1/GPa)
#
#
# Indices 1 2 3 4 5 6 
#
# 1 0.015036 -0.002430 -0.002067 0.002666 0.008063 0.003569
# 2 -0.002430 0.019234 -0.007870 0.002492 0.009224 -0.002678
# 3 -0.002067 -0.007870 0.011657 -0.000353 -0.003369 0.000499
# 4 0.002666 0.002492 -0.000353 0.030196 0.001589 0.009042
# 5 0.008063 0.009224 -0.003369 0.001589 0.045149 0.002930
# 6 0.003569 -0.002678 0.000499 0.009042 0.002930 0.036507
#
#
# Mechanical properties :
#
#
# Convention : Reuss Voigt Hill
#
# Bulk Modulus (GPa) = 47.18991 65.03809 56.11400
# Shear Modulus (GPa) = 26.37427 31.74939 29.06183
#
# Velocity S-wave (km/s) = 3.59902 3.94877 3.77794
# Velocity P-wave (km/s) = 6.35975 7.26167 6.82562
#
# Compressibility (1/GPa) = 0.02119097
#
# Stress axis : x y z
#
# Youngs Moduli (GPa) = 66.50922 51.99107 85.78331
#
# Poissons Ratio (x) = 0.12635 0.17735
# Poissons Ratio (y) = 0.16163 0.67514
# Poissons Ratio (z) = 0.13750 0.40919
#
# Static dielectric constant tensor:
#      x y z
#    x 3.648790 -0.216030 0.002070 
#    y -0.216030 3.605330 0.035960 
#    z 0.002070 0.035960 4.028210 
# 
# 
# High freq. dielectric constant tensor:
#      x y z
#    x 1.793660 -0.017670 -0.008100 
#    y -0.017670 1.786150 -0.000220 
#    z -0.008100 -0.000220 1.814560 
# 
# From -- ./inp_files/148099.got.cif
#   From: 2010.06.25/outbox.cif.g09.slc.cpg/sg2_75_cif.got.tgz:148099.got - 2010.06.27 13:26:56.
