data_PCOD8006122
_publ_section_title
;
Structure prediction by ZEFSAII (Michael W. Deem and Ramdas Pophale) SiO2 
 PCOD8006122
Probable space group: P -1
;
_chemical_formula_sum "Si O2"
_cell_formula_units_Z 14
_cell_length_a 7.726182
_cell_length_b 13.988354
_cell_length_c 8.803341
_cell_angle_alpha 66.810031
_cell_angle_beta 77.897410
_cell_angle_gamma 120.666393
_cell_volume 642.919425
_symmetry_space_group_name_H-M "P -1"
_symmetry_group_IT_number 2
_symmetry_cell_setting 'triclinic'
loop_
_space_group_symop_operation_xyz
x,y,z
-x,-y,-z
loop_
_atom_site_type_symbol
_atom_site_label
_atom_site_fract_x
_atom_site_fract_y
_atom_site_fract_z
Si Si1 0.924416 0.242434 0.362125
Si Si2 0.256334 0.505588 0.650896
Si Si3 0.071226 0.919818 0.773474
Si Si4 0.360288 0.492652 0.304684
Si Si5 0.529886 0.189672 0.631216
Si Si6 0.436266 0.206282 0.977982
Si Si7 0.172566 0.739097 0.952059
O O1 0.939776 0.129736 0.366356
O O2 0.717787 0.171090 0.570539
O O3 0.857058 0.293663 0.202120
O O4 0.175927 0.371761 0.299273
O O5 0.240777 0.456397 0.513738
O O6 0.416512 0.496441 0.734468
O O7 0.352362 0.658436 0.539285
O O8 0.993786 0.401214 0.830942
O O9 0.108799 0.836310 0.934623
O O10 0.291103 0.082426 0.646985
O O11 0.839820 0.894982 0.872559
O O12 0.451026 0.636173 0.133445
O O13 0.472734 0.166982 0.833273
O O14 0.560670 0.182153 0.096056
#
# Coordination Sequence:
#
# PCOD8006122 Si02
#       7
#     2   2   2   2   2   2   2
#     4  10  23  41  64  91 132 165 202 266 312 372
#     4  10  21  39  64  98 121 166 210 265 302 377
#     4  10  24  44  62  93 133 164 206 260 311 380
#     4  10  20  39  65  94 129 159 214 259 317 358
#     4  11  23  42  65  92 130 165 212 254 317 370
#     4  11  22  42  69  92 123 171 210 261 305 376
#     4  10  23  40  66  93 125 162 215 252 318 362
#
# _framework density 21.775669000000001
#
# number of rings (size 3 to 8) (size 9 to 14) (size 15 to 20)
#    0.857    0.857    1.429    2.571    0.000    8.571 
#    2.571    1.429    0.000    0.000    0.000    0.000 
#    0.000    0.000    0.000    0.000    0.000    0.000 
#
# Total GULP energy -173609.108459 kJ/mol
# GULP energy per Si atom -12400.650604 kJ/mol
# Density = 2.172611 g / cm^3
# Si number density = 21.775669 Si / 1000 Ang^3
#
#
#
# Elastic Constant Matrix: (Units=GPa)
#
#
# Indices 1 2 3 4 5 6 
#
# 1 91.8961 6.4304 17.7985 2.1614 -6.5660 9.0552
# 2 6.4304 97.2765 14.3588 2.5708 -0.4676 8.8634
# 3 17.7985 14.3588 52.3327 1.0330 -20.4662 -9.9014
# 4 2.1614 2.5708 1.0330 30.3406 3.5386 -9.2858
# 5 -6.5660 -0.4676 -20.4662 3.5386 29.5358 6.2003
# 6 9.0552 8.8634 -9.9014 -9.2858 6.2003 25.3746
#
#
#
# Elastic Compliance Matrix: (Units=1/GPa)
#
#
# Indices 1 2 3 4 5 6 
#
# 1 0.012983 0.000906 -0.005807 -0.003644 0.001168 -0.008834
# 2 0.000906 0.011753 -0.005437 -0.002918 -0.001508 -0.007249
# 3 -0.005807 -0.005437 0.031941 0.001562 0.017917 0.012628
# 4 -0.003644 -0.002918 0.001562 0.040536 -0.008811 0.019916
# 5 0.001168 -0.001508 0.017917 -0.008811 0.049278 -0.008164
# 6 -0.008834 -0.007249 0.012628 0.019916 -0.008164 0.059305
#
#
# Mechanical properties :
#
#
# Convention : Reuss Voigt Hill
#
# Bulk Modulus (GPa) = 27.77692 35.40897 31.59294
# Shear Modulus (GPa) = 20.96691 30.57803 25.77247
#
# Velocity S-wave (km/s) = 3.10636 3.75137 3.44400
# Velocity P-wave (km/s) = 5.06455 5.92113 5.50951
#
# Compressibility (1/GPa) = 0.03600111
#
# Stress axis : x y z
#
# Youngs Moduli (GPa) = 77.02518 85.08472 31.30808
#
# Poissons Ratio (x) = -0.07707 0.18180
# Poissons Ratio (y) = -0.06977 0.17021
# Poissons Ratio (z) = 0.44727 0.46258
#
# Static dielectric constant tensor:
#      x y z
#    x 3.858800 0.006680 -0.149660 
#    y 0.006680 3.866720 0.093870 
#    z -0.149660 0.093870 3.721100 
# 
# 
# High freq. dielectric constant tensor:
#      x y z
#    x 1.853290 0.007090 -0.015480 
#    y 0.007090 1.859130 0.001620 
#    z -0.015480 0.001620 1.845270 
# 
# From -- ./inp_files/206846.got.cif
#   From: 2010.06.25/outbox.cif.g09.slc.cpg/sg2_104_cif.got.tgz:206846.got - 2010.06.27 13:26:56.
