data_PCOD8006072
_publ_section_title
;
Structure prediction by ZEFSAII (Michael W. Deem and Ramdas Pophale) SiO2 
 PCOD8006072
Probable space group: P -1
;
_chemical_formula_sum "Si O2"
_cell_formula_units_Z 16
_cell_length_a 12.703619
_cell_length_b 8.596217
_cell_length_c 9.764153
_cell_angle_alpha 112.291608
_cell_angle_beta 70.034373
_cell_angle_gamma 70.079470
_cell_volume 780.041195
_symmetry_space_group_name_H-M "P -1"
_symmetry_group_IT_number 2
_symmetry_cell_setting 'triclinic'
loop_
_space_group_symop_operation_xyz
x,y,z
-x,-y,-z
loop_
_atom_site_type_symbol
_atom_site_label
_atom_site_fract_x
_atom_site_fract_y
_atom_site_fract_z
Si Si1 0.517007 0.709179 0.928727
Si Si2 0.100587 0.812022 0.305212
Si Si3 0.111062 0.833425 0.990655
Si Si4 0.697157 0.030689 0.093775
Si Si5 0.361076 0.015553 0.587425
Si Si6 0.785850 0.612621 0.877692
Si Si7 0.376807 0.729989 0.257435
Si Si8 0.148230 0.440645 0.873621
O O1 0.435588 0.876130 0.906347
O O2 0.660859 0.676774 0.859329
O O3 0.528908 0.501573 0.816833
O O4 0.449411 0.787493 0.133052
O O5 0.094851 0.616722 0.288816
O O6 0.247255 0.760805 0.251254
O O7 0.062747 0.865077 0.180350
O O8 0.000000 0.000000 0.500000
O O9 0.243213 0.835146 0.915001
O O10 0.138930 0.621724 0.853833
O O11 0.000000 0.000000 0.000000
O O12 0.652338 0.042537 0.272820
O O13 0.807278 0.797987 0.921199
O O14 0.233012 0.236603 0.680856
O O15 0.500000 0.000000 0.500000
O O16 0.346273 0.866312 0.448007
O O17 0.761414 0.594128 0.043658
O O18 0.000000 0.500000 0.000000
#
# Coordination Sequence:
#
# PCOD8006072 Si02
#       8
#     2   2   2   2   2   2   2   2
#     4  10  20  39  65  89 125 165 204 259 325 389
#     4  10  22  39  62  88 122 167 210 261 317 378
#     4  11  23  41  64  92 124 167 220 262 320 383
#     4  11  22  39  65  93 125 165 212 268 316 383
#     4  11  25  41  64  96 130 166 219 268 321 379
#     4   9  20  37  62  88 120 165 210 246 320 387
#     4  10  21  38  63  91 122 162 210 257 320 383
#     4  10  22  42  66  89 127 176 211 253 327 397
#
# _framework density 20.511737
#
# number of rings (size 3 to 8) (size 9 to 14) (size 15 to 20)
#    0.000    1.750    1.250    3.375    8.750    0.500 
#    0.000    1.875    0.000    0.000    0.000    0.000 
#    0.000    0.000    0.000    0.000    0.000    0.000 
#
# Total GULP energy -198276.425567 kJ/mol
# GULP energy per Si atom -12392.276598 kJ/mol
# Density = 2.046505 g / cm^3
# Si number density = 20.511737 Si / 1000 Ang^3
#
#
#
# Elastic Constant Matrix: (Units=GPa)
#
#
# Indices 1 2 3 4 5 6 
#
# 1 72.1592 39.4030 23.5042 3.5043 5.1791 -1.9743
# 2 39.4030 154.3924 59.7478 14.3859 10.0180 -2.0932
# 3 23.5042 59.7478 112.1352 21.2547 7.7001 2.7076
# 4 3.5043 14.3859 21.2547 32.3305 -0.2330 2.4078
# 5 5.1791 10.0180 7.7001 -0.2330 33.6142 -2.5239
# 6 -1.9743 -2.0932 2.7076 2.4078 -2.5239 40.5911
#
#
#
# Elastic Compliance Matrix: (Units=1/GPa)
#
#
# Indices 1 2 3 4 5 6 
#
# 1 0.016381 -0.003546 -0.001645 0.000831 -0.001039 0.000610
# 2 -0.003546 0.009043 -0.003773 -0.001208 -0.001252 0.000539
# 3 -0.001645 -0.003773 0.012615 -0.006385 -0.001619 -0.000838
# 4 0.000831 -0.001208 -0.006385 0.035708 0.001822 -0.001601
# 5 -0.001039 -0.001252 -0.001619 0.001822 0.030801 0.001800
# 6 0.000610 0.000539 -0.000838 -0.001601 0.001800 0.024956
#
#
# Mechanical properties :
#
#
# Convention : Reuss Voigt Hill
#
# Bulk Modulus (GPa) = 49.72451 64.88855 57.30653
# Shear Modulus (GPa) = 32.43868 35.70927 34.07398
#
# Velocity S-wave (km/s) = 3.98108 4.17696 4.08020
# Velocity P-wave (km/s) = 6.73993 7.41392 7.08494
#
# Compressibility (1/GPa) = 0.02011081
#
# Stress axis : x y z
#
# Youngs Moduli (GPa) = 61.04545 110.57943 79.27204
#
# Poissons Ratio (x) = 0.39209 0.13042
# Poissons Ratio (y) = 0.21645 0.29911
# Poissons Ratio (z) = 0.10043 0.41724
#
# Static dielectric constant tensor:
#      x y z
#    x 3.881780 -0.024390 0.132440 
#    y -0.024390 4.151500 0.379080 
#    z 0.132440 0.379080 3.588270 
# 
# 
# High freq. dielectric constant tensor:
#      x y z
#    x 1.808620 -0.003630 0.016460 
#    y -0.003630 1.819970 0.021650 
#    z 0.016460 0.021650 1.770750 
# 
# From -- ./inp_files/244978.got.cif
#   From: 2010.06.25/outbox.cif.g09.slc.cpg/sg2_123_cif.got.tgz:244978.got - 2010.06.27 13:26:56.
