data_PCOD8006618
_publ_section_title
;
Structure prediction by ZEFSAII (Michael W. Deem and Ramdas Pophale) SiO2 
 PCOD8006618
Probable space group: P -1
;
_chemical_formula_sum "Si O2"
_cell_formula_units_Z 16
_cell_length_a 8.720921
_cell_length_b 11.600838
_cell_length_c 17.240846
_cell_angle_alpha 128.275730
_cell_angle_beta 30.675960
_cell_angle_gamma 121.148234
_cell_volume 698.072780
_symmetry_space_group_name_H-M "P -1"
_symmetry_group_IT_number 2
_symmetry_cell_setting 'triclinic'
loop_
_space_group_symop_operation_xyz
x,y,z
-x,-y,-z
loop_
_atom_site_type_symbol
_atom_site_label
_atom_site_fract_x
_atom_site_fract_y
_atom_site_fract_z
Si Si1 0.486706 0.143647 0.477089
Si Si2 0.882212 0.911486 0.869991
Si Si3 0.571115 0.853002 0.828682
Si Si4 0.453228 0.334096 0.852492
Si Si5 0.699456 0.614921 0.896204
Si Si6 0.271592 0.446201 0.640590
Si Si7 0.158917 0.599722 0.908661
Si Si8 0.196264 0.849142 0.500232
O O1 0.316201 0.270667 0.555108
O O2 0.629375 0.208779 0.521888
O O3 0.760138 0.065877 0.275138
O O4 0.239780 0.023986 0.550829
O O5 0.756786 0.936455 0.848368
O O6 0.843134 0.743252 0.839871
O O7 0.681353 0.035295 0.056133
O O8 0.408331 0.711737 0.876638
O O9 0.841993 0.811184 0.633975
O O10 0.500319 0.509121 0.884953
O O11 0.678925 0.229580 0.663511
O O12 0.495508 0.312759 0.918121
O O13 0.112244 0.296677 0.964428
O O14 0.942875 0.497261 0.776849
O O15 0.500000 0.500000 0.500000
O O16 0.325728 0.508675 0.729450
O O17 0.000000 0.500000 0.000000
#
# Coordination Sequence:
#
# PCOD8006618 Si02
#       8
#     2   2   2   2   2   2   2   2
#     4  10  21  40  66  91 128 166 209 264 315 374
#     4  10  20  40  62  88 126 164 205 258 314 369
#     4  10  23  38  66  94 122 161 216 264 308 372
#     4  10  22  40  61  89 127 164 206 255 314 378
#     4  10  22  40  62  88 127 168 207 251 319 381
#     4  11  23  40  64  95 128 169 211 261 318 378
#     4  11  23  41  64  93 125 167 216 263 315 376
#     4  10  22  40  64  98 125 163 214 265 314 366
#
# _framework density 22.920248000000001
#
# number of rings (size 3 to 8) (size 9 to 14) (size 15 to 20)
#    0.000    1.750    1.250    2.250    1.750    7.000 
#    2.250    6.250    0.000    0.000    0.000    0.000 
#    0.000    0.000    0.000    0.000    0.000    0.000 
#
# Total GULP energy -198243.862089 kJ/mol
# GULP energy per Si atom -12390.241381 kJ/mol
# Density = 2.286808 g / cm^3
# Si number density = 22.920248 Si / 1000 Ang^3
#
#
#
# Elastic Constant Matrix: (Units=GPa)
#
#
# Indices 1 2 3 4 5 6 
#
# 1 38.6697 21.8846 34.5792 2.8691 -0.3107 -1.2333
# 2 21.8846 122.7538 38.4603 -17.5601 -12.7804 -9.0691
# 3 34.5792 38.4603 149.7205 -6.1253 4.1047 -2.9986
# 4 2.8691 -17.5601 -6.1253 38.2294 -3.6585 -8.3535
# 5 -0.3107 -12.7804 4.1047 -3.6585 35.0315 0.9239
# 6 -1.2333 -9.0691 -2.9986 -8.3535 0.9239 35.6975
#
#
#
# Elastic Compliance Matrix: (Units=1/GPa)
#
#
# Indices 1 2 3 4 5 6 
#
# 1 0.035784 -0.005472 -0.007151 -0.007004 -0.001510 -0.002354
# 2 -0.005472 0.011333 -0.001424 0.006731 0.004850 0.004020
# 3 -0.007151 -0.001424 0.008798 0.001250 -0.001496 0.000461
# 4 -0.007004 0.006731 0.001250 0.032465 0.005399 0.009030
# 5 -0.001510 0.004850 -0.001496 0.005399 0.031001 0.001515
# 6 -0.002354 0.004020 0.000461 0.009030 0.001515 0.031066
#
#
# Mechanical properties :
#
#
# Convention : Reuss Voigt Hill
#
# Bulk Modulus (GPa) = 35.94608 55.66579 45.80594
# Shear Modulus (GPa) = 26.62178 36.20635 31.41406
#
# Velocity S-wave (km/s) = 3.41177 3.97881 3.70615
# Velocity P-wave (km/s) = 5.58904 6.74147 6.19212
#
# Compressibility (1/GPa) = 0.02781944
#
# Stress axis : x y z
#
# Youngs Moduli (GPa) = 27.94531 88.23760 113.66166
#
# Poissons Ratio (x) = 0.48285 0.81282
# Poissons Ratio (y) = 0.15292 0.16191
# Poissons Ratio (z) = 0.19984 0.12569
#
# Static dielectric constant tensor:
#      x y z
#    x 3.941150 0.066630 -0.081240 
#    y 0.066630 3.979500 -0.203670 
#    z -0.081240 -0.203670 4.548750 
# 
# 
# High freq. dielectric constant tensor:
#      x y z
#    x 1.876700 0.002570 -0.005880 
#    y 0.002570 1.903420 -0.012750 
#    z -0.005880 -0.012750 1.917660 
# 
# From -- ./inp_files/559888.got.cif
#   From: 2010.06.25/outbox.cif.g09.slc.cpg/sg2_280_cif.got.tgz:559888.got - 2010.06.27 13:26:56.
