data_PCOD8006493
_publ_section_title
;
Structure prediction by ZEFSAII (Michael W. Deem and Ramdas Pophale) SiO2 
 PCOD8006493
Probable space group: P -1
;
_chemical_formula_sum "Si O2"
_cell_formula_units_Z 14
_cell_length_a 9.326929
_cell_length_b 11.481121
_cell_length_c 15.961559
_cell_angle_alpha 45.613765
_cell_angle_beta 54.090162
_cell_angle_gamma 88.005725
_cell_volume 752.947365
_symmetry_space_group_name_H-M "P -1"
_symmetry_group_IT_number 2
_symmetry_cell_setting 'triclinic'
loop_
_space_group_symop_operation_xyz
x,y,z
-x,-y,-z
loop_
_atom_site_type_symbol
_atom_site_label
_atom_site_fract_x
_atom_site_fract_y
_atom_site_fract_z
Si Si1 0.819522 0.830669 0.213714
Si Si2 0.878095 0.686012 0.747145
Si Si3 0.861158 0.190619 0.574444
Si Si4 0.644330 0.941834 0.519424
Si Si5 0.479764 0.237417 0.171570
Si Si6 0.681430 0.431351 0.530568
Si Si7 0.173635 0.214736 0.584097
O O1 0.785952 0.613026 0.330269
O O2 0.577489 0.774998 0.302828
O O3 0.899796 0.923124 0.235078
O O4 0.000000 0.000000 0.000000
O O5 0.719643 0.748549 0.782977
O O6 0.948064 0.712376 0.613107
O O7 0.731566 0.440026 0.949049
O O8 0.103810 0.839586 0.650389
O O9 0.838869 0.365819 0.519192
O O10 0.944729 0.134456 0.653067
O O11 0.608353 0.975159 0.740588
O O12 0.498392 0.786393 0.725779
O O13 0.665353 0.807686 0.513886
O O14 0.500000 0.000000 0.500000
O O15 0.681993 0.535112 0.565461
#
# Coordination Sequence:
#
# PCOD8006493 Si02
#       7
#     2   2   2   2   2   2   2
#     4   9  21  42  56  81 121 154 192 240 291 345
#     4  10  21  39  60  85 120 155 196 242 296 341
#     4  11  19  39  61  87 117 155 195 244 288 349
#     4  11  22  38  61  88 120 156 194 244 295 350
#     4  10  21  39  60  84 121 157 195 240 294 345
#     4   9  22  37  61  84 114 158 192 234 304 341
#     4  10  20  40  58  84 119 153 192 244 287 351
#
# _framework density 18.593598
#
# number of rings (size 3 to 8) (size 9 to 14) (size 15 to 20)
#    0.857    1.143    2.857    1.286    4.000    1.714 
#    5.143    0.714    0.000    0.000    0.000    0.000 
#    0.000    0.000    0.000    0.000    0.000    0.000 
#
# Total GULP energy -173527.878224 kJ/mol
# GULP energy per Si atom -12394.848445 kJ/mol
# Density = 1.855128 g / cm^3
# Si number density = 18.593598 Si / 1000 Ang^3
#
#
#
# Elastic Constant Matrix: (Units=GPa)
#
#
# Indices 1 2 3 4 5 6 
#
# 1 105.0391 40.6201 33.2360 8.8516 3.0324 9.5911
# 2 40.6201 106.3560 23.8656 -4.9117 0.5353 7.1680
# 3 33.2360 23.8656 121.6034 -0.6690 7.2479 17.9014
# 4 8.8516 -4.9117 -0.6690 13.8521 0.5520 7.1472
# 5 3.0324 0.5353 7.2479 0.5520 19.8574 4.3242
# 6 9.5911 7.1680 17.9014 7.1472 4.3242 36.0505
#
#
#
# Elastic Compliance Matrix: (Units=1/GPa)
#
#
# Indices 1 2 3 4 5 6 
#
# 1 0.013165 -0.004973 -0.002800 -0.010860 -0.000798 0.001125
# 2 -0.004973 0.012015 -0.000627 0.008710 0.000988 -0.002600
# 3 -0.002800 -0.000627 0.009967 0.004570 -0.002295 -0.004711
# 4 -0.010860 0.008710 0.004570 0.092509 0.001458 -0.019627
# 5 -0.000798 0.000988 -0.002295 0.001458 0.052432 -0.005423
# 6 0.001125 -0.002600 -0.004711 -0.019627 -0.005423 0.034837
#
#
# Mechanical properties :
#
#
# Convention : Reuss Voigt Hill
#
# Bulk Modulus (GPa) = 54.50605 58.71576 56.61091
# Shear Modulus (GPa) = 21.02249 29.63713 25.32981
#
# Velocity S-wave (km/s) = 3.36613 3.99675 3.69492
# Velocity P-wave (km/s) = 6.66977 7.27638 6.97967
#
# Compressibility (1/GPa) = 0.01834659
#
# Stress axis : x y z
#
# Youngs Moduli (GPa) = 75.96023 83.22989 100.32939
#
# Poissons Ratio (x) = 0.41391 0.28092
# Poissons Ratio (y) = 0.37775 0.06292
# Poissons Ratio (z) = 0.21269 0.05219
#
# Static dielectric constant tensor:
#      x y z
#    x 3.435680 0.086430 0.136640 
#    y 0.086430 3.345280 -0.136780 
#    z 0.136640 -0.136780 3.181750 
# 
# 
# High freq. dielectric constant tensor:
#      x y z
#    x 1.730590 0.002810 0.003540 
#    y 0.002810 1.717590 -0.006990 
#    z 0.003540 -0.006990 1.698310 
# 
# From -- ./inp_files/261020.got.cif
#   From: 2010.06.25/outbox.cif.g09.slc.cpg/sg2_131_cif.got.tgz:261020.got - 2010.06.27 13:26:56.
