data_PCOD8006285
_publ_section_title
;
Structure prediction by ZEFSAII (Michael W. Deem and Ramdas Pophale) SiO2 
 PCOD8006285
Probable space group: P -1
;
_chemical_formula_sum "Si O2"
_cell_formula_units_Z 16
_cell_length_a 10.974400
_cell_length_b 14.181148
_cell_length_c 10.898116
_cell_angle_alpha 116.919799
_cell_angle_beta 90.274325
_cell_angle_gamma 37.945000
_cell_volume 712.606912
_symmetry_space_group_name_H-M "P -1"
_symmetry_group_IT_number 2
_symmetry_cell_setting 'triclinic'
loop_
_space_group_symop_operation_xyz
x,y,z
-x,-y,-z
loop_
_atom_site_type_symbol
_atom_site_label
_atom_site_fract_x
_atom_site_fract_y
_atom_site_fract_z
Si Si1 0.537586 0.002181 0.829249
Si Si2 0.560621 0.784660 0.825917
Si Si3 0.943263 0.404402 0.038388
Si Si4 0.466265 0.915294 0.380018
Si Si5 0.013026 0.107313 0.509536
Si Si6 0.128813 0.966656 0.157940
Si Si7 0.275109 0.491199 0.152318
Si Si8 0.026593 0.127099 0.994455
O O1 0.647968 0.968875 0.686918
O O2 0.669952 0.785315 0.727605
O O3 0.603773 0.024873 0.958462
O O4 0.227574 0.232615 0.954462
O O5 0.777847 0.545690 0.751231
O O6 0.334432 0.888266 0.823568
O O7 0.744363 0.647306 0.218587
O O8 0.917662 0.390952 0.888073
O O9 0.895653 0.339214 0.086123
O O10 0.262078 0.988438 0.481669
O O11 0.500000 0.000000 0.500000
O O12 0.999174 0.110243 0.364655
O O13 0.000000 0.000000 0.500000
O O14 0.764786 0.358824 0.711491
O O15 0.099872 0.862513 0.088775
O O16 0.435814 0.752507 0.036658
O O17 0.981093 0.134016 0.141571
#
# Coordination Sequence:
#
# PCOD8006285 Si02
#       8
#     2   2   2   2   2   2   2   2
#     4  10  20  39  67  90 129 173 217 271 330 393
#     4   9  19  38  64  95 123 168 224 268 324 397
#     4  11  21  38  69  97 130 175 222 265 342 394
#     4  12  25  41  61 100 143 168 219 281 325 395
#     4  12  27  43  67 102 136 173 226 277 328 396
#     4  10  21  44  66  92 134 173 225 271 328 394
#     4  11  22  41  70  94 132 176 219 271 335 388
#     4   9  20  38  67  93 126 178 219 272 329 394
#
# _framework density 22.452772
#
# number of rings (size 3 to 8) (size 9 to 14) (size 15 to 20)
#    0.000    1.500    2.500    2.625    3.500    2.000 
#    2.250    6.250    0.000    0.000    0.000    0.000 
#    0.000    0.000    0.000    0.000    0.000    0.000 
#
# Total GULP energy -198323.978678 kJ/mol
# GULP energy per Si atom -12395.248667 kJ/mol
# Density = 2.240167 g / cm^3
# Si number density = 22.452772 Si / 1000 Ang^3
#
#
#
# Elastic Constant Matrix: (Units=GPa)
#
#
# Indices 1 2 3 4 5 6 
#
# 1 120.0536 34.0313 19.7759 -0.6600 9.2110 20.6959
# 2 34.0313 107.9810 31.5898 4.5699 10.2778 25.4599
# 3 19.7759 31.5898 88.9615 -3.6145 19.8077 11.7797
# 4 -0.6600 4.5699 -3.6145 15.2712 4.2006 9.2814
# 5 9.2110 10.2778 19.8077 4.2006 30.1586 3.1035
# 6 20.6959 25.4599 11.7797 9.2814 3.1035 48.8195
#
#
#
# Elastic Compliance Matrix: (Units=1/GPa)
#
#
# Indices 1 2 3 4 5 6 
#
# 1 0.009779 -0.002102 -0.000311 0.003744 -0.002223 -0.003545
# 2 -0.002102 0.011977 -0.003131 -0.001640 -0.000719 -0.004242
# 3 -0.000311 -0.003131 0.015408 0.009161 -0.009918 -0.003064
# 4 0.003744 -0.001640 0.009161 0.083638 -0.016419 -0.017799
# 5 -0.002223 -0.000719 -0.009918 -0.016419 0.042458 0.004133
# 6 -0.003545 -0.004242 -0.003064 -0.017799 0.004133 0.028059
#
#
# Mechanical properties :
#
#
# Convention : Reuss Voigt Hill
#
# Bulk Modulus (GPa) = 38.34835 54.19888 46.27362
# Shear Modulus (GPa) = 23.68556 34.28980 28.98768
#
# Velocity S-wave (km/s) = 3.25145 3.91218 3.59702
# Velocity P-wave (km/s) = 5.58682 6.67820 6.15674
#
# Compressibility (1/GPa) = 0.02607674
#
# Stress axis : x y z
#
# Youngs Moduli (GPa) = 102.26111 83.49122 64.90121
#
# Poissons Ratio (x) = 0.17550 0.02019
# Poissons Ratio (y) = 0.21495 0.20319
# Poissons Ratio (z) = 0.03181 0.26139
#
# Static dielectric constant tensor:
#      x y z
#    x 4.354880 0.289560 0.136320 
#    y 0.289560 4.280970 -0.158230 
#    z 0.136320 -0.158230 3.641530 
# 
# 
# High freq. dielectric constant tensor:
#      x y z
#    x 1.908420 0.012200 0.017750 
#    y 0.012200 1.892190 -0.009850 
#    z 0.017750 -0.009850 1.840330 
# 
# From -- ./inp_files/434214.got.cif
#   From: 2010.06.25/outbox.cif.g09.slc.cpg/sg2_218_cif.got.tgz:434214.got - 2010.06.27 13:26:56.
