data_PCOD8006915
_publ_section_title
;
Structure prediction by ZEFSAII (Michael W. Deem and Ramdas Pophale) SiO2 
 PCOD8006915
Probable space group: P -1
;
_chemical_formula_sum "Si O2"
_cell_formula_units_Z 16
_cell_length_a 12.621148
_cell_length_b 9.320725
_cell_length_c 13.078657
_cell_angle_alpha 47.277370
_cell_angle_beta 85.441842
_cell_angle_gamma 53.426107
_cell_volume 757.798289
_symmetry_space_group_name_H-M "P -1"
_symmetry_group_IT_number 2
_symmetry_cell_setting 'triclinic'
loop_
_space_group_symop_operation_xyz
x,y,z
-x,-y,-z
loop_
_atom_site_type_symbol
_atom_site_label
_atom_site_fract_x
_atom_site_fract_y
_atom_site_fract_z
Si Si1 0.640286 0.195443 0.837292
Si Si2 0.269549 0.214803 0.369545
Si Si3 0.141822 0.594961 0.673030
Si Si4 0.392500 0.327890 0.464448
Si Si5 0.030667 0.436395 0.908142
Si Si6 0.552490 0.872441 0.227287
Si Si7 0.175245 0.946401 0.599423
Si Si8 0.551036 0.566990 0.054180
O O1 0.610453 0.438309 0.665020
O O2 0.564174 0.129271 0.807460
O O3 0.561192 0.315170 0.896741
O O4 0.828127 0.903591 0.966719
O O5 0.267624 0.390455 0.369008
O O6 0.125529 0.438966 0.193824
O O7 0.433319 0.002375 0.399236
O O8 0.269247 0.007424 0.526095
O O9 0.069788 0.596581 0.780691
O O10 0.306485 0.263558 0.796602
O O11 0.179605 0.772822 0.595886
O O12 0.010691 0.748659 0.517510
O O13 0.352396 0.336293 0.580958
O O14 0.000000 0.500000 0.000000
O O15 0.453096 0.203869 0.093209
O O16 0.265664 0.737239 0.791593
O O17 0.500000 0.500000 0.000000
#
# Coordination Sequence:
#
# PCOD8006915 Si02
#       8
#     2   2   2   2   2   2   2   2
#     4  12  24  44  69  97 134 170 229 273 316 399
#     4  10  22  43  62  92 138 171 219 271 329 392
#     4  10  21  39  67  96 130 166 217 280 314 385
#     4  11  24  41  68  93 129 179 217 273 333 386
#     4  11  24  43  66  97 132 176 219 271 332 388
#     4  12  23  42  69 100 129 171 227 271 325 388
#     4  10  20  40  65  92 129 169 214 268 325 379
#     4  12  24  41  65  99 134 172 216 268 331 391
#
# _framework density 21.113797999999999
#
# number of rings (size 3 to 8) (size 9 to 14) (size 15 to 20)
#    0.000    1.000    3.750    3.000    1.750    3.500 
#    2.250    1.875    0.000    0.000    0.000    0.000 
#    0.000    0.000    0.000    0.000    0.000    0.000 
#
# Total GULP energy -198380.599385 kJ/mol
# GULP energy per Si atom -12398.787462 kJ/mol
# Density = 2.106574 g / cm^3
# Si number density = 21.113798 Si / 1000 Ang^3
#
#
#
# Elastic Constant Matrix: (Units=GPa)
#
#
# Indices 1 2 3 4 5 6 
#
# 1 125.9479 48.9946 66.2377 7.2128 12.5288 19.4146
# 2 48.9946 68.0478 47.5814 2.6026 5.7069 19.5087
# 3 66.2377 47.5814 147.7200 -3.6106 12.8565 14.1354
# 4 7.2128 2.6026 -3.6106 30.7392 -1.4393 7.9803
# 5 12.5288 5.7069 12.8565 -1.4393 49.1532 -2.1971
# 6 19.4146 19.5087 14.1354 7.9803 -2.1971 30.8744
#
#
#
# Elastic Compliance Matrix: (Units=1/GPa)
#
#
# Indices 1 2 3 4 5 6 
#
# 1 0.012711 -0.005814 -0.003516 -0.002413 -0.001815 -0.002215
# 2 -0.005814 0.024926 -0.004316 0.001451 -0.000712 -0.010544
# 3 -0.003516 -0.004316 0.009923 0.002381 -0.001142 -0.000302
# 4 -0.002413 0.001451 0.002381 0.035796 0.000438 -0.009711
# 5 -0.001815 -0.000712 -0.001142 0.000438 0.021359 0.003521
# 6 -0.002215 -0.010544 -0.000302 -0.009711 0.003521 0.043343
#
#
# Mechanical properties :
#
#
# Convention : Reuss Voigt Hill
#
# Bulk Modulus (GPa) = 49.33622 74.14922 61.74272
# Shear Modulus (GPa) = 27.45678 34.08016 30.76847
#
# Velocity S-wave (km/s) = 3.61004 4.02197 3.82156
# Velocity P-wave (km/s) = 6.38703 7.53415 6.98418
#
# Compressibility (1/GPa) = 0.02026909
#
# Stress axis : x y z
#
# Youngs Moduli (GPa) = 78.67469 40.11847 100.78010
#
# Poissons Ratio (x) = 0.23324 0.35433
# Poissons Ratio (y) = 0.45739 0.43492
# Poissons Ratio (z) = 0.27661 0.17313
#
# Static dielectric constant tensor:
#      x y z
#    x 4.266780 -0.430400 0.299940 
#    y -0.430400 4.080790 -0.299570 
#    z 0.299940 -0.299570 4.090810 
# 
# 
# High freq. dielectric constant tensor:
#      x y z
#    x 1.836120 0.001680 0.004520 
#    y 0.001680 1.805000 -0.012760 
#    z 0.004520 -0.012760 1.844480 
# 
# From -- ./inp_files/418917.got.cif
#   From: 2010.06.25/outbox.cif.g09.slc.cpg/sg2_210_cif.got.tgz:418917.got - 2010.06.27 13:26:56.
