data_PCOD8006231
_publ_section_title
;
Structure prediction by ZEFSAII (Michael W. Deem and Ramdas Pophale) SiO2 
 PCOD8006231
Probable space group: P -1
;
_chemical_formula_sum "Si O2"
_cell_formula_units_Z 16
_cell_length_a 9.982990
_cell_length_b 9.154376
_cell_length_c 15.407721
_cell_angle_alpha 141.362532
_cell_angle_beta 57.682871
_cell_angle_gamma 119.693611
_cell_volume 734.892503
_symmetry_space_group_name_H-M "P -1"
_symmetry_group_IT_number 2
_symmetry_cell_setting 'triclinic'
loop_
_space_group_symop_operation_xyz
x,y,z
-x,-y,-z
loop_
_atom_site_type_symbol
_atom_site_label
_atom_site_fract_x
_atom_site_fract_y
_atom_site_fract_z
Si Si1 0.725831 0.512627 0.857638
Si Si2 0.776015 0.740758 0.296740
Si Si3 0.377459 0.532987 0.939750
Si Si4 0.090340 0.883852 0.341293
Si Si5 0.311390 0.062894 0.207060
Si Si6 0.498620 0.532856 0.414104
Si Si7 0.898286 0.712885 0.736616
Si Si8 0.787526 0.243582 0.449745
O O1 0.560941 0.487570 0.847711
O O2 0.785939 0.261093 0.722831
O O3 0.861855 0.692665 0.843429
O O4 0.697217 0.590821 0.002884
O O5 0.727596 0.581085 0.155744
O O6 0.670896 0.649255 0.373974
O O7 0.960635 0.724356 0.250292
O O8 0.753032 0.009370 0.410693
O O9 0.377203 0.814367 0.069103
O O10 0.192573 0.083807 0.339440
O O11 0.000000 0.000000 0.500000
O O12 0.456408 0.277937 0.263508
O O13 0.207554 0.093468 0.171632
O O14 0.500000 0.500000 0.500000
O O15 0.374185 0.711680 0.519649
O O16 0.847600 0.457244 0.592308
O O17 0.084844 0.792186 0.687166
#
# Coordination Sequence:
#
# PCOD8006231 Si02
#       8
#     2   2   2   2   2   2   2   2
#     4  10  23  40  67  92 128 180 223 266 317 394
#     4  12  24  42  67  98 133 177 215 277 327 394
#     4  10  24  45  66  93 135 181 229 257 320 409
#     4  11  23  40  69  98 130 170 219 273 339 392
#     4  10  22  43  66  92 129 181 213 262 330 402
#     4  11  25  39  65 101 134 164 217 284 332 385
#     4  10  20  39  66  95 120 169 219 272 324 388
#     4  10  22  39  63  93 133 163 215 266 339 395
#
# _framework density 21.771892000000001
#
# number of rings (size 3 to 8) (size 9 to 14) (size 15 to 20)
#    0.000    1.500    1.250    3.375    5.250    9.000 
#    0.000    0.625    0.000    0.000    0.000    0.000 
#    0.000    0.000    0.000    0.000    0.000    0.000 
#
# Total GULP energy -198401.797914 kJ/mol
# GULP energy per Si atom -12400.112370 kJ/mol
# Density = 2.172234 g / cm^3
# Si number density = 21.771892 Si / 1000 Ang^3
#
#
#
# Elastic Constant Matrix: (Units=GPa)
#
#
# Indices 1 2 3 4 5 6 
#
# 1 73.4219 19.6067 36.7305 10.6517 -15.3976 -1.9156
# 2 19.6067 145.4856 26.5126 -10.9635 -13.1861 -1.5059
# 3 36.7305 26.5126 69.9787 -1.1441 -9.6810 -4.5630
# 4 10.6517 -10.9635 -1.1441 37.5471 -3.4711 -2.7852
# 5 -15.3976 -13.1861 -9.6810 -3.4711 25.8974 -1.5068
# 6 -1.9156 -1.5059 -4.5630 -2.7852 -1.5068 34.8222
#
#
#
# Elastic Compliance Matrix: (Units=1/GPa)
#
#
# Indices 1 2 3 4 5 6 
#
# 1 0.021249 -0.000806 -0.009895 -0.005873 0.007719 -0.000298
# 2 -0.000806 0.007854 -0.002046 0.002780 0.003150 0.000386
# 3 -0.009895 -0.002046 0.020653 0.003141 0.001355 0.002383
# 4 -0.005873 0.002780 0.003141 0.029708 0.003238 0.002725
# 5 0.007719 0.003150 0.001355 0.003238 0.045921 0.002984
# 6 -0.000298 0.000386 0.002383 0.002725 0.002984 0.029377
#
#
# Mechanical properties :
#
#
# Convention : Reuss Voigt Hill
#
# Bulk Modulus (GPa) = 41.21866 50.50953 45.86410
# Shear Modulus (GPa) = 26.54712 33.38911 29.96811
#
# Velocity S-wave (km/s) = 3.49568 3.92035 3.71409
# Velocity P-wave (km/s) = 5.93853 6.61377 6.28523
#
# Compressibility (1/GPa) = 0.02426086
#
# Stress axis : x y z
#
# Youngs Moduli (GPa) = 47.06194 127.32380 48.41871
#
# Poissons Ratio (x) = 0.10268 0.47910
# Poissons Ratio (y) = 0.03795 0.09906
# Poissons Ratio (z) = 0.46568 0.26050
#
# Static dielectric constant tensor:
#      x y z
#    x 4.200280 -0.001880 -0.154630 
#    y -0.001880 4.321180 -0.169370 
#    z -0.154630 -0.169370 3.656430 
# 
# 
# High freq. dielectric constant tensor:
#      x y z
#    x 1.857910 -0.008690 -0.017960 
#    y -0.008690 1.878070 -0.014110 
#    z -0.017960 -0.014110 1.830340 
# 
# From -- ./inp_files/495809.got.cif
#   From: 2010.06.25/outbox.cif.g09.slc.cpg/sg2_248_cif.got.tgz:495809.got - 2010.06.27 13:26:56.
