data_PCOD8006078
_publ_section_title
;
Structure prediction by ZEFSAII (Michael W. Deem and Ramdas Pophale) SiO2 
 PCOD8006078
Probable space group: P -1
;
_chemical_formula_sum "Si O2"
_cell_formula_units_Z 12
_cell_length_a 15.420549
_cell_length_b 8.329212
_cell_length_c 9.101511
_cell_angle_alpha 146.746237
_cell_angle_beta 52.872343
_cell_angle_gamma 114.800002
_cell_volume 501.260265
_symmetry_space_group_name_H-M "P -1"
_symmetry_group_IT_number 2
_symmetry_cell_setting 'triclinic'
loop_
_space_group_symop_operation_xyz
x,y,z
-x,-y,-z
loop_
_atom_site_type_symbol
_atom_site_label
_atom_site_fract_x
_atom_site_fract_y
_atom_site_fract_z
Si Si1 0.126718 0.409272 0.051744
Si Si2 0.895940 0.363108 0.180081
Si Si3 0.239168 0.482416 0.274644
Si Si4 0.685632 0.020218 0.618379
Si Si5 0.473028 0.182418 0.813675
Si Si6 0.158634 0.958481 0.289687
O O1 0.153854 0.359991 0.159618
O O2 0.092370 0.763003 0.312914
O O3 0.025684 0.239803 0.990870
O O4 0.236165 0.288076 0.749695
O O5 0.822845 0.377612 0.410871
O O6 0.892353 0.692249 0.368493
O O7 0.847171 0.143859 0.951587
O O8 0.287069 0.731518 0.329815
O O9 0.342420 0.217735 0.014583
O O10 0.554382 0.015876 0.732663
O O11 0.715130 0.087523 0.808791
O O12 0.500000 0.000000 0.500000
O O13 0.500000 0.500000 0.000000
#
# Coordination Sequence:
#
# PCOD8006078 Si02
#       6
#     2   2   2   2   2   2
#     4  11  22  41  66  90 123 165 211 244 300 371
#     4  12  26  39  62  93 131 161 196 257 311 358
#     4  10  24  40  63  96 124 156 205 261 309 351
#     4  10  22  41  68  91 117 164 214 249 296 368
#     4  10  20  39  65  90 117 158 206 253 298 360
#     4  11  25  42  61  90 126 170 205 240 303 377
#
# _framework density 23.93966
#
# number of rings (size 3 to 8) (size 9 to 14) (size 15 to 20)
#    0.000    1.333    3.333    1.500    7.000    0.667 
#    0.000    1.667    0.000    0.000    0.000    0.000 
#    0.000    0.000    0.000    0.000    0.000    0.000 
#
# Total GULP energy -148708.454826 kJ/mol
# GULP energy per Si atom -12392.371236 kJ/mol
# Density = 2.388517 g / cm^3
# Si number density = 23.939660 Si / 1000 Ang^3
#
#
#
# Elastic Constant Matrix: (Units=GPa)
#
#
# Indices 1 2 3 4 5 6 
#
# 1 179.0155 19.0401 31.1033 -18.0990 21.0542 -11.4714
# 2 19.0401 14.9905 -5.4632 -7.4363 -7.5010 -5.8249
# 3 31.1033 -5.4632 83.4140 -1.5147 13.1159 3.1539
# 4 -18.0990 -7.4363 -1.5147 33.6851 -4.0386 8.4117
# 5 21.0542 -7.5010 13.1159 -4.0386 42.0318 -2.6612
# 6 -11.4714 -5.8249 3.1539 8.4117 -2.6612 14.1971
#
#
#
# Elastic Compliance Matrix: (Units=1/GPa)
#
#
# Indices 1 2 3 4 5 6 
#
# 1 0.008401 -0.014367 -0.003176 0.000448 -0.005721 0.000261
# 2 -0.014367 0.123809 0.007643 0.015052 0.030524 0.034294
# 3 -0.003176 0.007643 0.014077 0.001338 -0.001540 -0.003639
# 4 0.000448 0.015052 0.001338 0.037669 0.004701 -0.015197
# 5 -0.005721 0.030524 -0.001540 0.004701 0.033784 0.011790
# 6 0.000261 0.034294 -0.003639 -0.015197 0.011790 0.096740
#
#
# Mechanical properties :
#
#
# Convention : Reuss Voigt Hill
#
# Bulk Modulus (GPa) = 7.90590 40.75339 24.32964
# Shear Modulus (GPa) = 13.28231 33.49879 23.39055
#
# Velocity S-wave (km/s) = 2.35803 3.74478 3.12919
# Velocity P-wave (km/s) = 3.27465 5.97981 4.82087
#
# Compressibility (1/GPa) = 0.12648785
#
# Stress axis : x y z
#
# Youngs Moduli (GPa) = 119.03556 8.07699 71.03738
#
# Poissons Ratio (x) = 0.11604 0.22558
# Poissons Ratio (y) = 1.71016 -0.54294
# Poissons Ratio (z) = 0.37800 -0.06173
#
# Static dielectric constant tensor:
#      x y z
#    x 5.612750 -0.195630 -0.271220 
#    y -0.195630 3.744300 0.197330 
#    z -0.271220 0.197330 4.388510 
# 
# 
# High freq. dielectric constant tensor:
#      x y z
#    x 1.985720 -0.014930 0.006350 
#    y -0.014930 1.895890 0.018690 
#    z 0.006350 0.018690 1.948270 
# 
# From -- ./inp_files/20288.got.cif
#   From: 2010.06.25/outbox.cif.g09.slc.cpg/sg2_11_cif.got.tgz:20288.got - 2010.06.27 13:26:56.
