data_PCOD8006740
_publ_section_title
;
Structure prediction by ZEFSAII (Michael W. Deem and Ramdas Pophale) SiO2 
 PCOD8006740
Probable space group: P -1
;
_chemical_formula_sum "Si O2"
_cell_formula_units_Z 14
_cell_length_a 16.719650
_cell_length_b 9.042638
_cell_length_c 9.887787
_cell_angle_alpha 106.396703
_cell_angle_beta 60.797129
_cell_angle_gamma 55.859956
_cell_volume 689.467317
_symmetry_space_group_name_H-M "P -1"
_symmetry_group_IT_number 2
_symmetry_cell_setting 'triclinic'
loop_
_space_group_symop_operation_xyz
x,y,z
-x,-y,-z
loop_
_atom_site_type_symbol
_atom_site_label
_atom_site_fract_x
_atom_site_fract_y
_atom_site_fract_z
Si Si1 0.509956 0.160645 0.075899
Si Si2 0.450236 0.425930 0.703327
Si Si3 0.194555 0.739752 0.392105
Si Si4 0.693716 0.079485 0.666781
Si Si5 0.659664 0.091935 0.181710
Si Si6 0.030426 0.497612 0.128294
Si Si7 0.848197 0.336639 0.876705
O O1 0.606115 0.124959 0.876592
O O2 0.324509 0.491329 0.329647
O O3 0.599472 0.043857 0.116191
O O4 0.500000 0.000000 0.000000
O O5 0.568175 0.270040 0.695097
O O6 0.557552 0.215436 0.435339
O O7 0.368923 0.704654 0.812536
O O8 0.301504 0.515352 0.871051
O O9 0.249286 0.829966 0.312869
O O10 0.189045 0.628579 0.243096
O O11 0.017723 0.003226 0.681815
O O12 0.853598 0.751695 0.414317
O O13 0.855690 0.794715 0.973163
O O14 0.130206 0.516887 0.063266
O O15 0.000000 0.500000 0.000000
#
# Coordination Sequence:
#
# PCOD8006740 Si02
#       7
#     2   2   2   2   2   2   2
#     4  12  24  38  63  98 130 158 213 263 311 367
#     4  11  22  42  67  94 122 172 212 251 312 378
#     4  10  20  40  63  94 124 162 211 258 303 374
#     4  11  22  42  70  86 127 177 205 246 324 378
#     4  11  25  40  64  95 131 160 210 267 308 367
#     4  11  24  43  63  93 129 166 208 261 317 372
#     4  10  22  37  67  93 121 165 215 251 308 373
#
# _framework density 20.305531999999999
#
# number of rings (size 3 to 8) (size 9 to 14) (size 15 to 20)
#    0.000    1.143    4.286    2.143    0.000    3.429 
#    0.000    1.429    0.000    0.000    0.000    0.000 
#    0.000    0.000    0.000    0.000    0.000    0.000 
#
# Total GULP energy -173654.234683 kJ/mol
# GULP energy per Si atom -12403.873906 kJ/mol
# Density = 2.025932 g / cm^3
# Si number density = 20.305532 Si / 1000 Ang^3
#
#
#
# Elastic Constant Matrix: (Units=GPa)
#
#
# Indices 1 2 3 4 5 6 
#
# 1 115.6819 33.2689 35.1926 -1.3956 9.6611 -13.4278
# 2 33.2689 58.3952 47.0490 26.9630 -6.8903 -20.0501
# 3 35.1926 47.0490 97.9737 19.7002 -9.1101 -9.7621
# 4 -1.3956 26.9630 19.7002 37.0640 -5.3449 -3.3859
# 5 9.6611 -6.8903 -9.1101 -5.3449 39.9724 1.3125
# 6 -13.4278 -20.0501 -9.7621 -3.3859 1.3125 34.3076
#
#
#
# Elastic Compliance Matrix: (Units=1/GPa)
#
#
# Indices 1 2 3 4 5 6 
#
# 1 0.012442 -0.010203 -0.001638 0.008125 -0.004033 -0.000603
# 2 -0.010203 0.058057 -0.015201 -0.031924 0.004008 0.022307
# 3 -0.001638 -0.015201 0.017531 0.001578 0.002129 -0.004462
# 4 0.008125 -0.031924 0.001578 0.048701 -0.000260 -0.010212
# 5 -0.004033 0.004008 0.002129 -0.000260 0.027123 0.000306
# 6 -0.000603 0.022307 -0.004462 -0.010212 0.000306 0.039660
#
#
# Mechanical properties :
#
#
# Convention : Reuss Voigt Hill
#
# Bulk Modulus (GPa) = 29.45843 55.89687 42.67765
# Shear Modulus (GPa) = 18.59330 32.70478 25.64904
#
# Velocity S-wave (km/s) = 3.02930 4.01762 3.55795
# Velocity P-wave (km/s) = 5.17442 7.00781 6.15971
#
# Compressibility (1/GPa) = 0.03394614
#
# Stress axis : x y z
#
# Youngs Moduli (GPa) = 80.37354 17.22439 57.04114
#
# Poissons Ratio (x) = 0.17574 0.09346
# Poissons Ratio (y) = 0.82004 0.86707
# Poissons Ratio (z) = 0.13169 0.26183
#
# Static dielectric constant tensor:
#      x y z
#    x 3.908240 -0.226430 -0.029650 
#    y -0.226430 3.819220 0.276680 
#    z -0.029650 0.276680 3.919380 
# 
# 
# High freq. dielectric constant tensor:
#      x y z
#    x 1.805520 -0.010260 0.001550 
#    y -0.010260 1.785840 0.021210 
#    z 0.001550 0.021210 1.802380 
# 
# From -- ./inp_files/150298.got.cif
#   From: 2010.06.25/outbox.cif.g09.slc.cpg/sg2_76_cif.got.tgz:150298.got - 2010.06.27 13:26:56.
