data_PCOD8006497
_publ_section_title
;
Structure prediction by ZEFSAII (Michael W. Deem and Ramdas Pophale) SiO2 
 PCOD8006497
Probable space group: P -1
;
_chemical_formula_sum "Si O2"
_cell_formula_units_Z 16
_cell_length_a 9.599271
_cell_length_b 10.882977
_cell_length_c 9.646166
_cell_angle_alpha 80.635856
_cell_angle_beta 77.437679
_cell_angle_gamma 53.669319
_cell_volume 791.662143
_symmetry_space_group_name_H-M "P -1"
_symmetry_group_IT_number 2
_symmetry_cell_setting 'triclinic'
loop_
_space_group_symop_operation_xyz
x,y,z
-x,-y,-z
loop_
_atom_site_type_symbol
_atom_site_label
_atom_site_fract_x
_atom_site_fract_y
_atom_site_fract_z
Si Si1 0.128364 0.161200 0.973081
Si Si2 0.035025 0.576367 0.855864
Si Si3 0.355322 0.266501 0.807899
Si Si4 0.845193 0.980603 0.523459
Si Si5 0.469519 0.159617 0.500957
Si Si6 0.850267 0.566118 0.634756
Si Si7 0.055992 0.755199 0.293304
Si Si8 0.740785 0.095260 0.809974
O O1 0.987794 0.274984 0.100278
O O2 0.196643 0.993174 0.041617
O O3 0.278182 0.191251 0.928728
O O4 0.053447 0.179823 0.834587
O O5 0.234648 0.450836 0.791625
O O6 0.904867 0.616868 0.748574
O O7 0.000000 0.500000 0.000000
O O8 0.372576 0.215714 0.656663
O O9 0.534660 0.216579 0.848128
O O10 0.922303 0.827341 0.442369
O O11 0.664752 0.124543 0.465182
O O12 0.789807 0.974362 0.695005
O O13 0.000000 0.000000 0.500000
O O14 0.342061 0.287860 0.392948
O O15 0.500000 0.000000 0.500000
O O16 0.833326 0.427448 0.697461
O O17 0.000000 0.500000 0.500000
O O18 0.184717 0.807006 0.258815
#
# Coordination Sequence:
#
# PCOD8006497 Si02
#       8
#     2   2   2   2   2   2   2   2
#     4  11  21  39  64  87 120 165 206 244 298 363
#     4  10  21  39  59  90 122 157 205 250 302 352
#     4  10  20  40  58  92 121 153 207 252 295 361
#     4   9  21  41  60  86 125 157 196 247 302 361
#     4  11  22  36  63  96 117 150 206 257 301 355
#     4  12  22  38  66  91 120 161 202 260 303 353
#     4  11  22  43  60  90 126 159 203 248 305 368
#     4  10  23  38  64  89 124 161 196 253 308 352
#
# _framework density 20.210640999999999
#
# number of rings (size 3 to 8) (size 9 to 14) (size 15 to 20)
#    0.000    1.500    3.750    2.250    5.250    0.000 
#    4.500    8.750    0.000    0.000    0.000    0.000 
#    0.000    0.000    0.000    0.000    0.000    0.000 
#
# Total GULP energy -198261.034427 kJ/mol
# GULP energy per Si atom -12391.314652 kJ/mol
# Density = 2.016464 g / cm^3
# Si number density = 20.210641 Si / 1000 Ang^3
#
#
#
# Elastic Constant Matrix: (Units=GPa)
#
#
# Indices 1 2 3 4 5 6 
#
# 1 83.1304 47.5820 33.1949 -1.1815 7.9916 -21.0539
# 2 47.5820 118.3386 41.9995 -7.4144 12.3019 -20.3409
# 3 33.1949 41.9995 83.8992 -4.3294 17.7463 -7.2011
# 4 -1.1815 -7.4144 -4.3294 43.3103 -1.6491 6.2620
# 5 7.9916 12.3019 17.7463 -1.6491 29.7659 0.8989
# 6 -21.0539 -20.3409 -7.2011 6.2620 0.8989 33.4958
#
#
#
# Elastic Compliance Matrix: (Units=1/GPa)
#
#
# Indices 1 2 3 4 5 6 
#
# 1 0.018484 -0.004517 -0.004239 -0.001935 -0.000928 0.008350
# 2 -0.004517 0.012486 -0.003704 0.001026 -0.001797 0.003803
# 3 -0.004239 -0.003704 0.016942 0.000842 -0.007348 -0.001231
# 4 -0.001935 0.001026 0.000842 0.024051 0.001075 -0.004938
# 5 -0.000928 -0.001797 -0.007348 0.001075 0.039164 -0.004507
# 6 0.008350 0.003803 -0.001231 -0.004938 -0.004507 0.038192
#
#
# Mechanical properties :
#
#
# Convention : Reuss Voigt Hill
#
# Bulk Modulus (GPa) = 43.49152 58.99124 51.24138
# Shear Modulus (GPa) = 27.48717 32.15386 29.82051
#
# Velocity S-wave (km/s) = 3.69187 3.99298 3.84537
# Velocity P-wave (km/s) = 6.30389 7.10705 6.71748
#
# Compressibility (1/GPa) = 0.02299299
#
# Stress axis : x y z
#
# Youngs Moduli (GPa) = 54.10082 80.09035 59.02404
#
# Poissons Ratio (x) = 0.36178 0.25019
# Poissons Ratio (y) = 0.24438 0.21860
# Poissons Ratio (z) = 0.22932 0.29662
#
# Static dielectric constant tensor:
#      x y z
#    x 3.719440 -0.188960 0.045680 
#    y -0.188960 4.571130 0.430700 
#    z 0.045680 0.430700 3.989380 
# 
# 
# High freq. dielectric constant tensor:
#      x y z
#    x 1.774950 -0.010800 0.016030 
#    y -0.010800 1.791840 0.010660 
#    z 0.016030 0.010660 1.797410 
# 
# From -- ./inp_files/186607.got.cif
#   From: 2010.06.25/outbox.cif.g09.slc.cpg/sg2_94_cif.got.tgz:186607.got - 2010.06.27 13:26:56.
