data_PCOD8006343
_publ_section_title
;
Structure prediction by ZEFSAII (Michael W. Deem and Ramdas Pophale) SiO2 
 PCOD8006343
Probable space group: P -1
;
_chemical_formula_sum "Si O2"
_cell_formula_units_Z 14
_cell_length_a 9.972695
_cell_length_b 12.005590
_cell_length_c 14.435558
_cell_angle_alpha 31.317327
_cell_angle_beta 136.386341
_cell_angle_gamma 128.005018
_cell_volume 619.658184
_symmetry_space_group_name_H-M "P -1"
_symmetry_group_IT_number 2
_symmetry_cell_setting 'triclinic'
loop_
_space_group_symop_operation_xyz
x,y,z
-x,-y,-z
loop_
_atom_site_type_symbol
_atom_site_label
_atom_site_fract_x
_atom_site_fract_y
_atom_site_fract_z
Si Si1 0.567883 0.123417 0.271250
Si Si2 0.085635 0.987212 0.948329
Si Si3 0.100674 0.607227 0.695595
Si Si4 0.377289 0.344221 0.340408
Si Si5 0.768494 0.776398 0.839038
Si Si6 0.720641 0.460209 0.666183
Si Si7 0.329821 0.380185 0.818345
O O1 0.792524 0.179222 0.366800
O O2 0.449373 0.175902 0.268650
O O3 0.549369 0.872368 0.416493
O O4 0.486803 0.269345 0.044016
O O5 0.206366 0.198412 0.834272
O O6 0.910130 0.975042 0.794052
O O7 0.229293 0.785208 0.155605
O O8 0.000000 0.000000 0.000000
O O9 0.181663 0.535002 0.688318
O O10 0.864981 0.622013 0.566656
O O11 0.141308 0.424086 0.921214
O O12 0.237756 0.269734 0.240209
O O13 0.255893 0.488977 0.248619
O O14 0.561720 0.479152 0.303260
O O15 0.500000 0.500000 0.500000
#
# Coordination Sequence:
#
# PCOD8006343 Si02
#       7
#     2   2   2   2   2   2   2
#     4  11  20  40  69  99 140 176 228 284 337 399
#     4  11  21  42  73  96 132 193 226 266 347 410
#     4  10  20  40  70  94 135 186 227 265 351 406
#     4  12  25  40  69 104 140 173 228 290 339 402
#     4  10  20  39  68 103 130 176 232 281 325 409
#     4  11  26  45  65 102 146 176 221 295 350 400
#     4  11  21  42  72 100 130 185 231 277 333 414
#
# _framework density 22.5931
#
# number of rings (size 3 to 8) (size 9 to 14) (size 15 to 20)
#    0.000    1.143    7.143    2.143    0.000    3.429 
#    2.571    1.429    0.000    0.000    0.000    0.000 
#    0.000    0.000    0.000    0.000    0.000    0.000 
#
# Total GULP energy -173582.069598 kJ/mol
# GULP energy per Si atom -12398.719257 kJ/mol
# Density = 2.254168 g / cm^3
# Si number density = 22.593100 Si / 1000 Ang^3
#
#
#
# Elastic Constant Matrix: (Units=GPa)
#
#
# Indices 1 2 3 4 5 6 
#
# 1 127.8892 67.9333 35.3902 -18.5768 20.2535 13.2817
# 2 67.9333 172.3908 15.4623 -12.9916 5.0117 27.1047
# 3 35.3902 15.4623 45.5056 -21.1611 11.7907 10.1170
# 4 -18.5768 -12.9916 -21.1611 35.9675 9.2621 0.5246
# 5 20.2535 5.0117 11.7907 9.2621 25.4564 -4.8193
# 6 13.2817 27.1047 10.1170 0.5246 -4.8193 59.4800
#
#
#
# Elastic Compliance Matrix: (Units=1/GPa)
#
#
# Indices 1 2 3 4 5 6 
#
# 1 0.013815 -0.004013 -0.002275 0.007530 -0.012253 -0.001928
# 2 -0.004013 0.007904 0.002858 0.002862 -0.001358 -0.003327
# 3 -0.002275 0.002858 0.060771 0.048011 -0.047281 -0.015385
# 4 0.007530 0.002862 0.048011 0.076622 -0.059827 -0.016675
# 5 -0.012253 -0.001358 -0.047281 -0.059827 0.096706 0.019760
# 6 -0.001928 -0.003327 -0.015385 -0.016675 0.019760 0.023124
#
#
# Mechanical properties :
#
#
# Convention : Reuss Voigt Hill
#
# Bulk Modulus (GPa) = 13.22254 64.81748 39.02001
# Shear Modulus (GPa) = 16.07643 39.31409 27.69526
#
# Velocity S-wave (km/s) = 2.67041 4.17597 3.50498
# Velocity P-wave (km/s) = 3.92088 7.21131 5.80415
#
# Compressibility (1/GPa) = 0.07562845
#
# Stress axis : x y z
#
# Youngs Moduli (GPa) = 72.38423 126.51603 16.45520
#
# Poissons Ratio (x) = 0.50772 0.03744
# Poissons Ratio (y) = 0.29049 -0.04702
# Poissons Ratio (z) = 0.16470 -0.36152
#
# Static dielectric constant tensor:
#      x y z
#    x 4.259630 0.272380 0.174410 
#    y 0.272380 4.548820 -0.082840 
#    z 0.174410 -0.082840 3.825780 
# 
# 
# High freq. dielectric constant tensor:
#      x y z
#    x 1.879930 0.012920 0.002180 
#    y 0.012920 1.912970 -0.008530 
#    z 0.002180 -0.008530 1.864550 
# 
# From -- ./inp_files/294974.got.cif
#   From: 2010.06.25/outbox.cif.g09.slc.cpg/sg2_148_cif.got.tgz:294974.got - 2010.06.27 13:26:56.
