data_PCOD8006684
_publ_section_title
;
Structure prediction by ZEFSAII (Michael W. Deem and Ramdas Pophale) SiO2 
 PCOD8006684
Probable space group: P -1
;
_chemical_formula_sum "Si O2"
_cell_formula_units_Z 16
_cell_length_a 7.791281
_cell_length_b 14.165669
_cell_length_c 13.534495
_cell_angle_alpha 31.551872
_cell_angle_beta 104.613961
_cell_angle_gamma 102.551027
_cell_volume 756.357063
_symmetry_space_group_name_H-M "P -1"
_symmetry_group_IT_number 2
_symmetry_cell_setting 'triclinic'
loop_
_space_group_symop_operation_xyz
x,y,z
-x,-y,-z
loop_
_atom_site_type_symbol
_atom_site_label
_atom_site_fract_x
_atom_site_fract_y
_atom_site_fract_z
Si Si1 0.765334 0.340971 0.448437
Si Si2 0.317054 0.593278 0.408827
Si Si3 0.093189 0.353018 0.281945
Si Si4 0.912757 0.669242 0.056941
Si Si5 0.123255 0.925145 0.997264
Si Si6 0.144108 0.258432 0.590001
Si Si7 0.704281 0.186887 0.381061
Si Si8 0.679402 0.772374 0.751822
O O1 0.655541 0.374212 0.500373
O O2 0.821556 0.533912 0.240854
O O3 0.659620 0.222171 0.458784
O O4 0.936078 0.223826 0.606290
O O5 0.500000 0.500000 0.500000
O O6 0.272947 0.784325 0.180949
O O7 0.173131 0.448665 0.480353
O O8 0.183524 0.262410 0.473885
O O9 0.222548 0.341472 0.217934
O O10 0.067361 0.565046 0.111843
O O11 0.893962 0.274313 0.300629
O O12 0.996131 0.836538 0.976505
O O13 0.762869 0.738943 0.899621
O O14 0.231588 0.089023 0.811691
O O15 0.000000 0.000000 0.000000
O O16 0.530812 0.274784 0.224928
O O17 0.710327 0.978287 0.540491
#
# Coordination Sequence:
#
# PCOD8006684 Si02
#       8
#     2   2   2   2   2   2   2   2
#     4  10  20  40  63  86 125 166 209 263 310 385
#     4  12  25  41  63  97 134 163 207 273 324 373
#     4  10  21  39  62  87 132 165 206 271 315 374
#     4  10  21  38  64  96 116 165 221 251 316 387
#     4  12  22  39  71  91 120 174 217 254 316 394
#     4  10  21  41  64  93 123 168 217 252 316 389
#     4   9  22  37  57  89 123 164 212 264 316 372
#     4  11  21  38  62  90 124 167 214 259 322 381
#
# _framework density 21.154029000000001
#
# number of rings (size 3 to 8) (size 9 to 14) (size 15 to 20)
#    0.000    1.750    3.750    3.375    1.750    2.500 
#    0.000    3.750    0.000    0.000    0.000    0.000 
#    0.000    0.000    0.000    0.000    0.000    0.000 
#
# Total GULP energy -198239.814244 kJ/mol
# GULP energy per Si atom -12389.988390 kJ/mol
# Density = 2.110588 g / cm^3
# Si number density = 21.154029 Si / 1000 Ang^3
#
#
#
# Elastic Constant Matrix: (Units=GPa)
#
#
# Indices 1 2 3 4 5 6 
#
# 1 43.8497 14.7347 29.3379 8.7971 18.3901 -7.0149
# 2 14.7347 100.2567 22.8370 2.6993 14.2206 -6.1127
# 3 29.3379 22.8370 123.5972 4.1538 22.9695 -3.2247
# 4 8.7971 2.6993 4.1538 34.2643 3.9773 -2.0056
# 5 18.3901 14.2206 22.9695 3.9773 24.0364 0.3075
# 6 -7.0149 -6.1127 -3.2247 -2.0056 0.3075 24.1658
#
#
#
# Elastic Compliance Matrix: (Units=1/GPa)
#
#
# Indices 1 2 3 4 5 6 
#
# 1 0.038958 -0.000485 -0.004082 -0.005982 -0.024763 0.010460
# 2 -0.000485 0.011177 -0.000869 0.000139 -0.005468 0.002652
# 3 -0.004082 -0.000869 0.010391 0.000606 -0.006394 0.000113
# 4 -0.005982 0.000139 0.000606 0.030831 -0.001198 0.000953
# 5 -0.024763 -0.005468 -0.006394 -0.001198 0.070227 -0.010418
# 6 0.010460 0.002652 0.000113 0.000953 -0.010418 0.045315
#
#
# Mechanical properties :
#
#
# Convention : Reuss Voigt Hill
#
# Bulk Modulus (GPa) = 20.13912 44.61366 32.37639
# Shear Modulus (GPa) = 21.33809 29.87954 25.60882
#
# Velocity S-wave (km/s) = 3.17945 3.76237 3.48313
# Velocity P-wave (km/s) = 4.79786 6.32531 5.61378
#
# Compressibility (1/GPa) = 0.04965461
#
# Stress axis : x y z
#
# Youngs Moduli (GPa) = 25.66871 89.46783 96.23446
#
# Poissons Ratio (x) = 0.04336 0.39281
# Poissons Ratio (y) = 0.01244 0.08367
# Poissons Ratio (z) = 0.10478 0.07779
#
# Static dielectric constant tensor:
#      x y z
#    x 3.388890 -0.207240 0.190940 
#    y -0.207240 3.241600 0.037680 
#    z 0.190940 0.037680 4.011540 
# 
# 
# High freq. dielectric constant tensor:
#      x y z
#    x 1.792860 -0.001480 0.013370 
#    y -0.001480 1.849620 0.002210 
#    z 0.013370 0.002210 1.837720 
# 
# From -- ./inp_files/505122.got.cif
#   From: 2010.06.25/outbox.cif.g09.slc.cpg/sg2_253_cif.got.tgz:505122.got - 2010.06.27 13:26:56.
