data_PCOD8006876
_publ_section_title
;
Structure prediction by ZEFSAII (Michael W. Deem and Ramdas Pophale) SiO2 
 PCOD8006876
Probable space group: P -1
;
_chemical_formula_sum "Si O2"
_cell_formula_units_Z 14
_cell_length_a 5.408099
_cell_length_b 16.728236
_cell_length_c 11.290158
_cell_angle_alpha 139.885588
_cell_angle_beta 60.590283
_cell_angle_gamma 103.411481
_cell_volume 554.215176
_symmetry_space_group_name_H-M "P -1"
_symmetry_group_IT_number 2
_symmetry_cell_setting 'triclinic'
loop_
_space_group_symop_operation_xyz
x,y,z
-x,-y,-z
loop_
_atom_site_type_symbol
_atom_site_label
_atom_site_fract_x
_atom_site_fract_y
_atom_site_fract_z
Si Si1 0.163529 0.932774 0.116942
Si Si2 0.787651 0.242000 0.502181
Si Si3 0.523121 0.998844 0.659256
Si Si4 0.371123 0.585257 0.472632
Si Si5 0.549258 0.828912 0.701681
Si Si6 0.844663 0.349844 0.157412
Si Si7 0.583480 0.781351 0.233241
O O1 0.311906 0.928743 0.948701
O O2 0.211710 0.789579 0.990785
O O3 0.350746 0.006657 0.241812
O O4 0.820825 0.004171 0.273350
O O5 0.789005 0.366837 0.561348
O O6 0.576817 0.162064 0.394932
O O7 0.646875 0.279240 0.707612
O O8 0.119910 0.153635 0.337436
O O9 0.564528 0.133361 0.748311
O O10 0.704291 0.880829 0.401639
O O11 0.570711 0.682338 0.571156
O O12 0.583401 0.443360 0.250176
O O13 0.142456 0.595752 0.648921
O O14 0.155724 0.338951 0.007284
#
# Coordination Sequence:
#
# PCOD8006876 Si02
#       7
#     2   2   2   2   2   2   2
#     4  10  20  40  65  88 117 159 205 250 288 349
#     4  10  21  39  61  87 130 153 194 246 302 355
#     4  10  23  40  62  87 121 155 209 246 293 353
#     4   8  19  39  63  90 120 154 203 242 292 358
#     4   9  20  38  62  86 127 155 194 248 294 354
#     4   9  18  39  64  91 116 161 198 246 294 354
#     4  10  23  39  63  88 124 158 198 248 305 350
#
# _framework density 25.260949
#
# number of rings (size 3 to 8) (size 9 to 14) (size 15 to 20)
#    0.857    1.714    0.000    0.857    2.000    9.143 
#    5.143    7.143    0.000    0.000    0.000    0.000 
#    0.000    0.000    0.000    0.000    0.000    0.000 
#
# Total GULP energy -173546.156829 kJ/mol
# GULP energy per Si atom -12396.154059 kJ/mol
# Density = 2.520345 g / cm^3
# Si number density = 25.260949 Si / 1000 Ang^3
#
#
#
# Elastic Constant Matrix: (Units=GPa)
#
#
# Indices 1 2 3 4 5 6 
#
# 1 99.4638 37.4724 47.2259 -11.1465 -14.7547 -29.1761
# 2 37.4724 100.5825 61.3764 -10.6133 -19.1106 -40.4142
# 3 47.2259 61.3764 185.9871 -17.2187 -33.7042 -27.0289
# 4 -11.1465 -10.6133 -17.2187 51.6228 2.7251 -0.7736
# 5 -14.7547 -19.1106 -33.7042 2.7251 28.8873 0.5149
# 6 -29.1761 -40.4142 -27.0289 -0.7736 0.5149 42.9067
#
#
#
# Elastic Compliance Matrix: (Units=1/GPa)
#
#
# Indices 1 2 3 4 5 6 
#
# 1 0.014368 0.000627 -0.001114 0.002686 0.006029 0.009635
# 2 0.000627 0.021019 -0.001990 0.003483 0.011238 0.018899
# 3 -0.001114 -0.001990 0.008186 0.001724 0.007459 0.002466
# 4 0.002686 0.003483 0.001724 0.021151 0.003576 0.006532
# 5 0.006029 0.011238 0.007459 0.003576 0.053162 0.018811
# 6 0.009635 0.018899 0.002466 0.006532 0.018811 0.049105
#
#
# Mechanical properties :
#
#
# Convention : Reuss Voigt Hill
#
# Bulk Modulus (GPa) = 25.89327 75.35364 50.62346
# Shear Modulus (GPa) = 27.05352 40.68060 33.86706
#
# Velocity S-wave (km/s) = 3.27611 4.01735 3.66551
# Velocity P-wave (km/s) = 4.95813 7.17033 6.16428
#
# Compressibility (1/GPa) = 0.03862007
#
# Stress axis : x y z
#
# Youngs Moduli (GPa) = 69.59791 47.57548 122.15932
#
# Poissons Ratio (x) = -0.02984 0.13607
# Poissons Ratio (y) = -0.04365 0.24311
# Poissons Ratio (z) = 0.07752 0.09468
#
# Static dielectric constant tensor:
#      x y z
#    x 4.049270 -0.118450 -0.010750 
#    y -0.118450 4.929480 -0.235400 
#    z -0.010750 -0.235400 4.503060 
# 
# 
# High freq. dielectric constant tensor:
#      x y z
#    x 1.979230 -0.011400 -0.004910 
#    y -0.011400 2.056900 -0.008860 
#    z -0.004910 -0.008860 1.999410 
# 
# From -- ./inp_files/369850.got.cif
#   From: 2010.06.25/outbox.cif.g09.slc.cpg/sg2_185_cif.got.tgz:369850.got - 2010.06.27 13:26:56.
