data_PCOD8006758
_publ_section_title
;
Structure prediction by ZEFSAII (Michael W. Deem and Ramdas Pophale) SiO2 
 PCOD8006758
Probable space group: P -1
;
_chemical_formula_sum "Si O2"
_cell_formula_units_Z 14
_cell_length_a 6.255133
_cell_length_b 19.218028
_cell_length_c 11.233225
_cell_angle_alpha 148.983822
_cell_angle_beta 58.934514
_cell_angle_gamma 124.829723
_cell_volume 570.035706
_symmetry_space_group_name_H-M "P -1"
_symmetry_group_IT_number 2
_symmetry_cell_setting 'triclinic'
loop_
_space_group_symop_operation_xyz
x,y,z
-x,-y,-z
loop_
_atom_site_type_symbol
_atom_site_label
_atom_site_fract_x
_atom_site_fract_y
_atom_site_fract_z
Si Si1 0.127417 0.859863 0.307461
Si Si2 0.112058 0.611160 0.463213
Si Si3 0.369326 0.008565 0.838288
Si Si4 0.642382 0.789153 0.485826
Si Si5 0.968985 0.298955 0.127846
Si Si6 0.652516 0.870947 0.229325
Si Si7 0.837694 0.788058 0.683728
O O1 0.341019 0.812702 0.259449
O O2 0.831228 0.770794 0.296036
O O3 0.183915 0.030956 0.565177
O O4 0.194925 0.822818 0.096282
O O5 0.365900 0.667717 0.388193
O O6 0.175702 0.685031 0.684285
O O7 0.049747 0.444448 0.246399
O O8 0.856984 0.641363 0.521293
O O9 0.605376 0.945287 0.714104
O O10 0.111938 0.897583 0.803159
O O11 0.331742 0.021159 0.726831
O O12 0.398191 0.160002 0.116143
O O13 0.805054 0.775003 0.533913
O O14 0.230658 0.256158 0.021872
#
# Coordination Sequence:
#
# PCOD8006758 Si02
#       7
#     2   2   2   2   2   2   2
#     4  11  27  41  68  99 135 174 213 269 338 385
#     4  10  25  45  70  95 129 175 230 263 318 390
#     4  10  21  36  64 100 132 167 213 271 328 385
#     4  11  24  40  68  98 131 173 217 269 329 388
#     4  11  25  47  67  96 133 177 217 273 322 387
#     4  11  24  42  66 101 135 168 217 267 331 400
#     4  10  20  40  63  98 134 167 214 276 321 381
#
# _framework density 24.559864000000001
#
# number of rings (size 3 to 8) (size 9 to 14) (size 15 to 20)
#    0.000    1.429    2.857    0.857    8.000    1.714 
#    0.000    4.286    0.000    0.000    0.000    0.000 
#    0.000    0.000    0.000    0.000    0.000    0.000 
#
# Total GULP energy -173518.551123 kJ/mol
# GULP energy per Si atom -12394.182223 kJ/mol
# Density = 2.450396 g / cm^3
# Si number density = 24.559864 Si / 1000 Ang^3
#
#
#
# Elastic Constant Matrix: (Units=GPa)
#
#
# Indices 1 2 3 4 5 6 
#
# 1 74.1691 27.7774 30.6947 11.0094 -7.5947 -21.2784
# 2 27.7774 92.4098 29.4546 -0.3849 -13.9889 -11.4555
# 3 30.6947 29.4546 93.0960 2.8631 -6.4242 -9.8023
# 4 11.0094 -0.3849 2.8631 41.0496 -8.9323 -10.7786
# 5 -7.5947 -13.9889 -6.4242 -8.9323 39.8889 -3.8994
# 6 -21.2784 -11.4555 -9.8023 -10.7786 -3.8994 39.0113
#
#
#
# Elastic Compliance Matrix: (Units=1/GPa)
#
#
# Indices 1 2 3 4 5 6 
#
# 1 0.019328 -0.003108 -0.004313 -0.002305 0.002173 0.008126
# 2 -0.003108 0.013731 -0.002776 0.002952 0.004724 0.002927
# 3 -0.004313 -0.002776 0.013088 0.000381 0.000425 0.000269
# 4 -0.002305 0.002952 0.000381 0.028946 0.007971 0.008500
# 5 0.002173 0.004724 0.000425 0.007971 0.029761 0.007856
# 6 0.008126 0.002927 0.000269 0.008500 0.007856 0.034127
#
#
# Mechanical properties :
#
#
# Convention : Reuss Voigt Hill
#
# Bulk Modulus (GPa) = 38.83183 48.39204 43.61193
# Shear Modulus (GPa) = 29.76928 35.43984 32.60456
#
# Velocity S-wave (km/s) = 3.48532 3.80280 3.64751
# Velocity P-wave (km/s) = 5.66056 6.24726 5.96113
#
# Compressibility (1/GPa) = 0.02575207
#
# Stress axis : x y z
#
# Youngs Moduli (GPa) = 51.73945 72.82932 76.40758
#
# Poissons Ratio (x) = 0.22638 0.32951
# Poissons Ratio (y) = 0.16082 0.21211
# Poissons Ratio (z) = 0.22313 0.20218
#
# Static dielectric constant tensor:
#      x y z
#    x 4.637960 0.018200 -0.403970 
#    y 0.018200 4.308600 -0.230320 
#    z -0.403970 -0.230320 4.288610 
# 
# 
# High freq. dielectric constant tensor:
#      x y z
#    x 1.994720 -0.005100 -0.024540 
#    y -0.005100 1.968950 -0.024250 
#    z -0.024540 -0.024250 1.957510 
# 
# From -- ./inp_files/370500.got.cif
#   From: 2010.06.25/outbox.cif.g09.slc.cpg/sg2_186_cif.got.tgz:370500.got - 2010.06.27 13:26:56.
