data_PCOD8006789
_publ_section_title
;
Structure prediction by ZEFSAII (Michael W. Deem and Ramdas Pophale) SiO2 
 PCOD8006789
Probable space group: P -1
;
_chemical_formula_sum "Si O2"
_cell_formula_units_Z 14
_cell_length_a 21.687506
_cell_length_b 8.342296
_cell_length_c 7.893102
_cell_angle_alpha 127.413978
_cell_angle_beta 35.068289
_cell_angle_gamma 124.995062
_cell_volume 642.530069
_symmetry_space_group_name_H-M "P -1"
_symmetry_group_IT_number 2
_symmetry_cell_setting 'triclinic'
loop_
_space_group_symop_operation_xyz
x,y,z
-x,-y,-z
loop_
_atom_site_type_symbol
_atom_site_label
_atom_site_fract_x
_atom_site_fract_y
_atom_site_fract_z
Si Si1 0.179873 0.941465 0.144027
Si Si2 0.397961 0.846343 0.696532
Si Si3 0.888564 0.083166 0.332045
Si Si4 0.281135 0.381079 0.267325
Si Si5 0.504906 0.537551 0.705953
Si Si6 0.339847 0.125355 0.273591
Si Si7 0.107343 0.657218 0.832192
O O1 0.123659 0.874597 0.411381
O O2 0.205276 0.188120 0.221331
O O3 0.293783 0.857579 0.821517
O O4 0.106928 0.845372 0.087282
O O5 0.423622 0.619096 0.473945
O O6 0.500000 0.000000 0.500000
O O7 0.371870 0.915168 0.991311
O O8 0.890193 0.277586 0.329536
O O9 0.782211 0.923331 0.405303
O O10 0.000000 0.000000 0.000000
O O11 0.338135 0.292807 0.239825
O O12 0.207257 0.546760 0.586484
O O13 0.380077 0.504774 0.019371
O O14 0.500000 0.500000 0.500000
O O15 0.566883 0.770633 0.741954
O O16 0.000000 0.500000 0.000000
#
# Coordination Sequence:
#
# PCOD8006789 Si02
#       7
#     2   2   2   2   2   2   2
#     4  10  24  45  68  95 133 172 213 265 328 387
#     4  10  20  40  64  89 129 177 206 255 326 375
#     4  10  24  46  70  96 129 173 218 269 328 383
#     4  10  23  42  64  95 128 173 217 261 325 381
#     4  12  25  36  62 101 131 168 218 261 317 390
#     4  10  23  42  64  91 133 172 213 264 318 387
#     4  12  26  44  70  98 128 169 220 273 325 385
#
# _framework density 21.788864
#
# number of rings (size 3 to 8) (size 9 to 14) (size 15 to 20)
#    0.000    1.714    2.857    3.000    8.000    3.429 
#    0.000    0.000    0.000    0.000    0.000    0.000 
#    0.000    0.000    0.000    0.000    0.000    0.000 
#
# Total GULP energy -173485.639847 kJ/mol
# GULP energy per Si atom -12391.831418 kJ/mol
# Density = 2.173927 g / cm^3
# Si number density = 21.788864 Si / 1000 Ang^3
#
#
#
# Elastic Constant Matrix: (Units=GPa)
#
#
# Indices 1 2 3 4 5 6 
#
# 1 55.7665 27.5885 24.4894 -12.1444 8.7533 23.2568
# 2 27.5885 101.4760 36.9396 -19.2230 7.5578 33.8581
# 3 24.4894 36.9396 124.3839 -23.8212 -3.8913 14.3240
# 4 -12.1444 -19.2230 -23.8212 49.8569 -2.8234 -0.2046
# 5 8.7533 7.5578 -3.8913 -2.8234 17.5622 1.9227
# 6 23.2568 33.8581 14.3240 -0.2046 1.9227 40.9681
#
#
#
# Elastic Compliance Matrix: (Units=1/GPa)
#
#
# Indices 1 2 3 4 5 6 
#
# 1 0.028371 0.000171 -0.003509 0.004523 -0.012688 -0.014402
# 2 0.000171 0.016162 -0.002718 0.004610 -0.005564 -0.012220
# 3 -0.003509 -0.002718 0.010313 0.003350 0.005700 0.000381
# 4 0.004523 0.004610 0.003350 0.024578 0.001275 -0.007485
# 5 -0.012688 -0.005564 0.005700 0.001275 0.066393 0.006698
# 6 -0.014402 -0.012220 0.000381 -0.007485 0.006698 0.042199
#
#
# Mechanical properties :
#
#
# Convention : Reuss Voigt Hill
#
# Bulk Modulus (GPa) = 23.39954 51.07349 37.23651
# Shear Modulus (GPa) = 23.32381 34.51803 28.92092
#
# Velocity S-wave (km/s) = 3.27532 3.98453 3.64720
# Velocity P-wave (km/s) = 5.00661 6.68279 5.90448
#
# Compressibility (1/GPa) = 0.04273588
#
# Stress axis : x y z
#
# Youngs Moduli (GPa) = 35.24747 61.87288 96.96049
#
# Poissons Ratio (x) = -0.01059 0.34022
# Poissons Ratio (y) = -0.00603 0.26349
# Poissons Ratio (z) = 0.12368 0.16814
#
# Static dielectric constant tensor:
#      x y z
#    x 4.386630 -1.959900 -0.027730 
#    y -1.959900 11.721820 0.022660 
#    z -0.027730 0.022660 4.087580 
# 
# 
# High freq. dielectric constant tensor:
#      x y z
#    x 1.843740 0.007220 -0.009360 
#    y 0.007220 1.856850 -0.009020 
#    z -0.009360 -0.009020 1.866790 
# 
# From -- ./inp_files/175736.got.cif
#   From: 2010.06.25/outbox.cif.g09.slc.cpg/sg2_88_cif.got.tgz:175736.got - 2010.06.27 13:26:56.
