data_PCOD8006904
_publ_section_title
;
Structure prediction by ZEFSAII (Michael W. Deem and Ramdas Pophale) SiO2 
 PCOD8006904
Probable space group: P -1
;
_chemical_formula_sum "Si O2"
_cell_formula_units_Z 16
_cell_length_a 19.882860
_cell_length_b 6.336415
_cell_length_c 16.947348
_cell_angle_alpha 76.130858
_cell_angle_beta 159.247481
_cell_angle_gamma 104.545518
_cell_volume 732.223312
_symmetry_space_group_name_H-M "P -1"
_symmetry_group_IT_number 2
_symmetry_cell_setting 'triclinic'
loop_
_space_group_symop_operation_xyz
x,y,z
-x,-y,-z
loop_
_atom_site_type_symbol
_atom_site_label
_atom_site_fract_x
_atom_site_fract_y
_atom_site_fract_z
Si Si1 0.282041 0.308349 0.545648
Si Si2 0.887065 0.703290 0.335367
Si Si3 0.228556 0.369915 0.057093
Si Si4 0.696717 0.396701 0.038147
Si Si5 0.642211 0.283843 0.523513
Si Si6 0.951443 0.846666 0.554408
Si Si7 0.156310 0.633727 0.110065
Si Si8 0.908964 0.011349 0.752582
O O1 0.278714 0.516140 0.465242
O O2 0.125414 0.303580 0.443659
O O3 0.229801 0.090358 0.458047
O O4 0.480642 0.293301 0.810205
O O5 0.717111 0.611622 0.098287
O O6 0.816759 0.801891 0.332861
O O7 0.000000 0.500000 0.500000
O O8 0.021097 0.893785 0.420117
O O9 0.415877 0.231468 0.269609
O O10 0.222822 0.498958 0.121203
O O11 0.246982 0.549536 0.994366
O O12 0.035742 0.222239 0.842194
O O13 0.838073 0.217650 0.234846
O O14 0.666507 0.327628 0.639505
O O15 0.763051 0.078500 0.654386
O O16 0.000000 0.500000 0.000000
O O17 0.064640 0.854187 0.966519
#
# Coordination Sequence:
#
# PCOD8006904 Si02
#       8
#     2   2   2   2   2   2   2   2
#     4  11  24  39  63  92 127 161 207 255 306 370
#     4   9  20  40  65  90 125 158 200 247 300 368
#     4  11  25  41  65  92 123 166 210 261 315 371
#     4  10  22  40  61  92 123 158 205 253 303 366
#     4  11  25  43  62  93 125 164 213 262 315 370
#     4  10  20  40  65  91 122 164 197 247 309 360
#     4  12  23  43  64  87 128 164 211 267 315 366
#     4  12  23  40  63  89 123 169 209 263 310 371
#
# _framework density 21.851258000000001
#
# number of rings (size 3 to 8) (size 9 to 14) (size 15 to 20)
#    0.000    1.250    2.500    3.000    0.000    7.000 
#    0.000    5.625    0.000    0.000    0.000    0.000 
#    0.000    0.000    0.000    0.000    0.000    0.000 
#
# Total GULP energy -198267.874064 kJ/mol
# GULP energy per Si atom -12391.742129 kJ/mol
# Density = 2.180152 g / cm^3
# Si number density = 21.851258 Si / 1000 Ang^3
#
#
#
# Elastic Constant Matrix: (Units=GPa)
#
#
# Indices 1 2 3 4 5 6 
#
# 1 86.5300 39.4160 40.6815 13.3472 -15.9297 -15.2575
# 2 39.4160 89.9133 47.4393 12.6129 4.3662 -10.2919
# 3 40.6815 47.4393 121.1454 21.0104 -0.6728 -12.8809
# 4 13.3472 12.6129 21.0104 39.1218 -11.5441 -10.5139
# 5 -15.9297 4.3662 -0.6728 -11.5441 33.0531 -1.6772
# 6 -15.2575 -10.2919 -12.8809 -10.5139 -1.6772 17.8092
#
#
#
# Elastic Compliance Matrix: (Units=1/GPa)
#
#
# Indices 1 2 3 4 5 6 
#
# 1 0.020721 -0.006860 -0.003429 0.005132 0.013407 0.015600
# 2 -0.006860 0.016815 -0.003895 -0.003479 -0.006907 -0.001681
# 3 -0.003429 -0.003895 0.011741 -0.004487 -0.002445 0.000424
# 4 0.005132 -0.003479 -0.004487 0.038945 0.017651 0.023795
# 5 0.013407 -0.006907 -0.002445 0.017651 0.044776 0.020363
# 6 0.015600 -0.001681 0.000424 0.023795 0.020363 0.084817
#
#
# Mechanical properties :
#
#
# Convention : Reuss Voigt Hill
#
# Bulk Modulus (GPa) = 47.82448 61.40693 54.61571
# Shear Modulus (GPa) = 19.75107 29.33360 24.54233
#
# Velocity S-wave (km/s) = 3.00973 3.66788 3.35499
# Velocity P-wave (km/s) = 5.83197 6.78978 6.32902
#
# Compressibility (1/GPa) = 0.02090979
#
# Stress axis : x y z
#
# Youngs Moduli (GPa) = 48.26124 59.47112 85.17240
#
# Poissons Ratio (x) = 0.40795 0.29205
# Poissons Ratio (y) = 0.33106 0.33172
# Poissons Ratio (z) = 0.16548 0.23162
#
# Static dielectric constant tensor:
#      x y z
#    x 3.761680 -0.244490 0.019990 
#    y -0.244490 3.905170 0.259250 
#    z 0.019990 0.259250 3.821980 
# 
# 
# High freq. dielectric constant tensor:
#      x y z
#    x 1.860070 -0.002530 -0.017920 
#    y -0.002530 1.857230 0.005660 
#    z -0.017920 0.005660 1.859050 
# 
# From -- ./inp_files/107778.got.cif
#   From: 2010.06.25/outbox.cif.g09.slc.cpg/sg2_54_cif.got.tgz:107778.got - 2010.06.27 13:26:56.
