data_PCOD8006990
_publ_section_title
;
Structure prediction by ZEFSAII (Michael W. Deem and Ramdas Pophale) SiO2 
 PCOD8006990
Probable space group: P -1
;
_chemical_formula_sum "Si O2"
_cell_formula_units_Z 14
_cell_length_a 9.218058
_cell_length_b 6.131261
_cell_length_c 18.369818
_cell_angle_alpha 117.319839
_cell_angle_beta 133.339189
_cell_angle_gamma 80.128487
_cell_volume 654.119005
_symmetry_space_group_name_H-M "P -1"
_symmetry_group_IT_number 2
_symmetry_cell_setting 'triclinic'
loop_
_space_group_symop_operation_xyz
x,y,z
-x,-y,-z
loop_
_atom_site_type_symbol
_atom_site_label
_atom_site_fract_x
_atom_site_fract_y
_atom_site_fract_z
Si Si1 0.289926 0.457003 0.461687
Si Si2 0.952879 0.700663 0.361218
Si Si3 0.320637 0.026985 0.765060
Si Si4 0.336728 0.628310 0.147972
Si Si5 0.648758 0.516017 0.347321
Si Si6 0.908185 0.184618 0.213835
Si Si7 0.973980 0.884873 0.053690
O O1 0.500000 0.500000 0.500000
O O2 0.334004 0.401376 0.551120
O O3 0.127657 0.216523 0.335974
O O4 0.194931 0.709087 0.456865
O O5 0.858435 0.651836 0.401799
O O6 0.854156 0.460776 0.237787
O O7 0.891219 0.943606 0.342777
O O8 0.386912 0.783941 0.718838
O O9 0.270184 0.003352 0.830354
O O10 0.506127 0.263706 0.847024
O O11 0.458070 0.610227 0.261392
O O12 0.182748 0.809960 0.138153
O O13 0.213917 0.352846 0.040733
O O14 0.924058 0.092428 0.123255
O O15 0.000000 0.000000 0.000000
#
# Coordination Sequence:
#
# PCOD8006990 Si02
#       7
#     2   2   2   2   2   2   2
#     4  10  22  38  62  92 130 163 201 254 302 374
#     4   8  20  38  60  93 123 163 204 246 302 369
#     4  10  20  40  66  90 128 161 209 255 300 368
#     4  10  24  40  66  97 113 170 210 248 314 372
#     4  10  20  41  63  89 131 161 203 253 304 366
#     4   9  23  41  61  93 123 162 205 258 309 357
#     4  11  24  44  66  88 129 162 203 262 314 367
#
# _framework density 21.402833000000001
#
# number of rings (size 3 to 8) (size 9 to 14) (size 15 to 20)
#    0.857    1.429    0.000    1.286    4.000    4.571 
#    2.571   11.429    0.000    0.000    0.000    0.000 
#    0.000    0.000    0.000    0.000    0.000    0.000 
#
# Total GULP energy -173486.078510 kJ/mol
# GULP energy per Si atom -12391.862751 kJ/mol
# Density = 2.135412 g / cm^3
# Si number density = 21.402833 Si / 1000 Ang^3
#
#
#
# Elastic Constant Matrix: (Units=GPa)
#
#
# Indices 1 2 3 4 5 6 
#
# 1 118.1154 26.3667 45.1818 -3.1793 -12.4421 12.3456
# 2 26.3667 76.8126 21.7647 -16.9876 -2.4141 7.7378
# 3 45.1818 21.7647 77.8570 -11.6588 -8.1761 3.7266
# 4 -3.1793 -16.9876 -11.6588 24.2810 -3.8610 8.8965
# 5 -12.4421 -2.4141 -8.1761 -3.8610 52.5638 -4.4454
# 6 12.3456 7.7378 3.7266 8.8965 -4.4454 25.6861
#
#
#
# Elastic Compliance Matrix: (Units=1/GPa)
#
#
# Indices 1 2 3 4 5 6 
#
# 1 0.011761 -0.002273 -0.006126 -0.001570 0.001332 -0.003305
# 2 -0.002273 0.018597 -0.000975 0.015914 0.000505 -0.009792
# 3 -0.006126 -0.000975 0.018186 0.008244 0.001775 -0.001949
# 4 -0.001570 0.015914 0.008244 0.066880 0.004214 -0.027670
# 5 0.001332 0.000505 0.001775 0.004214 0.020029 0.000957
# 6 -0.003305 -0.009792 -0.001949 -0.027670 0.000957 0.053502
#
#
# Mechanical properties :
#
#
# Convention : Reuss Voigt Hill
#
# Bulk Modulus (GPa) = 33.56319 51.04572 42.30446
# Shear Modulus (GPa) = 22.97420 32.47096 27.72258
#
# Velocity S-wave (km/s) = 3.27986 3.89927 3.60290
# Velocity P-wave (km/s) = 5.48261 6.64636 6.09234
#
# Compressibility (1/GPa) = 0.02979455
#
# Stress axis : x y z
#
# Youngs Moduli (GPa) = 85.02856 53.77221 54.98728
#
# Poissons Ratio (x) = 0.12225 0.33688
# Poissons Ratio (y) = 0.19331 0.05359
# Poissons Ratio (z) = 0.52093 0.05241
#
# Static dielectric constant tensor:
#      x y z
#    x 3.878820 -0.017630 0.216480 
#    y -0.017630 3.907050 -0.149940 
#    z 0.216480 -0.149940 3.640640 
# 
# 
# High freq. dielectric constant tensor:
#      x y z
#    x 1.843420 0.000850 0.012620 
#    y 0.000850 1.836140 -0.011300 
#    z 0.012620 -0.011300 1.820620 
# 
# From -- ./inp_files/548433.got.cif
#   From: 2010.06.25/outbox.cif.g09.slc.cpg/sg2_275_cif.got.tgz:548433.got - 2010.06.27 13:26:56.
