data_PCOD8006171
_publ_section_title
;
Structure prediction by ZEFSAII (Michael W. Deem and Ramdas Pophale) SiO2 
 PCOD8006171
Probable space group: P -1
;
_chemical_formula_sum "Si O2"
_cell_formula_units_Z 16
_cell_length_a 13.710050
_cell_length_b 6.709167
_cell_length_c 16.558572
_cell_angle_alpha 101.950180
_cell_angle_beta 30.229609
_cell_angle_gamma 90.086967
_cell_volume 699.875769
_symmetry_space_group_name_H-M "P -1"
_symmetry_group_IT_number 2
_symmetry_cell_setting 'triclinic'
loop_
_space_group_symop_operation_xyz
x,y,z
-x,-y,-z
loop_
_atom_site_type_symbol
_atom_site_label
_atom_site_fract_x
_atom_site_fract_y
_atom_site_fract_z
Si Si1 0.643562 0.101540 0.112843
Si Si2 0.402738 0.673290 0.677396
Si Si3 0.787675 0.804900 0.376036
Si Si4 0.197590 0.121765 0.445531
Si Si5 0.356215 0.660583 0.025016
Si Si6 0.888840 0.620856 0.872793
Si Si7 0.761812 0.291094 0.714047
Si Si8 0.747715 0.253021 0.377570
O O1 0.710722 0.217752 0.149836
O O2 0.394496 0.190199 0.293737
O O3 0.727330 0.169410 0.975160
O O4 0.737533 0.841626 0.042474
O O5 0.566162 0.780293 0.538026
O O6 0.527259 0.415091 0.583620
O O7 0.237564 0.705637 0.726266
O O8 0.862006 0.852027 0.415314
O O9 0.967703 0.586789 0.192818
O O10 0.769298 0.004902 0.348918
O O11 0.999675 0.279961 0.549794
O O12 0.253035 0.871118 0.358875
O O13 0.604724 0.534720 0.826352
O O14 0.254305 0.471420 0.086931
O O15 0.304951 0.785698 0.157849
O O16 0.064144 0.694638 0.708183
#
# Coordination Sequence:
#
# PCOD8006171 Si02
#       8
#     2   2   2   2   2   2   2   2
#     4  11  24  40  64  90 128 164 197 254 317 355
#     4   9  22  40  62  98 124 151 214 254 289 382
#     4  10  20  39  66  87 128 165 197 252 312 358
#     4  10  21  40  61  94 119 155 212 264 289 363
#     4  11  23  42  61  87 127 170 194 255 318 355
#     4  11  22  40  59  91 128 160 208 246 299 381
#     4  10  22  41  62  87 125 153 217 256 292 376
#     4  10  21  40  67  91 122 167 200 250 312 358
#
# _framework density 22.861201999999999
#
# number of rings (size 3 to 8) (size 9 to 14) (size 15 to 20)
#    0.000    1.750    2.500    1.125    1.750    1.500 
#    0.000    1.250    0.000    0.000    0.000    0.000 
#    0.000    0.000    0.000    0.000    0.000    0.000 
#
# Total GULP energy -198227.120558 kJ/mol
# GULP energy per Si atom -12389.195035 kJ/mol
# Density = 2.280917 g / cm^3
# Si number density = 22.861202 Si / 1000 Ang^3
#
#
#
# Elastic Constant Matrix: (Units=GPa)
#
#
# Indices 1 2 3 4 5 6 
#
# 1 81.6593 28.1011 25.7403 7.5532 11.4741 6.2467
# 2 28.1011 115.0788 38.9420 25.0946 1.5782 -10.8775
# 3 25.7403 38.9420 77.3983 22.4155 -0.4300 -5.6476
# 4 7.5532 25.0946 22.4155 33.9897 6.5187 -1.2001
# 5 11.4741 1.5782 -0.4300 6.5187 35.3785 3.1416
# 6 6.2467 -10.8775 -5.6476 -1.2001 3.1416 26.1925
#
#
#
# Elastic Compliance Matrix: (Units=1/GPa)
#
#
# Indices 1 2 3 4 5 6 
#
# 1 0.015768 -0.003284 -0.004858 0.002907 -0.005080 -0.005429
# 2 -0.003284 0.012327 -0.002849 -0.006563 0.001260 0.004836
# 3 -0.004858 -0.002849 0.019113 -0.009977 0.003487 0.003221
# 4 0.002907 -0.006563 -0.009977 0.041680 -0.008214 -0.002675
# 5 -0.005080 0.001260 0.003487 -0.008214 0.031562 -0.001675
# 6 -0.005429 0.004836 0.003221 -0.002675 -0.001675 0.042255
#
#
# Mechanical properties :
#
#
# Convention : Reuss Voigt Hill
#
# Bulk Modulus (GPa) = 39.64243 51.07815 45.36029
# Shear Modulus (GPa) = 25.89406 31.20235 28.54820
#
# Velocity S-wave (km/s) = 3.36916 3.69841 3.53762
# Velocity P-wave (km/s) = 5.70203 6.37408 6.04739
#
# Compressibility (1/GPa) = 0.02522550
#
# Stress axis : x y z
#
# Youngs Moduli (GPa) = 63.42152 81.12424 52.32015
#
# Poissons Ratio (x) = 0.26639 0.25416
# Poissons Ratio (y) = 0.20826 0.14908
# Poissons Ratio (z) = 0.30809 0.23115
#
# Static dielectric constant tensor:
#      x y z
#    x 4.169020 0.227980 -0.236430 
#    y 0.227980 3.888450 0.296340 
#    z -0.236430 0.296340 4.163230 
# 
# 
# High freq. dielectric constant tensor:
#      x y z
#    x 1.896440 0.018950 -0.025270 
#    y 0.018950 1.881040 0.026600 
#    z -0.025270 0.026600 1.899790 
# 
# From -- ./inp_files/217195.got.cif
#   From: 2010.06.25/outbox.cif.g09.slc.cpg/sg2_109_cif.got.tgz:217195.got - 2010.06.27 13:26:56.
