data_PCOD8006988
_publ_section_title
;
Structure prediction by ZEFSAII (Michael W. Deem and Ramdas Pophale) SiO2 
 PCOD8006988
Probable space group: P -1
;
_chemical_formula_sum "Si O2"
_cell_formula_units_Z 16
_cell_length_a 9.586265
_cell_length_b 16.974728
_cell_length_c 15.260322
_cell_angle_alpha 139.846723
_cell_angle_beta 37.427448
_cell_angle_gamma 146.298049
_cell_volume 796.865002
_symmetry_space_group_name_H-M "P -1"
_symmetry_group_IT_number 2
_symmetry_cell_setting 'triclinic'
loop_
_space_group_symop_operation_xyz
x,y,z
-x,-y,-z
loop_
_atom_site_type_symbol
_atom_site_label
_atom_site_fract_x
_atom_site_fract_y
_atom_site_fract_z
Si Si1 0.292484 0.788594 0.354999
Si Si2 0.194479 0.861186 0.061105
Si Si3 0.371465 0.876749 0.581550
Si Si4 0.108972 0.166151 0.110735
Si Si5 0.355231 0.681916 0.932852
Si Si6 0.937563 0.636731 0.243995
Si Si7 0.132242 0.132332 0.614970
Si Si8 0.669127 0.676110 0.044065
O O1 0.216330 0.807089 0.506931
O O2 0.485045 0.729267 0.218532
O O3 0.012444 0.676547 0.343209
O O4 0.452562 0.944850 0.356958
O O5 0.075143 0.917857 0.241535
O O6 0.977373 0.780014 0.021021
O O7 0.226687 0.735716 0.974247
O O8 0.500000 0.000000 0.000000
O O9 0.567883 0.823425 0.463896
O O10 0.141077 0.821449 0.724796
O O11 0.313356 0.203163 0.122183
O O12 0.279793 0.290562 0.056406
O O13 0.000000 0.000000 0.000000
O O14 0.312455 0.534850 0.789151
O O15 0.210181 0.662088 0.082456
O O16 0.825114 0.726016 0.333118
O O17 0.000000 0.000000 0.500000
O O18 0.500000 0.500000 0.000000
#
# Coordination Sequence:
#
# PCOD8006988 Si02
#       8
#     2   2   2   2   2   2   2   2
#     4  11  21  41  65  93 128 173 220 265 340 388
#     4  11  25  41  68  99 132 167 226 282 321 394
#     4  11  24  40  66  97 129 172 221 279 323 404
#     4  12  24  43  70  98 129 173 234 276 326 402
#     4  10  22  39  66  95 125 166 220 270 328 384
#     4  10  20  40  66  90 125 170 215 267 326 400
#     4  11  23  40  64  95 131 171 214 266 340 391
#     4  12  25  42  67  99 137 175 220 276 338 400
#
# _framework density 20.078683000000002
#
# number of rings (size 3 to 8) (size 9 to 14) (size 15 to 20)
#    0.000    1.000    5.000    1.500    7.000    0.000 
#    0.000    3.125    0.000    0.000    0.000    0.000 
#    0.000    0.000    0.000    0.000    0.000    0.000 
#
# Total GULP energy -198416.871010 kJ/mol
# GULP energy per Si atom -12401.054438 kJ/mol
# Density = 2.003298 g / cm^3
# Si number density = 20.078683 Si / 1000 Ang^3
#
#
#
# Elastic Constant Matrix: (Units=GPa)
#
#
# Indices 1 2 3 4 5 6 
#
# 1 106.5113 41.7198 39.9938 9.5589 -10.6567 13.3459
# 2 41.7198 106.9235 49.0668 15.2772 -7.0098 6.9037
# 3 39.9938 49.0668 110.0323 6.1306 -9.7791 -3.1399
# 4 9.5589 15.2772 6.1306 37.1490 1.8830 3.4052
# 5 -10.6567 -7.0098 -9.7791 1.8830 36.1239 1.5953
# 6 13.3459 6.9037 -3.1399 3.4052 1.5953 35.8370
#
#
#
# Elastic Compliance Matrix: (Units=1/GPa)
#
#
# Indices 1 2 3 4 5 6 
#
# 1 0.012607 -0.002840 -0.003141 -0.001284 0.002580 -0.004416
# 2 -0.002840 0.013304 -0.004663 -0.003864 0.000753 -0.001580
# 3 -0.003141 -0.004663 0.012504 0.000310 0.001402 0.003072
# 4 -0.001284 -0.003864 0.000310 0.029042 -0.002497 -0.001399
# 5 0.002580 0.000753 0.001402 -0.002497 0.029189 -0.002045
# 6 -0.004416 -0.001580 0.003072 -0.001399 -0.002045 0.030346
#
#
# Mechanical properties :
#
#
# Convention : Reuss Voigt Hill
#
# Bulk Modulus (GPa) = 58.38826 65.00308 61.69567
# Shear Modulus (GPa) = 32.46947 34.66778 33.56862
#
# Velocity S-wave (km/s) = 4.02570 4.15974 4.09327
# Velocity P-wave (km/s) = 7.12398 7.45089 7.28927
#
# Compressibility (1/GPa) = 0.01712673
#
# Stress axis : x y z
#
# Youngs Moduli (GPa) = 79.31992 75.16499 79.97143
#
# Poissons Ratio (x) = 0.21347 0.25120
# Poissons Ratio (y) = 0.22527 0.37293
# Poissons Ratio (z) = 0.24916 0.35052
#
# Static dielectric constant tensor:
#      x y z
#    x 4.044300 -0.098330 0.091020 
#    y -0.098330 3.609390 0.045650 
#    z 0.091020 0.045650 3.814510 
# 
# 
# High freq. dielectric constant tensor:
#      x y z
#    x 1.802360 0.009580 -0.004130 
#    y 0.009580 1.768850 0.016580 
#    z -0.004130 0.016580 1.784020 
# 
# From -- ./inp_files/206251.got.cif
#   From: 2010.06.25/outbox.cif.g09.slc.cpg/sg2_104_cif.got.tgz:206251.got - 2010.06.27 13:26:56.
