data_PCOD8006886
_publ_section_title
;
Structure prediction by ZEFSAII (Michael W. Deem and Ramdas Pophale) SiO2 
 PCOD8006886
Probable space group: P -1
;
_chemical_formula_sum "Si O2"
_cell_formula_units_Z 16
_cell_length_a 8.915481
_cell_length_b 16.016113
_cell_length_c 15.197745
_cell_angle_alpha 144.236535
_cell_angle_beta 139.965668
_cell_angle_gamma 42.145472
_cell_volume 773.033162
_symmetry_space_group_name_H-M "P -1"
_symmetry_group_IT_number 2
_symmetry_cell_setting 'triclinic'
loop_
_space_group_symop_operation_xyz
x,y,z
-x,-y,-z
loop_
_atom_site_type_symbol
_atom_site_label
_atom_site_fract_x
_atom_site_fract_y
_atom_site_fract_z
Si Si1 0.637222 0.120401 0.066553
Si Si2 0.439303 0.741653 0.549166
Si Si3 0.530346 0.952397 0.252268
Si Si4 0.751215 0.575604 0.403772
Si Si5 0.755309 0.779994 0.880365
Si Si6 0.236517 0.520449 0.859341
Si Si7 0.863685 0.863120 0.645008
Si Si8 0.086276 0.233992 0.602461
O O1 0.405724 0.217694 0.103073
O O2 0.859312 0.188966 0.236437
O O3 0.552268 0.131776 0.937285
O O4 0.750683 0.948939 0.003799
O O5 0.527100 0.610654 0.402772
O O6 0.649291 0.711842 0.692419
O O7 0.199959 0.722989 0.469004
O O8 0.393474 0.907159 0.629249
O O9 0.767374 0.838217 0.306697
O O10 0.308768 0.990391 0.256312
O O11 0.724262 0.472497 0.222313
O O12 0.744154 0.735226 0.499611
O O13 0.000000 0.500000 0.500000
O O14 0.036426 0.676433 0.934710
O O15 0.140107 0.385003 0.728876
O O16 0.500000 0.500000 0.000000
O O17 0.857969 0.886369 0.556441
#
# Coordination Sequence:
#
# PCOD8006886 Si02
#       8
#     2   2   2   2   2   2   2   2
#     4  10  21  38  64  92 117 164 203 254 302 351
#     4  10  20  40  65  90 120 159 209 252 297 362
#     4  10  22  37  59  95 127 155 203 254 303 362
#     4  10  21  39  63  89 117 159 203 253 297 359
#     4  10  21  40  63  90 125 158 204 253 302 361
#     4  11  26  42  61  91 128 164 199 250 316 364
#     4  10  21  37  61  92 121 159 209 244 305 360
#     4  11  23  40  62  91 124 166 197 249 314 362
#
# _framework density 20.697687999999999
#
# number of rings (size 3 to 8) (size 9 to 14) (size 15 to 20)
#    0.000    1.750    2.500    1.125    1.750    3.500 
#    0.000    1.250    0.000    0.000    0.000    0.000 
#    0.000    0.000    0.000    0.000    0.000    0.000 
#
# Total GULP energy -198408.452827 kJ/mol
# GULP energy per Si atom -12400.528302 kJ/mol
# Density = 2.065058 g / cm^3
# Si number density = 20.697688 Si / 1000 Ang^3
#
#
#
# Elastic Constant Matrix: (Units=GPa)
#
#
# Indices 1 2 3 4 5 6 
#
# 1 135.6116 31.7855 46.9414 -2.3630 -11.2316 -21.2737
# 2 31.7855 85.3963 22.4570 -19.0536 -11.4655 -15.0916
# 3 46.9414 22.4570 80.3144 -16.4884 -12.7079 -6.8891
# 4 -2.3630 -19.0536 -16.4884 28.9267 -2.9334 -4.0636
# 5 -11.2316 -11.4655 -12.7079 -2.9334 36.3236 -2.9282
# 6 -21.2737 -15.0916 -6.8891 -4.0636 -2.9282 33.5012
#
#
#
# Elastic Compliance Matrix: (Units=1/GPa)
#
#
# Indices 1 2 3 4 5 6 
#
# 1 0.010549 -0.002358 -0.005750 -0.003335 0.000567 0.004099
# 2 -0.002358 0.018138 0.001255 0.014528 0.007361 0.009337
# 3 -0.005750 0.001255 0.019323 0.012461 0.006625 0.002978
# 4 -0.003335 0.014528 0.012461 0.054413 0.013499 0.014769
# 5 0.000567 0.007361 0.006625 0.013499 0.034216 0.009666
# 6 0.004099 0.009337 0.002978 0.014769 0.009666 0.039907
#
#
# Mechanical properties :
#
#
# Convention : Reuss Voigt Hill
#
# Bulk Modulus (GPa) = 29.15182 55.96557 42.55869
# Shear Modulus (GPa) = 24.79108 33.09286 28.94197
#
# Velocity S-wave (km/s) = 3.46464 4.00292 3.74347
# Velocity P-wave (km/s) = 5.48818 6.96152 6.26829
#
# Compressibility (1/GPa) = 0.03430318
#
# Stress axis : x y z
#
# Youngs Moduli (GPa) = 94.79808 55.13417 51.75309
#
# Poissons Ratio (x) = 0.13001 0.29756
# Poissons Ratio (y) = 0.22354 -0.06494
# Poissons Ratio (z) = 0.54504 -0.06918
#
# Static dielectric constant tensor:
#      x y z
#    x 4.179920 -0.073650 -0.319150 
#    y -0.073650 3.479680 -0.047930 
#    z -0.319150 -0.047930 3.758680 
# 
# 
# High freq. dielectric constant tensor:
#      x y z
#    x 1.826500 -0.005880 -0.012760 
#    y -0.005880 1.795920 -0.007970 
#    z -0.012760 -0.007970 1.803450 
# 
# From -- ./inp_files/189446.got.cif
#   From: 2010.06.25/outbox.cif.g09.slc.cpg/sg2_95_cif.got.tgz:189446.got - 2010.06.27 13:26:56.
