data_PCOD8006931
_publ_section_title
;
Structure prediction by ZEFSAII (Michael W. Deem and Ramdas Pophale) SiO2 
 PCOD8006931
Probable space group: P -1
;
_chemical_formula_sum "Si O2"
_cell_formula_units_Z 14
_cell_length_a 16.091893
_cell_length_b 7.371025
_cell_length_c 11.032496
_cell_angle_alpha 68.811000
_cell_angle_beta 33.355502
_cell_angle_gamma 66.208491
_cell_volume 657.588586
_symmetry_space_group_name_H-M "P -1"
_symmetry_group_IT_number 2
_symmetry_cell_setting 'triclinic'
loop_
_space_group_symop_operation_xyz
x,y,z
-x,-y,-z
loop_
_atom_site_type_symbol
_atom_site_label
_atom_site_fract_x
_atom_site_fract_y
_atom_site_fract_z
Si Si1 0.881657 0.504645 0.251275
Si Si2 0.653505 0.369225 0.398543
Si Si3 0.096667 0.223915 0.518116
Si Si4 0.106536 0.659759 0.475452
Si Si5 0.955134 0.196111 0.931769
Si Si6 0.596680 0.054920 0.720119
Si Si7 0.566788 0.271953 0.942149
O O1 0.714176 0.490026 0.406312
O O2 0.931055 0.334190 0.335237
O O3 0.891624 0.709269 0.255413
O O4 0.000000 0.500000 0.000000
O O5 0.500000 0.500000 0.500000
O O6 0.614184 0.165085 0.545674
O O7 0.789012 0.322105 0.144145
O O8 0.145868 0.433671 0.432746
O O9 0.037406 0.218340 0.453430
O O10 0.958237 0.179222 0.786354
O O11 0.238838 0.044542 0.401943
O O12 0.250962 0.762632 0.252835
O O13 0.000000 0.000000 0.000000
O O14 0.519701 0.218081 0.875060
O O15 0.496958 0.885355 0.855779
O O16 0.500000 0.500000 0.000000
#
# Coordination Sequence:
#
# PCOD8006931 Si02
#       7
#     2   2   2   2   2   2   2
#     4   9  20  41  63  89 125 173 208 270 333 383
#     4  11  23  43  65  93 131 175 224 274 326 398
#     4  10  21  39  67  99 123 172 224 266 332 397
#     4  10  20  40  65  93 132 167 212 277 326 394
#     4  10  20  40  68  91 130 168 217 277 332 391
#     4  11  23  42  65  93 130 178 224 268 334 402
#     4  11  23  41  64  91 136 174 208 275 342 390
#
# _framework density 21.289908
#
# number of rings (size 3 to 8) (size 9 to 14) (size 15 to 20)
#    0.000    1.714    4.286    0.000    0.000    1.714 
#   15.429    0.714    0.000    0.000    0.000    0.000 
#    0.000    0.000    0.000    0.000    0.000    0.000 
#
# Total GULP energy -173451.210116 kJ/mol
# GULP energy per Si atom -12389.372151 kJ/mol
# Density = 2.124145 g / cm^3
# Si number density = 21.289908 Si / 1000 Ang^3
#
#
#
# Elastic Constant Matrix: (Units=GPa)
#
#
# Indices 1 2 3 4 5 6 
#
# 1 132.0305 50.2367 63.8185 -14.1846 -0.9786 -27.0324
# 2 50.2367 106.9024 52.8310 -11.6636 -9.2066 -13.6569
# 3 63.8185 52.8310 133.1710 -27.3178 -6.6863 -10.9337
# 4 -14.1846 -11.6636 -27.3178 39.8293 4.4037 0.6387
# 5 -0.9786 -9.2066 -6.6863 4.4037 31.3811 -2.2679
# 6 -27.0324 -13.6569 -10.9337 0.6387 -2.2679 38.9126
#
#
#
# Elastic Compliance Matrix: (Units=1/GPa)
#
#
# Indices 1 2 3 4 5 6 
#
# 1 0.011893 -0.002857 -0.003976 0.000682 -0.000971 0.006074
# 2 -0.002857 0.012889 -0.003440 0.000029 0.003082 0.001751
# 3 -0.003976 -0.003440 0.011921 0.005702 0.000557 -0.000681
# 4 0.000682 0.000029 0.005702 0.029556 -0.002799 0.001438
# 5 -0.000971 0.003082 0.000557 -0.002799 0.033437 0.002558
# 6 0.006074 0.001751 -0.000681 0.001438 0.002558 0.030467
#
#
# Mechanical properties :
#
#
# Convention : Reuss Voigt Hill
#
# Bulk Modulus (GPa) = 61.89198 78.43071 70.16135
# Shear Modulus (GPa) = 32.03209 35.70578 33.86893
#
# Velocity S-wave (km/s) = 3.88308 4.09971 3.99287
# Velocity P-wave (km/s) = 7.01702 7.70257 7.36777
#
# Compressibility (1/GPa) = 0.01615718
#
# Stress axis : x y z
#
# Youngs Moduli (GPa) = 84.08592 77.58455 83.88613
#
# Poissons Ratio (x) = 0.22166 0.33353
# Poissons Ratio (y) = 0.24024 0.28854
# Poissons Ratio (z) = 0.33433 0.26687
#
# Static dielectric constant tensor:
#      x y z
#    x 8.937010 1.080430 1.506140 
#    y 1.080430 3.940600 -0.088390 
#    z 1.506140 -0.088390 4.758000 
# 
# 
# High freq. dielectric constant tensor:
#      x y z
#    x 1.821190 0.013560 0.006240 
#    y 0.013560 1.825650 -0.023870 
#    z 0.006240 -0.023870 1.846630 
# 
# From -- ./inp_files/461047.got.cif
#   From: 2010.06.25/outbox.cif.g09.slc.cpg/sg2_231_cif.got.tgz:461047.got - 2010.06.27 13:26:56.
