data_PCOD8006958
_publ_section_title
;
Structure prediction by ZEFSAII (Michael W. Deem and Ramdas Pophale) SiO2 
 PCOD8006958
Probable space group: P -1
;
_chemical_formula_sum "Si O2"
_cell_formula_units_Z 16
_cell_length_a 9.060405
_cell_length_b 11.652317
_cell_length_c 9.344310
_cell_angle_alpha 56.680668
_cell_angle_beta 105.420027
_cell_angle_gamma 121.855574
_cell_volume 699.795027
_symmetry_space_group_name_H-M "P -1"
_symmetry_group_IT_number 2
_symmetry_cell_setting 'triclinic'
loop_
_space_group_symop_operation_xyz
x,y,z
-x,-y,-z
loop_
_atom_site_type_symbol
_atom_site_label
_atom_site_fract_x
_atom_site_fract_y
_atom_site_fract_z
Si Si1 0.242920 0.021335 0.497851
Si Si2 0.209201 0.806897 0.407637
Si Si3 0.411142 0.366337 0.761794
Si Si4 0.985045 0.851486 0.775856
Si Si5 0.764376 0.488643 0.918618
Si Si6 0.047577 0.528420 0.758112
Si Si7 0.961696 0.774314 0.136642
Si Si8 0.526302 0.301677 0.542983
O O1 0.089151 0.033284 0.366410
O O2 0.381413 0.191071 0.469626
O O3 0.321590 0.948782 0.449717
O O4 0.160342 0.902230 0.692793
O O5 0.071544 0.667431 0.566133
O O6 0.325587 0.751580 0.383889
O O7 0.103029 0.862587 0.236121
O O8 0.558877 0.409007 0.891551
O O9 0.226823 0.241676 0.864351
O O10 0.448461 0.283271 0.693944
O O11 0.399163 0.520473 0.608343
O O12 0.844344 0.673337 0.833120
O O13 0.032807 0.871749 0.942235
O O14 0.857145 0.456830 0.829020
O O15 0.801087 0.413707 0.120903
O O16 0.056406 0.396911 0.756238
#
# Coordination Sequence:
#
# PCOD8006958 Si02
#       8
#     2   2   2   2   2   2   2   2
#     4  11  24  44  70  90 134 176 219 261 321 399
#     4  12  24  43  67  96 135 174 214 265 330 395
#     4  11  24  40  68  97 136 163 218 281 321 379
#     4  10  23  42  68  97 127 173 222 266 316 390
#     4  10  20  40  65  98 131 168 216 274 325 376
#     4  10  21  37  66  98 129 170 214 267 330 382
#     4  11  25  41  67 101 131 169 220 274 323 380
#     4  11  25  42  64 100 129 173 219 268 330 379
#
# _framework density 22.86384
#
# number of rings (size 3 to 8) (size 9 to 14) (size 15 to 20)
#    0.000    1.250    3.750    1.500    7.000    3.500 
#    0.000    0.625    0.000    0.000    0.000    0.000 
#    0.000    0.000    0.000    0.000    0.000    0.000 
#
# Total GULP energy -198408.856446 kJ/mol
# GULP energy per Si atom -12400.553528 kJ/mol
# Density = 2.281180 g / cm^3
# Si number density = 22.863840 Si / 1000 Ang^3
#
#
#
# Elastic Constant Matrix: (Units=GPa)
#
#
# Indices 1 2 3 4 5 6 
#
# 1 118.7648 31.0522 38.6148 17.1701 -3.7238 -2.4251
# 2 31.0522 79.1641 30.3314 15.1509 -12.3629 -10.5553
# 3 38.6148 30.3314 123.6316 16.9528 -6.7390 3.8468
# 4 17.1701 15.1509 16.9528 23.8943 -4.2598 4.2060
# 5 -3.7238 -12.3629 -6.7390 -4.2598 31.1009 12.3254
# 6 -2.4251 -10.5553 3.8468 4.2060 12.3254 28.2791
#
#
#
# Elastic Compliance Matrix: (Units=1/GPa)
#
#
# Indices 1 2 3 4 5 6 
#
# 1 0.010443 -0.002306 -0.002133 -0.005107 -0.001520 0.001747
# 2 -0.002306 0.017363 -0.002481 -0.008419 0.002194 0.006916
# 3 -0.002133 -0.002481 0.009972 -0.003231 0.001527 -0.002650
# 4 -0.005107 -0.008419 -0.003231 0.057642 0.009524 -0.015865
# 5 -0.001520 0.002194 0.001527 0.009524 0.042126 -0.019296
# 6 0.001747 0.006916 -0.002650 -0.015865 -0.019296 0.049224
#
#
# Mechanical properties :
#
#
# Convention : Reuss Voigt Hill
#
# Bulk Modulus (GPa) = 41.77332 57.95081 49.86207
# Shear Modulus (GPa) = 23.97062 31.42564 27.69813
#
# Velocity S-wave (km/s) = 3.24142 3.71141 3.48435
# Velocity P-wave (km/s) = 5.68500 6.61567 6.16792
#
# Compressibility (1/GPa) = 0.02393872
#
# Stress axis : x y z
#
# Youngs Moduli (GPa) = 95.76006 57.59332 100.28030
#
# Poissons Ratio (x) = 0.13281 0.21388
# Poissons Ratio (y) = 0.22082 0.24877
# Poissons Ratio (z) = 0.20424 0.14287
#
# Static dielectric constant tensor:
#      x y z
#    x 4.106230 -0.244450 -0.045540 
#    y -0.244450 3.951140 0.235930 
#    z -0.045540 0.235930 4.078410 
# 
# 
# High freq. dielectric constant tensor:
#      x y z
#    x 1.899730 -0.020350 -0.001210 
#    y -0.020350 1.895260 0.015060 
#    z -0.001210 0.015060 1.900670 
# 
# From -- ./inp_files/185276.got.cif
#   From: 2010.06.25/outbox.cif.g09.slc.cpg/sg2_93_cif.got.tgz:185276.got - 2010.06.27 13:26:56.
