data_PCOD8006713
_publ_section_title
;
Structure prediction by ZEFSAII (Michael W. Deem and Ramdas Pophale) SiO2 
 PCOD8006713
Probable space group: P -1
;
_chemical_formula_sum "Si O2"
_cell_formula_units_Z 16
_cell_length_a 9.013306
_cell_length_b 13.496666
_cell_length_c 8.846108
_cell_angle_alpha 138.252627
_cell_angle_beta 88.767398
_cell_angle_gamma 89.661449
_cell_volume 715.979690
_symmetry_space_group_name_H-M "P -1"
_symmetry_group_IT_number 2
_symmetry_cell_setting 'triclinic'
loop_
_space_group_symop_operation_xyz
x,y,z
-x,-y,-z
loop_
_atom_site_type_symbol
_atom_site_label
_atom_site_fract_x
_atom_site_fract_y
_atom_site_fract_z
Si Si1 0.668765 0.284473 0.112976
Si Si2 0.054836 0.843506 0.206928
Si Si3 0.349277 0.567799 0.015607
Si Si4 0.164609 0.397381 0.041350
Si Si5 0.643628 0.841535 0.059624
Si Si6 0.762982 0.128390 0.493246
Si Si7 0.077402 0.128267 0.058854
Si Si8 0.151850 0.679492 0.567317
O O1 0.708483 0.340106 0.343698
O O2 0.800852 0.176993 0.925841
O O3 0.645751 0.425433 0.159593
O O4 0.522242 0.188978 0.021495
O O5 0.101920 0.927949 0.456618
O O6 0.934513 0.914738 0.171579
O O7 0.987621 0.686458 0.083183
O O8 0.217032 0.465092 0.958123
O O9 0.324640 0.736418 0.266998
O O10 0.500000 0.500000 0.000000
O O11 0.128186 0.526713 0.309391
O O12 0.295564 0.290979 0.984386
O O13 0.645747 0.999210 0.327272
O O14 0.744800 0.854034 0.916344
O O15 0.824021 0.184412 0.394645
O O16 0.996238 0.282936 0.286728
O O17 0.000000 0.000000 0.000000
#
# Coordination Sequence:
#
# PCOD8006713 Si02
#       8
#     2   2   2   2   2   2   2   2
#     4  10  22  39  65  90 128 160 205 251 309 363
#     4   9  22  40  65  89 123 163 206 251 307 365
#     4  10  20  41  64  91 125 160 203 256 302 366
#     4  10  22  41  67  90 122 161 210 254 305 363
#     4  11  22  39  66  92 126 161 206 253 307 364
#     4  10  22  40  67  88 125 166 205 250 309 363
#     4  10  20  40  63  90 125 160 205 256 300 364
#     4  10  22  42  65  88 125 166 205 253 307 361
#
# _framework density 22.347000000000001
#
# number of rings (size 3 to 8) (size 9 to 14) (size 15 to 20)
#    0.000    2.000    2.500    0.000    0.000   14.000 
#    0.000    0.000    0.000    0.000    0.000    0.000 
#    0.000    0.000    0.000    0.000    0.000    0.000 
#
# Total GULP energy -198302.327047 kJ/mol
# GULP energy per Si atom -12393.895440 kJ/mol
# Density = 2.229614 g / cm^3
# Si number density = 22.347000 Si / 1000 Ang^3
#
#
#
# Elastic Constant Matrix: (Units=GPa)
#
#
# Indices 1 2 3 4 5 6 
#
# 1 92.6834 24.1338 19.5966 -4.2268 20.9905 30.5428
# 2 24.1338 124.3306 29.9363 -10.5964 14.3410 18.6515
# 3 19.5966 29.9363 99.3780 -6.6226 18.8676 18.9597
# 4 -4.2268 -10.5964 -6.6226 38.4523 0.1820 8.9907
# 5 20.9905 14.3410 18.8676 0.1820 28.6262 6.4720
# 6 30.5428 18.6515 18.9597 8.9907 6.4720 38.6277
#
#
#
# Elastic Compliance Matrix: (Units=1/GPa)
#
#
# Indices 1 2 3 4 5 6 
#
# 1 0.017986 0.000051 0.001702 0.005741 -0.011080 -0.014561
# 2 0.000051 0.009645 -0.001267 0.003482 -0.003068 -0.004372
# 3 0.001702 -0.001267 0.013113 0.003708 -0.007758 -0.006734
# 4 0.005741 0.003482 0.003708 0.031655 -0.005317 -0.014518
# 5 -0.011080 -0.003068 -0.007758 -0.005317 0.048108 0.007227
# 6 -0.014561 -0.004372 -0.006734 -0.014518 0.007227 0.044986
#
#
# Mechanical properties :
#
#
# Convention : Reuss Voigt Hill
#
# Bulk Modulus (GPa) = 23.97146 51.52505 37.74825
# Shear Modulus (GPa) = 28.02293 37.32293 32.67293
#
# Velocity S-wave (km/s) = 3.54501 4.09119 3.82785
# Velocity P-wave (km/s) = 5.24465 6.73973 6.03864
#
# Compressibility (1/GPa) = 0.04171627
#
# Stress axis : x y z
#
# Youngs Moduli (GPa) = 55.59862 103.68416 76.25923
#
# Poissons Ratio (x) = -0.00525 -0.12982
# Poissons Ratio (y) = -0.00282 0.09661
# Poissons Ratio (z) = -0.09465 0.13135
#
# Static dielectric constant tensor:
#      x y z
#    x 4.190900 -0.029170 -0.080290 
#    y -0.029170 4.428930 -0.158040 
#    z -0.080290 -0.158040 4.055080 
# 
# 
# High freq. dielectric constant tensor:
#      x y z
#    x 1.884110 0.000490 -0.010310 
#    y 0.000490 1.891780 -0.002280 
#    z -0.010310 -0.002280 1.872990 
# 
# From -- ./inp_files/209399.got.cif
#   From: 2010.06.25/outbox.cif.g09.slc.cpg/sg2_105_cif.got.tgz:209399.got - 2010.06.27 13:26:56.
