data_PCOD8006269
_publ_section_title
;
Structure prediction by ZEFSAII (Michael W. Deem and Ramdas Pophale) SiO2 
 PCOD8006269
Probable space group: P -1
;
_chemical_formula_sum "Si O2"
_cell_formula_units_Z 16
_cell_length_a 7.732083
_cell_length_b 9.027806
_cell_length_c 11.650982
_cell_angle_alpha 89.229710
_cell_angle_beta 56.233816
_cell_angle_gamma 88.495754
_cell_volume 675.858128
_symmetry_space_group_name_H-M "P -1"
_symmetry_group_IT_number 2
_symmetry_cell_setting 'triclinic'
loop_
_space_group_symop_operation_xyz
x,y,z
-x,-y,-z
loop_
_atom_site_type_symbol
_atom_site_label
_atom_site_fract_x
_atom_site_fract_y
_atom_site_fract_z
Si Si1 0.060125 0.610034 0.301016
Si Si2 0.075984 0.353614 0.906172
Si Si3 0.111295 0.695058 0.655181
Si Si4 0.462898 0.010984 0.846207
Si Si5 0.540859 0.541792 0.133051
Si Si6 0.682991 0.779973 0.922929
Si Si7 0.857080 0.138809 0.578348
Si Si8 0.728942 0.251995 0.166868
O O1 0.301015 0.576851 0.239518
O O2 0.999355 0.746512 0.405393
O O3 0.009399 0.657645 0.189917
O O4 0.927984 0.466719 0.381676
O O5 0.327073 0.359507 0.823395
O O6 0.000000 0.500000 0.000000
O O7 0.959900 0.229489 0.025817
O O8 0.217137 0.790134 0.515786
O O9 0.263446 0.680308 0.708317
O O10 0.896595 0.775113 0.774559
O O11 0.511435 0.876179 0.917859
O O12 0.356272 0.915135 0.786123
O O13 0.662339 0.095182 0.727170
O O14 0.304885 0.131680 0.960221
O O15 0.588221 0.366180 0.138152
O O16 0.615329 0.607977 0.978324
O O17 0.000000 0.000000 0.500000
#
# Coordination Sequence:
#
# PCOD8006269 Si02
#       8
#     2   2   2   2   2   2   2   2
#     4  12  24  46  76 103 144 189 236 304 355 414
#     4  10  20  39  67 115 142 167 233 300 359 410
#     4  12  24  46  71 105 140 190 238 293 358 418
#     4  11  25  45  67 106 139 194 238 288 363 428
#     4  11  21  41  72 109 138 177 234 306 351 409
#     4  11  22  43  71 104 140 181 241 288 361 423
#     4  12  28  50  68  98 146 200 242 280 357 440
#     4  11  23  41  68 107 148 173 238 301 352 425
#
# _framework density 23.673607000000001
#
# number of rings (size 3 to 8) (size 9 to 14) (size 15 to 20)
#    0.000    0.750    6.250    2.625    1.750    5.000 
#    2.250    1.875    0.000    0.000    0.000    0.000 
#    0.000    0.000    0.000    0.000    0.000    0.000 
#
# Total GULP energy -198271.440906 kJ/mol
# GULP energy per Si atom -12391.965057 kJ/mol
# Density = 2.361972 g / cm^3
# Si number density = 23.673607 Si / 1000 Ang^3
#
#
#
# Elastic Constant Matrix: (Units=GPa)
#
#
# Indices 1 2 3 4 5 6 
#
# 1 57.5096 21.5778 14.9998 -4.1782 14.6097 1.8685
# 2 21.5778 140.7727 48.7872 -0.9680 12.0305 20.4984
# 3 14.9998 48.7872 79.7812 -3.1845 22.8880 1.7621
# 4 -4.1782 -0.9680 -3.1845 43.9371 -6.1261 3.3057
# 5 14.6097 12.0305 22.8880 -6.1261 30.4338 -8.9884
# 6 1.8685 20.4984 1.7621 3.3057 -8.9884 32.6547
#
#
#
# Elastic Compliance Matrix: (Units=1/GPa)
#
#
# Indices 1 2 3 4 5 6 
#
# 1 0.020771 -0.002020 0.000313 0.000758 -0.010079 -0.002789
# 2 -0.002020 0.010325 -0.005573 -0.000004 -0.000776 -0.006278
# 3 0.000313 -0.005573 0.019670 -0.000416 -0.013168 -0.001163
# 4 0.000758 -0.000004 -0.000416 0.023495 0.004324 -0.001207
# 5 -0.010079 -0.000776 -0.013168 0.004324 0.053522 0.016069
# 6 -0.002789 -0.006278 -0.001163 -0.001207 0.016069 0.039332
#
#
# Mechanical properties :
#
#
# Convention : Reuss Voigt Hill
#
# Bulk Modulus (GPa) = 27.61906 49.86590 38.74248
# Shear Modulus (GPa) = 25.80729 34.25169 30.02949
#
# Velocity S-wave (km/s) = 3.30529 3.80785 3.56544
# Velocity P-wave (km/s) = 5.12431 6.35945 5.77500
#
# Compressibility (1/GPa) = 0.03620688
#
# Stress axis : x y z
#
# Youngs Moduli (GPa) = 48.14485 96.85055 50.83851
#
# Poissons Ratio (x) = 0.19561 -0.01593
# Poissons Ratio (y) = 0.09724 0.28333
# Poissons Ratio (z) = -0.01509 0.53977
#
# Static dielectric constant tensor:
#      x y z
#    x 5.043360 0.152200 -0.109640 
#    y 0.152200 4.760230 0.024650 
#    z -0.109640 0.024650 4.305670 
# 
# 
# High freq. dielectric constant tensor:
#      x y z
#    x 1.941710 0.007540 0.015920 
#    y 0.007540 1.956390 -0.008610 
#    z 0.015920 -0.008610 1.907900 
# 
# From -- ./inp_files/382214.got.cif
#   From: 2010.06.25/outbox.cif.g09.slc.cpg/sg2_192_cif.got.tgz:382214.got - 2010.06.27 13:26:56.
