data_PCOD8006492
_publ_section_title
;
Structure prediction by ZEFSAII (Michael W. Deem and Ramdas Pophale) SiO2 
 PCOD8006492
Probable space group: P -1
;
_chemical_formula_sum "Si O2"
_cell_formula_units_Z 16
_cell_length_a 9.526239
_cell_length_b 20.558501
_cell_length_c 8.010029
_cell_angle_alpha 98.967188
_cell_angle_beta 115.437934
_cell_angle_gamma 37.975499
_cell_volume 823.217202
_symmetry_space_group_name_H-M "P -1"
_symmetry_group_IT_number 2
_symmetry_cell_setting 'triclinic'
loop_
_space_group_symop_operation_xyz
x,y,z
-x,-y,-z
loop_
_atom_site_type_symbol
_atom_site_label
_atom_site_fract_x
_atom_site_fract_y
_atom_site_fract_z
Si Si1 0.524324 0.901065 0.015088
Si Si2 0.550949 0.744843 0.005232
Si Si3 0.016187 0.470522 0.681216
Si Si4 0.174698 0.201883 0.195322
Si Si5 0.981145 0.612288 0.908417
Si Si6 0.317869 0.037919 0.669103
Si Si7 0.833230 0.236139 0.272816
Si Si8 0.407685 0.468521 0.336318
O O1 0.445977 0.855039 0.016273
O O2 0.790249 0.812333 0.996497
O O3 0.283320 0.013320 0.823381
O O4 0.574084 0.925814 0.218083
O O5 0.310659 0.777049 0.884306
O O6 0.716438 0.681288 0.894946
O O7 0.741441 0.663283 0.226416
O O8 0.740064 0.532262 0.617988
O O9 0.000000 0.500000 0.500000
O O10 0.093511 0.508121 0.842317
O O11 0.094764 0.305367 0.233854
O O12 0.948728 0.233696 0.169348
O O13 0.456613 0.080191 0.367632
O O14 0.206842 0.562100 0.128108
O O15 0.052624 0.131692 0.467242
O O16 0.656459 0.346954 0.332318
O O17 0.500000 0.500000 0.500000
#
# Coordination Sequence:
#
# PCOD8006492 Si02
#       8
#     2   2   2   2   2   2   2   2
#     4   8  19  40  62  79 114 161 195 233 302 347
#     4  10  20  40  58  84 117 161 184 246 299 350
#     4  11  23  41  59  85 122 157 200 240 300 361
#     4   9  21  36  61  85 116 158 194 242 289 347
#     4  10  20  44  60  78 124 161 194 233 306 360
#     4   9  20  38  62  87 114 158 201 240 291 351
#     4  12  22  36  60  90 123 146 203 249 290 345
#     4  11  25  37  59  91 117 158 197 248 298 351
#
# _framework density 19.435939999999999
#
# number of rings (size 3 to 8) (size 9 to 14) (size 15 to 20)
#    0.750    1.250    2.500    1.125    7.000    2.000 
#    0.000    0.625    0.000    0.000    0.000    0.000 
#    0.000    0.000    0.000    0.000    0.000    0.000 
#
# Total GULP energy -198246.085289 kJ/mol
# GULP energy per Si atom -12390.380331 kJ/mol
# Density = 1.939170 g / cm^3
# Si number density = 19.435940 Si / 1000 Ang^3
#
#
#
# Elastic Constant Matrix: (Units=GPa)
#
#
# Indices 1 2 3 4 5 6 
#
# 1 129.3849 50.3273 58.1134 -12.4140 2.1480 15.1999
# 2 50.3273 84.6035 27.3850 -13.1561 4.7739 19.4609
# 3 58.1134 27.3850 78.7916 -5.6518 6.1400 4.9065
# 4 -12.4140 -13.1561 -5.6518 24.7873 2.5082 5.1058
# 5 2.1480 4.7739 6.1400 2.5082 25.7667 0.2365
# 6 15.1999 19.4609 4.9065 5.1058 0.2365 34.6658
#
#
#
# Elastic Compliance Matrix: (Units=1/GPa)
#
#
# Indices 1 2 3 4 5 6 
#
# 1 0.013825 -0.004464 -0.008355 0.003093 0.001390 -0.002838
# 2 -0.004464 0.019062 -0.001721 0.009902 -0.003622 -0.009934
# 3 -0.008355 -0.001721 0.019560 -0.000683 -0.003597 0.001987
# 4 0.003093 0.009902 -0.000683 0.050603 -0.006725 -0.014225
# 5 0.001390 -0.003622 -0.003597 -0.006725 0.040852 0.002645
# 6 -0.002838 -0.009934 0.001987 -0.014225 0.002645 0.037464
#
#
# Mechanical properties :
#
#
# Convention : Reuss Voigt Hill
#
# Bulk Modulus (GPa) = 42.79816 62.71460 52.75638
# Shear Modulus (GPa) = 22.91103 27.50758 25.20930
#
# Velocity S-wave (km/s) = 3.43709 3.76612 3.60536
# Velocity P-wave (km/s) = 6.14974 7.15884 6.67339
#
# Compressibility (1/GPa) = 0.02336549
#
# Stress axis : x y z
#
# Youngs Moduli (GPa) = 72.33207 52.46133 51.12497
#
# Poissons Ratio (x) = 0.23420 0.42715
# Poissons Ratio (y) = 0.32290 0.08801
# Poissons Ratio (z) = 0.60433 0.09031
#
# Static dielectric constant tensor:
#      x y z
#    x 3.532270 0.272060 -0.070840 
#    y 0.272060 3.859120 -0.011630 
#    z -0.070840 -0.011630 3.446020 
# 
# 
# High freq. dielectric constant tensor:
#      x y z
#    x 1.753250 0.023080 -0.006650 
#    y 0.023080 1.760850 -0.008440 
#    z -0.006650 -0.008440 1.734150 
# 
# From -- ./inp_files/223710.got.cif
#   From: 2010.06.25/outbox.cif.g09.slc.cpg/sg2_112_cif.got.tgz:223710.got - 2010.06.27 13:26:56.
