data_PCOD8006967
_publ_section_title
;
Structure prediction by ZEFSAII (Michael W. Deem and Ramdas Pophale) SiO2 
 PCOD8006967
Probable space group: P -1
;
_chemical_formula_sum "Si O2"
_cell_formula_units_Z 16
_cell_length_a 8.388505
_cell_length_b 11.658836
_cell_length_c 14.917373
_cell_angle_alpha 97.159007
_cell_angle_beta 147.522989
_cell_angle_gamma 68.298386
_cell_volume 674.607666
_symmetry_space_group_name_H-M "P -1"
_symmetry_group_IT_number 2
_symmetry_cell_setting 'triclinic'
loop_
_space_group_symop_operation_xyz
x,y,z
-x,-y,-z
loop_
_atom_site_type_symbol
_atom_site_label
_atom_site_fract_x
_atom_site_fract_y
_atom_site_fract_z
Si Si1 0.699731 0.976329 0.998932
Si Si2 0.594061 0.349749 0.035704
Si Si3 0.654613 0.759604 0.249183
Si Si4 0.684444 0.706371 0.608303
Si Si5 0.650098 0.607315 0.388652
Si Si6 0.451291 0.619565 0.648770
Si Si7 0.480228 0.780347 0.845740
Si Si8 0.174781 0.984722 0.356945
O O1 0.749901 0.835786 0.971592
O O2 0.509424 0.086404 0.842154
O O3 0.038240 0.978931 0.191254
O O4 0.500000 0.000000 0.000000
O O5 0.417794 0.322836 0.034447
O O6 0.006929 0.260360 0.230786
O O7 0.500000 0.500000 0.000000
O O8 0.451044 0.317386 0.877811
O O9 0.503414 0.741672 0.271373
O O10 0.061103 0.692243 0.437956
O O11 0.726645 0.636584 0.526685
O O12 0.698357 0.607769 0.683203
O O13 0.316945 0.839888 0.455694
O O14 0.421380 0.533750 0.275554
O O15 0.000000 0.500000 0.500000
O O16 0.491154 0.705604 0.753716
O O17 0.102181 0.906675 0.696691
O O18 0.500000 0.000000 0.500000
#
# Coordination Sequence:
#
# PCOD8006967 Si02
#       8
#     2   2   2   2   2   2   2   2
#     4  10  20  40  66 102 138 180 225 280 344 409
#     4  12  23  42  69  99 136 184 230 285 349 409
#     4  11  21  41  70  96 135 184 227 274 351 411
#     4  12  25  45  68 103 137 180 236 290 343 404
#     4  10  23  44  69  96 133 183 233 280 343 418
#     4  11  24  44  70 103 138 185 235 281 341 419
#     4  11  23  45  70 101 145 184 224 279 357 414
#     4  11  22  41  72 102 143 177 228 286 342 417
#
# _framework density 23.717487999999999
#
# number of rings (size 3 to 8) (size 9 to 14) (size 15 to 20)
#    0.000    1.000    3.750    5.625    0.000    2.000 
#    2.250    1.875    0.000    0.000    0.000    0.000 
#    0.000    0.000    0.000    0.000    0.000    0.000 
#
# Total GULP energy -198335.056617 kJ/mol
# GULP energy per Si atom -12395.941039 kJ/mol
# Density = 2.366351 g / cm^3
# Si number density = 23.717488 Si / 1000 Ang^3
#
#
#
# Elastic Constant Matrix: (Units=GPa)
#
#
# Indices 1 2 3 4 5 6 
#
# 1 133.1171 45.8306 36.9581 18.6724 -33.7637 23.0957
# 2 45.8306 119.8910 40.0910 19.5372 -17.8803 32.3095
# 3 36.9581 40.0910 107.9332 35.8014 -14.4184 8.2238
# 4 18.6724 19.5372 35.8014 60.0640 3.3581 -7.9223
# 5 -33.7637 -17.8803 -14.4184 3.3581 29.2527 -0.2702
# 6 23.0957 32.3095 8.2238 -7.9223 -0.2702 45.7877
#
#
#
# Elastic Compliance Matrix: (Units=1/GPa)
#
#
# Indices 1 2 3 4 5 6 
#
# 1 0.014156 0.000578 0.000200 -0.006829 0.017494 -0.008662
# 2 0.000578 0.013722 -0.001394 -0.005717 0.008925 -0.010660
# 3 0.000200 -0.001394 0.013749 -0.008602 0.007115 -0.003033
# 4 -0.006829 -0.005717 -0.008602 0.028638 -0.018775 0.013868
# 5 0.017494 0.008925 0.007115 -0.018775 0.065317 -0.019263
# 6 -0.008662 -0.010660 -0.003033 0.013868 -0.019263 0.036562
#
#
# Mechanical properties :
#
#
# Convention : Reuss Voigt Hill
#
# Bulk Modulus (GPa) = 24.75532 67.41117 46.08325
# Shear Modulus (GPa) = 26.76101 42.89166 34.82634
#
# Velocity S-wave (km/s) = 3.36270 4.25719 3.83610
# Velocity P-wave (km/s) = 5.05344 7.25597 6.25245
#
# Compressibility (1/GPa) = 0.04039536
#
# Stress axis : x y z
#
# Youngs Moduli (GPa) = 70.64351 72.87765 72.73238
#
# Poissons Ratio (x) = -0.04213 -0.01456
# Poissons Ratio (y) = -0.04084 0.10137
# Poissons Ratio (z) = -0.01415 0.10158
#
# Static dielectric constant tensor:
#      x y z
#    x 4.377490 0.561820 -0.003520 
#    y 0.561820 4.827580 0.006700 
#    z -0.003520 0.006700 5.013110 
# 
# 
# High freq. dielectric constant tensor:
#      x y z
#    x 1.931070 0.024400 -0.005090 
#    y 0.024400 1.956570 0.009400 
#    z -0.005090 0.009400 1.941810 
# 
# From -- ./inp_files/500485.got.cif
#   From: 2010.06.25/outbox.cif.g09.slc.cpg/sg2_251_cif.got.tgz:500485.got - 2010.06.27 13:26:56.
