data_PCOD8006649
_publ_section_title
;
Structure prediction by ZEFSAII (Michael W. Deem and Ramdas Pophale) SiO2 
 PCOD8006649
Probable space group: P -1
;
_chemical_formula_sum "Si O2"
_cell_formula_units_Z 16
_cell_length_a 6.111677
_cell_length_b 5.176811
_cell_length_c 24.856185
_cell_angle_alpha 63.420943
_cell_angle_beta 86.039528
_cell_angle_gamma 76.656081
_cell_volume 683.797151
_symmetry_space_group_name_H-M "P -1"
_symmetry_group_IT_number 2
_symmetry_cell_setting 'triclinic'
loop_
_space_group_symop_operation_xyz
x,y,z
-x,-y,-z
loop_
_atom_site_type_symbol
_atom_site_label
_atom_site_fract_x
_atom_site_fract_y
_atom_site_fract_z
Si Si1 0.439316 0.091739 0.913626
Si Si2 0.734327 0.272916 0.520398
Si Si3 0.262968 0.212689 0.230425
Si Si4 0.299509 0.031687 0.809123
Si Si5 0.076604 0.626876 0.285098
Si Si6 0.086842 0.383981 0.423990
Si Si7 0.229279 0.762247 0.023879
Si Si8 0.983404 0.399767 0.118095
O O1 0.660235 0.161013 0.929419
O O2 0.226255 0.335799 0.913535
O O3 0.456948 0.112859 0.846580
O O4 0.391185 0.779654 0.967886
O O5 0.500000 0.500000 0.500000
O O6 0.847424 0.363441 0.563991
O O7 0.865521 0.306704 0.460266
O O8 0.721967 0.925353 0.556007
O O9 0.523197 0.189639 0.210992
O O10 0.238749 0.358815 0.275864
O O11 0.092157 0.421004 0.172947
O O12 0.205213 0.891355 0.263268
O O13 0.108741 0.898098 0.855578
O O14 0.163367 0.293198 0.749568
O O15 0.021966 0.520934 0.354230
O O16 0.170315 0.434759 0.065505
O O17 0.000000 0.000000 0.000000
#
# Coordination Sequence:
#
# PCOD8006649 Si02
#       8
#     2   2   2   2   2   2   2   2
#     4  10  20  40  62  91 125 164 217 275 347 414
#     4  10  21  41  69 101 135 184 220 271 330 381
#     4  11  25  41  67  94 133 178 226 273 339 396
#     4  11  25  40  67  92 126 178 220 276 341 409
#     4  11  25  44  63 101 136 177 225 279 329 394
#     4  10  22  40  66  99 140 174 226 275 323 390
#     4   9  20  36  64  90 124 162 215 279 345 414
#     4  10  21  40  60  90 125 166 217 278 338 410
#
# _framework density 23.398752999999999
#
# number of rings (size 3 to 8) (size 9 to 14) (size 15 to 20)
#    0.000    1.750    1.250    1.875    3.500    3.500 
#    0.000    8.750    0.000    0.000    0.000    0.000 
#    0.000    0.000    0.000    0.000    0.000    0.000 
#
# Total GULP energy -198282.532538 kJ/mol
# GULP energy per Si atom -12392.658284 kJ/mol
# Density = 2.334550 g / cm^3
# Si number density = 23.398753 Si / 1000 Ang^3
#
#
#
# Elastic Constant Matrix: (Units=GPa)
#
#
# Indices 1 2 3 4 5 6 
#
# 1 98.6227 24.5687 57.2070 1.9568 0.1496 -7.1729
# 2 24.5687 97.4781 43.0287 6.3492 -4.7250 2.6696
# 3 57.2070 43.0287 164.8384 12.1154 7.7076 2.9309
# 4 1.9568 6.3492 12.1154 34.8598 -1.3569 -3.1116
# 5 0.1496 -4.7250 7.7076 -1.3569 18.9288 -3.5397
# 6 -7.1729 2.6696 2.9309 -3.1116 -3.5397 23.5407
#
#
#
# Elastic Compliance Matrix: (Units=1/GPa)
#
#
# Indices 1 2 3 4 5 6 
#
# 1 0.013583 -0.001502 -0.004667 0.001724 0.002571 0.005505
# 2 -0.001502 0.012130 -0.002725 -0.001122 0.003870 -0.001060
# 3 -0.004667 -0.002725 0.008904 -0.002835 -0.005101 -0.003363
# 4 0.001724 -0.001122 -0.002835 0.030443 0.004099 0.005646
# 5 0.002571 0.003870 -0.005101 0.004099 0.058063 0.010252
# 6 0.005505 -0.001060 -0.003363 0.005646 0.010252 0.046984
#
#
# Mechanical properties :
#
#
# Convention : Reuss Voigt Hill
#
# Bulk Modulus (GPa) = 59.41762 67.83868 63.62815
# Shear Modulus (GPa) = 25.83929 31.20818 28.52374
#
# Velocity S-wave (km/s) = 3.32671 3.65602 3.49525
# Velocity P-wave (km/s) = 6.34071 6.84670 6.59856
#
# Compressibility (1/GPa) = 0.01683002
#
# Stress axis : x y z
#
# Youngs Moduli (GPa) = 73.62110 82.44203 112.30791
#
# Poissons Ratio (x) = 0.12383 0.52411
# Poissons Ratio (y) = 0.11058 0.30601
# Poissons Ratio (z) = 0.34357 0.22463
#
# Static dielectric constant tensor:
#      x y z
#    x 4.329400 0.126760 -0.127960 
#    y 0.126760 4.197630 -0.137850 
#    z -0.127960 -0.137850 4.367820 
# 
# 
# High freq. dielectric constant tensor:
#      x y z
#    x 1.927330 -0.003900 0.000850 
#    y -0.003900 1.918110 -0.004360 
#    z 0.000850 -0.004360 1.925410 
# 
# From -- ./inp_files/13741.got.cif
#   From: 2010.06.25/outbox.cif.g09.slc.cpg/sg2_7_cif.got.tgz:13741.got - 2010.06.27 13:26:56.
