data_PCOD8006266
_publ_section_title
;
Structure prediction by ZEFSAII (Michael W. Deem and Ramdas Pophale) SiO2 
 PCOD8006266
Probable space group: P -1
;
_chemical_formula_sum "Si O2"
_cell_formula_units_Z 14
_cell_length_a 11.820793
_cell_length_b 21.413627
_cell_length_c 9.245120
_cell_angle_alpha 143.197121
_cell_angle_beta 52.700885
_cell_angle_gamma 151.808598
_cell_volume 619.797418
_symmetry_space_group_name_H-M "P -1"
_symmetry_group_IT_number 2
_symmetry_cell_setting 'triclinic'
loop_
_space_group_symop_operation_xyz
x,y,z
-x,-y,-z
loop_
_atom_site_type_symbol
_atom_site_label
_atom_site_fract_x
_atom_site_fract_y
_atom_site_fract_z
Si Si1 0.764557 0.329235 0.759333
Si Si2 0.214996 0.375920 0.133372
Si Si3 0.299233 0.881976 0.806519
Si Si4 0.592444 0.409335 0.353751
Si Si5 0.364369 0.527664 0.997766
Si Si6 0.435433 0.091253 0.819747
Si Si7 0.860935 0.727766 0.555496
O O1 0.808652 0.292761 0.505845
O O2 0.626944 0.353626 0.863568
O O3 0.575791 0.138758 0.650493
O O4 0.000000 0.500000 0.000000
O O5 0.395313 0.562016 0.432627
O O6 0.204586 0.429009 0.087173
O O7 0.936396 0.195675 0.088229
O O8 0.346105 0.340493 0.957504
O O9 0.453724 0.032399 0.837726
O O10 0.500000 0.000000 0.000000
O O11 0.840946 0.614700 0.466713
O O12 0.333184 0.302379 0.290168
O O13 0.602752 0.295038 0.102421
O O14 0.208205 0.350136 0.694970
O O15 0.144726 0.945088 0.740507
#
# Coordination Sequence:
#
# PCOD8006266 Si02
#       7
#     2   2   2   2   2   2   2
#     4  12  27  47  72 103 140 191 240 291 356 424
#     4  10  23  46  69  99 142 184 230 286 353 424
#     4  12  29  45  66 103 147 184 235 295 355 424
#     4  10  20  39  68 102 136 176 226 289 352 410
#     4  10  23  44  74  99 136 186 233 287 349 420
#     4  12  24  42  69  97 137 185 236 284 351 418
#     4  10  20  39  67 104 136 171 230 293 343 414
#
# _framework density 22.588027
#
# number of rings (size 3 to 8) (size 9 to 14) (size 15 to 20)
#    0.000    1.143    2.857    2.571    6.000    1.714 
#    0.000    0.714    0.000    0.000    0.000    0.000 
#    0.000    0.000    0.000    0.000    0.000    0.000 
#
# Total GULP energy -173474.963302 kJ/mol
# GULP energy per Si atom -12391.068807 kJ/mol
# Density = 2.253662 g / cm^3
# Si number density = 22.588027 Si / 1000 Ang^3
#
#
#
# Elastic Constant Matrix: (Units=GPa)
#
#
# Indices 1 2 3 4 5 6 
#
# 1 112.9364 49.4433 30.4383 -3.6802 12.3479 -12.0212
# 2 49.4433 134.1061 31.2767 -9.5335 2.5259 -10.9662
# 3 30.4383 31.2767 93.7277 -11.0131 14.6332 -3.5600
# 4 -3.6802 -9.5335 -11.0131 32.8901 -5.2662 2.9714
# 5 12.3479 2.5259 14.6332 -5.2662 26.8516 -2.7513
# 6 -12.0212 -10.9662 -3.5600 2.9714 -2.7513 39.5082
#
#
#
# Elastic Compliance Matrix: (Units=1/GPa)
#
#
# Indices 1 2 3 4 5 6 
#
# 1 0.011612 -0.003652 -0.002004 -0.001255 -0.003929 0.002160
# 2 -0.003652 0.009491 -0.002085 0.001911 0.002438 0.001361
# 3 -0.002004 -0.002085 0.013189 0.002746 -0.005592 -0.000596
# 4 -0.001255 0.001911 0.002746 0.032715 0.005142 -0.001706
# 5 -0.003929 0.002438 -0.005592 0.005142 0.043038 0.001588
# 6 0.002160 0.001361 -0.000596 -0.001706 0.001588 0.026531
#
#
# Mechanical properties :
#
#
# Convention : Reuss Voigt Hill
#
# Bulk Modulus (GPa) = 53.16783 62.56520 57.86652
# Shear Modulus (GPa) = 31.57965 35.15745 33.36855
#
# Velocity S-wave (km/s) = 3.74313 3.94948 3.84769
# Velocity P-wave (km/s) = 6.50158 6.96824 6.73895
#
# Compressibility (1/GPa) = 0.01880837
#
# Stress axis : x y z
#
# Youngs Moduli (GPa) = 86.11526 105.36286 75.82047
#
# Poissons Ratio (x) = 0.38483 0.15197
# Poissons Ratio (y) = 0.31453 0.15810
# Poissons Ratio (z) = 0.17260 0.21971
#
# Static dielectric constant tensor:
#      x y z
#    x 4.168410 -0.010850 0.130450 
#    y -0.010850 4.219230 -0.256740 
#    z 0.130450 -0.256740 4.125940 
# 
# 
# High freq. dielectric constant tensor:
#      x y z
#    x 1.890380 0.004700 0.010500 
#    y 0.004700 1.899770 -0.020340 
#    z 0.010500 -0.020340 1.885040 
# 
# From -- ./inp_files/260414.got.cif
#   From: 2010.06.25/outbox.cif.g09.slc.cpg/sg2_131_cif.got.tgz:260414.got - 2010.06.27 13:26:56.
