data_PCOD8006225
_publ_section_title
;
Structure prediction by ZEFSAII (Michael W. Deem and Ramdas Pophale) SiO2 
 PCOD8006225
Probable space group: P -1
;
_chemical_formula_sum "Si O2"
_cell_formula_units_Z 12
_cell_length_a 18.035152
_cell_length_b 13.388850
_cell_length_c 5.450828
_cell_angle_alpha 90.206331
_cell_angle_beta 112.945608
_cell_angle_gamma 147.108868
_cell_volume 493.426501
_symmetry_space_group_name_H-M "P -1"
_symmetry_group_IT_number 2
_symmetry_cell_setting 'triclinic'
loop_
_space_group_symop_operation_xyz
x,y,z
-x,-y,-z
loop_
_atom_site_type_symbol
_atom_site_label
_atom_site_fract_x
_atom_site_fract_y
_atom_site_fract_z
Si Si1 0.186492 0.167501 0.983092
Si Si2 0.731081 0.145648 0.308450
Si Si3 0.069433 0.431610 0.494199
Si Si4 0.486386 0.594353 0.710792
Si Si5 0.187867 0.346656 0.651066
Si Si6 0.325323 0.010396 0.259602
O O1 0.314468 0.324444 0.395958
O O2 0.321899 0.255035 0.967074
O O3 0.138566 0.223849 0.822761
O O4 0.982711 0.877263 0.770665
O O5 0.758556 0.296459 0.362309
O O6 0.949606 0.340842 0.573310
O O7 0.625021 0.988552 0.420295
O O8 0.610298 0.981277 0.900761
O O9 0.176382 0.449809 0.705216
O O10 0.911074 0.235828 0.067338
O O11 0.406519 0.567481 0.837110
O O12 0.551945 0.747116 0.583834
#
# Coordination Sequence:
#
# PCOD8006225 Si02
#       6
#     2   2   2   2   2   2
#     4  10  23  42  61  92 131 171 214 273 324 388
#     4   9  20  38  67  95 128 174 211 264 329 384
#     4   9  20  37  65  94 128 170 215 266 321 389
#     4  11  23  40  64  94 129 171 215 270 330 383
#     4  11  22  42  63  97 123 172 219 268 322 392
#     4  10  20  39  66  94 128 171 215 262 326 386
#
# _framework density 24.319732999999999
#
# number of rings (size 3 to 8) (size 9 to 14) (size 15 to 20)
#    1.000    1.000    1.667    1.500    2.333    1.333 
#   12.000    1.667    0.000    0.000    0.000    0.000 
#    0.000    0.000    0.000    0.000    0.000    0.000 
#
# Total GULP energy -148687.571398 kJ/mol
# GULP energy per Si atom -12390.630950 kJ/mol
# Density = 2.426438 g / cm^3
# Si number density = 24.319733 Si / 1000 Ang^3
#
#
#
# Elastic Constant Matrix: (Units=GPa)
#
#
# Indices 1 2 3 4 5 6 
#
# 1 142.5636 47.0478 10.1053 -7.0304 9.5858 -26.7151
# 2 47.0478 89.6462 22.9057 -15.9813 -7.7352 -21.3874
# 3 10.1053 22.9057 49.3357 -4.2683 -11.0103 1.7578
# 4 -7.0304 -15.9813 -4.2683 36.0268 -0.4996 -3.5920
# 5 9.5858 -7.7352 -11.0103 -0.4996 24.4808 -0.0721
# 6 -26.7151 -21.3874 1.7578 -3.5920 -0.0721 41.7390
#
#
#
# Elastic Compliance Matrix: (Units=1/GPa)
#
#
# Indices 1 2 3 4 5 6 
#
# 1 0.009663 -0.004182 -0.001449 0.000189 -0.005741 0.004109
# 2 -0.004182 0.018572 -0.006311 0.007515 0.004843 0.007760
# 3 -0.001449 -0.006311 0.025929 -0.000394 0.010211 -0.005269
# 4 0.000189 0.007515 -0.000394 0.031791 0.002792 0.006729
# 5 -0.005741 0.004843 0.010211 0.002792 0.049272 -0.001297
# 6 0.004109 0.007760 -0.005269 0.006729 -0.001297 0.031363
#
#
# Mechanical properties :
#
#
# Convention : Reuss Voigt Hill
#
# Bulk Modulus (GPa) = 33.02668 49.07368 41.05018
# Shear Modulus (GPa) = 24.92947 33.88177 29.40562
#
# Velocity S-wave (km/s) = 3.20515 3.73658 3.48102
# Velocity P-wave (km/s) = 5.22561 6.23205 5.75089
#
# Compressibility (1/GPa) = 0.03027855
#
# Stress axis : x y z
#
# Youngs Moduli (GPa) = 103.49223 53.84560 38.56753
#
# Poissons Ratio (x) = 0.22520 0.05587
# Poissons Ratio (y) = 0.43284 0.24341
# Poissons Ratio (z) = 0.14991 0.33983
#
# Static dielectric constant tensor:
#      x y z
#    x 4.279000 -0.100020 0.059910 
#    y -0.100020 4.087600 0.369130 
#    z 0.059910 0.369130 3.978090 
# 
# 
# High freq. dielectric constant tensor:
#      x y z
#    x 1.956520 -0.015780 -0.001810 
#    y -0.015780 1.954930 0.023290 
#    z -0.001810 0.023290 1.936260 
# 
# From -- ./inp_files/92631.got.cif
#   From: 2010.06.25/outbox.cif.g09.slc.cpg/sg2_47_cif.got.tgz:92631.got - 2010.06.27 13:26:56.
