data_PCOD8006511
_publ_section_title
;
Structure prediction by ZEFSAII (Michael W. Deem and Ramdas Pophale) SiO2 
 PCOD8006511
Probable space group: P -1
;
_chemical_formula_sum "Si O2"
_cell_formula_units_Z 16
_cell_length_a 11.424421
_cell_length_b 9.912363
_cell_length_c 14.976971
_cell_angle_alpha 45.964980
_cell_angle_beta 38.777363
_cell_angle_gamma 51.977520
_cell_volume 753.239237
_symmetry_space_group_name_H-M "P -1"
_symmetry_group_IT_number 2
_symmetry_cell_setting 'triclinic'
loop_
_space_group_symop_operation_xyz
x,y,z
-x,-y,-z
loop_
_atom_site_type_symbol
_atom_site_label
_atom_site_fract_x
_atom_site_fract_y
_atom_site_fract_z
Si Si1 0.738787 0.647185 0.268282
Si Si2 0.413314 0.322815 0.167806
Si Si3 0.129975 0.418675 0.149894
Si Si4 0.297640 0.819425 0.227551
Si Si5 0.533316 0.433042 0.225936
Si Si6 0.601569 0.278320 0.442240
Si Si7 0.031934 0.947504 0.607196
Si Si8 0.421363 0.005729 0.899729
O O1 0.666789 0.465720 0.354950
O O2 0.609851 0.729040 0.392033
O O3 0.959940 0.594395 0.186128
O O4 0.723243 0.807100 0.127519
O O5 0.203500 0.351260 0.236482
O O6 0.421992 0.324900 0.269214
O O7 0.527012 0.122507 0.159120
O O8 0.500000 0.500000 0.000000
O O9 0.056683 0.241435 0.227465
O O10 0.293201 0.479859 0.961666
O O11 0.382506 0.597464 0.287057
O O12 0.393008 0.938491 0.189946
O O13 0.321916 0.882176 0.083553
O O14 0.073479 0.870161 0.358344
O O15 0.606351 0.282469 0.329630
O O16 0.745632 0.093802 0.478512
O O17 0.000000 0.000000 0.500000
#
# Coordination Sequence:
#
# PCOD8006511 Si02
#       8
#     2   2   2   2   2   2   2   2
#     4  10  22  37  61  86 124 157 201 251 308 352
#     4  10  20  40  59  89 125 162 194 250 307 356
#     4  10  21  38  62  88 119 164 197 244 308 358
#     4  11  20  34  62  94 115 152 207 254 293 351
#     4  11  22  40  62  90 128 155 202 250 304 359
#     4  10  23  38  57  92 126 156 195 257 310 352
#     4  11  23  36  62  93 125 152 203 254 308 354
#     4  11  19  36  61  90 119 155 206 247 298 357
#
# _framework density 21.241589999999999
#
# number of rings (size 3 to 8) (size 9 to 14) (size 15 to 20)
#    0.000    1.500    5.000    1.500    5.250    1.000 
#    0.000    5.000    0.000    0.000    0.000    0.000 
#    0.000    0.000    0.000    0.000    0.000    0.000 
#
# Total GULP energy -198349.108484 kJ/mol
# GULP energy per Si atom -12396.819280 kJ/mol
# Density = 2.119324 g / cm^3
# Si number density = 21.241590 Si / 1000 Ang^3
#
#
#
# Elastic Constant Matrix: (Units=GPa)
#
#
# Indices 1 2 3 4 5 6 
#
# 1 94.0005 40.8564 37.0903 29.0642 21.5486 -20.4632
# 2 40.8564 115.1761 31.5810 35.2958 -2.7163 -28.1807
# 3 37.0903 31.5810 40.9286 15.0084 12.1512 -10.3014
# 4 29.0642 35.2958 15.0084 27.7001 -4.1779 -2.3583
# 5 21.5486 -2.7163 12.1512 -4.1779 34.6846 0.2272
# 6 -20.4632 -28.1807 -10.3014 -2.3583 0.2272 49.0406
#
#
#
# Elastic Compliance Matrix: (Units=1/GPa)
#
#
# Indices 1 2 3 4 5 6 
#
# 1 0.029725 0.004997 -0.009745 -0.034126 -0.018849 0.011674
# 2 0.004997 0.018948 -0.006505 -0.025349 -0.002464 0.010399
# 3 -0.009745 -0.006505 0.044427 -0.007093 -0.010881 0.001237
# 4 -0.034126 -0.025349 -0.007093 0.111231 0.035264 -0.025110
# 5 -0.018849 -0.002464 -0.010881 0.035264 0.048475 -0.010095
# 6 0.011674 0.010399 0.001237 -0.025110 -0.010095 0.030338
#
#
# Mechanical properties :
#
#
# Convention : Reuss Voigt Hill
#
# Bulk Modulus (GPa) = 14.16560 52.12893 33.14726
# Shear Modulus (GPa) = 15.18928 31.65690 23.42309
#
# Velocity S-wave (km/s) = 2.67699 3.86466 3.32429
# Velocity P-wave (km/s) = 4.02967 6.67146 5.51120
#
# Compressibility (1/GPa) = 0.07059357
#
# Stress axis : x y z
#
# Youngs Moduli (GPa) = 33.64161 52.77657 22.50908
#
# Poissons Ratio (x) = -0.26375 0.21936
# Poissons Ratio (y) = -0.16812 0.14642
# Poissons Ratio (z) = 0.32785 0.34331
#
# Static dielectric constant tensor:
#      x y z
#    x 4.172410 -0.150490 0.048520 
#    y -0.150490 4.078660 0.153210 
#    z 0.048520 0.153210 3.742540 
# 
# 
# High freq. dielectric constant tensor:
#      x y z
#    x 1.817950 -0.022030 0.016630 
#    y -0.022030 1.833570 0.005310 
#    z 0.016630 0.005310 1.817590 
# 
# From -- ./inp_files/445775.got.cif
#   From: 2010.06.25/outbox.cif.g09.slc.cpg/sg2_223_cif.got.tgz:445775.got - 2010.06.27 13:26:56.
