data_PCOD8006088
_publ_section_title
;
Structure prediction by ZEFSAII (Michael W. Deem and Ramdas Pophale) SiO2 
 PCOD8006088
Probable space group: P -1
;
_chemical_formula_sum "Si O2"
_cell_formula_units_Z 16
_cell_length_a 12.495670
_cell_length_b 21.916300
_cell_length_c 12.671277
_cell_angle_alpha 151.746495
_cell_angle_beta 145.269815
_cell_angle_gamma 26.581623
_cell_volume 725.468319
_symmetry_space_group_name_H-M "P -1"
_symmetry_group_IT_number 2
_symmetry_cell_setting 'triclinic'
loop_
_space_group_symop_operation_xyz
x,y,z
-x,-y,-z
loop_
_atom_site_type_symbol
_atom_site_label
_atom_site_fract_x
_atom_site_fract_y
_atom_site_fract_z
Si Si1 0.355865 0.021198 0.017494
Si Si2 0.933595 0.502137 0.202373
Si Si3 0.283460 0.191729 0.629498
Si Si4 0.129946 0.819505 0.781289
Si Si5 0.790642 0.803341 0.193033
Si Si6 0.208288 0.804596 0.585935
Si Si7 0.090371 0.598508 0.756098
Si Si8 0.339190 0.526027 0.643432
O O1 0.134257 0.209345 0.150252
O O2 0.540088 0.946269 0.150542
O O3 0.500000 0.000000 0.000000
O O4 0.242151 0.932221 0.762759
O O5 0.710626 0.683243 0.249555
O O6 0.830268 0.451953 0.133900
O O7 0.149131 0.500381 0.413569
O O8 0.042499 0.365059 0.992373
O O9 0.276602 0.239924 0.818679
O O10 0.046696 0.219310 0.447229
O O11 0.500000 0.000000 0.500000
O O12 0.264805 0.792115 0.738620
O O13 0.306618 0.682132 0.803259
O O14 0.000000 0.000000 0.000000
O O15 0.937296 0.871622 0.443222
O O16 0.392690 0.630830 0.410844
O O17 0.309838 0.550637 0.784919
O O18 0.000000 0.500000 0.500000
#
# Coordination Sequence:
#
# PCOD8006088 Si02
#       8
#     2   2   2   2   2   2   2   2
#     4  12  23  44  72  94 131 177 216 268 333 389
#     4  10  20  42  62  93 130 172 221 262 328 392
#     4  10  24  38  63  97 132 171 218 273 328 385
#     4  10  22  38  62  95 132 172 221 273 327 386
#     4  11  24  42  67 100 129 172 218 272 329 386
#     4  11  24  42  64 100 132 170 224 268 327 391
#     4  10  21  38  68  96 123 175 224 260 327 395
#     4  10  20  39  65  91 133 177 217 268 327 391
#
# _framework density 22.054718000000001
#
# number of rings (size 3 to 8) (size 9 to 14) (size 15 to 20)
#    0.000    1.500    2.500    2.250    7.000    1.500 
#    0.000    0.625    0.000    0.000    0.000    0.000 
#    0.000    0.000    0.000    0.000    0.000    0.000 
#
# Total GULP energy -198328.376825 kJ/mol
# GULP energy per Si atom -12395.523552 kJ/mol
# Density = 2.200452 g / cm^3
# Si number density = 22.054718 Si / 1000 Ang^3
#
#
#
# Elastic Constant Matrix: (Units=GPa)
#
#
# Indices 1 2 3 4 5 6 
#
# 1 136.1265 56.4526 36.6293 17.7121 -31.2074 18.6563
# 2 56.4526 125.7573 44.6196 27.2158 -6.5023 22.0686
# 3 36.6293 44.6196 80.0582 23.9025 -14.2281 13.4844
# 4 17.7121 27.2158 23.9025 46.9376 -5.8678 -1.1996
# 5 -31.2074 -6.5023 -14.2281 -5.8678 44.2815 4.1371
# 6 18.6563 22.0686 13.4844 -1.1996 4.1371 35.6795
#
#
#
# Elastic Compliance Matrix: (Units=1/GPa)
#
#
# Indices 1 2 3 4 5 6 
#
# 1 0.011506 -0.003433 -0.000945 -0.001036 0.007580 -0.004450
# 2 -0.003433 0.012413 -0.003627 -0.004410 -0.001932 -0.004436
# 3 -0.000945 -0.003627 0.018513 -0.006552 0.004347 -0.004983
# 4 -0.001036 -0.004410 -0.006552 0.027706 -0.000440 0.006728
# 5 0.007580 -0.001932 0.004347 -0.000440 0.029715 -0.007872
# 6 -0.004450 -0.004436 -0.004983 0.006728 -0.007872 0.036120
#
#
# Mechanical properties :
#
#
# Convention : Reuss Voigt Hill
#
# Bulk Modulus (GPa) = 37.84784 68.59390 53.22087
# Shear Modulus (GPa) = 31.09639 38.99575 35.04607
#
# Velocity S-wave (km/s) = 3.75902 4.20948 3.99061
# Velocity P-wave (km/s) = 6.00321 7.40240 6.73921
#
# Compressibility (1/GPa) = 0.02642159
#
# Stress axis : x y z
#
# Youngs Moduli (GPa) = 86.90771 80.56345 54.01635
#
# Poissons Ratio (x) = 0.27656 0.05107
# Poissons Ratio (y) = 0.29834 0.19592
# Poissons Ratio (z) = 0.08216 0.29220
#
# Static dielectric constant tensor:
#      x y z
#    x 4.476040 0.092470 -0.259260 
#    y 0.092470 3.748910 -0.065120 
#    z -0.259260 -0.065120 3.912140 
# 
# 
# High freq. dielectric constant tensor:
#      x y z
#    x 1.883320 0.011610 -0.008250 
#    y 0.011610 1.857070 0.012130 
#    z -0.008250 0.012130 1.869720 
# 
# From -- ./inp_files/259481.got.cif
#   From: 2010.06.25/outbox.cif.g09.slc.cpg/sg2_130_cif.got.tgz:259481.got - 2010.06.27 13:26:56.
