data_PCOD8006484
_publ_section_title
;
Structure prediction by ZEFSAII (Michael W. Deem and Ramdas Pophale) SiO2 
 PCOD8006484
Probable space group: P -1
;
_chemical_formula_sum "Si O2"
_cell_formula_units_Z 16
_cell_length_a 5.374801
_cell_length_b 7.283289
_cell_length_c 22.336808
_cell_angle_alpha 72.464247
_cell_angle_beta 63.728452
_cell_angle_gamma 91.534604
_cell_volume 734.414079
_symmetry_space_group_name_H-M "P -1"
_symmetry_group_IT_number 2
_symmetry_cell_setting 'triclinic'
loop_
_space_group_symop_operation_xyz
x,y,z
-x,-y,-z
loop_
_atom_site_type_symbol
_atom_site_label
_atom_site_fract_x
_atom_site_fract_y
_atom_site_fract_z
Si Si1 0.110575 0.426629 0.904734
Si Si2 0.142282 0.960959 0.687173
Si Si3 0.356115 0.799943 0.564863
Si Si4 0.043034 0.209243 0.160211
Si Si5 0.848633 0.574039 0.564805
Si Si6 0.330708 0.820678 0.312267
Si Si7 0.635779 0.299123 0.049225
Si Si8 0.676654 0.910284 0.154899
O O1 0.141955 0.619363 0.840481
O O2 0.253942 0.503565 0.944191
O O3 0.266758 0.271449 0.871732
O O4 0.790585 0.315808 0.966653
O O5 0.420329 0.061804 0.684316
O O6 0.967905 0.104873 0.657065
O O7 0.248919 0.824044 0.640759
O O8 0.919661 0.826263 0.769488
O O9 0.589495 0.663865 0.557573
O O10 0.085087 0.721658 0.560746
O O11 0.500000 0.000000 0.500000
O O12 0.304961 0.297611 0.080907
O O13 0.922483 0.994887 0.167118
O O14 0.718038 0.402581 0.640734
O O15 0.000000 0.500000 0.500000
O O16 0.401886 0.835254 0.232297
O O17 0.652572 0.091657 0.097518
#
# Coordination Sequence:
#
# PCOD8006484 Si02
#       8
#     2   2   2   2   2   2   2   2
#     4  10  22  36  61  86 122 160 217 267 321 396
#     4  11  23  43  66  91 131 170 212 268 322 382
#     4  12  25  43  69  99 131 174 215 257 324 379
#     4  10  22  38  59  86 125 163 211 268 326 377
#     4  12  25  43  68 100 134 169 217 263 313 384
#     4  11  23  43  65  92 131 168 212 269 323 376
#     4  10  20  40  57  88 120 164 208 273 325 381
#     4  10  22  38  59  88 123 165 212 264 330 383
#
# _framework density 21.786073999999999
#
# number of rings (size 3 to 8) (size 9 to 14) (size 15 to 20)
#    0.000    1.250    1.250    4.500    1.750    2.500 
#    0.000    0.000    0.000    0.000    0.000    0.000 
#    0.000    0.000    0.000    0.000    0.000    0.000 
#
# Total GULP energy -198268.416826 kJ/mol
# GULP energy per Si atom -12391.776052 kJ/mol
# Density = 2.173649 g / cm^3
# Si number density = 21.786074 Si / 1000 Ang^3
#
#
#
# Elastic Constant Matrix: (Units=GPa)
#
#
# Indices 1 2 3 4 5 6 
#
# 1 82.9614 18.4383 5.7105 4.6381 -2.0865 -9.0463
# 2 18.4383 121.4394 35.7170 11.6501 -0.5780 -10.1723
# 3 5.7105 35.7170 92.1318 2.8025 -3.5285 -1.8308
# 4 4.6381 11.6501 2.8025 40.1570 -4.3959 -2.5425
# 5 -2.0865 -0.5780 -3.5285 -4.3959 30.5050 -1.6838
# 6 -9.0463 -10.1723 -1.8308 -2.5425 -1.6838 37.6885
#
#
#
# Elastic Compliance Matrix: (Units=1/GPa)
#
#
# Indices 1 2 3 4 5 6 
#
# 1 0.012768 -0.001630 -0.000052 -0.000737 0.000874 0.002612
# 2 -0.001630 0.009948 -0.003667 -0.002384 -0.000584 0.001929
# 3 -0.000052 -0.003667 0.012315 0.000342 0.001383 -0.000319
# 4 -0.000737 -0.002384 0.000342 0.026140 0.003773 0.001128
# 5 0.000874 -0.000584 0.001383 0.003773 0.033637 0.001877
# 6 0.002612 0.001929 -0.000319 0.001128 0.001877 0.027825
#
#
# Mechanical properties :
#
#
# Convention : Reuss Voigt Hill
#
# Bulk Modulus (GPa) = 41.09549 46.25160 43.67354
# Shear Modulus (GPa) = 35.35042 37.44790 36.39916
#
# Velocity S-wave (km/s) = 4.03254 4.15045 4.09192
# Velocity P-wave (km/s) = 6.37071 6.65164 6.51269
#
# Compressibility (1/GPa) = 0.02433357
#
# Stress axis : x y z
#
# Youngs Moduli (GPa) = 78.32367 100.52276 81.20118
#
# Poissons Ratio (x) = 0.16382 0.00421
# Poissons Ratio (y) = 0.12764 0.29777
# Poissons Ratio (z) = 0.00406 0.36863
#
# Static dielectric constant tensor:
#      x y z
#    x 4.254150 -0.000120 -0.016900 
#    y -0.000120 3.921860 -0.084880 
#    z -0.016900 -0.084880 4.363180 
# 
# 
# High freq. dielectric constant tensor:
#      x y z
#    x 1.855820 -0.009410 -0.003610 
#    y -0.009410 1.853680 -0.009740 
#    z -0.003610 -0.009740 1.874570 
# 
# From -- ./inp_files/13421.got.cif
#   From: 2010.06.25/outbox.cif.g09.slc.cpg/sg2_7_cif.got.tgz:13421.got - 2010.06.27 13:26:56.
