data_PCOD8006676
_publ_section_title
;
Structure prediction by ZEFSAII (Michael W. Deem and Ramdas Pophale) SiO2 
 PCOD8006676
Probable space group: P -1
;
_chemical_formula_sum "Si O2"
_cell_formula_units_Z 16
_cell_length_a 15.939385
_cell_length_b 6.864854
_cell_length_c 8.699616
_cell_angle_alpha 122.538081
_cell_angle_beta 99.084004
_cell_angle_gamma 65.924239
_cell_volume 730.347939
_symmetry_space_group_name_H-M "P -1"
_symmetry_group_IT_number 2
_symmetry_cell_setting 'triclinic'
loop_
_space_group_symop_operation_xyz
x,y,z
-x,-y,-z
loop_
_atom_site_type_symbol
_atom_site_label
_atom_site_fract_x
_atom_site_fract_y
_atom_site_fract_z
Si Si1 0.065477 0.848761 0.138371
Si Si2 0.455939 0.183316 0.924381
Si Si3 0.790542 0.046769 0.979894
Si Si4 0.958031 0.388640 0.259908
Si Si5 0.397553 0.069198 0.560994
Si Si6 0.383652 0.735694 0.173411
Si Si7 0.222395 0.534671 0.625870
Si Si8 0.879288 0.487835 0.703393
O O1 0.154644 0.871133 0.098665
O O2 0.088789 0.742118 0.269409
O O3 0.032812 0.669919 0.945854
O O4 0.983931 0.123133 0.243720
O O5 0.399857 0.063764 0.746662
O O6 0.524492 0.246024 0.858632
O O7 0.388764 0.454522 0.084244
O O8 0.500000 0.000000 0.000000
O O9 0.689781 0.117199 0.912984
O O10 0.835274 0.749027 0.894999
O O11 0.786329 0.193064 0.200110
O O12 0.852045 0.554933 0.345901
O O13 0.030518 0.519546 0.372177
O O14 0.326935 0.343335 0.602548
O O15 0.500000 0.000000 0.500000
O O16 0.361307 0.867325 0.391248
O O17 0.196967 0.546363 0.443844
#
# Coordination Sequence:
#
# PCOD8006676 Si02
#       8
#     2   2   2   2   2   2   2   2
#     4   9  20  38  61  88 122 158 198 248 292 352
#     4  10  22  39  65  90 114 154 202 253 297 356
#     4  10  21  39  59  88 123 159 192 242 301 353
#     4   9  20  38  60  84 125 160 195 244 304 349
#     4  10  21  40  63  87 121 159 196 248 303 350
#     4  10  20  40  63  82 122 157 192 243 309 352
#     4  11  21  38  61  90 119 159 201 247 297 358
#     4  11  21  38  64  88 119 160 203 242 297 354
#
# _framework density 21.907364000000001
#
# number of rings (size 3 to 8) (size 9 to 14) (size 15 to 20)
#    0.000    2.000    2.500    1.500    0.000    2.000 
#    0.000    6.250    0.000    0.000    0.000    0.000 
#    0.000    0.000    0.000    0.000    0.000    0.000 
#
# Total GULP energy -198321.992862 kJ/mol
# GULP energy per Si atom -12395.124554 kJ/mol
# Density = 2.185750 g / cm^3
# Si number density = 21.907364 Si / 1000 Ang^3
#
#
#
# Elastic Constant Matrix: (Units=GPa)
#
#
# Indices 1 2 3 4 5 6 
#
# 1 54.2700 19.8512 19.3145 2.8165 3.0443 -24.2785
# 2 19.8512 119.7930 55.8593 -22.7026 -4.4218 -13.2768
# 3 19.3145 55.8593 155.6436 -2.0778 23.9017 -9.0238
# 4 2.8165 -22.7026 -2.0778 33.5911 -13.3082 4.3020
# 5 3.0443 -4.4218 23.9017 -13.3082 30.6791 -0.5225
# 6 -24.2785 -13.2768 -9.0238 4.3020 -0.5225 29.0547
#
#
#
# Elastic Compliance Matrix: (Units=1/GPa)
#
#
# Indices 1 2 3 4 5 6 
#
# 1 0.034460 -0.006515 0.001270 -0.015414 -0.011553 0.028287
# 2 -0.006515 0.016980 -0.007838 0.018711 0.017273 -0.002579
# 3 0.001270 -0.007838 0.011337 -0.010847 -0.014754 0.002342
# 4 -0.015414 0.018711 -0.010847 0.060369 0.038593 -0.015944
# 5 -0.011553 0.017273 -0.014754 0.038593 0.064281 -0.010901
# 6 0.028287 -0.002579 0.002342 -0.015944 -0.010901 0.059769
#
#
# Mechanical properties :
#
#
# Convention : Reuss Voigt Hill
#
# Bulk Modulus (GPa) = 27.31380 57.75075 42.53228
# Shear Modulus (GPa) = 17.50916 34.31042 25.90979
#
# Velocity S-wave (km/s) = 2.83014 3.96177 3.44277
# Velocity P-wave (km/s) = 4.81399 6.88084 5.93804
#
# Compressibility (1/GPa) = 0.03661153
#
# Stress axis : x y z
#
# Youngs Moduli (GPa) = 29.01892 58.89351 88.20830
#
# Poissons Ratio (x) = 0.38372 -0.11206
# Poissons Ratio (y) = 0.18907 0.69135
# Poissons Ratio (z) = -0.03687 0.46159
#
# Static dielectric constant tensor:
#      x y z
#    x 3.915730 -0.372640 0.242500 
#    y -0.372640 3.569180 0.178150 
#    z 0.242500 0.178150 4.517510 
# 
# 
# High freq. dielectric constant tensor:
#      x y z
#    x 1.849330 -0.035260 0.015720 
#    y -0.035260 1.830640 0.005240 
#    z 0.015720 0.005240 1.883600 
# 
# From -- ./inp_files/296703.got.cif
#   From: 2010.06.25/outbox.cif.g09.slc.cpg/sg2_149_cif.got.tgz:296703.got - 2010.06.27 13:26:56.
