data_PCOD8006147
_publ_section_title
;
Structure prediction by ZEFSAII (Michael W. Deem and Ramdas Pophale) SiO2 
 PCOD8006147
Probable space group: P -1
;
_chemical_formula_sum "Si O2"
_cell_formula_units_Z 14
_cell_length_a 20.416069
_cell_length_b 23.335684
_cell_length_c 9.004303
_cell_angle_alpha 149.394770
_cell_angle_beta 31.171800
_cell_angle_gamma 161.645568
_cell_volume 667.396250
_symmetry_space_group_name_H-M "P -1"
_symmetry_group_IT_number 2
_symmetry_cell_setting 'triclinic'
loop_
_space_group_symop_operation_xyz
x,y,z
-x,-y,-z
loop_
_atom_site_type_symbol
_atom_site_label
_atom_site_fract_x
_atom_site_fract_y
_atom_site_fract_z
Si Si1 0.998361 0.113689 0.846584
Si Si2 0.481605 0.504281 0.871080
Si Si3 0.095583 0.754140 0.880470
Si Si4 0.317889 0.794237 0.313672
Si Si5 0.492737 0.963559 0.763310
Si Si6 0.377086 0.190356 0.900019
Si Si7 0.647501 0.429426 0.183369
O O1 0.235462 0.327739 0.902040
O O2 0.874606 0.110879 0.972079
O O3 0.000000 0.000000 0.500000
O O4 0.869871 0.010034 0.021553
O O5 0.614661 0.500891 0.528170
O O6 0.500000 0.500000 0.000000
O O7 0.597503 0.705410 0.053711
O O8 0.103553 0.658583 0.527319
O O9 0.282523 0.871821 0.900028
O O10 0.880997 0.605588 0.056056
O O11 0.500000 0.000000 0.500000
O O12 0.300402 0.831553 0.263795
O O13 0.383224 0.711975 0.992696
O O14 0.495410 0.831505 0.438709
O O15 0.500000 0.000000 0.000000
O O16 0.479163 0.324342 0.143789
#
# Coordination Sequence:
#
# PCOD8006147 Si02
#       7
#     2   2   2   2   2   2   2
#     4  12  24  42  77  97 132 189 235 275 335 412
#     4  12  30  46  66 106 142 178 230 294 345 396
#     4  11  22  41  68 102 127 175 234 273 336 408
#     4  10  20  39  65  97 126 173 225 273 331 407
#     4  11  25  41  67 103 139 175 221 288 354 402
#     4  12  23  46  71  99 135 184 235 275 336 424
#     4  12  22  43  69  96 134 177 234 279 330 412
#
# _framework density 20.977043999999999
#
# number of rings (size 3 to 8) (size 9 to 14) (size 15 to 20)
#    0.000    0.571    7.143    2.571    2.000    1.714 
#    0.000    0.714    0.000    0.000    0.000    0.000 
#    0.000    0.000    0.000    0.000    0.000    0.000 
#
# Total GULP energy -173559.420734 kJ/mol
# GULP energy per Si atom -12397.101481 kJ/mol
# Density = 2.092930 g / cm^3
# Si number density = 20.977044 Si / 1000 Ang^3
#
#
#
# Elastic Constant Matrix: (Units=GPa)
#
#
# Indices 1 2 3 4 5 6 
#
# 1 142.5508 44.3988 65.1591 -4.5894 1.3660 -33.9762
# 2 44.3988 112.9311 44.9593 -22.0720 -2.0427 -22.3453
# 3 65.1591 44.9593 117.4191 -17.7316 -5.7375 -13.7251
# 4 -4.5894 -22.0720 -17.7316 34.4780 -11.0913 -3.2144
# 5 1.3660 -2.0427 -5.7375 -11.0913 44.6809 0.1276
# 6 -33.9762 -22.3453 -13.7251 -3.2144 0.1276 35.7445
#
#
#
# Elastic Compliance Matrix: (Units=1/GPa)
#
#
# Indices 1 2 3 4 5 6 
#
# 1 0.011810 -0.001212 -0.005473 -0.001761 -0.001580 0.008214
# 2 -0.001212 0.013366 -0.002163 0.008762 0.002525 0.007152
# 3 -0.005473 -0.002163 0.013278 0.005649 0.003178 -0.000959
# 4 -0.001761 0.008762 0.005649 0.041905 0.011554 0.009700
# 5 -0.001580 0.002525 0.003178 0.011554 0.025815 0.002244
# 6 0.008214 0.007152 -0.000959 0.009700 0.002244 0.040751
#
#
# Mechanical properties :
#
#
# Convention : Reuss Voigt Hill
#
# Bulk Modulus (GPa) = 48.17108 75.77059 61.97084
# Shear Modulus (GPa) = 29.14786 37.53962 33.34374
#
# Velocity S-wave (km/s) = 3.73166 4.23490 3.99122
# Velocity P-wave (km/s) = 6.44830 7.75317 7.13065
#
# Compressibility (1/GPa) = 0.02075934
#
# Stress axis : x y z
#
# Youngs Moduli (GPa) = 84.67152 74.81852 75.31373
#
# Poissons Ratio (x) = 0.09066 0.41218
# Poissons Ratio (y) = 0.10260 0.16288
# Poissons Ratio (z) = 0.46339 0.16181
#
# Static dielectric constant tensor:
#      x y z
#    x 3.939840 -0.442310 -0.070130 
#    y -0.442310 4.307410 -0.474210 
#    z -0.070130 -0.474210 4.140110 
# 
# 
# High freq. dielectric constant tensor:
#      x y z
#    x 1.814560 -0.029600 -0.017730 
#    y -0.029600 1.821790 -0.019380 
#    z -0.017730 -0.019380 1.832490 
# 
# From -- ./inp_files/343900.got.cif
#   From: 2010.06.25/outbox.cif.g09.slc.cpg/sg2_172_cif.got.tgz:343900.got - 2010.06.27 13:26:56.
