data_PCOD8006921
_publ_section_title
;
Structure prediction by ZEFSAII (Michael W. Deem and Ramdas Pophale) SiO2 
 PCOD8006921
Probable space group: P -1
;
_chemical_formula_sum "Si O2"
_cell_formula_units_Z 10
_cell_length_a 9.377524
_cell_length_b 8.178816
_cell_length_c 9.380201
_cell_angle_alpha 115.638281
_cell_angle_beta 73.992078
_cell_angle_gamma 130.614944
_cell_volume 492.335630
_symmetry_space_group_name_H-M "P -1"
_symmetry_group_IT_number 2
_symmetry_cell_setting 'triclinic'
loop_
_space_group_symop_operation_xyz
x,y,z
-x,-y,-z
loop_
_atom_site_type_symbol
_atom_site_label
_atom_site_fract_x
_atom_site_fract_y
_atom_site_fract_z
Si Si1 0.364838 0.029074 0.462768
Si Si2 0.590714 0.908178 0.853149
Si Si3 0.970551 0.026386 0.855405
Si Si4 0.958204 0.782172 0.512846
Si Si5 0.690338 0.609930 0.291312
O O1 0.417163 0.045332 0.291294
O O2 0.392540 0.257037 0.591324
O O3 0.500000 0.000000 0.500000
O O4 0.146985 0.801794 0.462104
O O5 0.478789 0.638438 0.813053
O O6 0.804273 0.047130 0.898153
O O7 0.500000 0.000000 0.000000
O O8 0.159750 0.256374 0.826956
O O9 0.912062 0.801088 0.696283
O O10 0.000000 0.000000 0.000000
O O11 0.781787 0.573029 0.391884
O O12 0.000000 0.000000 0.500000
#
# Coordination Sequence:
#
# PCOD8006921 Si02
#       5
#     2   2   2   2   2
#     4  10  20  40  65  93 121 154 211 255 294 370
#     4  12  25  39  62  94 126 161 203 255 306 357
#     4  10  21  40  62  92 125 157 204 255 302 365
#     4   8  16  38  64  80 116 165 198 240 299 362
#     4  10  21  44  67  81 123 175 199 243 313 359
#
# _framework density 20.311347000000001
#
# number of rings (size 3 to 8) (size 9 to 14) (size 15 to 20)
#    0.000    2.400    6.000    0.600    5.600    1.600 
#    0.000    1.000    0.000    0.000    0.000    0.000 
#    0.000    0.000    0.000    0.000    0.000    0.000 
#
# Total GULP energy -123941.321021 kJ/mol
# GULP energy per Si atom -12394.132102 kJ/mol
# Density = 2.026512 g / cm^3
# Si number density = 20.311347 Si / 1000 Ang^3
#
#
#
# Elastic Constant Matrix: (Units=GPa)
#
#
# Indices 1 2 3 4 5 6 
#
# 1 177.5547 28.6680 74.2879 -12.9530 -3.3823 3.6405
# 2 28.6680 39.0015 45.5237 0.4009 -2.2073 3.2624
# 3 74.2879 45.5237 172.6238 -25.0364 -2.7314 -5.0075
# 4 -12.9530 0.4009 -25.0364 28.4055 -4.1072 -3.7254
# 5 -3.3823 -2.2073 -2.7314 -4.1072 46.1511 -5.8761
# 6 3.6405 3.2624 -5.0075 -3.7254 -5.8761 16.0582
#
#
#
# Elastic Compliance Matrix: (Units=1/GPa)
#
#
# Indices 1 2 3 4 5 6 
#
# 1 0.007097 -0.002389 -0.002314 0.001053 0.000167 -0.001540
# 2 -0.002389 0.045008 -0.013800 -0.016579 -0.002567 -0.017691
# 3 -0.002314 -0.013800 0.012510 0.011931 0.002355 0.010859
# 4 0.001053 -0.016579 0.011931 0.050239 0.007151 0.021122
# 5 0.000167 -0.002567 0.002355 0.007151 0.023809 0.011589
# 6 -0.001540 -0.017691 0.010859 0.021122 0.011589 0.078744
#
#
# Mechanical properties :
#
#
# Convention : Reuss Voigt Hill
#
# Bulk Modulus (GPa) = 36.21650 76.23769 56.22710
# Shear Modulus (GPa) = 18.96697 34.16966 26.56832
#
# Velocity S-wave (km/s) = 3.05915 4.10603 3.62063
# Velocity P-wave (km/s) = 5.50883 7.75212 6.72468
#
# Compressibility (1/GPa) = 0.02761173
#
# Stress axis : x y z
#
# Youngs Moduli (GPa) = 140.89742 22.21804 79.93295
#
# Poissons Ratio (x) = 0.05308 0.18493
# Poissons Ratio (y) = 0.33660 1.10305
# Poissons Ratio (z) = 0.32598 0.30660
#
# Static dielectric constant tensor:
#      x y z
#    x 3.959610 0.610530 0.123240 
#    y 0.610530 3.539750 0.139470 
#    z 0.123240 0.139470 3.905110 
# 
# 
# High freq. dielectric constant tensor:
#      x y z
#    x 1.797360 0.032000 -0.000680 
#    y 0.032000 1.761700 -0.012270 
#    z -0.000680 -0.012270 1.800770 
# 
# From -- ./inp_files/146465.got.cif
#   From: 2010.06.25/outbox.cif.g09.slc.cpg/sg2_74_cif.got.tgz:146465.got - 2010.06.27 13:26:56.
