data_PCOD8006948
_publ_section_title
;
Structure prediction by ZEFSAII (Michael W. Deem and Ramdas Pophale) SiO2 
 PCOD8006948
Probable space group: P -1
;
_chemical_formula_sum "Si O2"
_cell_formula_units_Z 16
_cell_length_a 8.016043
_cell_length_b 16.511618
_cell_length_c 9.408604
_cell_angle_alpha 44.263510
_cell_angle_beta 102.428740
_cell_angle_gamma 77.155044
_cell_volume 707.602852
_symmetry_space_group_name_H-M "P -1"
_symmetry_group_IT_number 2
_symmetry_cell_setting 'triclinic'
loop_
_space_group_symop_operation_xyz
x,y,z
-x,-y,-z
loop_
_atom_site_type_symbol
_atom_site_label
_atom_site_fract_x
_atom_site_fract_y
_atom_site_fract_z
Si Si1 0.718238 0.423604 0.947278
Si Si2 0.299506 0.651690 0.263563
Si Si3 0.518342 0.733005 0.551187
Si Si4 0.159179 0.291830 0.156710
Si Si5 0.082118 0.345124 0.748091
Si Si6 0.762141 0.170211 0.383888
Si Si7 0.496069 0.180853 0.861149
Si Si8 0.234467 0.013062 0.620138
O O1 0.661547 0.338516 0.148026
O O2 0.938610 0.396289 0.059506
O O3 0.775927 0.329645 0.934493
O O4 0.542720 0.587872 0.687046
O O5 0.500000 0.500000 0.500000
O O6 0.363730 0.757372 0.175971
O O7 0.102413 0.679140 0.283754
O O8 0.693792 0.676775 0.772329
O O9 0.306995 0.843150 0.454300
O O10 0.534156 0.817885 0.316473
O O11 0.247669 0.129535 0.396546
O O12 0.162364 0.318713 0.956924
O O13 0.270804 0.255964 0.789542
O O14 0.000000 0.500000 0.500000
O O15 0.678857 0.117576 0.308874
O O16 0.004885 0.072938 0.550799
O O17 0.628370 0.033502 0.151958
#
# Coordination Sequence:
#
# PCOD8006948 Si02
#       8
#     2   2   2   2   2   2   2   2
#     4  10  20  40  65  95 128 169 217 279 339 391
#     4  11  20  40  67  99 134 171 227 271 327 403
#     4  12  24  39  63 101 137 167 215 282 348 391
#     4  10  24  43  65  96 131 173 223 272 329 403
#     4  11  23  41  68  98 131 176 223 274 332 391
#     4  10  22  40  67  93 124 174 227 274 329 389
#     4  12  24  42  66  99 137 178 223 277 328 397
#     4  10  23  46  68  89 130 182 232 267 314 409
#
# _framework density 22.611550999999999
#
# number of rings (size 3 to 8) (size 9 to 14) (size 15 to 20)
#    0.000    1.250    3.750    2.250    1.750    3.000 
#    6.750    0.000    0.000    0.000    0.000    0.000 
#    0.000    0.000    0.000    0.000    0.000    0.000 
#
# Total GULP energy -198247.754769 kJ/mol
# GULP energy per Si atom -12390.484673 kJ/mol
# Density = 2.256009 g / cm^3
# Si number density = 22.611551 Si / 1000 Ang^3
#
#
#
# Elastic Constant Matrix: (Units=GPa)
#
#
# Indices 1 2 3 4 5 6 
#
# 1 127.0749 35.0856 24.2468 8.7767 -5.4314 -14.3933
# 2 35.0856 79.7881 34.7330 10.3010 -10.7220 -23.2417
# 3 24.2468 34.7330 142.2307 14.1880 -8.5940 -23.5757
# 4 8.7767 10.3010 14.1880 34.1432 -3.9312 -8.1790
# 5 -5.4314 -10.7220 -8.5940 -3.9312 26.2802 5.2913
# 6 -14.3933 -23.2417 -23.5757 -8.1790 5.2913 29.8169
#
#
#
# Elastic Compliance Matrix: (Units=1/GPa)
#
#
# Indices 1 2 3 4 5 6 
#
# 1 0.009070 -0.003336 -0.000449 -0.000854 -0.000001 0.001188
# 2 -0.003336 0.018502 -0.001896 -0.001001 0.004010 0.010326
# 3 -0.000449 -0.001896 0.008523 -0.001702 0.000772 0.004441
# 4 -0.000854 -0.001001 -0.001702 0.032207 0.002498 0.005853
# 5 -0.000001 0.004010 0.000772 0.002498 0.040884 -0.002834
# 6 0.001188 0.010326 0.004441 0.005853 -0.002834 0.047780
#
#
# Mechanical properties :
#
#
# Convention : Reuss Voigt Hill
#
# Bulk Modulus (GPa) = 40.43449 59.69163 50.06306
# Shear Modulus (GPa) = 28.31709 35.04994 31.68352
#
# Velocity S-wave (km/s) = 3.54266 3.94139 3.74733
# Velocity P-wave (km/s) = 5.88685 6.86795 6.39624
#
# Compressibility (1/GPa) = 0.02473136
#
# Stress axis : x y z
#
# Youngs Moduli (GPa) = 110.25561 54.04950 117.33267
#
# Poissons Ratio (x) = 0.18034 0.05272
# Poissons Ratio (y) = 0.36787 0.22241
# Poissons Ratio (z) = 0.04954 0.10245
#
# Static dielectric constant tensor:
#      x y z
#    x 4.214260 0.028780 0.007790 
#    y 0.028780 4.071010 0.195870 
#    z 0.007790 0.195870 4.339700 
# 
# 
# High freq. dielectric constant tensor:
#      x y z
#    x 1.900320 -0.004080 -0.001630 
#    y -0.004080 1.870330 0.007260 
#    z -0.001630 0.007260 1.899550 
# 
# From -- ./inp_files/205640.got.cif
#   From: 2010.06.25/outbox.cif.g09.slc.cpg/sg2_103_cif.got.tgz:205640.got - 2010.06.27 13:26:56.
