data_PCOD8006477
_publ_section_title
;
Structure prediction by ZEFSAII (Michael W. Deem and Ramdas Pophale) SiO2 
 PCOD8006477
Probable space group: P -1
;
_chemical_formula_sum "Si O2"
_cell_formula_units_Z 16
_cell_length_a 10.713879
_cell_length_b 19.025134
_cell_length_c 14.319748
_cell_angle_alpha 32.674657
_cell_angle_beta 149.444217
_cell_angle_gamma 137.838722
_cell_volume 799.662550
_symmetry_space_group_name_H-M "P -1"
_symmetry_group_IT_number 2
_symmetry_cell_setting 'triclinic'
loop_
_space_group_symop_operation_xyz
x,y,z
-x,-y,-z
loop_
_atom_site_type_symbol
_atom_site_label
_atom_site_fract_x
_atom_site_fract_y
_atom_site_fract_z
Si Si1 0.770159 0.129454 0.459418
Si Si2 0.850393 0.747519 0.773176
Si Si3 0.025046 0.131184 0.090030
Si Si4 0.517609 0.456195 0.165838
Si Si5 0.138144 0.885734 0.665772
Si Si6 0.696335 0.727595 0.040558
Si Si7 0.423382 0.928002 0.258377
Si Si8 0.859782 0.229320 0.603316
O O1 0.944320 0.140297 0.466547
O O2 0.849864 0.224607 0.489908
O O3 0.778511 0.981046 0.666649
O O4 0.505462 0.166767 0.212489
O O5 0.981471 0.824608 0.857254
O O6 0.746875 0.604253 0.898946
O O7 0.621373 0.818940 0.502511
O O8 0.063498 0.752126 0.825014
O O9 0.124898 0.253261 0.955401
O O10 0.755067 0.079632 0.938359
O O11 0.586101 0.579225 0.138065
O O12 0.723418 0.351251 0.420369
O O13 0.500000 0.500000 0.000000
O O14 0.430856 0.929371 0.805996
O O15 0.000000 0.000000 0.500000
O O16 0.852902 0.754509 0.205017
O O17 0.263697 0.901850 0.280162
#
# Coordination Sequence:
#
# PCOD8006477 Si02
#       8
#     2   2   2   2   2   2   2   2
#     4  12  23  35  58  87 119 152 187 232 287 342
#     4  10  20  40  56  83 115 151 193 235 272 338
#     4  11  21  33  59  88 119 146 183 234 287 344
#     4  11  19  40  65  83 111 151 192 233 289 330
#     4  10  21  39  55  78 119 158 189 226 282 340
#     4  11  23  37  59  89 117 149 185 239 290 333
#     4   9  20  35  55  86 114 151 184 224 291 339
#     4  10  23  36  59  90 118 145 187 239 284 339
#
# _framework density 20.008441000000001
#
# number of rings (size 3 to 8) (size 9 to 14) (size 15 to 20)
#    0.000    1.500    5.000    1.500    3.500    1.500 
#    0.000    0.625    0.000    0.750    0.000    0.000 
#    0.000    0.000    0.000    0.000    0.000    0.000 
#
# Total GULP energy -198250.633457 kJ/mol
# GULP energy per Si atom -12390.664591 kJ/mol
# Density = 1.996290 g / cm^3
# Si number density = 20.008441 Si / 1000 Ang^3
#
#
#
# Elastic Constant Matrix: (Units=GPa)
#
#
# Indices 1 2 3 4 5 6 
#
# 1 107.2407 63.2895 33.1717 7.5878 -18.3787 5.3646
# 2 63.2895 128.9492 48.7570 12.8445 -13.0375 20.3215
# 3 33.1717 48.7570 91.0344 24.5049 -11.6799 4.7128
# 4 7.5878 12.8445 24.5049 29.5495 4.5717 -9.3456
# 5 -18.3787 -13.0375 -11.6799 4.5717 13.3929 -6.7722
# 6 5.3646 20.3215 4.7128 -9.3456 -6.7722 29.6741
#
#
#
# Elastic Compliance Matrix: (Units=1/GPa)
#
#
# Indices 1 2 3 4 5 6 
#
# 1 0.016673 -0.006896 0.001065 -0.003789 0.020985 0.005135
# 2 -0.006896 0.014276 -0.003926 -0.003850 -0.002585 -0.009709
# 3 0.001065 -0.003926 0.020977 -0.020006 0.021652 -0.002195
# 4 -0.003789 -0.003850 -0.020006 0.064852 -0.039473 0.017915
# 5 0.020985 -0.002585 0.021652 -0.039473 0.140466 0.014163
# 6 0.005135 -0.009709 -0.002195 0.017915 0.014163 0.048643
#
#
# Mechanical properties :
#
#
# Convention : Reuss Voigt Hill
#
# Bulk Modulus (GPa) = 30.85380 68.62898 49.74139
# Shear Modulus (GPa) = 14.87191 26.65703 20.76447
#
# Velocity S-wave (km/s) = 2.72928 3.65401 3.22496
# Velocity P-wave (km/s) = 5.03843 7.22336 6.22747
#
# Compressibility (1/GPa) = 0.03241092
#
# Stress axis : x y z
#
# Youngs Moduli (GPa) = 59.97813 70.04664 47.67181
#
# Poissons Ratio (x) = 0.48302 -0.05075
# Poissons Ratio (y) = 0.41359 0.18717
# Poissons Ratio (z) = -0.06385 0.27502
#
# Static dielectric constant tensor:
#      x y z
#    x 3.917440 0.369780 -0.269020 
#    y 0.369780 3.993560 -0.055990 
#    z -0.269020 -0.055990 3.700180 
# 
# 
# High freq. dielectric constant tensor:
#      x y z
#    x 1.765910 0.003230 -0.018140 
#    y 0.003230 1.773020 0.012430 
#    z -0.018140 0.012430 1.768830 
# 
# From -- ./inp_files/518836.got.cif
#   From: 2010.06.25/outbox.cif.g09.slc.cpg/sg2_260_cif.got.tgz:518836.got - 2010.06.27 13:26:56.
