data_PCOD8006875
_publ_section_title
;
Structure prediction by ZEFSAII (Michael W. Deem and Ramdas Pophale) SiO2 
 PCOD8006875
Probable space group: P -1
;
_chemical_formula_sum "Si O2"
_cell_formula_units_Z 16
_cell_length_a 20.848794
_cell_length_b 9.873407
_cell_length_c 20.707125
_cell_angle_alpha 131.260814
_cell_angle_beta 19.670226
_cell_angle_gamma 141.795097
_cell_volume 818.428571
_symmetry_space_group_name_H-M "P -1"
_symmetry_group_IT_number 2
_symmetry_cell_setting 'triclinic'
loop_
_space_group_symop_operation_xyz
x,y,z
-x,-y,-z
loop_
_atom_site_type_symbol
_atom_site_label
_atom_site_fract_x
_atom_site_fract_y
_atom_site_fract_z
Si Si1 0.257791 0.039994 0.893183
Si Si2 0.841970 0.554272 0.632859
Si Si3 0.076760 0.315197 0.679217
Si Si4 0.632643 0.184677 0.374216
Si Si5 0.602110 0.962570 0.101090
Si Si6 0.146850 0.935829 0.680006
Si Si7 0.827284 0.464339 0.474562
Si Si8 0.809142 0.985679 0.485414
O O1 0.527370 0.287307 0.696435
O O2 0.192320 0.845759 0.841658
O O3 0.262598 0.947266 0.929410
O O4 0.055690 0.075238 0.090868
O O5 0.910082 0.600236 0.506744
O O6 0.000000 0.500000 0.500000
O O7 0.549497 0.321476 0.847950
O O8 0.928946 0.793932 0.658491
O O9 0.187134 0.550703 0.687365
O O10 0.049903 0.342547 0.637728
O O11 0.256500 0.252383 0.499390
O O12 0.800934 0.095957 0.897462
O O13 0.500000 0.000000 0.500000
O O14 0.420777 0.138984 0.514210
O O15 0.415995 0.017042 0.287466
O O16 0.075709 0.681347 0.668728
O O17 0.140417 0.002841 0.634448
#
# Coordination Sequence:
#
# PCOD8006875 Si02
#       8
#     2   2   2   2   2   2   2   2
#     4  10  20  40  65  88 116 169 213 239 307 380
#     4   9  18  40  71  85 122 173 202 246 312 379
#     4  12  25  39  62  94 130 157 204 270 310 348
#     4  11  23  43  61  88 131 166 202 258 311 363
#     4  10  21  41  62  94 124 160 204 262 302 368
#     4  11  20  40  68  88 118 169 213 244 302 384
#     4  10  21  42  61  91 133 157 202 262 305 367
#     4  11  22  41  65  95 123 160 213 257 305 366
#
# _framework density 19.549661
#
# number of rings (size 3 to 8) (size 9 to 14) (size 15 to 20)
#    0.000    1.500    8.750    0.000    0.000    4.500 
#    0.000    2.500    0.000    0.000    0.000    0.000 
#    0.000    0.000    0.000    0.000    0.000    0.000 
#
# Total GULP energy -198376.851166 kJ/mol
# GULP energy per Si atom -12398.553198 kJ/mol
# Density = 1.950516 g / cm^3
# Si number density = 19.549661 Si / 1000 Ang^3
#
#
#
# Elastic Constant Matrix: (Units=GPa)
#
#
# Indices 1 2 3 4 5 6 
#
# 1 133.5488 50.6868 36.0438 -8.1724 20.8539 -0.2859
# 2 50.6868 80.2882 33.1728 -0.7745 0.9790 -3.9861
# 3 36.0438 33.1728 103.7245 10.2416 8.5965 -4.0198
# 4 -8.1724 -0.7745 10.2416 25.5552 -12.1842 0.8338
# 5 20.8539 0.9790 8.5965 -12.1842 24.4621 -6.2461
# 6 -0.2859 -3.9861 -4.0198 0.8338 -6.2461 37.6048
#
#
#
# Elastic Compliance Matrix: (Units=1/GPa)
#
#
# Indices 1 2 3 4 5 6 
#
# 1 0.012142 -0.007261 -0.000990 -0.001049 -0.010891 -0.002569
# 2 -0.007261 0.019111 -0.004835 0.005070 0.010434 0.003074
# 3 -0.000990 -0.004835 0.013201 -0.009835 -0.008581 -0.000316
# 4 -0.001049 0.005070 -0.009835 0.059300 0.034686 0.003925
# 5 -0.010891 0.010434 -0.008581 0.034686 0.072963 0.011456
# 6 -0.002569 0.003074 -0.000316 0.003925 0.011456 0.028681
#
#
# Mechanical properties :
#
#
# Convention : Reuss Voigt Hill
#
# Bulk Modulus (GPa) = 54.70047 61.92982 58.31515
# Shear Modulus (GPa) = 21.03795 30.70161 25.86978
#
# Velocity S-wave (km/s) = 3.28400 3.96718 3.64165
# Velocity P-wave (km/s) = 6.51311 7.26166 6.89754
#
# Compressibility (1/GPa) = 0.01828138
#
# Stress axis : x y z
#
# Youngs Moduli (GPa) = 82.35898 52.32563 75.74950
#
# Poissons Ratio (x) = 0.37994 0.07503
# Poissons Ratio (y) = 0.59801 0.36625
# Poissons Ratio (z) = 0.08158 0.25300
#
# Static dielectric constant tensor:
#      x y z
#    x 4.306720 1.115410 0.021770 
#    y 1.115410 5.479170 0.044960 
#    z 0.021770 0.044960 3.622740 
# 
# 
# High freq. dielectric constant tensor:
#      x y z
#    x 1.770950 0.003930 0.004000 
#    y 0.003930 1.752460 0.013240 
#    z 0.004000 0.013240 1.750340 
# 
# From -- ./inp_files/313695.got.cif
#   From: 2010.06.25/outbox.cif.g09.slc.cpg/sg2_157_cif.got.tgz:313695.got - 2010.06.27 13:26:56.
