data_PCOD8006614
_publ_section_title
;
Structure prediction by ZEFSAII (Michael W. Deem and Ramdas Pophale) SiO2 
 PCOD8006614
Probable space group: P -1
;
_chemical_formula_sum "Si O2"
_cell_formula_units_Z 16
_cell_length_a 9.180797
_cell_length_b 9.074421
_cell_length_c 11.317316
_cell_angle_alpha 111.976103
_cell_angle_beta 103.437946
_cell_angle_gamma 55.323689
_cell_volume 718.806777
_symmetry_space_group_name_H-M "P -1"
_symmetry_group_IT_number 2
_symmetry_cell_setting 'triclinic'
loop_
_space_group_symop_operation_xyz
x,y,z
-x,-y,-z
loop_
_atom_site_type_symbol
_atom_site_label
_atom_site_fract_x
_atom_site_fract_y
_atom_site_fract_z
Si Si1 0.765428 0.751269 0.606313
Si Si2 0.497448 0.689378 0.649609
Si Si3 0.815780 0.189994 0.005933
Si Si4 0.948122 0.646888 0.368828
Si Si5 0.497248 0.187815 0.054216
Si Si6 0.246765 0.734391 0.440875
Si Si7 0.668593 0.152911 0.741351
Si Si8 0.708432 0.602348 0.147329
O O1 0.594841 0.735200 0.579526
O O2 0.805006 0.753745 0.476583
O O3 0.930573 0.574350 0.648309
O O4 0.720859 0.942378 0.719515
O O5 0.533947 0.750069 0.798455
O O6 0.291915 0.788113 0.594938
O O7 0.583756 0.469184 0.615379
O O8 0.767789 0.217836 0.866960
O O9 0.681765 0.156149 0.041746
O O10 0.805139 0.376450 0.107300
O O11 0.000000 0.000000 0.000000
O O12 0.844073 0.663723 0.233462
O O13 0.061176 0.745546 0.408686
O O14 0.344806 0.335195 0.980007
O O15 0.500000 0.000000 0.000000
O O16 0.253086 0.861925 0.378428
O O17 0.458910 0.299592 0.765467
#
# Coordination Sequence:
#
# PCOD8006614 Si02
#       8
#     2   2   2   2   2   2   2   2
#     4  10  22  40  64  89 125 165 206 256 309 374
#     4  10  20  40  62  88 122 164 208 247 307 370
#     4  11  24  42  65  92 126 169 209 257 314 373
#     4  10  23  42  62  94 127 164 207 256 317 363
#     4  11  24  41  65  94 126 166 209 255 308 375
#     4  10  22  37  63  91 122 160 204 262 305 359
#     4  11  22  40  63  93 123 163 212 253 311 371
#     4  11  23  42  66  91 129 168 208 256 309 381
#
# _framework density 22.259112999999999
#
# number of rings (size 3 to 8) (size 9 to 14) (size 15 to 20)
#    0.000    1.500    0.000    6.000    0.000   10.500 
#    0.000    3.750    0.000    0.000    0.000    0.000 
#    0.000    0.000    0.000    0.000    0.000    0.000 
#
# Total GULP energy -198338.118777 kJ/mol
# GULP energy per Si atom -12396.132424 kJ/mol
# Density = 2.220845 g / cm^3
# Si number density = 22.259113 Si / 1000 Ang^3
#
#
#
# Elastic Constant Matrix: (Units=GPa)
#
#
# Indices 1 2 3 4 5 6 
#
# 1 114.1513 44.5087 58.3458 -14.6240 20.7142 -1.1027
# 2 44.5087 84.1878 25.4750 10.5098 -1.6420 1.5261
# 3 58.3458 25.4750 120.7828 -8.0927 16.2612 -4.8798
# 4 -14.6240 10.5098 -8.0927 34.0962 -2.0127 1.2178
# 5 20.7142 -1.6420 16.2612 -2.0127 37.1520 -4.0400
# 6 -1.1027 1.5261 -4.8798 1.2178 -4.0400 35.7789
#
#
#
# Elastic Compliance Matrix: (Units=1/GPa)
#
#
# Indices 1 2 3 4 5 6 
#
# 1 0.017081 -0.008738 -0.004880 0.008456 -0.007413 -0.000891
# 2 -0.008738 0.018050 -0.000961 -0.009203 0.005567 -0.000229
# 3 -0.004880 -0.000961 0.011211 0.000701 -0.002064 0.001163
# 4 0.008456 -0.009203 0.000701 0.035778 -0.003585 -0.000874
# 5 -0.007413 0.005567 -0.002064 -0.003585 0.032334 0.003025
# 6 -0.000891 -0.000229 0.001163 -0.000874 0.003025 0.028462
#
#
# Mechanical properties :
#
#
# Convention : Reuss Voigt Hill
#
# Bulk Modulus (GPa) = 58.19239 63.97566 61.08402
# Shear Modulus (GPa) = 28.12089 34.12491 31.12290
#
# Velocity S-wave (km/s) = 3.55821 3.91970 3.74332
# Velocity P-wave (km/s) = 6.56362 7.02062 6.79596
#
# Compressibility (1/GPa) = 0.01718438
#
# Stress axis : x y z
#
# Youngs Moduli (GPa) = 58.54316 55.40038 89.19594
#
# Poissons Ratio (x) = 0.48409 0.43526
# Poissons Ratio (y) = 0.51155 0.08576
# Poissons Ratio (z) = 0.28568 0.05326
#
# Static dielectric constant tensor:
#      x y z
#    x 3.982400 0.034320 0.101540 
#    y 0.034320 4.119970 0.017880 
#    z 0.101540 0.017880 4.316540 
# 
# 
# High freq. dielectric constant tensor:
#      x y z
#    x 1.871180 0.006010 0.011250 
#    y 0.006010 1.877690 0.003630 
#    z 0.011250 0.003630 1.886370 
# 
# From -- ./inp_files/242556.got.cif
#   From: 2010.06.25/outbox.cif.g09.slc.cpg/sg2_122_cif.got.tgz:242556.got - 2010.06.27 13:26:56.
