data_PCOD8006024
_publ_section_title
;
Structure prediction by ZEFSAII (Michael W. Deem and Ramdas Pophale) SiO2 
 PCOD8006024
Probable space group: P -1
;
_chemical_formula_sum "Si O2"
_cell_formula_units_Z 14
_cell_length_a 9.508019
_cell_length_b 9.437387
_cell_length_c 9.319223
_cell_angle_alpha 83.733538
_cell_angle_beta 128.269405
_cell_angle_gamma 86.286261
_cell_volume 643.144297
_symmetry_space_group_name_H-M "P -1"
_symmetry_group_IT_number 2
_symmetry_cell_setting 'triclinic'
loop_
_space_group_symop_operation_xyz
x,y,z
-x,-y,-z
loop_
_atom_site_type_symbol
_atom_site_label
_atom_site_fract_x
_atom_site_fract_y
_atom_site_fract_z
Si Si1 0.610032 0.072145 0.349073
Si Si2 0.130537 0.065938 0.682572
Si Si3 0.967702 0.393855 0.617309
Si Si4 0.256147 0.986896 0.261199
Si Si5 0.884221 0.152706 0.053894
Si Si6 0.231187 0.535142 0.930827
Si Si7 0.397095 0.607253 0.734256
O O1 0.749640 0.064247 0.571943
O O2 0.595836 0.226062 0.246302
O O3 0.678511 0.950984 0.284527
O O4 0.425721 0.054989 0.310921
O O5 0.060769 0.232332 0.652749
O O6 0.161814 0.973100 0.856928
O O7 0.000000 0.000000 0.500000
O O8 0.745650 0.405476 0.486254
O O9 0.000000 0.500000 0.500000
O O10 0.065447 0.441624 0.819058
O O11 0.243276 0.849492 0.166196
O O12 0.087555 0.117009 0.124613
O O13 0.858006 0.306646 0.094090
O O14 0.321954 0.536516 0.833030
O O15 0.392504 0.469150 0.151906
#
# Coordination Sequence:
#
# PCOD8006024 Si02
#       7
#     2   2   2   2   2   2   2
#     4  11  22  42  64  98 125 170 218 268 319 387
#     4  12  20  38  74  94 120 170 225 264 319 373
#     4  10  21  36  61 101 130 159 203 282 326 369
#     4  10  25  39  65  90 139 165 211 266 332 376
#     4  11  22  45  64  95 128 171 216 267 317 393
#     4  10  22  39  65  98 130 165 212 275 328 370
#     4  10  20  39  64  95 132 158 218 276 313 380
#
# _framework density 21.768055
#
# number of rings (size 3 to 8) (size 9 to 14) (size 15 to 20)
#    0.000    1.429    4.286    0.857    2.000    4.000 
#    2.571    1.429    0.000    0.000    0.000    0.000 
#    0.000    0.000    0.000    0.000    0.000    0.000 
#
# Total GULP energy -173471.274331 kJ/mol
# GULP energy per Si atom -12390.805309 kJ/mol
# Density = 2.171851 g / cm^3
# Si number density = 21.768055 Si / 1000 Ang^3
#
#
#
# Elastic Constant Matrix: (Units=GPa)
#
#
# Indices 1 2 3 4 5 6 
#
# 1 66.3992 25.7416 36.1073 -0.7221 8.2546 -8.5982
# 2 25.7416 153.4993 54.1432 3.9207 13.5730 -7.0430
# 3 36.1073 54.1432 107.8712 9.5160 21.2036 -9.5817
# 4 -0.7221 3.9207 9.5160 28.9473 -0.3342 -0.9402
# 5 8.2546 13.5730 21.2036 -0.3342 29.6718 1.6494
# 6 -8.5982 -7.0430 -9.5817 -0.9402 1.6494 18.7902
#
#
#
# Elastic Compliance Matrix: (Units=1/GPa)
#
#
# Indices 1 2 3 4 5 6 
#
# 1 0.019361 -0.001013 -0.005400 0.002574 -0.001367 0.005975
# 2 -0.001013 0.008016 -0.003412 0.000028 -0.000996 0.000890
# 3 -0.005400 -0.003412 0.015184 -0.004612 -0.008088 0.004472
# 4 0.002574 0.000028 -0.004612 0.036169 0.002953 0.000387
# 5 -0.001367 -0.000996 -0.008088 0.002953 0.040827 -0.008559
# 6 0.005975 0.000890 0.004472 0.000387 -0.008559 0.059338
#
#
# Mechanical properties :
#
#
# Convention : Reuss Voigt Hill
#
# Bulk Modulus (GPa) = 43.64497 62.19489 52.91993
# Shear Modulus (GPa) = 24.25028 29.60036 26.92532
#
# Velocity S-wave (km/s) = 3.34133 3.69156 3.52080
# Velocity P-wave (km/s) = 5.91435 6.84133 6.39466
#
# Compressibility (1/GPa) = 0.02291215
#
# Stress axis : x y z
#
# Youngs Moduli (GPa) = 51.64983 124.74579 65.85671
#
# Poissons Ratio (x) = 0.12635 0.35562
# Poissons Ratio (y) = 0.05231 0.22472
# Poissons Ratio (z) = 0.27890 0.42566
#
# Static dielectric constant tensor:
#      x y z
#    x 4.133110 0.007210 0.435740 
#    y 0.007210 3.867100 0.128190 
#    z 0.435740 0.128190 4.691610 
# 
# 
# High freq. dielectric constant tensor:
#      x y z
#    x 1.846560 0.001750 0.020130 
#    y 0.001750 1.844480 -0.003120 
#    z 0.020130 -0.003120 1.861920 
# 
# From -- ./inp_files/157252.got.cif
#   From: 2010.06.25/outbox.cif.g09.slc.cpg/sg2_79_cif.got.tgz:157252.got - 2010.06.27 13:26:56.
