data_PCOD8006654
_publ_section_title
;
Structure prediction by ZEFSAII (Michael W. Deem and Ramdas Pophale) SiO2 
 PCOD8006654
Probable space group: P -1
;
_chemical_formula_sum "Si O2"
_cell_formula_units_Z 16
_cell_length_a 25.669871
_cell_length_b 20.420210
_cell_length_c 9.182086
_cell_angle_alpha 151.571219
_cell_angle_beta 29.768262
_cell_angle_gamma 159.987637
_cell_volume 757.994146
_symmetry_space_group_name_H-M "P -1"
_symmetry_group_IT_number 2
_symmetry_cell_setting 'triclinic'
loop_
_space_group_symop_operation_xyz
x,y,z
-x,-y,-z
loop_
_atom_site_type_symbol
_atom_site_label
_atom_site_fract_x
_atom_site_fract_y
_atom_site_fract_z
Si Si1 0.383997 0.953800 0.304815
Si Si2 0.398345 0.829658 0.539833
Si Si3 0.658828 0.709006 0.590100
Si Si4 0.657936 0.935084 0.816464
Si Si5 0.302541 0.596039 0.900837
Si Si6 0.342247 0.361716 0.207443
Si Si7 0.830134 0.615445 0.908653
Si Si8 0.821187 0.020411 0.304312
O O1 0.285793 0.979767 0.526929
O O2 0.484504 0.109854 0.501169
O O3 0.268302 0.716061 0.164631
O O4 0.500000 0.000000 0.000000
O O5 0.297109 0.598632 0.290356
O O6 0.500000 0.000000 0.500000
O O7 0.288966 0.852100 0.899996
O O8 0.500000 0.500000 0.500000
O O9 0.687147 0.892339 0.820116
O O10 0.647910 0.693018 0.760535
O O11 0.790888 0.738706 0.257346
O O12 0.472779 0.745719 0.857379
O O13 0.762336 0.955874 0.486429
O O14 0.297043 0.478927 0.555037
O O15 0.165171 0.434302 0.034351
O O16 0.500000 0.500000 0.000000
O O17 0.200973 0.149730 0.049320
O O18 0.997601 0.758805 0.706456
#
# Coordination Sequence:
#
# PCOD8006654 Si02
#       8
#     2   2   2   2   2   2   2   2
#     4  11  21  41  67  95 123 171 217 261 309 385
#     4  11  21  41  71  90 122 174 224 248 312 395
#     4  11  21  39  69  92 127 172 216 258 314 387
#     4  11  21  42  62  95 129 168 217 263 304 394
#     4  10  20  40  62  92 129 161 218 260 306 387
#     4  11  21  39  67  95 123 172 215 256 316 381
#     4  11  25  42  64  99 131 163 210 279 320 367
#     4  12  26  41  64  99 137 157 212 280 321 361
#
# _framework density 21.108342
#
# number of rings (size 3 to 8) (size 9 to 14) (size 15 to 20)
#    0.000    1.000    8.750    0.000    3.500    3.500 
#    2.250    1.250    0.000    0.000    0.000    0.000 
#    0.000    0.000    0.000    0.000    0.000    0.000 
#
# Total GULP energy -198309.121527 kJ/mol
# GULP energy per Si atom -12394.320095 kJ/mol
# Density = 2.106030 g / cm^3
# Si number density = 21.108342 Si / 1000 Ang^3
#
#
#
# Elastic Constant Matrix: (Units=GPa)
#
#
# Indices 1 2 3 4 5 6 
#
# 1 75.6663 23.1328 21.5593 -6.4238 6.8053 -12.4855
# 2 23.1328 87.4841 22.4402 -7.4069 7.9182 -1.2136
# 3 21.5593 22.4402 91.8458 9.7850 13.4645 0.7845
# 4 -6.4238 -7.4069 9.7850 37.4556 -8.0997 -0.4381
# 5 6.8053 7.9182 13.4645 -8.0997 37.5818 2.2288
# 6 -12.4855 -1.2136 0.7845 -0.4381 2.2288 23.4111
#
#
#
# Elastic Compliance Matrix: (Units=1/GPa)
#
#
# Indices 1 2 3 4 5 6 
#
# 1 0.017042 -0.003126 -0.003490 0.003096 -0.001055 0.009202
# 2 -0.003126 0.013213 -0.002673 0.002626 -0.000648 -0.000782
# 3 -0.003490 -0.002673 0.013702 -0.005777 -0.004834 -0.002107
# 4 0.003096 0.002626 -0.005777 0.030902 0.007507 0.001844
# 5 -0.001055 -0.000648 -0.004834 0.007507 0.030476 -0.003195
# 6 0.009202 -0.000782 -0.002107 0.001844 -0.003195 0.047991
#
#
# Mechanical properties :
#
#
# Convention : Reuss Voigt Hill
#
# Bulk Modulus (GPa) = 39.40134 43.25122 41.32628
# Shear Modulus (GPa) = 27.72175 32.21397 29.96786
#
# Velocity S-wave (km/s) = 3.62789 3.91080 3.77200
# Velocity P-wave (km/s) = 6.02126 6.39743 6.21219
#
# Compressibility (1/GPa) = 0.02537985
#
# Stress axis : x y z
#
# Youngs Moduli (GPa) = 58.67773 75.68415 72.98100
#
# Poissons Ratio (x) = 0.23657 0.25473
# Poissons Ratio (y) = 0.18341 0.19504
# Poissons Ratio (z) = 0.20481 0.20227
#
# Static dielectric constant tensor:
#      x y z
#    x 3.712360 -0.305070 0.255220 
#    y -0.305070 3.691950 0.219400 
#    z 0.255220 0.219400 4.306540 
# 
# 
# High freq. dielectric constant tensor:
#      x y z
#    x 1.814570 -0.029500 0.008620 
#    y -0.029500 1.801380 0.008620 
#    z 0.008620 0.008620 1.849340 
# 
# From -- ./inp_files/357754.got.cif
#   From: 2010.06.25/outbox.cif.g09.slc.cpg/sg2_179_cif.got.tgz:357754.got - 2010.06.27 13:26:56.
