data_PCOD8006965
_publ_section_title
;
Structure prediction by ZEFSAII (Michael W. Deem and Ramdas Pophale) SiO2 
 PCOD8006965
Probable space group: P -1
;
_chemical_formula_sum "Si O2"
_cell_formula_units_Z 16
_cell_length_a 8.668316
_cell_length_b 15.428364
_cell_length_c 11.687944
_cell_angle_alpha 56.613653
_cell_angle_beta 68.451999
_cell_angle_gamma 115.055566
_cell_volume 719.309555
_symmetry_space_group_name_H-M "P -1"
_symmetry_group_IT_number 2
_symmetry_cell_setting 'triclinic'
loop_
_space_group_symop_operation_xyz
x,y,z
-x,-y,-z
loop_
_atom_site_type_symbol
_atom_site_label
_atom_site_fract_x
_atom_site_fract_y
_atom_site_fract_z
Si Si1 0.271031 0.332996 0.410160
Si Si2 0.209943 0.654067 0.053592
Si Si3 0.825475 0.289458 0.504924
Si Si4 0.568879 0.247697 0.827592
Si Si5 0.286368 0.203965 0.276180
Si Si6 0.773520 0.103646 0.120090
Si Si7 0.027321 0.906690 0.131217
Si Si8 0.271477 0.287221 0.973735
O O1 0.291476 0.276282 0.332972
O O2 0.580713 0.527692 0.215246
O O3 0.047733 0.313031 0.462340
O O4 0.213428 0.232053 0.609760
O O5 0.291331 0.709804 0.122804
O O6 0.958783 0.441686 0.269630
O O7 0.452181 0.741861 0.836452
O O8 0.164715 0.749573 0.957770
O O9 0.769590 0.329801 0.604724
O O10 0.548893 0.097717 0.661232
O O11 0.443345 0.300260 0.830022
O O12 0.306516 0.039654 0.034660
O O13 0.315843 0.284760 0.095238
O O14 0.000000 0.000000 0.500000
O O15 0.948218 0.176702 0.902329
O O16 0.939656 0.117725 0.158580
O O17 0.000000 0.000000 0.000000
#
# Coordination Sequence:
#
# PCOD8006965 Si02
#       8
#     2   2   2   2   2   2   2   2
#     4  12  24  43  73 101 129 189 235 282 340 412
#     4  11  23  43  69 102 136 183 235 286 337 416
#     4  11  23  40  72  99 145 180 230 288 339 418
#     4  10  20  40  65  99 136 178 226 277 341 404
#     4  11  24  46  75  94 133 184 244 283 331 412
#     4  11  25  43  66 107 144 176 223 286 366 396
#     4  11  23  39  68 101 142 174 222 284 348 415
#     4  11  24  42  70 101 138 177 231 283 339 414
#
# _framework density 22.243552000000001
#
# number of rings (size 3 to 8) (size 9 to 14) (size 15 to 20)
#    0.000    1.000    3.750    4.500    1.750    4.500 
#    0.000    3.125    0.000    0.000    0.000    0.000 
#    0.000    0.000    0.000    0.000    0.000    0.000 
#
# Total GULP energy -198215.410987 kJ/mol
# GULP energy per Si atom -12388.463187 kJ/mol
# Density = 2.219293 g / cm^3
# Si number density = 22.243552 Si / 1000 Ang^3
#
#
#
# Elastic Constant Matrix: (Units=GPa)
#
#
# Indices 1 2 3 4 5 6 
#
# 1 74.0930 40.7678 25.0961 -0.7525 -7.0788 -9.1782
# 2 40.7678 119.1023 58.0378 1.7555 -3.7172 -19.1110
# 3 25.0961 58.0378 101.9144 16.1623 -9.4243 -29.7483
# 4 -0.7525 1.7555 16.1623 24.5198 -3.4952 -5.4669
# 5 -7.0788 -3.7172 -9.4243 -3.4952 28.3608 -7.8604
# 6 -9.1782 -19.1110 -29.7483 -5.4669 -7.8604 31.2698
#
#
#
# Elastic Compliance Matrix: (Units=1/GPa)
#
#
# Indices 1 2 3 4 5 6 
#
# 1 0.017317 -0.005118 -0.000369 0.002539 0.004740 0.003240
# 2 -0.005118 0.013523 -0.006987 0.003378 -0.001305 0.000378
# 3 -0.000369 -0.006987 0.020846 -0.008253 0.009444 0.016385
# 4 0.002539 0.003378 -0.008253 0.047904 0.005548 0.004729
# 5 0.004740 -0.001305 0.009444 0.005548 0.046239 0.022171
# 6 0.003240 0.000378 0.016385 0.004729 0.022171 0.055149
#
#
# Mechanical properties :
#
#
# Convention : Reuss Voigt Hill
#
# Bulk Modulus (GPa) = 37.39636 60.32369 48.86003
# Shear Modulus (GPa) = 21.29131 28.24395 24.76763
#
# Velocity S-wave (km/s) = 3.09721 3.56723 3.34050
# Velocity P-wave (km/s) = 5.44417 6.64420 6.07389
#
# Compressibility (1/GPa) = 0.02674057
#
# Stress axis : x y z
#
# Youngs Moduli (GPa) = 57.74611 73.95049 47.96990
#
# Poissons Ratio (x) = 0.37845 0.01768
# Poissons Ratio (y) = 0.29552 0.33515
# Poissons Ratio (z) = 0.02128 0.51667
#
# Static dielectric constant tensor:
#      x y z
#    x 8.981150 0.678100 -5.430700 
#    y 0.678100 4.199820 -1.000560 
#    z -5.430700 -1.000560 9.793800 
# 
# 
# High freq. dielectric constant tensor:
#      x y z
#    x 1.867520 -0.009240 -0.012470 
#    y -0.009240 1.887230 -0.010420 
#    z -0.012470 -0.010420 1.873650 
# 
# From -- ./inp_files/398574.got.cif
#   From: 2010.06.25/outbox.cif.g09.slc.cpg/sg2_200_cif.got.tgz:398574.got - 2010.06.27 13:26:56.
