data_PCOD8006918
_publ_section_title
;
Structure prediction by ZEFSAII (Michael W. Deem and Ramdas Pophale) SiO2 
 PCOD8006918
Probable space group: P -1
;
_chemical_formula_sum "Si O2"
_cell_formula_units_Z 16
_cell_length_a 12.527533
_cell_length_b 15.578794
_cell_length_c 8.282500
_cell_angle_alpha 77.249600
_cell_angle_beta 100.456916
_cell_angle_gamma 152.978029
_cell_volume 715.876167
_symmetry_space_group_name_H-M "P -1"
_symmetry_group_IT_number 2
_symmetry_cell_setting 'triclinic'
loop_
_space_group_symop_operation_xyz
x,y,z
-x,-y,-z
loop_
_atom_site_type_symbol
_atom_site_label
_atom_site_fract_x
_atom_site_fract_y
_atom_site_fract_z
Si Si1 0.897373 0.533836 0.320157
Si Si2 0.565355 0.564792 0.228182
Si Si3 0.509575 0.800297 0.436836
Si Si4 0.244120 0.681462 0.140674
Si Si5 0.923202 0.301942 0.125470
Si Si6 0.245220 0.429356 0.965005
Si Si7 0.734795 0.776830 0.500079
Si Si8 0.256726 0.875636 0.505040
O O1 0.747189 0.377602 0.480124
O O2 0.718005 0.459647 0.187193
O O3 0.028481 0.552740 0.251377
O O4 0.086367 0.737431 0.365316
O O5 0.747395 0.650302 0.117598
O O6 0.716878 0.707327 0.360963
O O7 0.359987 0.349544 0.322910
O O8 0.444271 0.559278 0.103238
O O9 0.482347 0.833608 0.244617
O O10 0.571985 0.744653 0.449268
O O11 0.697058 0.986194 0.522862
O O12 0.160149 0.532983 0.087967
O O13 0.286069 0.792934 0.980910
O O14 0.867926 0.243290 0.317101
O O15 0.994821 0.265553 0.057620
O O16 0.000000 0.000000 0.500000
O O17 0.500000 0.000000 0.500000
#
# Coordination Sequence:
#
# PCOD8006918 Si02
#       8
#     2   2   2   2   2   2   2   2
#     4  11  22  43  65  96 132 173 222 266 327 397
#     4  10  23  47  70  92 134 173 226 278 340 385
#     4  12  23  39  67  95 128 175 217 267 332 393
#     4  10  20  40  65  92 131 170 214 269 322 394
#     4  10  22  38  67  95 130 173 219 265 331 392
#     4  10  22  42  71  94 127 184 216 273 336 391
#     4  11  26  43  71 101 128 171 228 283 334 393
#     4  12  25  40  66  99 136 174 217 268 329 400
#
# _framework density 22.350231999999998
#
# number of rings (size 3 to 8) (size 9 to 14) (size 15 to 20)
#    0.000    1.250    3.750    1.875    3.500    0.500 
#    0.000    3.750    2.750    0.000    0.000    0.000 
#    0.000    0.000    0.000    0.000    0.000    0.000 
#
# Total GULP energy -198307.951485 kJ/mol
# GULP energy per Si atom -12394.246968 kJ/mol
# Density = 2.229936 g / cm^3
# Si number density = 22.350232 Si / 1000 Ang^3
#
#
#
# Elastic Constant Matrix: (Units=GPa)
#
#
# Indices 1 2 3 4 5 6 
#
# 1 92.2105 14.6443 43.3933 -2.0932 -0.6169 -4.3925
# 2 14.6443 90.5981 23.4110 12.9570 -2.5113 -11.5766
# 3 43.3933 23.4110 103.6637 17.1080 5.9143 4.8993
# 4 -2.0932 12.9570 17.1080 20.1619 3.1581 -3.1595
# 5 -0.6169 -2.5113 5.9143 3.1581 44.8721 2.7467
# 6 -4.3925 -11.5766 4.8993 -3.1595 2.7467 24.0845
#
#
#
# Elastic Compliance Matrix: (Units=1/GPa)
#
#
# Indices 1 2 3 4 5 6 
#
# 1 0.015274 -0.001150 -0.008023 0.009909 0.000191 0.005143
# 2 -0.001150 0.013359 -0.001793 -0.006474 0.001081 0.005604
# 3 -0.008023 -0.001793 0.016195 -0.014447 -0.000875 -0.007415
# 4 0.009909 -0.006474 -0.014447 0.069408 -0.003891 0.011183
# 5 0.000191 0.001081 -0.000875 -0.003891 0.022884 -0.002388
# 6 0.005143 0.005604 -0.007415 0.011183 -0.002388 0.048400
#
#
# Mechanical properties :
#
#
# Convention : Reuss Voigt Hill
#
# Bulk Modulus (GPa) = 43.68001 49.92996 46.80498
# Shear Modulus (GPa) = 23.24652 31.49194 27.36923
#
# Velocity S-wave (km/s) = 3.22856 3.75776 3.50317
# Velocity P-wave (km/s) = 5.78653 6.41997 6.11146
#
# Compressibility (1/GPa) = 0.02289377
#
# Stress axis : x y z
#
# Youngs Moduli (GPa) = 65.46937 74.85571 61.74850
#
# Poissons Ratio (x) = 0.08611 0.49542
# Poissons Ratio (y) = 0.07532 0.11075
# Poissons Ratio (z) = 0.52528 0.13425
#
# Static dielectric constant tensor:
#      x y z
#    x 4.227280 -0.127410 -0.052640 
#    y -0.127410 3.701810 0.129330 
#    z -0.052640 0.129330 4.330260 
# 
# 
# High freq. dielectric constant tensor:
#      x y z
#    x 1.893400 -0.007970 -0.003220 
#    y -0.007970 1.838310 0.011880 
#    z -0.003220 0.011880 1.899100 
# 
# From -- ./inp_files/272629.got.cif
#   From: 2010.06.25/outbox.cif.g09.slc.cpg/sg2_137_cif.got.tgz:272629.got - 2010.06.27 13:26:56.
