data_PCOD8006658
_publ_section_title
;
Structure prediction by ZEFSAII (Michael W. Deem and Ramdas Pophale) SiO2 
 PCOD8006658
Probable space group: P -1
;
_chemical_formula_sum "Si O2"
_cell_formula_units_Z 16
_cell_length_a 15.265237
_cell_length_b 12.413278
_cell_length_c 8.765990
_cell_angle_alpha 114.825346
_cell_angle_beta 111.172288
_cell_angle_gamma 28.561351
_cell_volume 720.665107
_symmetry_space_group_name_H-M "P -1"
_symmetry_group_IT_number 2
_symmetry_cell_setting 'triclinic'
loop_
_space_group_symop_operation_xyz
x,y,z
-x,-y,-z
loop_
_atom_site_type_symbol
_atom_site_label
_atom_site_fract_x
_atom_site_fract_y
_atom_site_fract_z
Si Si1 0.950931 0.112901 0.378451
Si Si2 0.357511 0.895532 0.258329
Si Si3 0.178850 0.150887 0.982908
Si Si4 0.163656 0.344593 0.844468
Si Si5 0.680913 0.220227 0.316217
Si Si6 0.672415 0.297798 0.705126
Si Si7 0.983772 0.683588 0.493412
Si Si8 0.649747 0.759156 0.370591
O O1 0.756975 0.260423 0.308202
O O2 0.944713 0.262108 0.472474
O O3 0.000000 0.000000 0.500000
O O4 0.118109 0.888768 0.238617
O O5 0.381284 0.730282 0.206364
O O6 0.563603 0.721735 0.305901
O O7 0.202991 0.115242 0.405876
O O8 0.303907 0.984815 0.106055
O O9 0.245050 0.198457 0.964009
O O10 0.193866 0.024969 0.800460
O O11 0.969199 0.400015 0.049891
O O12 0.331125 0.214837 0.775183
O O13 0.047677 0.364794 0.701459
O O14 0.676674 0.222395 0.499358
O O15 0.472686 0.437443 0.247329
O O16 0.148826 0.446835 0.553248
O O17 0.500000 0.000000 0.500000
#
# Coordination Sequence:
#
# PCOD8006658 Si02
#       8
#     2   2   2   2   2   2   2   2
#     4   9  18  35  62  90 115 152 202 255 305 357
#     4  11  22  40  63  93 126 168 203 261 315 371
#     4  11  24  41  64  87 139 170 197 256 324 375
#     4  11  23  43  63  92 126 173 209 254 315 374
#     4  10  20  40  62  93 122 163 205 259 311 367
#     4   9  20  38  65  89 120 157 216 259 301 365
#     4  11  21  42  67  91 124 161 214 265 305 363
#     4  12  23  37  67  95 118 163 224 260 300 366
#
# _framework density 22.201715
#
# number of rings (size 3 to 8) (size 9 to 14) (size 15 to 20)
#    0.000    1.500    2.500    4.125    0.000    1.000 
#    2.250    2.500    0.000    0.000    0.000    0.000 
#    0.000    0.000    0.000    0.000    0.000    0.000 
#
# Total GULP energy -198221.907004 kJ/mol
# GULP energy per Si atom -12388.869188 kJ/mol
# Density = 2.215118 g / cm^3
# Si number density = 22.201715 Si / 1000 Ang^3
#
#
#
# Elastic Constant Matrix: (Units=GPa)
#
#
# Indices 1 2 3 4 5 6 
#
# 1 107.2117 19.4928 18.6303 6.2691 -26.5360 -0.2711
# 2 19.4928 85.9287 27.4370 5.9354 -10.5268 8.6029
# 3 18.6303 27.4370 71.4794 15.3268 -14.5766 8.0315
# 4 6.2691 5.9354 15.3268 38.4199 7.2401 -2.7551
# 5 -26.5360 -10.5268 -14.5766 7.2401 34.6093 1.2880
# 6 -0.2711 8.6029 8.0315 -2.7551 1.2880 31.9903
#
#
#
# Elastic Compliance Matrix: (Units=1/GPa)
#
#
# Indices 1 2 3 4 5 6 
#
# 1 0.012181 -0.001329 0.000161 -0.003712 0.009790 -0.000294
# 2 -0.001329 0.013801 -0.004110 -0.000803 0.001721 -0.002829
# 3 0.000161 -0.004110 0.020102 -0.009577 0.009535 -0.005149
# 4 -0.003712 -0.000803 -0.009577 0.033729 -0.014406 0.006074
# 5 0.009790 0.001721 0.009535 -0.014406 0.044169 -0.005793
# 6 -0.000294 -0.002829 -0.005149 0.006074 -0.005793 0.034067
#
#
# Mechanical properties :
#
#
# Convention : Reuss Voigt Hill
#
# Bulk Modulus (GPa) = 28.14771 43.97113 36.05942
# Shear Modulus (GPa) = 27.70898 34.27456 30.99177
#
# Velocity S-wave (km/s) = 3.53662 3.93336 3.74025
# Velocity P-wave (km/s) = 5.42057 6.36213 5.91013
#
# Compressibility (1/GPa) = 0.03552687
#
# Stress axis : x y z
#
# Youngs Moduli (GPa) = 82.09789 72.45891 49.74602
#
# Poissons Ratio (x) = 0.09633 -0.00801
# Poissons Ratio (y) = 0.10914 0.20446
# Poissons Ratio (z) = -0.01322 0.29781
#
# Static dielectric constant tensor:
#      x y z
#    x 5.843340 -0.611510 -0.222480 
#    y -0.611510 4.403900 0.066560 
#    z -0.222480 0.066560 3.792480 
# 
# 
# High freq. dielectric constant tensor:
#      x y z
#    x 1.874720 0.010690 -0.028050 
#    y 0.010690 1.884320 0.007940 
#    z -0.028050 0.007940 1.845860 
# 
# From -- ./inp_files/308087.got.cif
#   From: 2010.06.25/outbox.cif.g09.slc.cpg/sg2_155_cif.got.tgz:308087.got - 2010.06.27 13:26:56.
