data_PCOD8006501
_publ_section_title
;
Structure prediction by ZEFSAII (Michael W. Deem and Ramdas Pophale) SiO2 
 PCOD8006501
Probable space group: P -1
;
_chemical_formula_sum "Si O2"
_cell_formula_units_Z 16
_cell_length_a 22.505227
_cell_length_b 6.799993
_cell_length_c 16.940446
_cell_angle_alpha 98.781868
_cell_angle_beta 20.918702
_cell_angle_gamma 111.074129
_cell_volume 721.411682
_symmetry_space_group_name_H-M "P -1"
_symmetry_group_IT_number 2
_symmetry_cell_setting 'triclinic'
loop_
_space_group_symop_operation_xyz
x,y,z
-x,-y,-z
loop_
_atom_site_type_symbol
_atom_site_label
_atom_site_fract_x
_atom_site_fract_y
_atom_site_fract_z
Si Si1 0.237104 0.996901 0.876758
Si Si2 0.303623 0.697431 0.673125
Si Si3 0.831886 0.730759 0.290087
Si Si4 0.718367 0.370188 0.552914
Si Si5 0.577217 0.931693 0.593971
Si Si6 0.358715 0.284065 0.097645
Si Si7 0.976739 0.258290 0.539939
Si Si8 0.130721 0.749693 0.150261
O O1 0.208443 0.739506 0.870073
O O2 0.472309 0.247016 0.581242
O O3 0.188151 0.968633 0.029632
O O4 0.064252 0.991532 0.038652
O O5 0.144696 0.413993 0.819257
O O6 0.363389 0.915540 0.551034
O O7 0.753599 0.559140 0.453601
O O8 0.668722 0.777696 0.469605
O O9 0.912849 0.486770 0.378470
O O10 0.677611 0.122140 0.554396
O O11 0.510567 0.291407 0.848554
O O12 0.323709 0.733801 0.908521
O O13 0.208025 0.334251 0.245368
O O14 0.198583 0.991138 0.310125
O O15 0.500000 0.500000 0.000000
O O16 0.903231 0.182192 0.717479
O O17 0.000000 0.500000 0.500000
#
# Coordination Sequence:
#
# PCOD8006501 Si02
#       8
#     2   2   2   2   2   2   2   2
#     4   9  19  37  61  84 118 157 197 241 298 354
#     4   9  19  38  59  84 119 158 194 246 295 348
#     4  10  21  35  60  87 115 161 197 239 297 354
#     4  10  21  39  59  84 121 158 200 243 300 360
#     4  10  21  37  58  87 123 154 199 251 291 357
#     4  11  23  43  67  90 121 162 204 254 310 371
#     4  11  25  42  64  94 124 159 203 257 308 366
#     4  10  20  40  59  83 123 158 193 248 302 354
#
# _framework density 22.178737999999999
#
# number of rings (size 3 to 8) (size 9 to 14) (size 15 to 20)
#    0.000    2.000    2.500    0.375    1.750    2.000 
#    2.250    5.625    0.000    0.000    0.000    0.000 
#    0.000    0.000    0.000    0.000    0.000    0.000 
#
# Total GULP energy -198281.260397 kJ/mol
# GULP energy per Si atom -12392.578775 kJ/mol
# Density = 2.212826 g / cm^3
# Si number density = 22.178738 Si / 1000 Ang^3
#
#
#
# Elastic Constant Matrix: (Units=GPa)
#
#
# Indices 1 2 3 4 5 6 
#
# 1 60.4631 26.6270 22.3243 -10.1761 -20.7215 12.3244
# 2 26.6270 92.3651 9.0094 -7.1816 -9.4578 -3.9501
# 3 22.3243 9.0094 84.9574 -2.6663 -25.5797 -9.0562
# 4 -10.1761 -7.1816 -2.6663 30.5684 8.8869 -11.2230
# 5 -20.7215 -9.4578 -25.5797 8.8869 40.8115 7.2236
# 6 12.3244 -3.9501 -9.0562 -11.2230 7.2236 27.9071
#
#
#
# Elastic Compliance Matrix: (Units=1/GPa)
#
#
# Indices 1 2 3 4 5 6 
#
# 1 0.031331 -0.008262 -0.005163 -0.004933 0.015862 -0.022771
# 2 -0.008262 0.013524 0.000879 0.004453 -0.002967 0.008407
# 3 -0.005163 0.000879 0.015549 0.000204 0.006236 0.005918
# 4 -0.004933 0.004453 0.000204 0.046143 -0.015915 0.025551
# 5 0.015862 -0.002967 0.006236 -0.015915 0.043317 -0.023014
# 6 -0.022771 0.008407 0.005918 0.025551 -0.023014 0.065232
#
#
# Mechanical properties :
#
#
# Convention : Reuss Voigt Hill
#
# Bulk Modulus (GPa) = 28.31788 39.30079 33.80934
# Shear Modulus (GPa) = 19.84455 31.84575 25.84515
#
# Velocity S-wave (km/s) = 2.99449 3.79340 3.41737
# Velocity P-wave (km/s) = 4.97511 6.07824 5.55413
#
# Compressibility (1/GPa) = 0.03531337
#
# Stress axis : x y z
#
# Youngs Moduli (GPa) = 31.91739 73.94023 64.31309
#
# Poissons Ratio (x) = 0.61087 0.33205
# Poissons Ratio (y) = 0.26369 -0.05655
# Poissons Ratio (z) = 0.16479 -0.06501
#
# Static dielectric constant tensor:
#      x y z
#    x 4.164620 0.447590 -0.283260 
#    y 0.447590 3.729790 0.071970 
#    z -0.283260 0.071970 4.364150 
# 
# 
# High freq. dielectric constant tensor:
#      x y z
#    x 1.866200 0.029440 -0.022560 
#    y 0.029440 1.841580 0.010290 
#    z -0.022560 0.010290 1.895520 
# 
# From -- ./inp_files/56413.got.cif
#   From: 2010.06.25/outbox.cif.g09.slc.cpg/sg2_29_cif.got.tgz:56413.got - 2010.06.27 13:26:56.
