data_PCOD8006856
_publ_section_title
;
Structure prediction by ZEFSAII (Michael W. Deem and Ramdas Pophale) SiO2 
 PCOD8006856
Probable space group: P -1
;
_chemical_formula_sum "Si O2"
_cell_formula_units_Z 16
_cell_length_a 9.537517
_cell_length_b 17.660802
_cell_length_c 12.218707
_cell_angle_alpha 35.596500
_cell_angle_beta 112.772581
_cell_angle_gamma 85.501016
_cell_volume 751.853266
_symmetry_space_group_name_H-M "P -1"
_symmetry_group_IT_number 2
_symmetry_cell_setting 'triclinic'
loop_
_space_group_symop_operation_xyz
x,y,z
-x,-y,-z
loop_
_atom_site_type_symbol
_atom_site_label
_atom_site_fract_x
_atom_site_fract_y
_atom_site_fract_z
Si Si1 0.822701 0.221929 0.668212
Si Si2 0.854198 0.516700 0.026313
Si Si3 0.815617 0.241628 0.275219
Si Si4 0.028246 0.597401 0.560169
Si Si5 0.725446 0.625225 0.313767
Si Si6 0.637587 0.177180 0.489008
Si Si7 0.741011 0.188827 0.088914
Si Si8 0.916041 0.254403 0.879349
O O1 0.624974 0.281437 0.468167
O O2 0.750422 0.313103 0.660343
O O3 0.933370 0.271813 0.575762
O O4 0.000000 0.000000 0.000000
O O5 0.820402 0.388950 0.133005
O O6 0.962657 0.463676 0.241720
O O7 0.605522 0.736367 0.698180
O O8 0.000000 0.500000 0.000000
O O9 0.690170 0.237024 0.333275
O O10 0.678127 0.296895 0.057535
O O11 0.071297 0.038458 0.573466
O O12 0.786461 0.721660 0.282085
O O13 0.212088 0.415324 0.748738
O O14 0.888204 0.426374 0.667060
O O15 0.466466 0.754092 0.096812
O O16 0.825744 0.947313 0.827045
O O17 0.827865 0.251172 0.967686
#
# Coordination Sequence:
#
# PCOD8006856 Si02
#       8
#     2   2   2   2   2   2   2   2
#     4   9  18  36  62  88 113 153 210 249 291 364
#     4  12  26  40  60  92 127 160 200 260 311 359
#     4  10  22  40  64  89 121 162 210 248 297 372
#     4  10  22  40  59  90 123 160 208 243 313 373
#     4  10  21  39  63  87 126 161 194 256 308 360
#     4  10  20  40  65  84 118 163 209 250 301 363
#     4  10  21  38  63  91 119 157 207 253 299 356
#     4   9  20  35  62  92 114 155 210 246 298 366
#
# _framework density 21.280749
#
# number of rings (size 3 to 8) (size 9 to 14) (size 15 to 20)
#    0.000    2.000    1.250    1.500    5.250    1.000 
#    9.000    1.250    0.000    0.000    0.000    0.000 
#    0.000    0.000    0.000    0.000    0.000    0.000 
#
# Total GULP energy -198292.316230 kJ/mol
# GULP energy per Si atom -12393.269764 kJ/mol
# Density = 2.123231 g / cm^3
# Si number density = 21.280749 Si / 1000 Ang^3
#
#
#
# Elastic Constant Matrix: (Units=GPa)
#
#
# Indices 1 2 3 4 5 6 
#
# 1 75.9460 14.3292 43.7449 6.9594 10.7042 -4.8401
# 2 14.3292 72.4259 33.2423 23.2756 3.4989 -6.8618
# 3 43.7449 33.2423 75.0956 18.7546 11.3430 -4.2501
# 4 6.9594 23.2756 18.7546 28.3493 -3.2281 -2.9027
# 5 10.7042 3.4989 11.3430 -3.2281 35.5574 8.4948
# 6 -4.8401 -6.8618 -4.2501 -2.9027 8.4948 29.8558
#
#
#
# Elastic Compliance Matrix: (Units=1/GPa)
#
#
# Indices 1 2 3 4 5 6 
#
# 1 0.020483 0.001436 -0.012483 0.002023 -0.002829 0.002875
# 2 0.001436 0.021222 -0.006234 -0.013578 -0.002637 0.003653
# 3 -0.012483 -0.006234 0.026682 -0.009978 -0.005253 0.000866
# 4 0.002023 -0.013578 -0.009978 0.053402 0.009146 -0.001623
# 5 -0.002829 -0.002637 -0.005253 0.009146 0.034292 -0.010680
# 6 0.002875 0.003653 0.000866 -0.001623 -0.010680 0.037804
#
#
# Mechanical properties :
#
#
# Convention : Reuss Voigt Hill
#
# Bulk Modulus (GPa) = 29.56478 45.12226 37.34352
# Shear Modulus (GPa) = 20.85747 27.56255 24.21001
#
# Velocity S-wave (km/s) = 3.13407 3.60278 3.37656
# Velocity P-wave (km/s) = 5.19802 6.20935 5.72605
#
# Compressibility (1/GPa) = 0.03382403
#
# Stress axis : x y z
#
# Youngs Moduli (GPa) = 48.82142 47.12158 37.47847
#
# Poissons Ratio (x) = -0.06765 0.46783
# Poissons Ratio (y) = -0.07009 0.23366
# Poissons Ratio (z) = 0.60941 0.29377
#
# Static dielectric constant tensor:
#      x y z
#    x 3.089540 -1.127670 -0.030040 
#    y -1.127670 1.947070 0.216420 
#    z -0.030040 0.216420 3.936960 
# 
# 
# High freq. dielectric constant tensor:
#      x y z
#    x 1.822280 0.000370 -0.006650 
#    y 0.000370 1.839450 0.016670 
#    z -0.006650 0.016670 1.832750 
# 
# From -- ./inp_files/274632.got.cif
#   From: 2010.06.25/outbox.cif.g09.slc.cpg/sg2_138_cif.got.tgz:274632.got - 2010.06.27 13:26:56.
