data_PCOD8006817
_publ_section_title
;
Structure prediction by ZEFSAII (Michael W. Deem and Ramdas Pophale) SiO2 
 PCOD8006817
Probable space group: P -1
;
_chemical_formula_sum "Si O2"
_cell_formula_units_Z 14
_cell_length_a 5.276345
_cell_length_b 16.493695
_cell_length_c 8.863141
_cell_angle_alpha 83.851264
_cell_angle_beta 52.930484
_cell_angle_gamma 78.390665
_cell_volume 602.755954
_symmetry_space_group_name_H-M "P -1"
_symmetry_group_IT_number 2
_symmetry_cell_setting 'triclinic'
loop_
_space_group_symop_operation_xyz
x,y,z
-x,-y,-z
loop_
_atom_site_type_symbol
_atom_site_label
_atom_site_fract_x
_atom_site_fract_y
_atom_site_fract_z
Si Si1 0.859945 0.211785 0.220135
Si Si2 0.396095 0.801495 0.018659
Si Si3 0.327462 0.930375 0.509706
Si Si4 0.607089 0.367567 0.776717
Si Si5 0.730758 0.380959 0.401622
Si Si6 0.905747 0.544877 0.257625
Si Si7 0.707988 0.043744 0.804777
O O1 0.763810 0.210384 0.080822
O O2 0.631265 0.156903 0.399997
O O3 0.777800 0.305060 0.287021
O O4 0.239329 0.178721 0.120920
O O5 0.403668 0.720604 0.131285
O O6 0.172278 0.881497 0.160989
O O7 0.459835 0.912357 0.295026
O O8 0.500000 0.000000 0.500000
O O9 0.956096 0.970000 0.657534
O O10 0.816638 0.352182 0.549605
O O11 0.245393 0.415411 0.854787
O O12 0.236358 0.576123 0.172252
O O13 0.962979 0.444780 0.251187
O O14 0.356150 0.426560 0.519802
O O15 0.500000 0.000000 0.000000
#
# Coordination Sequence:
#
# PCOD8006817 Si02
#       7
#     2   2   2   2   2   2   2
#     4  12  27  43  65 101 137 175 229 276 344 405
#     4  12  27  43  66  97 141 181 216 286 342 399
#     4  11  26  44  75 104 132 186 229 283 344 409
#     4  10  20  40  64  93 125 170 229 265 340 401
#     4   9  22  39  69  90 132 169 232 278 337 407
#     4   9  20  37  70  91 124 175 227 280 339 401
#     4  11  24  47  71  99 142 176 230 279 344 411
#
# _framework density 23.226648000000001
#
# number of rings (size 3 to 8) (size 9 to 14) (size 15 to 20)
#    0.857    0.571    1.429    3.000    6.000    2.286 
#    0.000    4.286    0.000    0.000    0.000    0.000 
#    0.000    0.000    0.000    0.000    0.000    0.000 
#
# Total GULP energy -173457.335684 kJ/mol
# GULP energy per Si atom -12389.809692 kJ/mol
# Density = 2.317378 g / cm^3
# Si number density = 23.226648 Si / 1000 Ang^3
#
#
#
# Elastic Constant Matrix: (Units=GPa)
#
#
# Indices 1 2 3 4 5 6 
#
# 1 113.4261 30.0534 28.5519 1.8188 30.6729 23.0156
# 2 30.0534 185.8253 59.5827 -5.7075 29.6199 22.3174
# 3 28.5519 59.5827 100.0914 -11.2588 29.1957 3.8778
# 4 1.8188 -5.7075 -11.2588 40.3761 0.9822 3.4852
# 5 30.6729 29.6199 29.1957 0.9822 31.0778 0.0611
# 6 23.0156 22.3174 3.8778 3.4852 0.0611 35.2640
#
#
#
# Elastic Compliance Matrix: (Units=1/GPa)
#
#
# Indices 1 2 3 4 5 6 
#
# 1 0.014976 0.001454 0.000135 0.000895 -0.016301 -0.010769
# 2 0.001454 0.007760 -0.002950 0.000841 -0.006075 -0.005608
# 3 0.000135 -0.002950 0.015794 0.004311 -0.012294 -0.000363
# 4 0.000895 0.000841 0.004311 0.026571 -0.006566 -0.004205
# 5 -0.016301 -0.006075 -0.012294 -0.006566 0.065780 0.016370
# 6 -0.010769 -0.005608 -0.000363 -0.004205 0.016370 0.039362
#
#
# Mechanical properties :
#
#
# Convention : Reuss Voigt Hill
#
# Bulk Modulus (GPa) = 27.92767 70.63541 49.28154
# Shear Modulus (GPa) = 27.04147 40.08721 33.56434
#
# Velocity S-wave (km/s) = 3.41580 4.15892 3.80554
# Velocity P-wave (km/s) = 5.25424 7.31707 6.36972
#
# Compressibility (1/GPa) = 0.03580679
#
# Stress axis : x y z
#
# Youngs Moduli (GPa) = 66.77331 128.86861 63.31641
#
# Poissons Ratio (x) = -0.18734 -0.00856
# Poissons Ratio (y) = -0.09707 0.18680
# Poissons Ratio (z) = -0.00903 0.38020
#
# Static dielectric constant tensor:
#      x y z
#    x 4.031810 -0.034960 0.159710 
#    y -0.034960 4.304350 -0.162070 
#    z 0.159710 -0.162070 4.183470 
# 
# 
# High freq. dielectric constant tensor:
#      x y z
#    x 1.899080 0.007450 0.016130 
#    y 0.007450 1.938980 -0.007260 
#    z 0.016130 -0.007260 1.914910 
# 
# From -- ./inp_files/136210.got.cif
#   From: 2010.06.25/outbox.cif.g09.slc.cpg/sg2_69_cif.got.tgz:136210.got - 2010.06.27 13:26:56.
