data_PCOD8006238
_publ_section_title
;
Structure prediction by ZEFSAII (Michael W. Deem and Ramdas Pophale) SiO2 
 PCOD8006238
Probable space group: P -1
;
_chemical_formula_sum "Si O2"
_cell_formula_units_Z 14
_cell_length_a 14.171300
_cell_length_b 9.279231
_cell_length_c 10.485156
_cell_angle_alpha 60.577281
_cell_angle_beta 115.368899
_cell_angle_gamma 151.991304
_cell_volume 563.925155
_symmetry_space_group_name_H-M "P -1"
_symmetry_group_IT_number 2
_symmetry_cell_setting 'triclinic'
loop_
_space_group_symop_operation_xyz
x,y,z
-x,-y,-z
loop_
_atom_site_type_symbol
_atom_site_label
_atom_site_fract_x
_atom_site_fract_y
_atom_site_fract_z
Si Si1 0.412271 0.091785 0.437462
Si Si2 0.122728 0.945541 0.436680
Si Si3 0.817093 0.016502 0.984866
Si Si4 0.719393 0.395848 0.307633
Si Si5 0.887214 0.434709 0.720997
Si Si6 0.392795 0.552608 0.022858
Si Si7 0.840726 0.651253 0.790366
O O1 0.396141 0.937362 0.610026
O O2 0.283667 0.837794 0.359363
O O3 0.334172 0.163134 0.409036
O O4 0.635113 0.404338 0.369110
O O5 0.954925 0.683562 0.344901
O O6 0.072665 0.780298 0.610385
O O7 0.143261 0.169363 0.373677
O O8 0.630773 0.844581 0.028537
O O9 0.953537 0.350866 0.861552
O O10 0.727608 0.783130 0.920226
O O11 0.949970 0.084907 0.126062
O O12 0.684389 0.424903 0.137677
O O13 0.793321 0.425914 0.778667
O O14 0.341251 0.561244 0.125440
#
# Coordination Sequence:
#
# PCOD8006238 Si02
#       7
#     2   2   2   2   2   2   2
#     4  10  22  40  68  93 122 162 219 256 305 364
#     4  11  24  42  68  92 122 168 215 254 306 369
#     4  11  24  44  63  94 125 165 213 255 301 377
#     4  10  20  39  66  96 119 160 213 269 296 358
#     4  11  23  43  63  92 132 162 208 257 310 376
#     4  11  24  40  70  91 126 161 215 258 308 367
#     4  12  26  40  64  95 131 168 197 258 324 366
#
# _framework density 24.825989
#
# number of rings (size 3 to 8) (size 9 to 14) (size 15 to 20)
#    0.000    1.143    2.857    3.857    6.000    0.571 
#    0.000    2.857    0.000   10.286    0.000    0.000 
#    0.000    0.000    0.000    0.000    0.000    0.000 
#
# Total GULP energy -173597.932066 kJ/mol
# GULP energy per Si atom -12399.852290 kJ/mol
# Density = 2.476948 g / cm^3
# Si number density = 24.825989 Si / 1000 Ang^3
#
#
#
# Elastic Constant Matrix: (Units=GPa)
#
#
# Indices 1 2 3 4 5 6 
#
# 1 129.5454 9.6185 51.1980 -0.0085 6.9966 3.4398
# 2 9.6185 17.7199 13.1171 -5.8362 3.4587 2.4169
# 3 51.1980 13.1171 128.8444 -29.4784 10.8143 -5.7424
# 4 -0.0085 -5.8362 -29.4784 24.4489 -5.7867 6.6127
# 5 6.9966 3.4587 10.8143 -5.7867 41.7252 0.4277
# 6 3.4398 2.4169 -5.7424 6.6127 0.4277 44.0056
#
#
#
# Elastic Compliance Matrix: (Units=1/GPa)
#
#
# Indices 1 2 3 4 5 6 
#
# 1 0.010148 -0.003847 -0.005270 -0.007482 -0.001053 -0.000135
# 2 -0.003847 0.065930 -0.001956 0.014389 -0.002259 -0.005716
# 3 -0.005270 -0.001956 0.013751 0.016069 -0.000289 -0.000098
# 4 -0.007482 0.014389 0.016069 0.067197 0.005301 -0.008258
# 5 -0.001053 -0.002259 -0.000289 0.005301 0.025149 -0.000872
# 6 -0.000135 -0.005716 -0.000098 -0.008258 -0.000872 0.024285
#
#
# Mechanical properties :
#
#
# Convention : Reuss Voigt Hill
#
# Bulk Modulus (GPa) = 14.77516 47.10853 30.94185
# Shear Modulus (GPa) = 19.90708 35.51435 27.71072
#
# Velocity S-wave (km/s) = 2.83479 3.78634 3.34458
# Velocity P-wave (km/s) = 4.08401 6.17510 5.23503
#
# Compressibility (1/GPa) = 0.06768115
#
# Stress axis : x y z
#
# Youngs Moduli (GPa) = 98.54456 15.16766 72.72281
#
# Poissons Ratio (x) = 0.05835 0.38325
# Poissons Ratio (y) = 0.37913 0.14227
# Poissons Ratio (z) = 0.51933 0.02967
#
# Static dielectric constant tensor:
#      x y z
#    x 4.580580 0.186120 0.225380 
#    y 0.186120 4.003020 -0.292480 
#    z 0.225380 -0.292480 4.795510 
# 
# 
# High freq. dielectric constant tensor:
#      x y z
#    x 1.999310 0.016260 0.015500 
#    y 0.016260 1.940590 -0.017320 
#    z 0.015500 -0.017320 2.000840 
# 
# From -- ./inp_files/416629.got.cif
#   From: 2010.06.25/outbox.cif.g09.slc.cpg/sg2_209_cif.got.tgz:416629.got - 2010.06.27 13:26:56.
