data_PCOD8006700
_publ_section_title
;
Structure prediction by ZEFSAII (Michael W. Deem and Ramdas Pophale) SiO2 
 PCOD8006700
Probable space group: P -1
;
_chemical_formula_sum "Si O2"
_cell_formula_units_Z 16
_cell_length_a 8.699312
_cell_length_b 11.866459
_cell_length_c 10.975794
_cell_angle_alpha 123.331981
_cell_angle_beta 75.455044
_cell_angle_gamma 131.469953
_cell_volume 697.728815
_symmetry_space_group_name_H-M "P -1"
_symmetry_group_IT_number 2
_symmetry_cell_setting 'triclinic'
loop_
_space_group_symop_operation_xyz
x,y,z
-x,-y,-z
loop_
_atom_site_type_symbol
_atom_site_label
_atom_site_fract_x
_atom_site_fract_y
_atom_site_fract_z
Si Si1 0.573953 0.498576 0.117197
Si Si2 0.572437 0.988520 0.348333
Si Si3 0.185759 0.890067 0.978560
Si Si4 0.192299 0.355437 0.268661
Si Si5 0.789988 0.882522 0.366018
Si Si6 0.604790 0.210334 0.960689
Si Si7 0.810137 0.880348 0.697588
Si Si8 0.439503 0.735764 0.540602
O O1 0.378693 0.389176 0.179948
O O2 0.744841 0.700296 0.245209
O O3 0.500000 0.500000 0.000000
O O4 0.672625 0.403975 0.052648
O O5 0.669571 0.176903 0.375705
O O6 0.500000 0.000000 0.500000
O O7 0.726403 0.944926 0.300648
O O8 0.380398 0.838982 0.209895
O O9 0.004286 0.742214 0.837818
O O10 0.368203 0.057820 0.962882
O O11 0.243948 0.785929 0.976898
O O12 0.107198 0.958510 0.131630
O O13 0.145532 0.241218 0.328173
O O14 0.260031 0.539563 0.412437
O O15 0.646719 0.858506 0.488369
O O16 0.045495 0.036133 0.406990
O O17 0.558196 0.758115 0.655284
#
# Coordination Sequence:
#
# PCOD8006700 Si02
#       8
#     2   2   2   2   2   2   2   2
#     4  11  21  38  64  96 129 164 212 271 323 374
#     4  10  20  40  63  88 125 176 209 254 322 391
#     4  11  24  40  67  97 133 168 219 265 330 386
#     4  11  24  41  63  99 126 170 218 269 323 381
#     4  10  22  38  65  95 129 168 216 263 324 383
#     4  11  22  42  65  97 131 172 214 271 326 383
#     4  12  21  42  66  97 127 170 222 267 322 388
#     4  10  23  42  64  92 134 171 215 266 326 381
#
# _framework density 22.931546999999998
#
# number of rings (size 3 to 8) (size 9 to 14) (size 15 to 20)
#    0.000    1.250    3.750    2.625    0.000    0.000 
#    0.000   12.500    0.000    0.000    0.000    0.000 
#    0.000    0.000    0.000    0.000    0.000    0.000 
#
# Total GULP energy -198260.372496 kJ/mol
# GULP energy per Si atom -12391.273281 kJ/mol
# Density = 2.287935 g / cm^3
# Si number density = 22.931547 Si / 1000 Ang^3
#
#
#
# Elastic Constant Matrix: (Units=GPa)
#
#
# Indices 1 2 3 4 5 6 
#
# 1 90.7742 39.4303 27.6009 43.5600 -1.0169 -27.7993
# 2 39.4303 83.4314 23.6884 13.4616 -12.7623 -9.1733
# 3 27.6009 23.6884 84.2774 27.9645 -10.3684 -10.8766
# 4 43.5600 13.4616 27.9645 41.7907 -3.3784 -10.1260
# 5 -1.0169 -12.7623 -10.3684 -3.3784 35.2184 12.6554
# 6 -27.7993 -9.1733 -10.8766 -10.1260 12.6554 42.2530
#
#
#
# Elastic Compliance Matrix: (Units=1/GPa)
#
#
# Indices 1 2 3 4 5 6 
#
# 1 0.036984 -0.012971 0.003385 -0.033245 -0.012335 0.018115
# 2 -0.012971 0.018274 -0.003753 0.009419 0.008094 -0.005700
# 3 0.003385 -0.003753 0.016505 -0.012717 0.001611 0.002131
# 4 -0.033245 0.009419 -0.012717 0.062138 0.008539 -0.010767
# 5 -0.012335 0.008094 0.001611 0.008539 0.037725 -0.015196
# 6 0.018115 -0.005700 0.002131 -0.010767 -0.015196 0.036867
#
#
# Mechanical properties :
#
#
# Convention : Reuss Voigt Hill
#
# Bulk Modulus (GPa) = 22.18098 48.88023 35.53060
# Shear Modulus (GPa) = 19.98402 35.03665 27.51033
#
# Velocity S-wave (km/s) = 2.95526 3.91305 3.46739
# Velocity P-wave (km/s) = 4.61935 6.46359 5.61767
#
# Compressibility (1/GPa) = 0.04508368
#
# Stress axis : x y z
#
# Youngs Moduli (GPa) = 27.03861 54.72405 60.58816
#
# Poissons Ratio (x) = 0.70983 -0.20509
# Poissons Ratio (y) = 0.35072 0.22741
# Poissons Ratio (z) = -0.09152 0.20540
#
# Static dielectric constant tensor:
#      x y z
#    x 4.493570 -0.465740 0.032540 
#    y -0.465740 4.188910 -0.088560 
#    z 0.032540 -0.088560 4.179110 
# 
# 
# High freq. dielectric constant tensor:
#      x y z
#    x 1.907830 -0.027130 0.002190 
#    y -0.027130 1.898190 -0.004220 
#    z 0.002190 -0.004220 1.913350 
# 
# From -- ./inp_files/227520.got.cif
#   From: 2010.06.25/outbox.cif.g09.slc.cpg/sg2_114_cif.got.tgz:227520.got - 2010.06.27 13:26:56.
