data_PCOD8006386
_publ_section_title
;
Structure prediction by ZEFSAII (Michael W. Deem and Ramdas Pophale) SiO2 
 PCOD8006386
Probable space group: P -1
;
_chemical_formula_sum "Si O2"
_cell_formula_units_Z 14
_cell_length_a 9.341317
_cell_length_b 9.298724
_cell_length_c 11.850893
_cell_angle_alpha 124.784788
_cell_angle_beta 126.799978
_cell_angle_gamma 60.735662
_cell_volume 659.821258
_symmetry_space_group_name_H-M "P -1"
_symmetry_group_IT_number 2
_symmetry_cell_setting 'triclinic'
loop_
_space_group_symop_operation_xyz
x,y,z
-x,-y,-z
loop_
_atom_site_type_symbol
_atom_site_label
_atom_site_fract_x
_atom_site_fract_y
_atom_site_fract_z
Si Si1 0.758197 0.831987 0.602632
Si Si2 0.835126 0.660825 0.955648
Si Si3 0.138024 0.936622 0.825627
Si Si4 0.703664 0.534075 0.604558
Si Si5 0.420692 0.057204 0.655326
Si Si6 0.176340 0.855629 0.553602
Si Si7 0.484463 0.166634 0.979876
O O1 0.729477 0.648086 0.558426
O O2 0.717388 0.822417 0.445515
O O3 0.960389 0.860770 0.732607
O O4 0.622207 0.002543 0.672470
O O5 0.761615 0.632332 0.784366
O O6 0.661744 0.667063 0.960367
O O7 0.000000 0.500000 0.000000
O O8 0.901179 0.849015 0.072943
O O9 0.215408 0.895799 0.718297
O O10 0.303496 0.818344 0.926414
O O11 0.500000 0.500000 0.500000
O O12 0.848112 0.344641 0.569894
O O13 0.413046 0.157100 0.815128
O O14 0.348419 0.876826 0.566632
O O15 0.000000 0.000000 0.500000
O O16 0.500000 0.000000 0.000000
#
# Coordination Sequence:
#
# PCOD8006386 Si02
#       7
#     2   2   2   2   2   2   2
#     4  11  25  42  68 106 138 178 228 293 337 397
#     4  11  24  41  70 103 134 179 230 277 333 409
#     4  11  23  42  70  99 137 176 231 273 344 401
#     4  12  26  44  70 101 138 177 233 282 340 407
#     4  11  22  41  70 101 135 179 229 275 341 407
#     4  12  22  42  72  98 131 185 226 275 340 417
#     4  10  20  39  68  98 131 180 227 268 334 410
#
# _framework density 21.217866000000001
#
# number of rings (size 3 to 8) (size 9 to 14) (size 15 to 20)
#    0.000    0.857    5.714    3.429    0.000    2.857 
#    0.000    0.000    0.000    5.143    0.000    0.000 
#    0.000    0.000    0.000    0.000    0.000    0.000 
#
# Total GULP energy -173523.318157 kJ/mol
# GULP energy per Si atom -12394.522725 kJ/mol
# Density = 2.116957 g / cm^3
# Si number density = 21.217866 Si / 1000 Ang^3
#
#
#
# Elastic Constant Matrix: (Units=GPa)
#
#
# Indices 1 2 3 4 5 6 
#
# 1 126.2877 56.4152 60.6330 -0.1064 17.6642 -1.7169
# 2 56.4152 104.8739 61.1623 11.8262 2.1170 -3.4582
# 3 60.6330 61.1623 136.0713 -7.5510 -10.6652 8.4590
# 4 -0.1064 11.8262 -7.5510 23.8346 -1.6895 -4.8311
# 5 17.6642 2.1170 -10.6652 -1.6895 49.0943 -3.7405
# 6 -1.7169 -3.4582 8.4590 -4.8311 -3.7405 43.6437
#
#
#
# Elastic Compliance Matrix: (Units=1/GPa)
#
#
# Indices 1 2 3 4 5 6 
#
# 1 0.012514 -0.004340 -0.004024 0.000686 -0.005123 0.000565
# 2 -0.004340 0.016732 -0.006284 -0.010127 -0.000783 0.001185
# 3 -0.004024 -0.006284 0.012843 0.007097 0.004603 -0.001965
# 4 0.000686 -0.010127 0.007097 0.050254 0.003745 0.003733
# 5 -0.005123 -0.000783 0.004603 0.003745 0.023472 0.001270
# 6 0.000565 0.001185 -0.001965 0.003733 0.001270 0.023932
#
#
# Mechanical properties :
#
#
# Convention : Reuss Voigt Hill
#
# Bulk Modulus (GPa) = 78.16601 80.40598 79.28599
# Shear Modulus (GPa) = 28.85053 35.91603 32.38328
#
# Velocity S-wave (km/s) = 3.69145 4.11874 3.91093
# Velocity P-wave (km/s) = 7.42218 7.78437 7.60543
#
# Compressibility (1/GPa) = 0.01279329
#
# Stress axis : x y z
#
# Youngs Moduli (GPa) = 79.90976 59.76730 77.86126
#
# Poissons Ratio (x) = 0.25941 0.31331
# Poissons Ratio (y) = 0.34683 0.48925
# Poissons Ratio (z) = 0.32155 0.37556
#
# Static dielectric constant tensor:
#      x y z
#    x 4.214500 -0.189210 0.106770 
#    y -0.189210 3.708720 -0.109670 
#    z 0.106770 -0.109670 3.917770 
# 
# 
# High freq. dielectric constant tensor:
#      x y z
#    x 1.843350 -0.014090 -0.001660 
#    y -0.014090 1.818170 -0.021490 
#    z -0.001660 -0.021490 1.837120 
# 
# From -- ./inp_files/207951.got.cif
#   From: 2010.06.25/outbox.cif.g09.slc.cpg/sg2_104_cif.got.tgz:207951.got - 2010.06.27 13:26:56.
