data_PCOD8006480
_publ_section_title
;
Structure prediction by ZEFSAII (Michael W. Deem and Ramdas Pophale) SiO2 
 PCOD8006480
Probable space group: P -1
;
_chemical_formula_sum "Si O2"
_cell_formula_units_Z 16
_cell_length_a 9.214309
_cell_length_b 11.751610
_cell_length_c 12.199978
_cell_angle_alpha 124.965696
_cell_angle_beta 100.311133
_cell_angle_gamma 49.175369
_cell_volume 777.368842
_symmetry_space_group_name_H-M "P -1"
_symmetry_group_IT_number 2
_symmetry_cell_setting 'triclinic'
loop_
_space_group_symop_operation_xyz
x,y,z
-x,-y,-z
loop_
_atom_site_type_symbol
_atom_site_label
_atom_site_fract_x
_atom_site_fract_y
_atom_site_fract_z
Si Si1 0.909799 0.281963 0.705479
Si Si2 0.768200 0.234701 0.311910
Si Si3 0.342905 0.804805 0.339934
Si Si4 0.922703 0.397113 0.539779
Si Si5 0.268996 0.206953 0.316667
Si Si6 0.677951 0.050136 0.357987
Si Si7 0.215690 0.941064 0.159782
Si Si8 0.471431 0.591144 0.843358
O O1 0.859399 0.150042 0.628968
O O2 0.975504 0.283318 0.594253
O O3 0.705713 0.495499 0.833756
O O4 0.109311 0.171469 0.747058
O O5 0.789291 0.380582 0.435554
O O6 0.687497 0.191604 0.375563
O O7 0.606061 0.327800 0.244227
O O8 0.983859 0.041026 0.189346
O O9 0.380768 0.889131 0.488788
O O10 0.308890 0.901274 0.272093
O O11 0.530254 0.574542 0.228178
O O12 0.799136 0.618137 0.670032
O O13 0.136405 0.298077 0.459711
O O14 0.506974 0.062920 0.291540
O O15 0.231880 0.082634 0.182591
O O16 0.334643 0.748976 0.003405
#
# Coordination Sequence:
#
# PCOD8006480 Si02
#       8
#     2   2   2   2   2   2   2   2
#     4  10  21  35  60  88 113 143 187 248 277 327
#     4  11  19  36  65  83 114 143 198 243 269 335
#     4  10  21  35  62  85 113 144 185 249 272 329
#     4  10  20  40  56  89 116 145 186 237 297 327
#     4  10  24  35  59  83 124 150 177 235 290 351
#     4  12  20  37  60  95 107 146 192 235 298 326
#     4  11  22  41  55  84 121 153 188 227 283 342
#     4  10  22  35  58  90 108 155 192 236 274 324
#
# _framework density 20.582249999999998
#
# number of rings (size 3 to 8) (size 9 to 14) (size 15 to 20)
#    0.750    0.750    2.500    4.125    0.000    3.500 
#    0.000    3.125    0.000    0.000    0.000    0.000 
#    0.000    0.000    0.000    0.000    0.000    0.000 
#
# Total GULP energy -198285.682670 kJ/mol
# GULP energy per Si atom -12392.855167 kJ/mol
# Density = 2.053540 g / cm^3
# Si number density = 20.582250 Si / 1000 Ang^3
#
#
#
# Elastic Constant Matrix: (Units=GPa)
#
#
# Indices 1 2 3 4 5 6 
#
# 1 74.9454 25.1467 10.0022 1.4068 0.4901 -4.7525
# 2 25.1467 105.7932 27.2392 5.5590 1.5294 -9.9409
# 3 10.0022 27.2392 48.1661 16.7198 -5.6637 1.4088
# 4 1.4068 5.5590 16.7198 32.7205 -0.9631 -7.8145
# 5 0.4901 1.5294 -5.6637 -0.9631 11.6029 0.1487
# 6 -4.7525 -9.9409 1.4088 -7.8145 0.1487 32.8315
#
#
#
# Elastic Compliance Matrix: (Units=1/GPa)
#
#
# Indices 1 2 3 4 5 6 
#
# 1 0.014663 -0.002850 -0.002058 0.001266 -0.001165 0.001655
# 2 -0.002850 0.012646 -0.008456 0.003226 -0.005465 0.004572
# 3 -0.002058 -0.008456 0.034261 -0.017543 0.016579 -0.008579
# 4 0.001266 0.003226 -0.017543 0.041581 -0.005742 0.011836
# 5 -0.001165 -0.005465 0.016579 -0.005742 0.094627 -0.004330
# 6 0.001655 0.004572 -0.008579 0.011836 -0.004330 0.035287
#
#
# Mechanical properties :
#
#
# Convention : Reuss Voigt Hill
#
# Bulk Modulus (GPa) = 28.70113 39.29789 33.99951
# Shear Modulus (GPa) = 18.42249 26.53209 22.47729
#
# Velocity S-wave (km/s) = 2.99501 3.59427 3.30824
# Velocity P-wave (km/s) = 5.09264 6.02989 5.58097
#
# Compressibility (1/GPa) = 0.03484184
#
# Stress axis : x y z
#
# Youngs Moduli (GPa) = 68.20059 79.07567 29.18758
#
# Poissons Ratio (x) = 0.22533 0.06008
# Poissons Ratio (y) = 0.19434 0.24682
# Poissons Ratio (z) = 0.14038 0.66868
#
# Static dielectric constant tensor:
#      x y z
#    x 3.625040 0.019420 -0.137890 
#    y 0.019420 3.991140 0.173590 
#    z -0.137890 0.173590 3.277760 
# 
# 
# High freq. dielectric constant tensor:
#      x y z
#    x 1.791200 -0.000160 -0.019880 
#    y -0.000160 1.825700 0.012470 
#    z -0.019880 0.012470 1.760830 
# 
# From -- ./inp_files/392863.got.cif
#   From: 2010.06.25/outbox.cif.g09.slc.cpg/sg2_197_cif.got.tgz:392863.got - 2010.06.27 13:26:56.
