data_PCOD8006496
_publ_section_title
;
Structure prediction by ZEFSAII (Michael W. Deem and Ramdas Pophale) SiO2 
 PCOD8006496
Probable space group: P -1
;
_chemical_formula_sum "Si O2"
_cell_formula_units_Z 16
_cell_length_a 8.243937
_cell_length_b 15.126228
_cell_length_c 9.139531
_cell_angle_alpha 134.708378
_cell_angle_beta 67.405816
_cell_angle_gamma 106.190360
_cell_volume 747.748566
_symmetry_space_group_name_H-M "P -1"
_symmetry_group_IT_number 2
_symmetry_cell_setting 'triclinic'
loop_
_space_group_symop_operation_xyz
x,y,z
-x,-y,-z
loop_
_atom_site_type_symbol
_atom_site_label
_atom_site_fract_x
_atom_site_fract_y
_atom_site_fract_z
Si Si1 0.897548 0.222356 0.762669
Si Si2 0.720571 0.028665 0.085110
Si Si3 0.598428 0.626909 0.787468
Si Si4 0.600845 0.137494 0.963671
Si Si5 0.994780 0.156898 0.340002
Si Si6 0.843436 0.634820 0.962372
Si Si7 0.899027 0.569743 0.413790
Si Si8 0.727774 0.482032 0.089326
O O1 0.980020 0.150687 0.513537
O O2 0.755593 0.131173 0.782935
O O3 0.801490 0.344402 0.877646
O O4 0.047843 0.255437 0.868270
O O5 0.682548 0.127227 0.085251
O O6 0.820096 0.096765 0.261564
O O7 0.537285 0.974435 0.148921
O O8 0.831911 0.915797 0.849723
O O9 0.492826 0.730020 0.856150
O O10 0.714451 0.692482 0.952781
O O11 0.720494 0.551776 0.546151
O O12 0.467759 0.525109 0.785792
O O13 0.013591 0.296000 0.432465
O O14 0.970591 0.541623 0.720045
O O15 0.724827 0.556330 0.025880
O O16 0.857710 0.556953 0.240308
#
# Coordination Sequence:
#
# PCOD8006496 Si02
#       8
#     2   2   2   2   2   2   2   2
#     4  10  21  39  65  90 121 157 194 248 299 361
#     4  10  24  43  66  85 116 156 206 260 297 349
#     4  11  23  37  61  91 128 160 196 241 296 358
#     4  10  23  44  60  88 123 154 200 257 301 344
#     4  11  21  41  68  88 113 160 205 248 302 349
#     4  11  21  38  62  93 126 159 196 235 293 370
#     4  11  20  39  60  92 122 159 201 240 293 357
#     4  10  20  40  58  90 129 158 192 240 296 363
#
# _framework density 21.397566999999999
#
# number of rings (size 3 to 8) (size 9 to 14) (size 15 to 20)
#    0.000    1.500    3.750    1.875    1.750    1.000 
#    4.500    5.000    0.000    0.000    0.000    0.000 
#    0.000    0.000    0.000    0.000    0.000    0.000 
#
# Total GULP energy -198476.066096 kJ/mol
# GULP energy per Si atom -12404.754131 kJ/mol
# Density = 2.134887 g / cm^3
# Si number density = 21.397567 Si / 1000 Ang^3
#
#
#
# Elastic Constant Matrix: (Units=GPa)
#
#
# Indices 1 2 3 4 5 6 
#
# 1 86.2808 30.8237 27.1976 7.2049 12.0523 2.3888
# 2 30.8237 82.6919 23.3225 -4.1615 -2.3314 17.5810
# 3 27.1976 23.3225 90.3556 2.6018 10.0703 9.6127
# 4 7.2049 -4.1615 2.6018 20.1786 6.2386 -2.4087
# 5 12.0523 -2.3314 10.0703 6.2386 21.2337 -4.9493
# 6 2.3888 17.5810 9.6127 -2.4087 -4.9493 41.7558
#
#
#
# Elastic Compliance Matrix: (Units=1/GPa)
#
#
# Indices 1 2 3 4 5 6 
#
# 1 0.015726 -0.005799 -0.002456 -0.004233 -0.006911 0.001044
# 2 -0.005799 0.016387 -0.002462 0.003939 0.003862 -0.005316
# 3 -0.002456 -0.002462 0.013366 0.000149 -0.005862 -0.002586
# 4 -0.004233 0.003939 0.000149 0.056112 -0.013683 0.000164
# 5 -0.006911 0.003862 -0.005862 -0.013683 0.059736 0.006410
# 6 0.001044 -0.005316 -0.002586 0.000164 0.006410 0.027492
#
#
# Mechanical properties :
#
#
# Convention : Reuss Voigt Hill
#
# Bulk Modulus (GPa) = 41.58994 46.89068 44.24031
# Shear Modulus (GPa) = 22.90763 28.49925 25.70344
#
# Velocity S-wave (km/s) = 3.27551 3.65347 3.46964
# Velocity P-wave (km/s) = 5.81242 6.30545 6.06395
#
# Compressibility (1/GPa) = 0.02404428
#
# Stress axis : x y z
#
# Youngs Moduli (GPa) = 63.58969 61.02568 74.81476
#
# Poissons Ratio (x) = 0.35389 0.18372
# Poissons Ratio (y) = 0.36876 0.18423
# Poissons Ratio (z) = 0.15615 0.15027
#
# Static dielectric constant tensor:
#      x y z
#    x 3.965660 0.184550 -0.029200 
#    y 0.184550 3.875490 -0.175500 
#    z -0.029200 -0.175500 3.624400 
# 
# 
# High freq. dielectric constant tensor:
#      x y z
#    x 1.845480 0.013620 0.003130 
#    y 0.013620 1.844890 -0.016050 
#    z 0.003130 -0.016050 1.820570 
# 
# From -- ./inp_files/208194.got.cif
#   From: 2010.06.25/outbox.cif.g09.slc.cpg/sg2_105_cif.got.tgz:208194.got - 2010.06.27 13:26:56.
