data_PCOD8006028
_publ_section_title
;
Structure prediction by ZEFSAII (Michael W. Deem and Ramdas Pophale) SiO2 
 PCOD8006028
Probable space group: P -1
;
_chemical_formula_sum "Si O2"
_cell_formula_units_Z 14
_cell_length_a 4.992715
_cell_length_b 6.036996
_cell_length_c 26.110072
_cell_angle_alpha 121.805045
_cell_angle_beta 110.710563
_cell_angle_gamma 95.031488
_cell_volume 587.233125
_symmetry_space_group_name_H-M "P -1"
_symmetry_group_IT_number 2
_symmetry_cell_setting 'triclinic'
loop_
_space_group_symop_operation_xyz
x,y,z
-x,-y,-z
loop_
_atom_site_type_symbol
_atom_site_label
_atom_site_fract_x
_atom_site_fract_y
_atom_site_fract_z
Si Si1 0.158146 0.853454 0.635968
Si Si2 0.229960 0.961701 0.085234
Si Si3 0.782477 0.462703 0.044948
Si Si4 0.263918 0.619598 0.390270
Si Si5 0.142748 0.674637 0.859136
Si Si6 0.190930 0.776457 0.299272
Si Si7 0.190032 0.160592 0.485569
O O1 0.056063 0.594699 0.636968
O O2 0.006946 0.737178 0.556213
O O3 0.522398 0.963769 0.669200
O O4 0.062170 0.106827 0.681384
O O5 0.094886 0.725046 0.090413
O O6 0.597681 0.111696 0.132836
O O7 0.161996 0.811977 0.006778
O O8 0.076365 0.191530 0.110853
O O9 0.700980 0.431452 0.095878
O O10 0.500000 0.500000 0.000000
O O11 0.286944 0.591575 0.326800
O O12 0.536310 0.578274 0.438740
O O13 0.311875 0.945063 0.438042
O O14 0.941621 0.417445 0.781155
O O15 0.000000 0.000000 0.500000
#
# Coordination Sequence:
#
# PCOD8006028 Si02
#       7
#     2   2   2   2   2   2   2
#     4  11  24  42  66  91 130 171 213 266 320 370
#     4  11  25  43  69 100 129 170 214 271 328 381
#     4  11  25  43  70 103 131 163 224 270 322 396
#     4  10  23  40  64  92 130 165 213 268 323 375
#     4  12  26  43  69  93 137 175 213 269 329 379
#     4  11  26  44  61  95 128 172 220 256 310 398
#     4  10  20  39  64  96 125 161 218 268 316 384
#
# _framework density 23.840616000000001
#
# number of rings (size 3 to 8) (size 9 to 14) (size 15 to 20)
#    0.000    1.143    2.857    2.143    6.000    2.857 
#    0.000    0.000    0.000    0.000    0.000    0.000 
#    0.000    0.000    0.000    0.000    0.000    0.000 
#
# Total GULP energy -173553.672268 kJ/mol
# GULP energy per Si atom -12396.690876 kJ/mol
# Density = 2.378635 g / cm^3
# Si number density = 23.840616 Si / 1000 Ang^3
#
#
#
# Elastic Constant Matrix: (Units=GPa)
#
#
# Indices 1 2 3 4 5 6 
#
# 1 88.2212 8.8842 28.3504 0.2527 2.6422 23.4829
# 2 8.8842 73.3270 46.8063 0.8690 5.0245 29.7863
# 3 28.3504 46.8063 139.7350 -5.0459 1.0714 3.6696
# 4 0.2527 0.8690 -5.0459 27.5762 7.6334 5.4591
# 5 2.6422 5.0245 1.0714 7.6334 31.3871 10.2966
# 6 23.4829 29.7863 3.6696 5.4591 10.2966 45.5361
#
#
#
# Elastic Compliance Matrix: (Units=1/GPa)
#
#
# Indices 1 2 3 4 5 6 
#
# 1 0.015373 0.005861 -0.004759 0.000691 0.001644 -0.011832
# 2 0.005861 0.027500 -0.009841 0.000824 0.002058 -0.020782
# 3 -0.004759 -0.009841 0.011257 0.001179 -0.001369 0.008153
# 4 0.000691 0.000824 0.001179 0.039581 -0.008614 -0.003788
# 5 0.001644 0.002058 -0.001369 -0.008614 0.036593 -0.009325
# 6 -0.011832 -0.020782 0.008153 -0.003788 -0.009325 0.043562
#
#
# Mechanical properties :
#
#
# Convention : Reuss Voigt Hill
#
# Bulk Modulus (GPa) = 27.28358 52.15167 39.71762
# Shear Modulus (GPa) = 24.56252 35.38272 29.97262
#
# Velocity S-wave (km/s) = 3.21328 3.85663 3.54956
# Velocity P-wave (km/s) = 5.02353 6.46174 5.78748
#
# Compressibility (1/GPa) = 0.03665209
#
# Stress axis : x y z
#
# Youngs Moduli (GPa) = 65.05059 36.36312 88.83110
#
# Poissons Ratio (x) = -0.21312 0.42275
# Poissons Ratio (y) = -0.38126 0.87419
# Poissons Ratio (z) = 0.30958 0.35785
#
# Static dielectric constant tensor:
#      x y z
#    x 4.333240 0.110780 -0.121810 
#    y 0.110780 4.258880 0.141550 
#    z -0.121810 0.141550 4.677020 
# 
# 
# High freq. dielectric constant tensor:
#      x y z
#    x 1.948770 0.016030 -0.006800 
#    y 0.016030 1.939420 0.006570 
#    z -0.006800 0.006570 1.934170 
# 
# From -- ./inp_files/10266.got.cif
#   From: 2010.06.25/outbox.cif.g09.slc.cpg/sg2_6_cif.got.tgz:10266.got - 2010.06.27 13:26:56.
