data_PCOD8006321
_publ_section_title
;
Structure prediction by ZEFSAII (Michael W. Deem and Ramdas Pophale) SiO2 
 PCOD8006321
Probable space group: P -1
;
_chemical_formula_sum "Si O2"
_cell_formula_units_Z 16
_cell_length_a 15.249060
_cell_length_b 9.242623
_cell_length_c 11.779148
_cell_angle_alpha 47.260031
_cell_angle_beta 39.248466
_cell_angle_gamma 67.809875
_cell_volume 731.316574
_symmetry_space_group_name_H-M "P -1"
_symmetry_group_IT_number 2
_symmetry_cell_setting 'triclinic'
loop_
_space_group_symop_operation_xyz
x,y,z
-x,-y,-z
loop_
_atom_site_type_symbol
_atom_site_label
_atom_site_fract_x
_atom_site_fract_y
_atom_site_fract_z
Si Si1 0.215642 0.160845 0.123838
Si Si2 0.929886 0.653082 0.283192
Si Si3 0.211695 0.002296 0.802900
Si Si4 0.307420 0.592946 0.193399
Si Si5 0.085590 0.756039 0.615401
Si Si6 0.396758 0.367305 0.037215
Si Si7 0.616407 0.945146 0.180498
Si Si8 0.698148 0.058652 0.508873
O O1 0.330059 0.325555 0.001968
O O2 0.074503 0.230404 0.208008
O O3 0.171587 0.930911 0.345459
O O4 0.301951 0.184567 0.905893
O O5 0.851556 0.553242 0.531451
O O6 0.925930 0.471163 0.296071
O O7 0.852801 0.807996 0.223483
O O8 0.094307 0.788512 0.079265
O O9 0.349958 0.058476 0.717942
O O10 0.255442 0.958785 0.656601
O O11 0.340936 0.542859 0.057532
O O12 0.426580 0.555708 0.182975
O O13 0.316214 0.829436 0.062519
O O14 0.169970 0.786087 0.634889
O O15 0.341753 0.168973 0.278777
O O16 0.441209 0.858546 0.388628
#
# Coordination Sequence:
#
# PCOD8006321 Si02
#       8
#     2   2   2   2   2   2   2   2
#     4  10  22  39  64 102 132 158 211 272 320 374
#     4  11  24  42  65  91 129 175 212 259 316 386
#     4  11  26  43  62  93 132 173 214 262 314 382
#     4  10  20  39  67  97 123 168 218 264 319 371
#     4  10  23  41  66  96 130 170 209 264 322 378
#     4   9  20  37  66  97 129 162 210 271 319 373
#     4  11  24  41  68  97 126 167 215 269 317 376
#     4  10  22  44  66  90 132 170 207 264 326 380
#
# _framework density 21.878349
#
# number of rings (size 3 to 8) (size 9 to 14) (size 15 to 20)
#    0.000    1.750    2.500    0.375    7.000    3.500 
#    0.000    0.625    0.000    0.000    0.000    0.000 
#    0.000    0.000    0.000    0.000    0.000    0.000 
#
# Total GULP energy -198415.651292 kJ/mol
# GULP energy per Si atom -12400.978206 kJ/mol
# Density = 2.182855 g / cm^3
# Si number density = 21.878349 Si / 1000 Ang^3
#
#
#
# Elastic Constant Matrix: (Units=GPa)
#
#
# Indices 1 2 3 4 5 6 
#
# 1 122.1116 55.5090 22.7352 17.0245 -8.3850 18.9752
# 2 55.5090 131.6584 36.5510 15.4884 -9.9874 11.5588
# 3 22.7352 36.5510 60.9019 13.7138 -3.6891 2.2806
# 4 17.0245 15.4884 13.7138 34.2176 4.1516 -2.0716
# 5 -8.3850 -9.9874 -3.6891 4.1516 20.5032 2.6293
# 6 18.9752 11.5588 2.2806 -2.0716 2.6293 28.1126
#
#
#
# Elastic Compliance Matrix: (Units=1/GPa)
#
#
# Indices 1 2 3 4 5 6 
#
# 1 0.012085 -0.003164 -0.000791 -0.005376 0.005333 -0.007687
# 2 -0.003164 0.010987 -0.004579 -0.002205 0.004008 -0.002548
# 3 -0.000791 -0.004579 0.021024 -0.006261 0.002495 0.000016
# 4 -0.005376 -0.002205 -0.006261 0.037551 -0.013162 0.009041
# 5 0.005333 0.004008 0.002495 -0.013162 0.057533 -0.011801
# 6 -0.007687 -0.002548 0.000016 0.009041 -0.011801 0.043576
#
#
# Mechanical properties :
#
#
# Convention : Reuss Voigt Hill
#
# Bulk Modulus (GPa) = 36.99724 60.47356 48.73540
# Shear Modulus (GPa) = 23.94255 29.89179 26.91717
#
# Velocity S-wave (km/s) = 3.31168 3.70032 3.51138
# Velocity P-wave (km/s) = 5.61873 6.77918 6.22605
#
# Compressibility (1/GPa) = 0.02702904
#
# Stress axis : x y z
#
# Youngs Moduli (GPa) = 82.74829 91.01278 47.56574
#
# Poissons Ratio (x) = 0.28793 0.03764
# Poissons Ratio (y) = 0.26178 0.21778
# Poissons Ratio (z) = 0.06547 0.41671
#
# Static dielectric constant tensor:
#      x y z
#    x 3.872090 0.012930 -0.288560 
#    y 0.012930 3.938060 -0.001590 
#    z -0.288560 -0.001590 3.895960 
# 
# 
# High freq. dielectric constant tensor:
#      x y z
#    x 1.852570 0.003120 -0.015400 
#    y 0.003120 1.868810 0.007590 
#    z -0.015400 0.007590 1.852280 
# 
# From -- ./inp_files/154832.got.cif
#   From: 2010.06.25/outbox.cif.g09.slc.cpg/sg2_78_cif.got.tgz:154832.got - 2010.06.27 13:26:56.
