data_PCOD8006021
_publ_section_title
;
Structure prediction by ZEFSAII (Michael W. Deem and Ramdas Pophale) SiO2 
 PCOD8006021
Probable space group: P -1
;
_chemical_formula_sum "Si O2"
_cell_formula_units_Z 16
_cell_length_a 10.936356
_cell_length_b 20.060754
_cell_length_c 8.617906
_cell_angle_alpha 73.604506
_cell_angle_beta 43.448424
_cell_angle_gamma 42.366032
_cell_volume 732.677230
_symmetry_space_group_name_H-M "P -1"
_symmetry_group_IT_number 2
_symmetry_cell_setting 'triclinic'
loop_
_space_group_symop_operation_xyz
x,y,z
-x,-y,-z
loop_
_atom_site_type_symbol
_atom_site_label
_atom_site_fract_x
_atom_site_fract_y
_atom_site_fract_z
Si Si1 0.628611 0.757938 0.610611
Si Si2 0.642258 0.661942 0.186574
Si Si3 0.671002 0.013954 0.177563
Si Si4 0.249313 0.884946 0.570351
Si Si5 0.709866 0.497121 0.373263
Si Si6 0.714898 0.489132 0.740373
Si Si7 0.204110 0.053234 0.548724
Si Si8 0.573391 0.294727 0.968144
O O1 0.493254 0.792789 0.540998
O O2 0.967059 0.621070 0.393258
O O3 0.604385 0.845337 0.629722
O O4 0.428014 0.780673 0.905089
O O5 0.374993 0.802597 0.361805
O O6 0.574767 0.617441 0.391805
O O7 0.635551 0.633812 0.037357
O O8 0.964414 0.600298 0.951186
O O9 0.840866 0.946551 0.226861
O O10 0.519440 0.992448 0.263528
O O11 0.915586 0.963605 0.864383
O O12 0.223779 0.974139 0.490998
O O13 0.500000 0.500000 0.500000
O O14 0.752603 0.469759 0.534194
O O15 0.500000 0.500000 0.000000
O O16 0.561076 0.610792 0.842502
O O17 0.926333 0.191466 0.662482
#
# Coordination Sequence:
#
# PCOD8006021 Si02
#       8
#     2   2   2   2   2   2   2   2
#     4  11  21  40  66  93 130 167 225 274 317 388
#     4  11  27  43  66  94 138 180 214 270 332 396
#     4  10  20  39  64  95 127 166 217 275 324 378
#     4  11  22  41  65  94 129 175 217 266 330 385
#     4  11  26  47  65  96 139 175 217 268 332 396
#     4  12  26  41  70 102 128 172 225 276 327 390
#     4  10  21  39  65  94 128 168 220 273 319 383
#     4  12  22  43  66  96 130 173 223 271 323 389
#
# _framework density 21.837721999999999
#
# number of rings (size 3 to 8) (size 9 to 14) (size 15 to 20)
#    0.000    1.000    3.750    3.375    5.250    1.500 
#    0.000    0.625    0.000    0.000    0.000    0.000 
#    0.000    0.000    0.000    0.000    0.000    0.000 
#
# Total GULP energy -198359.091282 kJ/mol
# GULP energy per Si atom -12397.443205 kJ/mol
# Density = 2.178802 g / cm^3
# Si number density = 21.837722 Si / 1000 Ang^3
#
#
#
# Elastic Constant Matrix: (Units=GPa)
#
#
# Indices 1 2 3 4 5 6 
#
# 1 69.2739 32.0665 48.4076 4.0810 -11.2262 13.9639
# 2 32.0665 95.9586 42.7369 14.2389 -10.3850 8.2798
# 3 48.4076 42.7369 91.0024 5.4020 -14.9004 22.0465
# 4 4.0810 14.2389 5.4020 44.7925 3.2071 -0.0015
# 5 -11.2262 -10.3850 -14.9004 3.2071 33.5189 -4.3841
# 6 13.9639 8.2798 22.0465 -0.0015 -4.3841 39.1909
#
#
#
# Elastic Compliance Matrix: (Units=1/GPa)
#
#
# Indices 1 2 3 4 5 6 
#
# 1 0.023847 -0.002859 -0.010561 -0.000148 0.002198 -0.001706
# 2 -0.002859 0.014220 -0.004873 -0.003799 0.001770 0.000953
# 3 -0.010561 -0.004873 0.021103 -0.000284 0.003487 -0.006689
# 4 -0.000148 -0.003799 -0.000284 0.023835 -0.003552 0.000618
# 5 0.002198 0.001770 0.003487 -0.003552 0.033084 0.000582
# 6 -0.001706 0.000953 -0.006689 0.000618 0.000582 0.029751
#
#
# Mechanical properties :
#
#
# Convention : Reuss Voigt Hill
#
# Bulk Modulus (GPa) = 44.27673 55.85078 50.06375
# Shear Modulus (GPa) = 26.32233 32.36871 29.34552
#
# Velocity S-wave (km/s) = 3.47560 3.85416 3.66976
# Velocity P-wave (km/s) = 6.03537 6.74070 6.39776
#
# Compressibility (1/GPa) = 0.02258523
#
# Stress axis : x y z
#
# Youngs Moduli (GPa) = 41.93369 70.32512 47.38647
#
# Poissons Ratio (x) = 0.20103 0.50044
# Poissons Ratio (y) = 0.11987 0.23091
# Poissons Ratio (z) = 0.44285 0.34269
#
# Static dielectric constant tensor:
#      x y z
#    x 3.872700 -0.200030 -0.445530 
#    y -0.200030 4.289620 0.284900 
#    z -0.445530 0.284900 4.086060 
# 
# 
# High freq. dielectric constant tensor:
#      x y z
#    x 1.849920 0.004480 -0.015410 
#    y 0.004480 1.867080 0.004920 
#    z -0.015410 0.004920 1.855470 
# 
# From -- ./inp_files/283008.got.cif
#   From: 2010.06.25/outbox.cif.g09.slc.cpg/sg2_142_cif.got.tgz:283008.got - 2010.06.27 13:26:56.
