data_PCOD8006625
_publ_section_title
;
Structure prediction by ZEFSAII (Michael W. Deem and Ramdas Pophale) SiO2 
 PCOD8006625
Probable space group: P -1
;
_chemical_formula_sum "Si O2"
_cell_formula_units_Z 16
_cell_length_a 7.691461
_cell_length_b 6.730049
_cell_length_c 19.936158
_cell_angle_alpha 83.698798
_cell_angle_beta 127.642652
_cell_angle_gamma 115.920553
_cell_volume 716.817628
_symmetry_space_group_name_H-M "P -1"
_symmetry_group_IT_number 2
_symmetry_cell_setting 'triclinic'
loop_
_space_group_symop_operation_xyz
x,y,z
-x,-y,-z
loop_
_atom_site_type_symbol
_atom_site_label
_atom_site_fract_x
_atom_site_fract_y
_atom_site_fract_z
Si Si1 0.087822 0.334271 0.723720
Si Si2 0.666637 0.776241 0.330527
Si Si3 0.649978 0.255783 0.048198
Si Si4 0.976836 0.259316 0.345964
Si Si5 0.788606 0.617772 0.818076
Si Si6 0.236336 0.487863 0.527674
Si Si7 0.717032 0.870221 0.675544
Si Si8 0.555045 0.532948 0.906089
O O1 0.140622 0.275175 0.664353
O O2 0.292237 0.336703 0.823749
O O3 0.120513 0.585906 0.720032
O O4 0.813238 0.142043 0.690033
O O5 0.387783 0.640125 0.239485
O O6 0.688155 0.689764 0.412777
O O7 0.753570 0.046309 0.340523
O O8 0.495969 0.283919 0.072591
O O9 0.928523 0.317838 0.133302
O O10 0.675384 0.421532 0.987128
O O11 0.500000 0.000000 0.000000
O O12 0.194835 0.415895 0.442867
O O13 0.073063 0.161431 0.313446
O O14 0.701857 0.777247 0.750632
O O15 0.745808 0.650310 0.885161
O O16 0.458202 0.742696 0.579852
O O17 0.000000 0.500000 0.500000
#
# Coordination Sequence:
#
# PCOD8006625 Si02
#       8
#     2   2   2   2   2   2   2   2
#     4  10  20  40  62  89 122 162 206 254 310 364
#     4   9  21  40  61  89 123 160 209 261 301 369
#     4  11  23  42  66  97 129 162 202 253 314 374
#     4  11  21  39  63  86 122 167 210 257 315 360
#     4  10  21  43  66  92 129 165 211 255 310 375
#     4  11  21  40  58  88 125 162 209 259 313 364
#     4  10  23  40  60  89 123 161 211 261 300 371
#     4  10  23  41  65  93 129 162 205 256 305 375
#
# _framework density 22.320879999999999
#
# number of rings (size 3 to 8) (size 9 to 14) (size 15 to 20)
#    0.000    1.750    1.250    2.625    0.000    3.000 
#    9.000    7.500    0.000    0.000    0.000    0.000 
#    0.000    0.000    0.000    0.000    0.000    0.000 
#
# Total GULP energy -198398.898178 kJ/mol
# GULP energy per Si atom -12399.931136 kJ/mol
# Density = 2.227008 g / cm^3
# Si number density = 22.320880 Si / 1000 Ang^3
#
#
#
# Elastic Constant Matrix: (Units=GPa)
#
#
# Indices 1 2 3 4 5 6 
#
# 1 57.3041 23.2832 17.8772 3.2665 0.2957 0.6577
# 2 23.2832 124.3806 23.0969 14.2358 16.2535 7.3526
# 3 17.8772 23.0969 93.7442 0.9756 4.2473 4.0203
# 4 3.2665 14.2358 0.9756 26.8771 10.9270 3.0253
# 5 0.2957 16.2535 4.2473 10.9270 45.0480 7.1653
# 6 0.6577 7.3526 4.0203 3.0253 7.1653 27.5014
#
#
#
# Elastic Compliance Matrix: (Units=1/GPa)
#
#
# Indices 1 2 3 4 5 6 
#
# 1 0.019772 -0.003223 -0.003058 -0.001276 0.001539 0.000575
# 2 -0.003223 0.009725 -0.001586 -0.003641 -0.002247 -0.001305
# 3 -0.003058 -0.001586 0.011707 0.001166 -0.000606 -0.001185
# 4 -0.001276 -0.003641 0.001166 0.043078 -0.008988 -0.001563
# 5 0.001539 -0.002247 -0.000606 -0.008988 0.026055 -0.005147
# 6 0.000575 -0.001305 -0.001185 -0.001563 -0.005147 0.038383
#
#
# Mechanical properties :
#
#
# Convention : Reuss Voigt Hill
#
# Bulk Modulus (GPa) = 39.25825 44.88262 42.07043
# Shear Modulus (GPa) = 28.91104 33.96340 31.43722
#
# Velocity S-wave (km/s) = 3.60286 3.90500 3.75697
# Velocity P-wave (km/s) = 5.91048 6.36267 6.14074
#
# Compressibility (1/GPa) = 0.02547235
#
# Stress axis : x y z
#
# Youngs Moduli (GPa) = 50.57604 102.82628 85.41674
#
# Poissons Ratio (x) = 0.33136 0.26118
# Poissons Ratio (y) = 0.16298 0.13546
# Poissons Ratio (z) = 0.15465 0.16307
#
# Static dielectric constant tensor:
#      x y z
#    x 3.908750 0.197530 -0.119570 
#    y 0.197530 4.161290 0.035810 
#    z -0.119570 0.035810 4.099230 
# 
# 
# High freq. dielectric constant tensor:
#      x y z
#    x 1.871040 0.009240 -0.005250 
#    y 0.009240 1.873000 0.000470 
#    z -0.005250 0.000470 1.887160 
# 
# From -- ./inp_files/585661.got.cif
#   From: 2010.06.25/outbox.cif.g09.slc.cpg/sg2_293_cif.got.tgz:585661.got - 2010.06.27 13:26:56.
