data_PCOD8006930
_publ_section_title
;
Structure prediction by ZEFSAII (Michael W. Deem and Ramdas Pophale) SiO2 
 PCOD8006930
Probable space group: P -1
;
_chemical_formula_sum "Si O2"
_cell_formula_units_Z 10
_cell_length_a 11.868629
_cell_length_b 11.187525
_cell_length_c 9.567091
_cell_angle_alpha 52.885387
_cell_angle_beta 32.074320
_cell_angle_gamma 39.039296
_cell_volume 419.147416
_symmetry_space_group_name_H-M "P -1"
_symmetry_group_IT_number 2
_symmetry_cell_setting 'triclinic'
loop_
_space_group_symop_operation_xyz
x,y,z
-x,-y,-z
loop_
_atom_site_type_symbol
_atom_site_label
_atom_site_fract_x
_atom_site_fract_y
_atom_site_fract_z
Si Si1 0.020161 0.089259 0.745412
Si Si2 0.474585 0.347222 0.469196
Si Si3 0.227797 0.082612 0.809221
Si Si4 0.041125 0.569019 0.552288
Si Si5 0.165725 0.529064 0.934433
O O1 0.991803 0.166705 0.878805
O O2 0.993965 0.236485 0.561121
O O3 0.316443 0.881116 0.562676
O O4 0.778204 0.072623 0.988939
O O5 0.220759 0.446007 0.777496
O O6 0.608374 0.448660 0.281283
O O7 0.344496 0.400334 0.412635
O O8 0.500000 0.000000 0.500000
O O9 0.137238 0.259247 0.879549
O O10 0.000000 0.500000 0.500000
O O11 0.816224 0.612508 0.870319
#
# Coordination Sequence:
#
# PCOD8006930 Si02
#       5
#     2   2   2   2   2
#     4  10  23  40  64  98 128 173 223 262 334 389
#     4  10  24  45  68  90 139 176 213 280 323 399
#     4  10  20  40  65  93 131 171 213 273 327 391
#     4  12  24  40  66 103 131 172 227 269 323 394
#     4  10  22  45  65  96 133 177 217 267 347 380
#
# _framework density 23.857952999999998
#
# number of rings (size 3 to 8) (size 9 to 14) (size 15 to 20)
#    0.000    1.600    2.000    1.800    0.000    3.200 
#    0.000    9.000    0.000    0.000    0.000    0.000 
#    0.000    0.000    0.000    0.000    0.000    0.000 
#
# Total GULP energy -123949.358674 kJ/mol
# GULP energy per Si atom -12394.935867 kJ/mol
# Density = 2.380365 g / cm^3
# Si number density = 23.857953 Si / 1000 Ang^3
#
#
#
# Elastic Constant Matrix: (Units=GPa)
#
#
# Indices 1 2 3 4 5 6 
#
# 1 115.9720 51.9367 38.0686 0.4550 17.0508 9.4843
# 2 51.9367 176.2052 100.9592 -36.4474 -5.0717 12.1825
# 3 38.0686 100.9592 169.2267 -13.1046 4.0824 10.5904
# 4 0.4550 -36.4474 -13.1046 54.4283 -0.8726 0.1389
# 5 17.0508 -5.0717 4.0824 -0.8726 35.0101 5.4859
# 6 9.4843 12.1825 10.5904 0.1389 5.4859 35.8587
#
#
#
# Elastic Compliance Matrix: (Units=1/GPa)
#
#
# Indices 1 2 3 4 5 6 
#
# 1 0.011437 -0.003959 -0.000248 -0.002902 -0.006083 -0.000665
# 2 -0.003959 0.011655 -0.005541 0.006585 0.004744 -0.002028
# 3 -0.000248 -0.005541 0.009227 -0.001513 -0.001716 -0.000509
# 4 -0.002902 0.006585 -0.001513 0.022501 0.003359 -0.001624
# 5 -0.006083 0.004744 -0.001716 0.003359 0.033216 -0.004591
# 6 -0.000665 -0.002028 -0.000509 -0.001624 -0.004591 0.029611
#
#
# Mechanical properties :
#
#
# Convention : Reuss Voigt Hill
#
# Bulk Modulus (GPa) = 77.97004 93.70366 85.83685
# Shear Modulus (GPa) = 35.35692 43.08871 39.22281
#
# Velocity S-wave (km/s) = 3.85382 4.25438 4.05904
# Velocity P-wave (km/s) = 7.24945 7.96831 7.61736
#
# Compressibility (1/GPa) = 0.01282544
#
# Stress axis : x y z
#
# Youngs Moduli (GPa) = 87.43619 85.79655 108.38344
#
# Poissons Ratio (x) = 0.33963 0.02683
# Poissons Ratio (y) = 0.34612 0.60052
# Poissons Ratio (z) = 0.02164 0.47537
#
# Static dielectric constant tensor:
#      x y z
#    x 4.621010 0.581140 -0.242570 
#    y 0.581140 4.388590 -0.243530 
#    z -0.242570 -0.243530 4.891710 
# 
# 
# High freq. dielectric constant tensor:
#      x y z
#    x 1.945590 0.042030 -0.027640 
#    y 0.042030 1.932610 -0.013580 
#    z -0.027640 -0.013580 1.975600 
# 
# From -- ./inp_files/191412.got.cif
#   From: 2010.06.25/outbox.cif.g09.slc.cpg/sg2_96_cif.got.tgz:191412.got - 2010.06.27 13:26:56.
