data_PCOD8006555
_publ_section_title
;
Structure prediction by ZEFSAII (Michael W. Deem and Ramdas Pophale) SiO2 
 PCOD8006555
Probable space group: P -1
;
_chemical_formula_sum "Si O2"
_cell_formula_units_Z 16
_cell_length_a 15.558772
_cell_length_b 15.740962
_cell_length_c 9.802568
_cell_angle_alpha 111.502115
_cell_angle_beta 93.276452
_cell_angle_gamma 27.057537
_cell_volume 783.900262
_symmetry_space_group_name_H-M "P -1"
_symmetry_group_IT_number 2
_symmetry_cell_setting 'triclinic'
loop_
_space_group_symop_operation_xyz
x,y,z
-x,-y,-z
loop_
_atom_site_type_symbol
_atom_site_label
_atom_site_fract_x
_atom_site_fract_y
_atom_site_fract_z
Si Si1 0.716452 0.324533 0.052644
Si Si2 0.093761 0.313797 0.051768
Si Si3 0.009675 0.760344 0.592687
Si Si4 0.708373 0.694998 0.014549
Si Si5 0.515455 0.769722 0.797721
Si Si6 0.136380 0.003653 0.003926
Si Si7 0.822029 0.121847 0.658272
Si Si8 0.843767 0.742645 0.667219
O O1 0.768028 0.193657 0.087851
O O2 0.456084 0.619594 0.259513
O O3 0.762113 0.241977 0.856737
O O4 0.895489 0.234527 0.024518
O O5 0.863262 0.509071 0.053260
O O6 0.347531 0.013177 0.852897
O O7 0.129416 0.387223 0.089448
O O8 0.060340 0.319500 0.211199
O O9 0.873156 0.797437 0.595826
O O10 0.295957 0.453780 0.428033
O O11 0.935398 0.907827 0.558188
O O12 0.946835 0.870360 0.790428
O O13 0.664346 0.657606 0.879577
O O14 0.443051 0.998800 0.209860
O O15 0.348962 0.849905 0.865917
O O16 0.000000 0.000000 0.500000
O O17 0.000000 0.500000 0.500000
#
# Coordination Sequence:
#
# PCOD8006555 Si02
#       8
#     2   2   2   2   2   2   2   2
#     4   9  21  39  63  86 121 159 201 261 314 370
#     4  10  21  39  61  89 120 167 207 254 317 360
#     4  11  22  38  60  91 119 162 212 247 310 374
#     4  10  21  39  62  86 124 164 209 255 312 368
#     4  11  21  40  61  87 127 162 199 261 306 363
#     4  10  20  40  61  87 118 161 207 252 315 368
#     4  10  21  40  61  92 124 159 205 258 316 365
#     4  11  21  39  62  90 129 165 203 261 306 363
#
# _framework density 20.410758000000001
#
# number of rings (size 3 to 8) (size 9 to 14) (size 15 to 20)
#    0.000    1.750    2.500    3.750    0.000    2.500 
#    6.750    3.750    0.000    0.000    0.000    0.000 
#    0.000    0.000    0.000    0.000    0.000    0.000 
#
# Total GULP energy -198212.207815 kJ/mol
# GULP energy per Si atom -12388.262988 kJ/mol
# Density = 2.036430 g / cm^3
# Si number density = 20.410758 Si / 1000 Ang^3
#
#
#
# Elastic Constant Matrix: (Units=GPa)
#
#
# Indices 1 2 3 4 5 6 
#
# 1 107.9096 14.5430 -11.0434 3.6994 -23.0764 5.9677
# 2 14.5430 75.8751 -29.4439 17.3693 -20.4929 1.9682
# 3 -11.0434 -29.4439 -18.0593 36.4938 -43.4599 19.9922
# 4 3.6994 17.3693 36.4938 26.7275 10.7221 -2.9933
# 5 -23.0764 -20.4929 -43.4599 10.7221 21.4124 9.8250
# 6 5.9677 1.9682 19.9922 -2.9933 9.8250 38.1288
#
#
#
# Elastic Compliance Matrix: (Units=1/GPa)
#
#
# Indices 1 2 3 4 5 6 
#
# 1 0.009825 -0.002750 -0.002299 0.002602 0.002247 -0.000565
# 2 -0.002750 0.010979 -0.004342 0.000703 -0.002981 0.002964
# 3 -0.002299 -0.004342 0.000399 0.007625 -0.011442 0.003922
# 4 0.002602 0.000703 0.007625 0.021183 0.010911 -0.005590
# 5 0.002247 -0.002981 -0.011442 0.010911 0.016475 0.002413
# 6 -0.000565 0.002964 0.003922 -0.005590 0.002413 0.023045
#
#
# Mechanical properties :
#
#
# Convention : Reuss Voigt Hill
#
# Bulk Modulus (GPa) = 413.21342 12.64852 212.93097
# Shear Modulus (GPa) = 49.26368 30.03172 39.64770
#
# Velocity S-wave (km/s) = 4.91818 3.84000 4.41215
# Velocity P-wave (km/s) = 15.33427 5.08638 11.42390
#
# Compressibility (1/GPa) = 0.00242006
#
# Stress axis : x y z
#
# Youngs Moduli (GPa) = 101.78393 91.08695 2507.93086
#
# Poissons Ratio (x) = 0.25044 5.76623
# Poissons Ratio (y) = 0.27986 10.89010
# Poissons Ratio (z) = 0.23402 0.39552
#
# Static dielectric constant tensor:
#      x y z
#    x 3.907320 0.203420 0.042190 
#    y 0.203420 4.081020 0.229120 
#    z 0.042190 0.229120 3.602530 
# 
# 
# High freq. dielectric constant tensor:
#      x y z
#    x 1.806300 0.003540 -0.004380 
#    y 0.003540 1.790990 0.018930 
#    z -0.004380 0.018930 1.791840 
# 
# From -- ./inp_files/315596.got.cif
#   From: 2010.06.25/outbox.cif.g09.slc.cpg/sg2_158_cif.got.tgz:315596.got - 2010.06.27 13:26:56.
