data_PCOD8006459
_publ_section_title
;
Structure prediction by ZEFSAII (Michael W. Deem and Ramdas Pophale) SiO2 
 PCOD8006459
Probable space group: P -1
;
_chemical_formula_sum "Si O2"
_cell_formula_units_Z 14
_cell_length_a 9.943474
_cell_length_b 19.036817
_cell_length_c 8.081395
_cell_angle_alpha 147.461289
_cell_angle_beta 132.511091
_cell_angle_gamma 50.497968
_cell_volume 597.948756
_symmetry_space_group_name_H-M "P -1"
_symmetry_group_IT_number 2
_symmetry_cell_setting 'triclinic'
loop_
_space_group_symop_operation_xyz
x,y,z
-x,-y,-z
loop_
_atom_site_type_symbol
_atom_site_label
_atom_site_fract_x
_atom_site_fract_y
_atom_site_fract_z
Si Si1 0.603995 0.807008 0.734349
Si Si2 0.779495 0.022657 0.688816
Si Si3 0.907084 0.509885 0.116136
Si Si4 0.044561 0.239125 0.875754
Si Si5 0.130733 0.716191 0.852492
Si Si6 0.502078 0.586778 0.012310
Si Si7 0.395633 0.004693 0.173976
O O1 0.502671 0.731749 0.368732
O O2 0.681589 0.914673 0.895300
O O3 0.774152 0.724360 0.810711
O O4 0.458807 0.858797 0.862109
O O5 0.576990 0.052633 0.497507
O O6 0.909701 0.895909 0.462395
O O7 0.761665 0.992809 0.811497
O O8 0.864964 0.158253 0.015058
O O9 0.685615 0.535862 0.957857
O O10 0.965699 0.634963 0.509635
O O11 0.000000 0.500000 0.000000
O O12 0.963280 0.367251 0.959845
O O13 0.897639 0.222766 0.864906
O O14 0.318773 0.604709 0.781132
O O15 0.500000 0.500000 0.000000
#
# Coordination Sequence:
#
# PCOD8006459 Si02
#       7
#     2   2   2   2   2   2   2
#     4  10  20  39  71  97 138 183 230 283 349 417
#     4  10  22  39  70 104 144 177 233 297 350 409
#     4  12  29  48  71 104 145 184 237 296 351 417
#     4  11  23  44  70 100 141 187 229 287 351 422
#     4  12  24  46  73 103 139 184 241 287 350 424
#     4  12  24  43  75  99 137 189 236 283 345 423
#     4   9  20  39  65 104 140 183 226 287 356 416
#
# _framework density 23.413376
#
# number of rings (size 3 to 8) (size 9 to 14) (size 15 to 20)
#    0.000    1.143    4.286    1.714    2.000    2.857 
#    0.000    1.429    0.000    0.000    0.000    0.000 
#    0.000    0.000    0.000    0.000    0.000    0.000 
#
# Total GULP energy -173497.690704 kJ/mol
# GULP energy per Si atom -12392.692193 kJ/mol
# Density = 2.336009 g / cm^3
# Si number density = 23.413376 Si / 1000 Ang^3
#
#
#
# Elastic Constant Matrix: (Units=GPa)
#
#
# Indices 1 2 3 4 5 6 
#
# 1 176.7523 37.9312 27.8104 18.6908 -27.4071 -0.7838
# 2 37.9312 58.2370 30.2597 15.3626 -9.7592 -9.5160
# 3 27.8104 30.2597 39.2658 26.1484 -6.1929 3.5802
# 4 18.6908 15.3626 26.1484 29.2397 5.2361 2.1048
# 5 -27.4071 -9.7592 -6.1929 5.2361 36.9378 -0.9429
# 6 -0.7838 -9.5160 3.5802 2.1048 -0.9429 34.3834
#
#
#
# Elastic Compliance Matrix: (Units=1/GPa)
#
#
# Indices 1 2 3 4 5 6 
#
# 1 0.007652 -0.003863 0.002876 -0.006470 0.006040 -0.000632
# 2 -0.003863 0.037140 -0.038370 0.016593 -0.001503 0.013129
# 3 0.002876 -0.038370 0.119511 -0.091760 0.024615 -0.016706
# 4 -0.006470 0.016593 -0.091760 0.117022 -0.032238 0.005952
# 5 0.006040 -0.001503 0.024615 -0.032238 0.039860 0.000225
# 6 -0.000632 0.013129 -0.016706 0.005952 0.000225 0.034084
#
#
# Mechanical properties :
#
#
# Convention : Reuss Voigt Hill
#
# Bulk Modulus (GPa) = 11.68354 51.80641 31.74498
# Shear Modulus (GPa) = 10.81052 31.99577 21.40315
#
# Velocity S-wave (km/s) = 2.15111 3.70071 3.02676
# Velocity P-wave (km/s) = 3.34225 6.35887 5.07966
#
# Compressibility (1/GPa) = 0.08559052
#
# Stress axis : x y z
#
# Youngs Moduli (GPa) = 130.68406 26.92503 8.36740
#
# Poissons Ratio (x) = 0.10400 -0.02407
# Poissons Ratio (y) = 0.50479 0.32106
# Poissons Ratio (z) = -0.37586 1.03311
#
# Static dielectric constant tensor:
#      x y z
#    x 4.234960 -0.241320 -0.131360 
#    y -0.241320 4.095250 0.008020 
#    z -0.131360 0.008020 4.121390 
# 
# 
# High freq. dielectric constant tensor:
#      x y z
#    x 1.934590 -0.006510 -0.005090 
#    y -0.006510 1.935920 0.008170 
#    z -0.005090 0.008170 1.909860 
# 
# From -- ./inp_files/224409.got.cif
#   From: 2010.06.25/outbox.cif.g09.slc.cpg/sg2_113_cif.got.tgz:224409.got - 2010.06.27 13:26:56.
