data_PCOD8006389
_publ_section_title
;
Structure prediction by ZEFSAII (Michael W. Deem and Ramdas Pophale) SiO2 
 PCOD8006389
Probable space group: P -1
;
_chemical_formula_sum "Si O2"
_cell_formula_units_Z 14
_cell_length_a 30.255033
_cell_length_b 29.769738
_cell_length_c 9.035348
_cell_angle_alpha 32.463241
_cell_angle_beta 33.556973
_cell_angle_gamma 9.355772
_cell_volume 710.071924
_symmetry_space_group_name_H-M "P -1"
_symmetry_group_IT_number 2
_symmetry_cell_setting 'triclinic'
loop_
_space_group_symop_operation_xyz
x,y,z
-x,-y,-z
loop_
_atom_site_type_symbol
_atom_site_label
_atom_site_fract_x
_atom_site_fract_y
_atom_site_fract_z
Si Si1 0.370629 0.559986 0.087912
Si Si2 0.854130 0.971077 0.439017
Si Si3 0.568921 0.834694 0.258510
Si Si4 0.965540 0.723711 0.585508
Si Si5 0.754850 0.222175 0.464880
Si Si6 0.289937 0.914779 0.146109
Si Si7 0.810676 0.468865 0.796444
O O1 0.117126 0.766753 0.299304
O O2 0.500000 0.500000 0.000000
O O3 0.250796 0.719435 0.831743
O O4 0.619005 0.248704 0.222903
O O5 0.940503 0.798665 0.598934
O O6 0.710174 0.094078 0.653165
O O7 0.815171 0.571633 0.185199
O O8 0.676645 0.694908 0.509541
O O9 0.315980 0.032736 0.361699
O O10 0.500000 0.000000 0.000000
O O11 0.088629 0.662884 0.282705
O O12 0.500000 0.500000 0.500000
O O13 0.796749 0.083650 0.694679
O O14 0.000000 0.000000 0.500000
O O15 0.593753 0.627565 0.041003
O O16 0.079398 0.199719 0.897732
#
# Coordination Sequence:
#
# PCOD8006389 Si02
#       7
#     2   2   2   2   2   2   2
#     4  12  26  45  61  88 125 176 222 259 330 367
#     4  12  26  41  67  87 130 169 216 267 307 390
#     4  10  20  39  68  99 124 155 204 254 310 377
#     4  10  22  39  64  98 116 166 204 257 307 371
#     4  12  28  39  61  89 121 163 219 275 316 366
#     4  12  24  41  58  89 125 162 205 258 324 361
#     4  10  22  38  63  89 120 156 203 246 312 368
#
# _framework density 19.716313
#
# number of rings (size 3 to 8) (size 9 to 14) (size 15 to 20)
#    0.857    0.000    2.857    4.286    8.000    0.000 
#    0.000    0.000    0.000    5.143    0.000    0.000 
#    0.000    0.000    0.000    0.000    0.000    0.000 
#
# Total GULP energy -173471.623530 kJ/mol
# GULP energy per Si atom -12390.830252 kJ/mol
# Density = 1.967144 g / cm^3
# Si number density = 19.716313 Si / 1000 Ang^3
#
#
#
# Elastic Constant Matrix: (Units=GPa)
#
#
# Indices 1 2 3 4 5 6 
#
# 1 97.7510 40.0018 45.3866 -1.1223 7.0118 3.3283
# 2 40.0018 137.2628 31.5463 -7.0214 2.1756 -4.5888
# 3 45.3866 31.5463 75.9595 -11.0066 1.4597 2.3962
# 4 -1.1223 -7.0214 -11.0066 39.7499 4.7770 0.5326
# 5 7.0118 2.1756 1.4597 4.7770 22.2367 -3.7282
# 6 3.3283 -4.5888 2.3962 0.5326 -3.7282 30.8591
#
#
#
# Elastic Compliance Matrix: (Units=1/GPa)
#
#
# Indices 1 2 3 4 5 6 
#
# 1 0.015510 -0.002713 -0.008269 -0.001824 -0.004007 -0.001887
# 2 -0.002713 0.008608 -0.001888 0.000869 0.000241 0.001733
# 3 -0.008269 -0.001888 0.019615 0.004841 0.000304 -0.000959
# 4 -0.001824 0.000869 0.004841 0.027326 -0.005905 -0.001235
# 5 -0.004007 0.000241 0.000304 -0.005905 0.048534 0.006410
# 6 -0.001887 0.001733 -0.000959 -0.001235 0.006410 0.033737
#
#
# Mechanical properties :
#
#
# Convention : Reuss Voigt Hill
#
# Bulk Modulus (GPa) = 55.56816 60.53810 58.05313
# Shear Modulus (GPa) = 27.01730 31.50504 29.26117
#
# Velocity S-wave (km/s) = 3.70577 4.00173 3.85659
# Velocity P-wave (km/s) = 6.82315 7.21963 7.02419
#
# Compressibility (1/GPa) = 0.01799592
#
# Stress axis : x y z
#
# Youngs Moduli (GPa) = 64.47436 116.16831 50.98058
#
# Poissons Ratio (x) = 0.31511 0.42154
# Poissons Ratio (y) = 0.17489 0.09623
# Poissons Ratio (z) = 0.53312 0.21928
#
# Static dielectric constant tensor:
#      x y z
#    x 3.238780 0.087490 0.007150 
#    y 0.087490 3.952220 -0.072550 
#    z 0.007150 -0.072550 3.499140 
# 
# 
# High freq. dielectric constant tensor:
#      x y z
#    x 1.739760 0.000200 0.011620 
#    y 0.000200 1.805620 -0.005220 
#    z 0.011620 -0.005220 1.753460 
# 
# From -- ./inp_files/357909.got.cif
#   From: 2010.06.25/outbox.cif.g09.slc.cpg/sg2_179_cif.got.tgz:357909.got - 2010.06.27 13:26:56.
