data_PCOD8006820
_publ_section_title
;
Structure prediction by ZEFSAII (Michael W. Deem and Ramdas Pophale) SiO2 
 PCOD8006820
Probable space group: P -1
;
_chemical_formula_sum "Si O2"
_cell_formula_units_Z 16
_cell_length_a 8.678330
_cell_length_b 15.684362
_cell_length_c 12.687751
_cell_angle_alpha 46.364691
_cell_angle_beta 112.843546
_cell_angle_gamma 75.790274
_cell_volume 735.377592
_symmetry_space_group_name_H-M "P -1"
_symmetry_group_IT_number 2
_symmetry_cell_setting 'triclinic'
loop_
_space_group_symop_operation_xyz
x,y,z
-x,-y,-z
loop_
_atom_site_type_symbol
_atom_site_label
_atom_site_fract_x
_atom_site_fract_y
_atom_site_fract_z
Si Si1 0.709650 0.703578 0.737163
Si Si2 0.358370 0.499823 0.194495
Si Si3 0.304104 0.128003 0.994125
Si Si4 0.024385 0.225973 0.324923
Si Si5 0.741160 0.449324 0.637295
Si Si6 0.240829 0.545300 0.736751
Si Si7 0.489962 0.829574 0.799869
Si Si8 0.704485 0.740087 0.336617
O O1 0.551826 0.682171 0.658001
O O2 0.738285 0.805044 0.586741
O O3 0.596037 0.799083 0.738063
O O4 0.000000 0.500000 0.000000
O O5 0.219195 0.571968 0.208583
O O6 0.618371 0.439694 0.317509
O O7 0.150600 0.670270 0.914058
O O8 0.348889 0.193355 0.853895
O O9 0.999850 0.256192 0.814684
O O10 0.376859 0.153668 0.098317
O O11 0.484435 0.915472 0.204985
O O12 0.841914 0.338218 0.281545
O O13 0.175282 0.019482 0.550746
O O14 0.500000 0.500000 0.500000
O O15 0.683317 0.611901 0.443379
O O16 0.994600 0.621579 0.548697
O O17 0.451321 0.334752 0.009313
#
# Coordination Sequence:
#
# PCOD8006820 Si02
#       8
#     2   2   2   2   2   2   2   2
#     4  10  20  40  64  93 133 176 214 268 330 387
#     4  11  25  43  65  99 141 176 217 277 335 382
#     4  11  24  44  73 100 129 177 224 272 332 398
#     4  11  23  42  65  99 133 177 225 271 326 397
#     4  12  26  46  72 102 131 173 221 275 336 396
#     4  12  23  44  67  95 138 177 224 275 324 395
#     4  12  23  38  73  97 129 179 229 261 331 394
#     4  11  25  46  72  97 133 174 224 277 334 389
#
# _framework density 21.757531
#
# number of rings (size 3 to 8) (size 9 to 14) (size 15 to 20)
#    0.000    0.750    5.000    4.125    1.750    1.000 
#    0.000    0.000    0.000    0.000    0.000    0.000 
#    0.000    0.000    0.000    0.000    0.000    0.000 
#
# Total GULP energy -198417.200326 kJ/mol
# GULP energy per Si atom -12401.075020 kJ/mol
# Density = 2.170801 g / cm^3
# Si number density = 21.757531 Si / 1000 Ang^3
#
#
#
# Elastic Constant Matrix: (Units=GPa)
#
#
# Indices 1 2 3 4 5 6 
#
# 1 118.1442 28.1464 25.6540 -15.7141 10.5781 5.2365
# 2 28.1464 99.3589 34.2356 -20.2734 13.4764 -11.2100
# 3 25.6540 34.2356 97.0701 -23.1310 3.6248 2.6703
# 4 -15.7141 -20.2734 -23.1310 37.7404 -1.0658 1.4952
# 5 10.5781 13.4764 3.6248 -1.0658 20.7106 6.4768
# 6 5.2365 -11.2100 2.6703 1.4952 6.4768 23.4587
#
#
#
# Elastic Compliance Matrix: (Units=1/GPa)
#
#
# Indices 1 2 3 4 5 6 
#
# 1 0.009821 -0.001729 -0.001244 0.002406 -0.002847 -0.002244
# 2 -0.001729 0.015727 -0.003865 0.004570 -0.011992 0.011361
# 3 -0.001244 -0.003865 0.013414 0.005858 0.002396 -0.004131
# 4 0.002406 0.004570 0.005858 0.033455 -0.003443 -0.000202
# 5 -0.002847 -0.011992 0.002396 -0.003443 0.064089 -0.022843
# 6 -0.002244 0.011361 -0.004131 -0.000202 -0.022843 0.055348
#
#
# Mechanical properties :
#
#
# Convention : Reuss Voigt Hill
#
# Bulk Modulus (GPa) = 39.55051 54.51614 47.03333
# Shear Modulus (GPa) = 23.36890 31.48441 27.42666
#
# Velocity S-wave (km/s) = 3.28084 3.80815 3.55429
# Velocity P-wave (km/s) = 5.70694 6.66683 6.20547
#
# Compressibility (1/GPa) = 0.02528412
#
# Stress axis : x y z
#
# Youngs Moduli (GPa) = 101.82434 63.58446 74.54851
#
# Poissons Ratio (x) = 0.10997 0.09275
# Poissons Ratio (y) = 0.17610 0.28816
# Poissons Ratio (z) = 0.12668 0.24578
#
# Static dielectric constant tensor:
#      x y z
#    x 4.318150 0.125910 -0.316090 
#    y 0.125910 4.216590 -0.269350 
#    z -0.316090 -0.269350 4.191220 
# 
# 
# High freq. dielectric constant tensor:
#      x y z
#    x 1.849790 -0.010400 -0.005130 
#    y -0.010400 1.867520 -0.003350 
#    z -0.005130 -0.003350 1.855540 
# 
# From -- ./inp_files/398620.got.cif
#   From: 2010.06.25/outbox.cif.g09.slc.cpg/sg2_200_cif.got.tgz:398620.got - 2010.06.27 13:26:56.
