data_PCOD8006926
_publ_section_title
;
Structure prediction by ZEFSAII (Michael W. Deem and Ramdas Pophale) SiO2 
 PCOD8006926
Probable space group: P -1
;
_chemical_formula_sum "Si O2"
_cell_formula_units_Z 12
_cell_length_a 16.272384
_cell_length_b 9.734781
_cell_length_c 14.456317
_cell_angle_alpha 144.194317
_cell_angle_beta 153.899593
_cell_angle_gamma 28.315766
_cell_volume 475.579462
_symmetry_space_group_name_H-M "P -1"
_symmetry_group_IT_number 2
_symmetry_cell_setting 'triclinic'
loop_
_space_group_symop_operation_xyz
x,y,z
-x,-y,-z
loop_
_atom_site_type_symbol
_atom_site_label
_atom_site_fract_x
_atom_site_fract_y
_atom_site_fract_z
Si Si1 0.834681 0.641842 0.111912
Si Si2 0.684562 0.884566 0.748773
Si Si3 0.198217 0.119237 0.417306
Si Si4 0.012511 0.238933 0.487907
Si Si5 0.655751 0.110007 0.044365
Si Si6 0.251981 0.687331 0.029297
O O1 0.093121 0.441290 0.221731
O O2 0.837064 0.800044 0.292719
O O3 0.740521 0.450058 0.938547
O O4 0.660333 0.880612 0.991341
O O5 0.461370 0.880204 0.518554
O O6 0.706546 0.001136 0.931976
O O7 0.665819 0.102481 0.769447
O O8 0.158492 0.426455 0.533553
O O9 0.184117 0.054857 0.475407
O O10 0.015360 0.110424 0.165720
O O11 0.857174 0.130520 0.296126
O O12 0.406166 0.421770 0.967747
#
# Coordination Sequence:
#
# PCOD8006926 Si02
#       6
#     2   2   2   2   2   2
#     4  11  26  40  62  99 137 157 204 273 324 358
#     4  12  23  43  68  94 127 168 209 265 314 371
#     4  10  21  40  69  96 119 166 221 259 301 374
#     4  10  20  40  65  93 125 165 217 255 303 384
#     4  12  22  43  68  93 125 175 211 253 315 386
#     4  11  23  43  70  93 123 171 220 253 304 388
#
# _framework density 25.232378000000001
#
# number of rings (size 3 to 8) (size 9 to 14) (size 15 to 20)
#    0.000    1.000    3.333    5.500    0.000    2.667 
#    3.000    0.833    0.000    0.000    0.000    0.000 
#    0.000    0.000    0.000    0.000    0.000    0.000 
#
# Total GULP energy -148838.105882 kJ/mol
# GULP energy per Si atom -12403.175490 kJ/mol
# Density = 2.517495 g / cm^3
# Si number density = 25.232378 Si / 1000 Ang^3
#
#
#
# Elastic Constant Matrix: (Units=GPa)
#
#
# Indices 1 2 3 4 5 6 
#
# 1 77.0542 5.9337 12.3060 -6.0029 15.7224 7.7604
# 2 5.9337 57.8211 11.0506 -10.8837 6.3753 3.0700
# 3 12.3060 11.0506 63.8478 -9.9008 25.3640 1.0652
# 4 -6.0029 -10.8837 -9.9008 24.5348 -3.9418 8.9775
# 5 15.7224 6.3753 25.3640 -3.9418 37.0292 -5.8305
# 6 7.7604 3.0700 1.0652 8.9775 -5.8305 39.1864
#
#
#
# Elastic Compliance Matrix: (Units=1/GPa)
#
#
# Indices 1 2 3 4 5 6 
#
# 1 0.015252 0.000308 0.000793 0.004941 -0.007380 -0.005296
# 2 0.000308 0.019741 -0.000913 0.009576 -0.002539 -0.004154
# 3 0.000793 -0.000913 0.023498 0.008535 -0.016167 -0.005085
# 4 0.004941 0.009576 0.008535 0.054264 -0.006228 -0.015319
# 5 -0.007380 -0.002539 -0.016167 -0.006228 0.042540 0.009856
# 6 -0.005296 -0.004154 -0.005085 -0.015319 0.009856 0.032008
#
#
# Mechanical properties :
#
#
# Convention : Reuss Voigt Hill
#
# Bulk Modulus (GPa) = 16.98737 28.58930 22.78834
# Shear Modulus (GPa) = 24.20745 31.44560 27.82652
#
# Velocity S-wave (km/s) = 3.10075 3.53404 3.32446
# Velocity P-wave (km/s) = 4.42340 5.29222 4.87720
#
# Compressibility (1/GPa) = 0.05886725
#
# Stress axis : x y z
#
# Youngs Moduli (GPa) = 65.56687 50.65686 42.55618
#
# Poissons Ratio (x) = -0.01561 -0.03377
# Poissons Ratio (y) = -0.02020 0.03886
# Poissons Ratio (z) = -0.05202 0.04626
#
# Static dielectric constant tensor:
#      x y z
#    x 4.920670 -0.126100 0.318210 
#    y -0.126100 4.225840 -0.003180 
#    z 0.318210 -0.003180 4.229200 
# 
# 
# High freq. dielectric constant tensor:
#      x y z
#    x 2.030240 -0.015850 0.015820 
#    y -0.015850 1.978730 -0.000010 
#    z 0.015820 -0.000010 1.995260 
# 
# From -- ./inp_files/173522.got.cif
#   From: 2010.06.25/outbox.cif.g09.slc.cpg/sg2_87_cif.got.tgz:173522.got - 2010.06.27 13:26:56.
