data_PCOD8006471
_publ_section_title
;
Structure prediction by ZEFSAII (Michael W. Deem and Ramdas Pophale) SiO2 
 PCOD8006471
Probable space group: P -1
;
_chemical_formula_sum "Si O2"
_cell_formula_units_Z 12
_cell_length_a 7.680895
_cell_length_b 16.081115
_cell_length_c 4.975763
_cell_angle_alpha 59.929301
_cell_angle_beta 117.551508
_cell_angle_gamma 117.242733
_cell_volume 450.637399
_symmetry_space_group_name_H-M "P -1"
_symmetry_group_IT_number 2
_symmetry_cell_setting 'triclinic'
loop_
_space_group_symop_operation_xyz
x,y,z
-x,-y,-z
loop_
_atom_site_type_symbol
_atom_site_label
_atom_site_fract_x
_atom_site_fract_y
_atom_site_fract_z
Si Si1 0.206666 0.865566 0.263909
Si Si2 0.686396 0.537759 0.870878
Si Si3 0.486676 0.657252 0.150147
Si Si4 0.083831 0.079176 0.666528
Si Si5 0.135368 0.273341 0.039718
Si Si6 0.457007 0.856212 0.968228
O O1 0.319029 0.898370 0.005790
O O2 0.071657 0.938232 0.153235
O O3 0.038721 0.757047 0.267448
O O4 0.385578 0.867745 0.596337
O O5 0.630049 0.601031 0.488659
O O6 0.717080 0.431952 0.954965
O O7 0.500000 0.500000 0.000000
O O8 0.874560 0.618152 0.027748
O O9 0.635479 0.719618 0.918300
O O10 0.422372 0.735918 0.171066
O O11 0.308447 0.078394 0.929863
O O12 0.088800 0.188825 0.377904
O O13 0.000000 0.000000 0.500000
#
# Coordination Sequence:
#
# PCOD8006471 Si02
#       6
#     2   2   2   2   2   2
#     4  12  27  47  74 111 149 188 249 304 366 440
#     4   9  19  35  72 106 139 196 245 290 362 435
#     4  10  20  39  73 105 143 199 240 292 371 428
#     4  12  28  51  78 106 146 198 245 305 374 433
#     4  11  20  47  71 103 151 189 240 308 357 429
#     4  12  26  47  76 107 151 193 240 304 370 435
#
# _framework density 26.628951000000001
#
# number of rings (size 3 to 8) (size 9 to 14) (size 15 to 20)
#    0.000    1.000    5.000    1.000    2.333    2.000 
#    0.000    1.667    0.000    0.000    0.000    0.000 
#    0.000    0.000    0.000    0.000    0.000    0.000 
#
# Total GULP energy -148678.779118 kJ/mol
# GULP energy per Si atom -12389.898260 kJ/mol
# Density = 2.656834 g / cm^3
# Si number density = 26.628951 Si / 1000 Ang^3
#
#
#
# Elastic Constant Matrix: (Units=GPa)
#
#
# Indices 1 2 3 4 5 6 
#
# 1 122.7496 77.8097 29.6969 4.7140 -9.7558 -14.2880
# 2 77.8097 235.0933 43.5458 40.3535 3.5060 -0.0558
# 3 29.6969 43.5458 73.6926 30.0292 -1.3901 3.2453
# 4 4.7140 40.3535 30.0292 53.1936 5.6352 0.9520
# 5 -9.7558 3.5060 -1.3901 5.6352 41.7244 8.6014
# 6 -14.2880 -0.0558 3.2453 0.9520 8.6014 34.1607
#
#
#
# Elastic Compliance Matrix: (Units=1/GPa)
#
#
# Indices 1 2 3 4 5 6 
#
# 1 0.012314 -0.003985 -0.004536 0.004249 0.001439 0.005094
# 2 -0.003985 0.006372 -0.000421 -0.004151 -0.000645 -0.001338
# 3 -0.004536 -0.000421 0.020288 -0.010866 0.001945 -0.004012
# 4 0.004249 -0.004151 -0.010866 0.028014 -0.003396 0.002877
# 5 0.001439 -0.000645 0.001945 -0.003396 0.026132 -0.006069
# 6 0.005094 -0.001338 -0.004012 0.002877 -0.006069 0.033231
#
#
# Mechanical properties :
#
#
# Convention : Reuss Voigt Hill
#
# Bulk Modulus (GPa) = 47.41743 81.51559 64.46651
# Shear Modulus (GPa) = 33.05401 44.51460 38.78431
#
# Velocity S-wave (km/s) = 3.52700 4.09303 3.82051
# Velocity P-wave (km/s) = 5.86785 7.28116 6.61238
#
# Compressibility (1/GPa) = 0.02108929
#
# Stress axis : x y z
#
# Youngs Moduli (GPa) = 81.20565 156.92572 49.28999
#
# Poissons Ratio (x) = 0.62536 0.22360
# Poissons Ratio (y) = 0.32361 0.02077
# Poissons Ratio (z) = 0.36838 0.06612
#
# Static dielectric constant tensor:
#      x y z
#    x 4.378480 -0.266440 0.096370 
#    y -0.266440 6.182970 0.200380 
#    z 0.096370 0.200380 4.482470 
# 
# 
# High freq. dielectric constant tensor:
#      x y z
#    x 2.043460 -0.005180 -0.027990 
#    y -0.005180 2.116760 0.007400 
#    z -0.027990 0.007400 2.061080 
# 
# From -- ./inp_files/46857.got.cif
#   From: 2010.06.25/outbox.cif.g09.slc.cpg/sg2_24_cif.got.tgz:46857.got - 2010.06.27 13:26:56.
