data_PCOD8006254
_publ_section_title
;
Structure prediction by ZEFSAII (Michael W. Deem and Ramdas Pophale) SiO2 
 PCOD8006254
Probable space group: P -1
;
_chemical_formula_sum "Si O2"
_cell_formula_units_Z 16
_cell_length_a 11.132176
_cell_length_b 12.612766
_cell_length_c 10.921259
_cell_angle_alpha 49.853645
_cell_angle_beta 67.547682
_cell_angle_gamma 105.727631
_cell_volume 737.769214
_symmetry_space_group_name_H-M "P -1"
_symmetry_group_IT_number 2
_symmetry_cell_setting 'triclinic'
loop_
_space_group_symop_operation_xyz
x,y,z
-x,-y,-z
loop_
_atom_site_type_symbol
_atom_site_label
_atom_site_fract_x
_atom_site_fract_y
_atom_site_fract_z
Si Si1 0.090229 0.233649 0.095106
Si Si2 0.204069 0.580652 0.655277
Si Si3 0.350128 0.184444 0.058158
Si Si4 0.004668 0.714892 0.264091
Si Si5 0.845883 0.871992 0.277096
Si Si6 0.065534 0.767366 0.610193
Si Si7 0.385324 0.131838 0.810127
Si Si8 0.758298 0.552260 0.700121
O O1 0.209285 0.463191 0.840852
O O2 0.238063 0.238442 0.088229
O O3 0.937751 0.153616 0.319320
O O4 0.978027 0.090699 0.126615
O O5 0.059222 0.425744 0.719721
O O6 0.127413 0.658428 0.692173
O O7 0.412105 0.772569 0.376569
O O8 0.214099 0.951308 0.320733
O O9 0.403368 0.221648 0.866600
O O10 0.543774 0.326136 0.956143
O O11 0.969256 0.857197 0.156738
O O12 0.892395 0.573595 0.533481
O O13 0.234541 0.885758 0.060041
O O14 0.674443 0.802788 0.317526
O O15 0.750922 0.707827 0.546249
O O16 0.852636 0.607495 0.754845
#
# Coordination Sequence:
#
# PCOD8006254 Si02
#       8
#     2   2   2   2   2   2   2   2
#     4  12  24  47  71  93 134 185 226 271 321 391
#     4  12  27  42  69  98 137 182 215 272 336 403
#     4  12  23  43  76 102 126 171 226 285 335 384
#     4  10  20  39  66  99 133 163 209 286 336 384
#     4  10  20  39  71 100 129 167 220 283 327 375
#     4  12  28  48  61  95 147 182 220 262 327 406
#     4  12  20  41  69 107 131 160 223 284 337 387
#     4  10  23  42  67 103 129 172 217 277 339 385
#
# _framework density 21.686997999999999
#
# number of rings (size 3 to 8) (size 9 to 14) (size 15 to 20)
#    0.750    0.000    6.250    2.625    0.000    4.000 
#    2.250    0.625    0.000    0.000    0.000    0.000 
#    0.000    0.000    0.000    0.000    0.000    0.000 
#
# Total GULP energy -198437.593592 kJ/mol
# GULP energy per Si atom -12402.349599 kJ/mol
# Density = 2.163764 g / cm^3
# Si number density = 21.686998 Si / 1000 Ang^3
#
#
#
# Elastic Constant Matrix: (Units=GPa)
#
#
# Indices 1 2 3 4 5 6 
#
# 1 64.4360 38.2465 37.3644 -13.3904 -11.6081 -0.2820
# 2 38.2465 93.4538 29.9065 8.7093 -15.4184 -3.4615
# 3 37.3644 29.9065 82.1087 -9.4992 -22.3450 1.9561
# 4 -13.3904 8.7093 -9.4992 31.2272 7.0231 -3.7126
# 5 -11.6081 -15.4184 -22.3450 7.0231 35.1014 -4.9770
# 6 -0.2820 -3.4615 1.9561 -3.7126 -4.9770 26.5010
#
#
#
# Elastic Compliance Matrix: (Units=1/GPa)
#
#
# Indices 1 2 3 4 5 6 
#
# 1 0.029417 -0.011080 -0.008665 0.013915 -0.003321 0.000831
# 2 -0.011080 0.017667 -0.001128 -0.011124 0.005861 0.001815
# 3 -0.008665 -0.001128 0.018923 0.000425 0.008606 0.000039
# 4 0.013915 -0.011124 0.000425 0.043459 -0.008256 0.003202
# 5 -0.003321 0.005861 0.008606 -0.008256 0.037956 0.006067
# 6 0.000831 0.001815 0.000039 0.003202 0.006067 0.039565
#
#
# Mechanical properties :
#
#
# Convention : Reuss Voigt Hill
#
# Bulk Modulus (GPa) = 41.21691 50.11480 45.66585
# Shear Modulus (GPa) = 21.11308 27.53133 24.32220
#
# Velocity S-wave (km/s) = 3.12354 3.56685 3.35253
# Velocity P-wave (km/s) = 5.66174 6.33416 6.00737
#
# Compressibility (1/GPa) = 0.02426189
#
# Stress axis : x y z
#
# Youngs Moduli (GPa) = 33.99347 56.60277 52.84611
#
# Poissons Ratio (x) = 0.62717 0.45789
# Poissons Ratio (y) = 0.37666 0.05960
# Poissons Ratio (z) = 0.29454 0.06384
#
# Static dielectric constant tensor:
#      x y z
#    x 3.701730 0.052950 0.029180 
#    y 0.052950 3.668310 -0.033290 
#    z 0.029180 -0.033290 3.890440 
# 
# 
# High freq. dielectric constant tensor:
#      x y z
#    x 1.839990 0.006410 0.001820 
#    y 0.006410 1.839570 -0.004490 
#    z 0.001820 -0.004490 1.854170 
# 
# From -- ./inp_files/427547.got.cif
#   From: 2010.06.25/outbox.cif.g09.slc.cpg/sg2_214_cif.got.tgz:427547.got - 2010.06.27 13:26:56.
