data_PCOD8006872
_publ_section_title
;
Structure prediction by ZEFSAII (Michael W. Deem and Ramdas Pophale) SiO2 
 PCOD8006872
Probable space group: P -1
;
_chemical_formula_sum "Si O2"
_cell_formula_units_Z 12
_cell_length_a 14.647140
_cell_length_b 8.784147
_cell_length_c 9.792849
_cell_angle_alpha 88.109535
_cell_angle_beta 71.262138
_cell_angle_gamma 34.847886
_cell_volume 616.755165
_symmetry_space_group_name_H-M "P -1"
_symmetry_group_IT_number 2
_symmetry_cell_setting 'triclinic'
loop_
_space_group_symop_operation_xyz
x,y,z
-x,-y,-z
loop_
_atom_site_type_symbol
_atom_site_label
_atom_site_fract_x
_atom_site_fract_y
_atom_site_fract_z
Si Si1 0.110094 0.804887 0.315529
Si Si2 0.759890 0.858819 0.686896
Si Si3 0.895371 0.804741 0.368183
Si Si4 0.290149 0.833190 0.080393
Si Si5 0.802001 0.838464 0.119056
Si Si6 0.536817 0.884904 0.834099
O O1 0.139286 0.916349 0.207144
O O2 0.314334 0.453943 0.244029
O O3 0.980246 0.857399 0.299189
O O4 0.000000 0.000000 0.500000
O O5 0.759774 0.983021 0.560095
O O6 0.615173 0.922901 0.710976
O O7 0.954073 0.522177 0.648010
O O8 0.699871 0.023626 0.847149
O O9 0.785759 0.899918 0.284434
O O10 0.500000 0.500000 0.000000
O O11 0.230598 0.959076 0.952101
O O12 0.652087 0.912737 0.151546
O O13 0.000000 0.500000 0.000000
O O14 0.500000 0.000000 0.000000
#
# Coordination Sequence:
#
# PCOD8006872 Si02
#       6
#     2   2   2   2   2   2
#     4  11  22  40  67  94 129 175 215 259 331 390
#     4  10  20  40  65  87 125 174 213 247 329 394
#     4  10  22  39  63  94 126 166 213 267 313 384
#     4  12  22  40  66  93 126 174 212 261 327 386
#     4  12  23  39  65  98 130 161 225 275 309 378
#     4  11  21  40  66  93 126 178 218 258 321 400
#
# _framework density 19.456665999999998
#
# number of rings (size 3 to 8) (size 9 to 14) (size 15 to 20)
#    0.000    1.000    6.667    1.000    0.000    1.333 
#    0.000    3.333    0.000    0.000    0.000    0.000 
#    0.000    0.000    0.000    0.000    0.000    0.000 
#
# Total GULP energy -148714.482562 kJ/mol
# GULP energy per Si atom -12392.873547 kJ/mol
# Density = 1.941238 g / cm^3
# Si number density = 19.456666 Si / 1000 Ang^3
#
#
#
# Elastic Constant Matrix: (Units=GPa)
#
#
# Indices 1 2 3 4 5 6 
#
# 1 129.0844 46.2914 28.2279 -24.5228 -5.5720 -15.4198
# 2 46.2914 82.8831 44.7751 -6.5517 -3.8806 -5.4642
# 3 28.2279 44.7751 93.4253 -15.3187 5.5157 -9.5205
# 4 -24.5228 -6.5517 -15.3187 39.5623 6.9785 0.3660
# 5 -5.5720 -3.8806 5.5157 6.9785 42.1757 -4.2446
# 6 -15.4198 -5.4642 -9.5205 0.3660 -4.2446 35.8873
#
#
#
# Elastic Compliance Matrix: (Units=1/GPa)
#
#
# Indices 1 2 3 4 5 6 
#
# 1 0.011456 -0.006110 0.000928 0.006375 0.000197 0.004197
# 2 -0.006110 0.019861 -0.008701 -0.004333 0.002720 -0.001544
# 3 0.000928 -0.008701 0.016064 0.005941 -0.003474 0.002864
# 4 0.006375 -0.004333 0.005941 0.031723 -0.005310 0.002704
# 5 0.000197 0.002720 -0.003474 -0.005310 0.025587 0.002658
# 6 0.004197 -0.001544 0.002864 0.002704 0.002658 0.030480
#
#
# Mechanical properties :
#
#
# Convention : Reuss Voigt Hill
#
# Bulk Modulus (GPa) = 50.97826 60.44240 55.71033
# Shear Modulus (GPa) = 29.50295 35.93161 32.71728
#
# Velocity S-wave (km/s) = 3.89825 4.30205 4.10511
# Velocity P-wave (km/s) = 6.82053 7.47057 7.15293
#
# Compressibility (1/GPa) = 0.01961620
#
# Stress axis : x y z
#
# Youngs Moduli (GPa) = 87.29144 50.34972 62.24969
#
# Poissons Ratio (x) = 0.30763 -0.05778
# Poissons Ratio (y) = 0.53334 0.54163
# Poissons Ratio (z) = -0.08102 0.43809
#
# Static dielectric constant tensor:
#      x y z
#    x 4.159680 0.298510 -0.133490 
#    y 0.298510 3.517920 0.072580 
#    z -0.133490 0.072580 3.763060 
# 
# 
# High freq. dielectric constant tensor:
#      x y z
#    x 1.772540 0.012150 -0.011430 
#    y 0.012150 1.735190 0.010820 
#    z -0.011430 0.010820 1.768660 
# 
# From -- ./inp_files/145901.got.cif
#   From: 2010.06.25/outbox.cif.g09.slc.cpg/sg2_73_cif.got.tgz:145901.got - 2010.06.27 13:26:56.
