data_PCOD8006775
_publ_section_title
;
Structure prediction by ZEFSAII (Michael W. Deem and Ramdas Pophale) SiO2 
 PCOD8006775
Probable space group: P -1
;
_chemical_formula_sum "Si O2"
_cell_formula_units_Z 16
_cell_length_a 6.343400
_cell_length_b 6.313096
_cell_length_c 26.202979
_cell_angle_alpha 105.523400
_cell_angle_beta 48.107737
_cell_angle_gamma 91.854440
_cell_volume 736.800711
_symmetry_space_group_name_H-M "P -1"
_symmetry_group_IT_number 2
_symmetry_cell_setting 'triclinic'
loop_
_space_group_symop_operation_xyz
x,y,z
-x,-y,-z
loop_
_atom_site_type_symbol
_atom_site_label
_atom_site_fract_x
_atom_site_fract_y
_atom_site_fract_z
Si Si1 0.467641 0.861666 0.155954
Si Si2 0.032837 0.081836 0.592399
Si Si3 0.434115 0.548283 0.354408
Si Si4 0.535541 0.344071 0.533789
Si Si5 0.517799 0.838819 0.033750
Si Si6 0.411983 0.082660 0.282312
Si Si7 0.980361 0.436422 0.910601
Si Si8 0.885961 0.713708 0.228102
O O1 0.476945 0.962386 0.103701
O O2 0.748539 0.663970 0.104191
O O3 0.192654 0.747877 0.201013
O O4 0.462301 0.056913 0.211445
O O5 0.272381 0.220027 0.578217
O O6 0.810986 0.228228 0.598576
O O7 0.172315 0.844383 0.528863
O O8 0.861158 0.028763 0.666999
O O9 0.451048 0.498006 0.409021
O O10 0.346864 0.343095 0.324844
O O11 0.739732 0.592141 0.288027
O O12 0.500000 0.500000 0.500000
O O13 0.258307 0.713816 0.059450
O O14 0.835868 0.680107 0.970961
O O15 0.500000 0.000000 0.000000
O O16 0.694193 0.956086 0.259047
O O17 0.084143 0.450719 0.836339
#
# Coordination Sequence:
#
# PCOD8006775 Si02
#       8
#     2   2   2   2   2   2   2   2
#     4  10  20  40  64  87 122 160 198 248 299 353
#     4  10  23  42  62  88 122 158 200 247 301 356
#     4  11  23  41  64  88 121 160 198 246 300 357
#     4  11  24  40  63  93 121 156 201 247 299 359
#     4  10  21  38  60  89 123 157 197 246 298 353
#     4  10  22  39  61  91 121 156 202 248 299 355
#     4   9  20  39  60  88 119 156 202 246 296 352
#     4   9  21  39  61  87 120 157 200 251 298 350
#
# _framework density 21.715506000000001
#
# number of rings (size 3 to 8) (size 9 to 14) (size 15 to 20)
#    0.000    2.000    0.000    2.250    0.000   11.500 
#    0.000   12.500    0.000    0.000    0.000    0.000 
#    0.000    0.000    0.000    0.000    0.000    0.000 
#
# Total GULP energy -198398.047286 kJ/mol
# GULP energy per Si atom -12399.877955 kJ/mol
# Density = 2.166608 g / cm^3
# Si number density = 21.715506 Si / 1000 Ang^3
#
#
#
# Elastic Constant Matrix: (Units=GPa)
#
#
# Indices 1 2 3 4 5 6 
#
# 1 105.3941 48.7956 69.7753 -0.8579 8.6613 -12.0459
# 2 48.7956 102.7612 68.6577 1.2232 18.5994 -10.2973
# 3 69.7753 68.6577 146.4482 0.5681 12.4402 -14.5318
# 4 -0.8579 1.2232 0.5681 21.7689 -3.8859 10.1679
# 5 8.6613 18.5994 12.4402 -3.8859 53.5601 -0.3666
# 6 -12.0459 -10.2973 -14.5318 10.1679 -0.3666 19.5018
#
#
#
# Elastic Compliance Matrix: (Units=1/GPa)
#
#
# Indices 1 2 3 4 5 6 
#
# 1 0.014848 -0.003129 -0.005167 -0.001118 -0.000166 0.004249
# 2 -0.003129 0.015886 -0.005156 -0.003687 -0.004050 0.004460
# 3 -0.005167 -0.005156 0.012180 -0.002335 -0.000342 0.004373
# 4 -0.001118 -0.003687 -0.002335 0.065177 0.006471 -0.038239
# 5 -0.000166 -0.004050 -0.000342 0.006471 0.020615 -0.005483
# 6 0.004249 0.004460 0.004373 -0.038239 -0.005483 0.079349
#
#
# Mechanical properties :
#
#
# Convention : Reuss Voigt Hill
#
# Bulk Modulus (GPa) = 62.46497 81.00675 71.73586
# Shear Modulus (GPa) = 20.80774 30.12447 25.46611
#
# Velocity S-wave (km/s) = 3.09883 3.72860 3.42821
# Velocity P-wave (km/s) = 6.45223 7.47805 6.98400
#
# Compressibility (1/GPa) = 0.01600897
#
# Stress axis : x y z
#
# Youngs Moduli (GPa) = 67.34909 62.95001 82.10476
#
# Poissons Ratio (x) = 0.19696 0.42427
# Poissons Ratio (y) = 0.21072 0.42332
# Poissons Ratio (z) = 0.34802 0.32456
#
# Static dielectric constant tensor:
#      x y z
#    x 3.784700 -0.085780 -0.148450 
#    y -0.085780 3.597690 0.013810 
#    z -0.148450 0.013810 4.438570 
# 
# 
# High freq. dielectric constant tensor:
#      x y z
#    x 1.852040 -0.004800 -0.006620 
#    y -0.004800 1.825710 -0.001650 
#    z -0.006620 -0.001650 1.880530 
# 
# From -- ./inp_files/11111.got.cif
#   From: 2010.06.25/outbox.cif.g09.slc.cpg/sg2_6_cif.got.tgz:11111.got - 2010.06.27 13:26:56.
