data_PCOD8006219
_publ_section_title
;
Structure prediction by ZEFSAII (Michael W. Deem and Ramdas Pophale) SiO2 
 PCOD8006219
Probable space group: P -1
;
_chemical_formula_sum "Si O2"
_cell_formula_units_Z 16
_cell_length_a 16.696396
_cell_length_b 10.607478
_cell_length_c 17.399905
_cell_angle_alpha 147.290785
_cell_angle_beta 147.138498
_cell_angle_gamma 31.738645
_cell_volume 787.670909
_symmetry_space_group_name_H-M "P -1"
_symmetry_group_IT_number 2
_symmetry_cell_setting 'triclinic'
loop_
_space_group_symop_operation_xyz
x,y,z
-x,-y,-z
loop_
_atom_site_type_symbol
_atom_site_label
_atom_site_fract_x
_atom_site_fract_y
_atom_site_fract_z
Si Si1 0.601079 0.542611 0.993824
Si Si2 0.981062 0.346248 0.201638
Si Si3 0.348264 0.930561 0.108505
Si Si4 0.384554 0.808514 0.816663
Si Si5 0.696585 0.669045 0.905787
Si Si6 0.352096 0.426685 0.355000
Si Si7 0.141181 0.702185 0.471501
Si Si8 0.982557 0.127026 0.929532
O O1 0.619839 0.264475 0.894836
O O2 0.530842 0.586771 0.874192
O O3 0.778669 0.540655 0.141076
O O4 0.464222 0.789469 0.057438
O O5 0.070356 0.525813 0.364322
O O6 0.034838 0.178371 0.081383
O O7 0.043526 0.134628 0.215645
O O8 0.407225 0.141057 0.293079
O O9 0.154084 0.055035 0.983667
O O10 0.494756 0.811959 0.834232
O O11 0.272732 0.685638 0.632642
O O12 0.264607 0.100785 0.910333
O O13 0.725201 0.602383 0.803938
O O14 0.816699 0.382104 0.894627
O O15 0.500000 0.500000 0.500000
O O16 0.212455 0.631095 0.405647
O O17 0.000000 0.000000 0.500000
#
# Coordination Sequence:
#
# PCOD8006219 Si02
#       8
#     2   2   2   2   2   2   2   2
#     4  10  21  42  71  93 125 172 216 267 309 391
#     4  10  21  40  66  92 128 164 214 263 324 374
#     4  10  22  40  67  95 124 169 217 256 326 378
#     4  11  23  40  66  98 127 169 222 259 326 378
#     4  11  23  40  67  93 128 172 218 267 311 391
#     4  12  25  42  60  94 133 169 212 263 325 381
#     4  12  27  42  63  98 133 172 209 272 331 378
#     4  10  20  39  66  94 120 166 219 266 307 381
#
# _framework density 20.313051999999999
#
# number of rings (size 3 to 8) (size 9 to 14) (size 15 to 20)
#    0.000    1.250    5.000    0.750    3.500    1.500 
#    2.250    1.250    0.000    3.000    0.000    0.000 
#    0.000    0.000    0.000    0.000    0.000    0.000 
#
# Total GULP energy -198222.082690 kJ/mol
# GULP energy per Si atom -12388.880168 kJ/mol
# Density = 2.026682 g / cm^3
# Si number density = 20.313052 Si / 1000 Ang^3
#
#
#
# Elastic Constant Matrix: (Units=GPa)
#
#
# Indices 1 2 3 4 5 6 
#
# 1 110.6244 42.1928 66.9182 11.1732 7.0645 -15.9153
# 2 42.1928 96.4149 52.0039 15.0692 -14.1269 -17.0643
# 3 66.9182 52.0039 128.9352 13.8493 17.1398 2.7539
# 4 11.1732 15.0692 13.8493 27.9840 8.8434 1.5125
# 5 7.0645 -14.1269 17.1398 8.8434 29.8171 0.0080
# 6 -15.9153 -17.0643 2.7539 1.5125 0.0080 33.9626
#
#
#
# Elastic Compliance Matrix: (Units=1/GPa)
#
#
# Indices 1 2 3 4 5 6 
#
# 1 0.015203 -0.000432 -0.007771 -0.002884 0.001514 0.007665
# 2 -0.000432 0.025311 -0.011711 -0.015862 0.023527 0.014165
# 3 -0.007771 -0.011711 0.018227 0.006046 -0.015975 -0.011269
# 4 -0.002884 -0.015862 0.006046 0.051138 -0.025471 -0.012083
# 5 0.001514 0.023527 -0.015975 -0.025471 0.061059 0.014945
# 6 0.007665 0.014165 -0.011269 -0.012083 0.014945 0.041602
#
#
# Mechanical properties :
#
#
# Convention : Reuss Voigt Hill
#
# Bulk Modulus (GPa) = 52.87409 73.13381 63.00395
# Shear Modulus (GPa) = 19.32952 30.01004 24.66978
#
# Velocity S-wave (km/s) = 3.08812 3.84784 3.48872
# Velocity P-wave (km/s) = 6.22908 7.47146 6.87837
#
# Compressibility (1/GPa) = 0.01891285
#
# Stress axis : x y z
#
# Youngs Moduli (GPa) = 65.77763 39.50886 54.86271
#
# Poissons Ratio (x) = 0.01708 0.42635
# Poissons Ratio (y) = 0.02843 0.64248
# Poissons Ratio (z) = 0.51117 0.46267
#
# Static dielectric constant tensor:
#      x y z
#    x 2.028500 -1.724920 -3.793980 
#    y -1.724920 2.350080 -3.106820 
#    z -3.793980 -3.106820 -3.743790 
# 
# 
# High freq. dielectric constant tensor:
#      x y z
#    x 1.812930 -0.006550 0.013000 
#    y -0.006550 1.803790 0.017870 
#    z 0.013000 0.017870 1.764560 
# 
# From -- ./inp_files/576010.got.cif
#   From: 2010.06.25/outbox.cif.g09.slc.cpg/sg2_289_cif.got.tgz:576010.got - 2010.06.27 13:26:56.
