data_PCOD8006159
_publ_section_title
;
Structure prediction by ZEFSAII (Michael W. Deem and Ramdas Pophale) SiO2 
 PCOD8006159
Probable space group: P -1
;
_chemical_formula_sum "Si O2"
_cell_formula_units_Z 14
_cell_length_a 4.860983
_cell_length_b 22.655477
_cell_length_c 5.744378
_cell_angle_alpha 65.195812
_cell_angle_beta 88.968464
_cell_angle_gamma 75.413371
_cell_volume 552.972842
_symmetry_space_group_name_H-M "P -1"
_symmetry_group_IT_number 2
_symmetry_cell_setting 'triclinic'
loop_
_space_group_symop_operation_xyz
x,y,z
-x,-y,-z
loop_
_atom_site_type_symbol
_atom_site_label
_atom_site_fract_x
_atom_site_fract_y
_atom_site_fract_z
Si Si1 0.332641 0.583594 0.120787
Si Si2 0.185254 0.011278 0.192441
Si Si3 0.370439 0.109488 0.716542
Si Si4 0.767847 0.643984 0.247898
Si Si5 0.749834 0.547662 0.774299
Si Si6 0.369527 0.198586 0.960914
Si Si7 0.062257 0.867984 0.705633
O O1 0.484762 0.619675 0.246553
O O2 0.356668 0.504656 0.305624
O O3 0.996873 0.625858 0.063759
O O4 0.478427 0.589184 0.860398
O O5 0.010678 0.052908 0.344205
O O6 0.381486 0.935280 0.388975
O O7 0.376254 0.058613 0.016575
O O8 0.000000 0.000000 0.000000
O O9 0.461497 0.171146 0.740818
O O10 0.063946 0.132971 0.552175
O O11 0.889012 0.599672 0.548718
O O12 0.684511 0.722110 0.177432
O O13 0.000000 0.500000 0.000000
O O14 0.079194 0.178222 0.053177
O O15 0.598293 0.167160 0.214695
#
# Coordination Sequence:
#
# PCOD8006159 Si02
#       7
#     2   2   2   2   2   2   2
#     4  11  25  44  71 106 136 179 232 290 355 422
#     4  10  20  39  66 101 131 172 234 293 352 412
#     4  10  23  41  66  96 137 175 229 296 345 415
#     4  12  26  45  70  98 148 186 227 297 354 415
#     4  11  25  44  75 108 137 177 239 293 354 420
#     4  11  26  46  62  98 137 186 236 278 350 436
#     4  11  24  43  69  95 136 184 233 287 355 418
#
# _framework density 25.317699000000001
#
# number of rings (size 3 to 8) (size 9 to 14) (size 15 to 20)
#    0.000    1.143    2.857    2.143    6.000    1.714 
#    2.571    1.429    0.000    0.000    0.000    0.000 
#    0.000    0.000    0.000    0.000    0.000    0.000 
#
# Total GULP energy -173523.568184 kJ/mol
# GULP energy per Si atom -12394.540585 kJ/mol
# Density = 2.526007 g / cm^3
# Si number density = 25.317699 Si / 1000 Ang^3
#
#
#
# Elastic Constant Matrix: (Units=GPa)
#
#
# Indices 1 2 3 4 5 6 
#
# 1 97.6920 47.2720 14.4823 -4.6794 9.4840 -4.3735
# 2 47.2720 209.8934 61.3387 -20.0609 -2.6622 8.0773
# 3 14.4823 61.3387 80.3662 -8.2625 19.3078 8.0176
# 4 -4.6794 -20.0609 -8.2625 35.1359 7.2354 -5.5561
# 5 9.4840 -2.6622 19.3078 7.2354 36.9681 4.3789
# 6 -4.3735 8.0773 8.0176 -5.5561 4.3789 40.6583
#
#
#
# Elastic Compliance Matrix: (Units=1/GPa)
#
#
# Indices 1 2 3 4 5 6 
#
# 1 0.012174 -0.003093 0.001162 0.001434 -0.004515 0.002377
# 2 -0.003093 0.007400 -0.005868 0.001421 0.004220 -0.000906
# 3 0.001162 -0.005868 0.020032 0.003814 -0.011827 -0.000865
# 4 0.001434 0.001421 0.003814 0.032999 -0.009264 0.004627
# 5 -0.004515 0.004220 -0.011827 -0.009264 0.037006 -0.004243
# 6 0.002377 -0.000906 -0.000865 0.004627 -0.004243 0.026291
#
#
# Mechanical properties :
#
#
# Convention : Reuss Voigt Hill
#
# Bulk Modulus (GPa) = 41.65268 70.45972 56.05620
# Shear Modulus (GPa) = 31.34732 40.20972 35.77852
#
# Velocity S-wave (km/s) = 3.52256 3.98955 3.76331
# Velocity P-wave (km/s) = 5.74738 7.00804 6.40878
#
# Compressibility (1/GPa) = 0.02400806
#
# Stress axis : x y z
#
# Youngs Moduli (GPa) = 82.14113 135.13495 49.91960
#
# Poissons Ratio (x) = 0.41799 -0.05801
# Poissons Ratio (y) = 0.25407 0.29293
# Poissons Ratio (z) = -0.09545 0.79298
#
# Static dielectric constant tensor:
#      x y z
#    x 4.854700 0.128830 -0.216390 
#    y 0.128830 4.834500 0.067340 
#    z -0.216390 0.067340 4.379310 
# 
# 
# High freq. dielectric constant tensor:
#      x y z
#    x 2.025480 0.009840 -0.008840 
#    y 0.009840 2.009980 0.010040 
#    z -0.008840 0.010040 1.993440 
# 
# From -- ./inp_files/10406.got.cif
#   From: 2010.06.25/outbox.cif.g09.slc.cpg/sg2_6_cif.got.tgz:10406.got - 2010.06.27 13:26:56.
