data_PCOD8006913
_publ_section_title
;
Structure prediction by ZEFSAII (Michael W. Deem and Ramdas Pophale) SiO2 
 PCOD8006913
Probable space group: P -1
;
_chemical_formula_sum "Si O2"
_cell_formula_units_Z 16
_cell_length_a 15.797207
_cell_length_b 13.160255
_cell_length_c 9.026396
_cell_angle_alpha 81.521416
_cell_angle_beta 84.867258
_cell_angle_gamma 152.710773
_cell_volume 743.593026
_symmetry_space_group_name_H-M "P -1"
_symmetry_group_IT_number 2
_symmetry_cell_setting 'triclinic'
loop_
_space_group_symop_operation_xyz
x,y,z
-x,-y,-z
loop_
_atom_site_type_symbol
_atom_site_label
_atom_site_fract_x
_atom_site_fract_y
_atom_site_fract_z
Si Si1 0.028879 0.908977 0.378901
Si Si2 0.937419 0.536916 0.931887
Si Si3 0.821454 0.335528 0.676105
Si Si4 0.745364 0.779802 0.440656
Si Si5 0.392817 0.271373 0.039776
Si Si6 0.333875 0.630255 0.338026
Si Si7 0.707593 0.916385 0.221783
Si Si8 0.464341 0.786817 0.944236
O O1 0.873429 0.822997 0.353956
O O2 0.894729 0.675522 0.539484
O O3 0.205748 0.154729 0.406601
O O4 0.156476 0.004138 0.200715
O O5 0.927080 0.511262 0.761661
O O6 0.722690 0.351978 0.068896
O O7 0.119899 0.810482 0.906169
O O8 0.000000 0.500000 0.000000
O O9 0.681548 0.268176 0.627688
O O10 0.000000 0.500000 0.500000
O O11 0.683441 0.086620 0.806223
O O12 0.500000 0.500000 0.500000
O O13 0.825036 0.969250 0.303707
O O14 0.521567 0.317829 0.085794
O O15 0.500000 0.500000 0.000000
O O16 0.377121 0.239110 0.873477
O O17 0.509451 0.755569 0.368639
O O18 0.424199 0.736324 0.135337
#
# Coordination Sequence:
#
# PCOD8006913 Si02
#       8
#     2   2   2   2   2   2   2   2
#     4  11  24  40  66  90 132 171 223 272 333 383
#     4  11  22  41  66  96 130 173 218 271 332 401
#     4  11  22  41  69  95 129 167 218 269 336 395
#     4  11  22  40  63  94 124 174 224 271 323 396
#     4  11  25  43  64  94 133 176 222 276 331 385
#     4  10  20  40  65  92 125 174 212 263 332 403
#     4  11  23  41  65  94 132 172 224 271 331 398
#     4  10  22  41  65  94 130 175 217 261 337 404
#
# _framework density 21.517146
#
# number of rings (size 3 to 8) (size 9 to 14) (size 15 to 20)
#    0.000    1.250    1.250    6.750    7.000    0.500 
#    2.250    5.000    0.000    0.000    0.000    0.000 
#    0.000    0.000    0.000    0.000    0.000    0.000 
#
# Total GULP energy -198267.944504 kJ/mol
# GULP energy per Si atom -12391.746532 kJ/mol
# Density = 2.146817 g / cm^3
# Si number density = 21.517146 Si / 1000 Ang^3
#
#
#
# Elastic Constant Matrix: (Units=GPa)
#
#
# Indices 1 2 3 4 5 6 
#
# 1 216.9303 48.6736 57.1094 -11.9766 -5.5637 -4.2444
# 2 48.6736 107.5514 25.8248 -19.1834 0.2384 -8.9206
# 3 57.1094 25.8248 84.7560 -27.5449 -11.7395 -0.0152
# 4 -11.9766 -19.1834 -27.5449 36.6539 0.5250 4.2311
# 5 -5.5637 0.2384 -11.7395 0.5250 36.1450 -5.6449
# 6 -4.2444 -8.9206 -0.0152 4.2311 -5.6449 41.8146
#
#
#
# Elastic Compliance Matrix: (Units=1/GPa)
#
#
# Indices 1 2 3 4 5 6 
#
# 1 0.006075 -0.002117 -0.004264 -0.002364 -0.000346 0.000356
# 2 -0.002117 0.011363 -0.000587 0.004625 -0.000395 0.001688
# 3 -0.004264 -0.000587 0.019941 0.013341 0.005448 -0.001165
# 4 -0.002364 0.004625 0.013341 0.039240 0.002928 -0.002824
# 5 -0.000346 -0.000395 0.005448 0.002928 0.029909 0.003624
# 6 0.000356 0.001688 -0.001165 -0.002824 0.003624 0.025086
#
#
# Mechanical properties :
#
#
# Convention : Reuss Voigt Hill
#
# Bulk Modulus (GPa) = 42.65895 74.71701 58.68798
# Shear Modulus (GPa) = 32.60216 41.43136 37.01676
#
# Velocity S-wave (km/s) = 3.89674 4.39282 4.15220
# Velocity P-wave (km/s) = 6.33362 7.78003 7.09379
#
# Compressibility (1/GPa) = 0.02344174
#
# Stress axis : x y z
#
# Youngs Moduli (GPa) = 164.61035 88.00846 50.14746
#
# Poissons Ratio (x) = 0.18628 0.21385
# Poissons Ratio (y) = 0.34842 0.02946
# Poissons Ratio (z) = 0.70197 0.05170
#
# Static dielectric constant tensor:
#      x y z
#    x 5.031850 0.116890 0.100840 
#    y 0.116890 3.954230 -0.329930 
#    z 0.100840 -0.329930 3.812050 
# 
# 
# High freq. dielectric constant tensor:
#      x y z
#    x 1.882410 -0.003500 0.002200 
#    y -0.003500 1.829390 -0.027790 
#    z 0.002200 -0.027790 1.822280 
# 
# From -- ./inp_files/307535.got.cif
#   From: 2010.06.25/outbox.cif.g09.slc.cpg/sg2_154_cif.got.tgz:307535.got - 2010.06.27 13:26:56.
