data_PCOD8006834
_publ_section_title
;
Structure prediction by ZEFSAII (Michael W. Deem and Ramdas Pophale) SiO2 
 PCOD8006834
Probable space group: P -1
;
_chemical_formula_sum "Si O2"
_cell_formula_units_Z 14
_cell_length_a 11.527455
_cell_length_b 8.754160
_cell_length_c 20.576226
_cell_angle_alpha 36.864814
_cell_angle_beta 36.649872
_cell_angle_gamma 62.966412
_cell_volume 633.687029
_symmetry_space_group_name_H-M "P -1"
_symmetry_group_IT_number 2
_symmetry_cell_setting 'triclinic'
loop_
_space_group_symop_operation_xyz
x,y,z
-x,-y,-z
loop_
_atom_site_type_symbol
_atom_site_label
_atom_site_fract_x
_atom_site_fract_y
_atom_site_fract_z
Si Si1 0.481623 0.632693 0.071676
Si Si2 0.047045 0.082793 0.773615
Si Si3 0.138980 0.899773 0.928012
Si Si4 0.633235 0.270228 0.638439
Si Si5 0.512280 0.787502 0.139647
Si Si6 0.045931 0.270077 0.190485
Si Si7 0.127476 0.098425 0.342045
O O1 0.388716 0.548640 0.217316
O O2 0.307509 0.448240 0.155596
O O3 0.685517 0.575694 0.992654
O O4 0.573324 0.980598 0.902993
O O5 0.192964 0.441772 0.579941
O O6 0.144731 0.983177 0.822047
O O7 0.085729 0.949118 0.735748
O O8 0.784812 0.969283 0.944868
O O9 0.401825 0.058540 0.775982
O O10 0.001127 0.540767 0.120070
O O11 0.000000 0.000000 0.000000
O O12 0.567788 0.373828 0.699770
O O13 0.754017 0.087326 0.663561
O O14 0.975317 0.086671 0.353112
O O15 0.000000 0.000000 0.500000
#
# Coordination Sequence:
#
# PCOD8006834 Si02
#       7
#     2   2   2   2   2   2   2
#     4  10  20  40  64  95 133 175 217 266 345 401
#     4  11  26  44  68 101 133 182 227 268 333 403
#     4  12  25  46  71  93 134 186 231 271 326 396
#     4  12  24  44  71  99 139 170 221 282 343 385
#     4  10  21  40  67  97 135 175 216 275 336 403
#     4  11  24  45  69  92 136 182 220 276 340 393
#     4  12  25  39  68 104 136 166 226 281 336 407
#
# _framework density 22.092925000000001
#
# number of rings (size 3 to 8) (size 9 to 14) (size 15 to 20)
#    0.000    0.857    4.286    3.000    4.000    0.571 
#    0.000    0.714    0.000    0.000    0.000    0.000 
#    0.000    0.000    0.000    0.000    0.000    0.000 
#
# Total GULP energy -173541.900649 kJ/mol
# GULP energy per Si atom -12395.850046 kJ/mol
# Density = 2.204264 g / cm^3
# Si number density = 22.092925 Si / 1000 Ang^3
#
#
#
# Elastic Constant Matrix: (Units=GPa)
#
#
# Indices 1 2 3 4 5 6 
#
# 1 118.2784 31.8889 29.1114 3.2337 38.1604 25.7193
# 2 31.8889 108.0767 38.3249 -1.4485 17.2067 9.7166
# 3 29.1114 38.3249 78.5494 2.4091 25.9750 7.8571
# 4 3.2337 -1.4485 2.4091 37.7614 5.7589 8.6815
# 5 38.1604 17.2067 25.9750 5.7589 35.7774 6.2424
# 6 25.7193 9.7166 7.8571 8.6815 6.2424 38.7513
#
#
#
# Elastic Compliance Matrix: (Units=1/GPa)
#
#
# Indices 1 2 3 4 5 6 
#
# 1 0.015243 -0.001637 0.000880 0.002738 -0.015144 -0.008058
# 2 -0.001637 0.011632 -0.004901 0.001187 -0.000296 -0.001054
# 3 0.000880 -0.004901 0.018952 0.000709 -0.012212 -0.001389
# 4 0.002738 0.001187 0.000709 0.029118 -0.007368 -0.007595
# 5 -0.015144 -0.000296 -0.012212 -0.007368 0.053310 0.005665
# 6 -0.008058 -0.001054 -0.001389 -0.007595 0.005665 0.032489
#
#
# Mechanical properties :
#
#
# Convention : Reuss Voigt Hill
#
# Bulk Modulus (GPa) = 28.97841 55.95057 42.46449
# Shear Modulus (GPa) = 27.23853 36.16331 31.70092
#
# Velocity S-wave (km/s) = 3.51509 4.05022 3.79210
# Velocity P-wave (km/s) = 5.44238 6.87404 6.19968
#
# Compressibility (1/GPa) = 0.03450845
#
# Stress axis : x y z
#
# Youngs Moduli (GPa) = 65.60415 85.97193 52.76553
#
# Poissons Ratio (x) = 0.14075 -0.04641
# Poissons Ratio (y) = 0.10741 0.25862
# Poissons Ratio (z) = -0.05770 0.42138
#
# Static dielectric constant tensor:
#      x y z
#    x 4.878390 0.712710 -0.287260 
#    y 0.712710 4.348100 -0.160310 
#    z -0.287260 -0.160310 4.165750 
# 
# 
# High freq. dielectric constant tensor:
#      x y z
#    x 1.876940 0.021960 0.013040 
#    y 0.021960 1.878810 0.002160 
#    z 0.013040 0.002160 1.852890 
# 
# From -- ./inp_files/182028.got.cif
#   From: 2010.06.25/outbox.cif.g09.slc.cpg/sg2_92_cif.got.tgz:182028.got - 2010.06.27 13:26:56.
