data_PCOD8006670
_publ_section_title
;
Structure prediction by ZEFSAII (Michael W. Deem and Ramdas Pophale) SiO2 
 PCOD8006670
Probable space group: P -1
;
_chemical_formula_sum "Si O2"
_cell_formula_units_Z 12
_cell_length_a 5.967968
_cell_length_b 17.006651
_cell_length_c 5.313297
_cell_angle_alpha 95.286740
_cell_angle_beta 100.784915
_cell_angle_gamma 109.729233
_cell_volume 491.567407
_symmetry_space_group_name_H-M "P -1"
_symmetry_group_IT_number 2
_symmetry_cell_setting 'triclinic'
loop_
_space_group_symop_operation_xyz
x,y,z
-x,-y,-z
loop_
_atom_site_type_symbol
_atom_site_label
_atom_site_fract_x
_atom_site_fract_y
_atom_site_fract_z
Si Si1 0.414411 0.168760 0.035509
Si Si2 0.537760 0.097032 0.523330
Si Si3 0.956998 0.772359 0.259965
Si Si4 0.683550 0.624952 0.467544
Si Si5 0.853639 0.329723 0.075666
Si Si6 0.255099 0.532754 0.701079
O O1 0.441693 0.122348 0.770361
O O2 0.168332 0.191257 0.974798
O O3 0.383563 0.109782 0.256325
O O4 0.649775 0.252911 0.153975
O O5 0.826387 0.149527 0.547846
O O6 0.500000 0.000000 0.500000
O O7 0.733311 0.716923 0.378176
O O8 0.077737 0.704455 0.178802
O O9 0.439936 0.599892 0.569743
O O10 0.662629 0.547219 0.242711
O O11 0.909039 0.634381 0.695545
O O12 0.758314 0.409257 0.040354
O O13 0.000000 0.500000 0.500000
#
# Coordination Sequence:
#
# PCOD8006670 Si02
#       6
#     2   2   2   2   2   2
#     4  11  25  42  74 104 140 184 229 287 350 416
#     4  11  26  48  71 106 143 178 229 289 351 424
#     4  11  25  40  71 101 135 185 230 283 351 415
#     4  10  20  40  62  94 137 181 231 286 344 404
#     4  10  21  40  61  97 137 178 236 282 339 409
#     4   9  20  36  64  92 136 181 232 285 340 404
#
# _framework density 24.411705000000001
#
# number of rings (size 3 to 8) (size 9 to 14) (size 15 to 20)
#    0.000    1.667    1.667    1.500    4.667    3.333 
#    0.000   11.667    0.000    0.000    0.000    0.000 
#    0.000    0.000    0.000    0.000    0.000    0.000 
#
# Total GULP energy -148719.389033 kJ/mol
# GULP energy per Si atom -12393.282419 kJ/mol
# Density = 2.435614 g / cm^3
# Si number density = 24.411705 Si / 1000 Ang^3
#
#
#
# Elastic Constant Matrix: (Units=GPa)
#
#
# Indices 1 2 3 4 5 6 
#
# 1 104.8415 55.7642 31.4521 9.6939 -2.3277 -7.8652
# 2 55.7642 165.6933 53.3125 7.4778 0.7535 -0.7477
# 3 31.4521 53.3125 89.6625 2.7110 -4.0224 -0.8591
# 4 9.6939 7.4778 2.7110 41.8467 -12.3660 4.9317
# 5 -2.3277 0.7535 -4.0224 -12.3660 19.9827 1.9934
# 6 -7.8652 -0.7477 -0.8591 4.9317 1.9934 26.1519
#
#
#
# Elastic Compliance Matrix: (Units=1/GPa)
#
#
# Indices 1 2 3 4 5 6 
#
# 1 0.012584 -0.003313 -0.002365 -0.003023 -0.001182 0.004272
# 2 -0.003313 0.008474 -0.003943 -0.001049 -0.002096 -0.000526
# 3 -0.002365 -0.003943 0.014443 0.001562 0.003841 -0.000937
# 4 -0.003023 -0.001049 0.001562 0.031728 0.020477 -0.008432
# 5 -0.001182 -0.002096 0.003841 0.020477 0.064333 -0.009054
# 6 0.004272 -0.000526 -0.000937 -0.008432 -0.009054 0.041757
#
#
# Mechanical properties :
#
#
# Convention : Reuss Voigt Hill
#
# Bulk Modulus (GPa) = 61.50961 71.25053 66.38007
# Shear Modulus (GPa) = 25.25492 32.24082 28.74787
#
# Velocity S-wave (km/s) = 3.21992 3.63810 3.43538
# Velocity P-wave (km/s) = 6.25102 6.84822 6.55642
#
# Compressibility (1/GPa) = 0.01625762
#
# Stress axis : x y z
#
# Youngs Moduli (GPa) = 79.46870 118.01418 69.23594
#
# Poissons Ratio (x) = 0.39098 0.16374
# Poissons Ratio (y) = 0.26328 0.27303
# Poissons Ratio (z) = 0.18794 0.46539
#
# Static dielectric constant tensor:
#      x y z
#    x 4.667850 -0.101740 -0.239780 
#    y -0.101740 4.685270 0.369630 
#    z -0.239780 0.369630 4.292530 
# 
# 
# High freq. dielectric constant tensor:
#      x y z
#    x 1.982570 -0.000660 0.000980 
#    y -0.000660 1.970560 0.019580 
#    z 0.000980 0.019580 1.952270 
# 
# From -- ./inp_files/7090.got.cif
#   From: 2010.06.25/outbox.cif.g09.slc.cpg/sg2_4_cif.got.tgz:7090.got - 2010.06.27 13:26:56.
