data_PCOD8006365
_publ_section_title
;
Structure prediction by ZEFSAII (Michael W. Deem and Ramdas Pophale) SiO2 
 PCOD8006365
Probable space group: P -1
;
_chemical_formula_sum "Si O2"
_cell_formula_units_Z 16
_cell_length_a 6.550290
_cell_length_b 17.114679
_cell_length_c 9.488338
_cell_angle_alpha 83.246033
_cell_angle_beta 44.888288
_cell_angle_gamma 84.207474
_cell_volume 745.237306
_symmetry_space_group_name_H-M "P -1"
_symmetry_group_IT_number 2
_symmetry_cell_setting 'triclinic'
loop_
_space_group_symop_operation_xyz
x,y,z
-x,-y,-z
loop_
_atom_site_type_symbol
_atom_site_label
_atom_site_fract_x
_atom_site_fract_y
_atom_site_fract_z
Si Si1 0.507695 0.385367 0.629481
Si Si2 0.528949 0.791196 0.705736
Si Si3 0.867637 0.337898 0.956449
Si Si4 0.398826 0.917486 0.508264
Si Si5 0.287430 0.043099 0.899840
Si Si6 0.509290 0.558949 0.685709
Si Si7 0.993766 0.333145 0.581489
Si Si8 0.754928 0.911923 0.778498
O O1 0.502968 0.465270 0.705554
O O2 0.582515 0.402391 0.427155
O O3 0.758026 0.325977 0.575289
O O4 0.210232 0.341602 0.810287
O O5 0.403010 0.853386 0.642214
O O6 0.781348 0.740401 0.516932
O O7 0.661279 0.830550 0.771652
O O8 0.258691 0.740142 0.895820
O O9 0.817245 0.337859 0.813264
O O10 0.708599 0.413424 0.089596
O O11 0.626804 0.895305 0.277259
O O12 0.089470 0.927567 0.580170
O O13 0.500000 0.000000 0.500000
O O14 0.548922 0.979928 0.802506
O O15 0.256676 0.093439 0.045351
O O16 0.000000 0.000000 0.000000
O O17 0.834018 0.586902 0.550590
#
# Coordination Sequence:
#
# PCOD8006365 Si02
#       8
#     2   2   2   2   2   2   2   2
#     4  10  20  39  68  94 127 169 214 260 312 364
#     4  11  26  43  60  90 131 171 209 258 325 383
#     4  10  23  41  59  91 133 167 211 261 306 382
#     4  12  24  44  68  90 122 162 211 269 321 377
#     4  11  23  42  67  98 121 148 206 272 316 384
#     4   9  20  39  65  98 127 165 214 266 307 363
#     4  10  23  40  61  91 134 168 212 257 313 384
#     4  11  24  41  68  92 123 160 205 262 327 384
#
# _framework density 21.469669
#
# number of rings (size 3 to 8) (size 9 to 14) (size 15 to 20)
#    0.000    1.500    2.500    1.125    0.000    9.500 
#    0.000    0.000    0.000    0.000    0.000    0.000 
#    0.000    0.000    0.000    0.000    0.000    0.000 
#
# Total GULP energy -198374.581436 kJ/mol
# GULP energy per Si atom -12398.411340 kJ/mol
# Density = 2.142080 g / cm^3
# Si number density = 21.469669 Si / 1000 Ang^3
#
#
#
# Elastic Constant Matrix: (Units=GPa)
#
#
# Indices 1 2 3 4 5 6 
#
# 1 127.3975 34.6468 45.4709 -3.6942 -10.9074 -2.7967
# 2 34.6468 79.5772 32.5575 -2.5646 -6.4396 10.7447
# 3 45.4709 32.5575 135.4710 2.1329 6.1850 0.4618
# 4 -3.6942 -2.5646 2.1329 30.3391 8.7852 3.4039
# 5 -10.9074 -6.4396 6.1850 8.7852 32.9378 7.7373
# 6 -2.7967 10.7447 0.4618 3.4039 7.7373 35.0869
#
#
#
# Elastic Compliance Matrix: (Units=1/GPa)
#
#
# Indices 1 2 3 4 5 6 
#
# 1 0.009951 -0.003132 -0.002725 0.000177 0.002881 0.001136
# 2 -0.003132 0.016359 -0.003053 0.000755 0.003983 -0.006171
# 3 -0.002725 -0.003053 0.009189 -0.000394 -0.003448 0.001395
# 4 0.000177 0.000755 -0.000394 0.035837 -0.008871 -0.001732
# 5 0.002881 0.003983 -0.003448 -0.008871 0.037045 -0.008253
# 6 0.001136 -0.006171 0.001395 -0.001732 -0.008253 0.032450
#
#
# Mechanical properties :
#
#
# Convention : Reuss Voigt Hill
#
# Bulk Modulus (GPa) = 56.56754 63.08846 59.82800
# Shear Modulus (GPa) = 30.38696 34.99078 32.68887
#
# Velocity S-wave (km/s) = 3.76619 4.04143 3.90623
# Velocity P-wave (km/s) = 6.73180 7.15725 6.94778
#
# Compressibility (1/GPa) = 0.01767798
#
# Stress axis : x y z
#
# Youngs Moduli (GPa) = 100.49603 61.12913 108.82568
#
# Poissons Ratio (x) = 0.19145 0.29660
# Poissons Ratio (y) = 0.31474 0.33224
# Poissons Ratio (z) = 0.27390 0.18662
#
# Static dielectric constant tensor:
#      x y z
#    x 4.090500 0.194280 0.124880 
#    y 0.194280 3.737930 0.074390 
#    z 0.124880 0.074390 4.212060 
# 
# 
# High freq. dielectric constant tensor:
#      x y z
#    x 1.854620 0.012020 -0.000220 
#    y 0.012020 1.825550 0.005040 
#    z -0.000220 0.005040 1.857580 
# 
# From -- ./inp_files/138920.got.cif
#   From: 2010.06.25/outbox.cif.g09.slc.cpg/sg2_70_cif.got.tgz:138920.got - 2010.06.27 13:26:56.
