data_PCOD8006711
_publ_section_title
;
Structure prediction by ZEFSAII (Michael W. Deem and Ramdas Pophale) SiO2 
 PCOD8006711
Probable space group: P -1
;
_chemical_formula_sum "Si O2"
_cell_formula_units_Z 16
_cell_length_a 16.319421
_cell_length_b 9.490041
_cell_length_c 9.803572
_cell_angle_alpha 75.184807
_cell_angle_beta 77.571280
_cell_angle_gamma 135.480108
_cell_volume 833.595859
_symmetry_space_group_name_H-M "P -1"
_symmetry_group_IT_number 2
_symmetry_cell_setting 'triclinic'
loop_
_space_group_symop_operation_xyz
x,y,z
-x,-y,-z
loop_
_atom_site_type_symbol
_atom_site_label
_atom_site_fract_x
_atom_site_fract_y
_atom_site_fract_z
Si Si1 0.337366 0.891463 0.984832
Si Si2 0.894263 0.216824 0.468313
Si Si3 0.053618 0.439222 0.076390
Si Si4 0.342579 0.327011 0.256351
Si Si5 0.895711 0.548558 0.425902
Si Si6 0.660909 0.354960 0.731921
Si Si7 0.954083 0.098210 0.972636
Si Si8 0.329656 0.207470 0.982784
O O1 0.494354 0.120829 0.802113
O O2 0.298172 0.989406 0.048246
O O3 0.227397 0.696695 0.951107
O O4 0.321252 0.743283 0.137945
O O5 0.839926 0.304297 0.491525
O O6 0.004833 0.369657 0.267045
O O7 0.973979 0.261992 0.559924
O O8 0.756063 0.920869 0.557550
O O9 0.992104 0.212441 0.079470
O O10 0.000000 0.500000 0.000000
O O11 0.295892 0.427800 0.274194
O O12 0.507747 0.532640 0.191643
O O13 0.314463 0.250850 0.127758
O O14 0.763000 0.463082 0.540808
O O15 0.952520 0.688297 0.227824
O O16 0.783683 0.872984 0.056775
O O17 0.000000 0.000000 0.000000
#
# Coordination Sequence:
#
# PCOD8006711 Si02
#       8
#     2   2   2   2   2   2   2   2
#     4  10  20  40  63  90 124 165 206 251 307 367
#     4  11  22  39  67  91 120 164 213 252 298 373
#     4  12  23  42  65  90 123 170 205 243 312 378
#     4  10  22  36  65  94 122 159 209 260 304 355
#     4  11  22  41  63  92 123 162 210 257 303 359
#     4  10  22  36  63  96 124 155 208 265 300 353
#     4  12  27  42  63  92 131 163 202 259 313 365
#     4  10  20  42  61  89 126 166 205 251 309 367
#
# _framework density 19.193954000000002
#
# number of rings (size 3 to 8) (size 9 to 14) (size 15 to 20)
#    0.000    1.250    5.000    0.750    3.500    1.500 
#    0.000    2.500    0.000    0.000    0.000    0.000 
#    0.000    0.000    0.000    0.000    0.000    0.000 
#
# Total GULP energy -198412.500125 kJ/mol
# GULP energy per Si atom -12400.781258 kJ/mol
# Density = 1.915027 g / cm^3
# Si number density = 19.193954 Si / 1000 Ang^3
#
#
#
# Elastic Constant Matrix: (Units=GPa)
#
#
# Indices 1 2 3 4 5 6 
#
# 1 132.3077 69.8467 29.0729 -7.8651 -8.6810 -5.7769
# 2 69.8467 138.4651 26.5254 -9.5779 -8.2680 1.6426
# 3 29.0729 26.5254 61.0346 -9.2014 -7.3303 -0.1766
# 4 -7.8651 -9.5779 -9.2014 33.8287 -4.8275 -1.3341
# 5 -8.6810 -8.2680 -7.3303 -4.8275 31.2990 -0.0630
# 6 -5.7769 1.6426 -0.1766 -1.3341 -0.0630 36.7771
#
#
#
# Elastic Compliance Matrix: (Units=1/GPa)
#
#
# Indices 1 2 3 4 5 6 
#
# 1 0.010971 -0.004896 -0.002855 0.000634 0.001183 0.001953
# 2 -0.004896 0.010207 -0.001761 0.001388 0.001138 -0.001181
# 3 -0.002855 -0.001761 0.019723 0.004783 0.004100 -0.000094
# 4 0.000634 0.001388 0.004783 0.032402 0.006663 0.001247
# 5 0.001183 0.001138 0.004100 0.006663 0.034567 0.000455
# 6 0.001953 -0.001181 -0.000094 0.001247 0.000455 0.027596
#
#
# Mechanical properties :
#
#
# Convention : Reuss Voigt Hill
#
# Bulk Modulus (GPa) = 45.71127 64.74414 55.22771
# Shear Modulus (GPa) = 30.90588 34.13845 32.52217
#
# Velocity S-wave (km/s) = 4.01707 4.22193 4.12077
# Velocity P-wave (km/s) = 6.73669 7.58755 7.17474
#
# Compressibility (1/GPa) = 0.02187644
#
# Stress axis : x y z
#
# Youngs Moduli (GPa) = 91.15354 97.97173 50.70308
#
# Poissons Ratio (x) = 0.47965 0.14474
# Poissons Ratio (y) = 0.44626 0.08931
# Poissons Ratio (z) = 0.26022 0.17257
#
# Static dielectric constant tensor:
#      x y z
#    x 3.655360 -0.059950 -0.239060 
#    y -0.059950 3.544910 -0.225770 
#    z -0.239060 -0.225770 3.287880 
# 
# 
# High freq. dielectric constant tensor:
#      x y z
#    x 1.751590 -0.007390 -0.012570 
#    y -0.007390 1.757780 -0.012770 
#    z -0.012570 -0.012770 1.732540 
# 
# From -- ./inp_files/259859.got.cif
#   From: 2010.06.25/outbox.cif.g09.slc.cpg/sg2_130_cif.got.tgz:259859.got - 2010.06.27 13:26:56.
