data_PCOD8006421
_publ_section_title
;
Structure prediction by ZEFSAII (Michael W. Deem and Ramdas Pophale) SiO2 
 PCOD8006421
Probable space group: P -1
;
_chemical_formula_sum "Si O2"
_cell_formula_units_Z 16
_cell_length_a 12.900261
_cell_length_b 16.150846
_cell_length_c 15.284468
_cell_angle_alpha 152.173483
_cell_angle_beta 55.353926
_cell_angle_gamma 143.518959
_cell_volume 758.290573
_symmetry_space_group_name_H-M "P -1"
_symmetry_group_IT_number 2
_symmetry_cell_setting 'triclinic'
loop_
_space_group_symop_operation_xyz
x,y,z
-x,-y,-z
loop_
_atom_site_type_symbol
_atom_site_label
_atom_site_fract_x
_atom_site_fract_y
_atom_site_fract_z
Si Si1 0.658539 0.711440 0.994466
Si Si2 0.580359 0.219089 0.287640
Si Si3 0.424788 0.345428 0.601860
Si Si4 0.898887 0.075348 0.498673
Si Si5 0.733921 0.221087 0.613450
Si Si6 0.025815 0.644094 0.537293
Si Si7 0.260527 0.402974 0.980497
Si Si8 0.364971 0.633530 0.797717
O O1 0.699763 0.605071 0.945840
O O2 0.856743 0.049453 0.204458
O O3 0.604395 0.558327 0.785935
O O4 0.470607 0.627495 0.035706
O O5 0.456582 0.204898 0.399638
O O6 0.564379 0.282525 0.257884
O O7 0.814059 0.468265 0.433849
O O8 0.477681 0.912927 0.057794
O O9 0.434416 0.524428 0.701489
O O10 0.202498 0.087840 0.512765
O O11 0.757298 0.067076 0.513538
O O12 0.124213 0.396967 0.703686
O O13 0.904208 0.908258 0.276686
O O14 0.853841 0.337988 0.574746
O O15 0.500000 0.000000 0.500000
O O16 0.821224 0.484896 0.873852
O O17 0.000000 0.500000 0.500000
#
# Coordination Sequence:
#
# PCOD8006421 Si02
#       8
#     2   2   2   2   2   2   2   2
#     4  10  20  42  62  99 137 162 218 274 318 395
#     4  11  26  46  67  94 139 177 220 270 324 399
#     4  11  25  41  72  97 127 178 222 271 334 382
#     4  11  24  44  69 102 132 164 228 282 317 386
#     4  12  22  40  69  97 132 179 212 258 340 393
#     4  12  25  42  64 102 141 170 213 273 331 400
#     4  10  20  39  69  96 131 170 211 272 331 387
#     4  11  24  50  66  91 135 175 228 278 317 380
#
# _framework density 21.100090000000002
#
# number of rings (size 3 to 8) (size 9 to 14) (size 15 to 20)
#    0.000    1.000    3.750    3.000    3.500    4.000 
#    6.750    0.000    0.000    0.000    0.000    0.000 
#    0.000    0.000    0.000    0.000    0.000    0.000 
#
# Total GULP energy -198487.164409 kJ/mol
# GULP energy per Si atom -12405.447776 kJ/mol
# Density = 2.105206 g / cm^3
# Si number density = 21.100090 Si / 1000 Ang^3
#
#
#
# Elastic Constant Matrix: (Units=GPa)
#
#
# Indices 1 2 3 4 5 6 
#
# 1 49.8794 19.8976 15.9123 -7.2507 -4.9767 -9.6974
# 2 19.8976 82.4355 37.9299 -9.5360 -2.6706 -4.2355
# 3 15.9123 37.9299 122.8112 -0.3490 -5.0603 4.5795
# 4 -7.2507 -9.5360 -0.3490 43.0676 9.7048 3.0252
# 5 -4.9767 -2.6706 -5.0603 9.7048 36.2400 3.5903
# 6 -9.6974 -4.2355 4.5795 3.0252 3.5903 31.4625
#
#
#
# Elastic Compliance Matrix: (Units=1/GPa)
#
#
# Indices 1 2 3 4 5 6 
#
# 1 0.024184 -0.004250 -0.002008 0.002314 0.001435 0.006788
# 2 -0.004250 0.015499 -0.004312 0.002801 -0.000916 0.001239
# 3 -0.002008 -0.004312 0.009888 -0.001343 0.001412 -0.002671
# 4 0.002314 0.002801 -0.001343 0.025715 -0.006506 -0.000444
# 5 0.001435 -0.000916 0.001412 -0.006506 0.029928 -0.002676
# 6 0.006788 0.001239 -0.002671 -0.000444 -0.002676 0.034780
#
#
# Mechanical properties :
#
#
# Convention : Reuss Voigt Hill
#
# Bulk Modulus (GPa) = 35.17436 44.73395 39.95415
# Shear Modulus (GPa) = 29.30644 34.24646 31.77645
#
# Velocity S-wave (km/s) = 3.73087 4.03308 3.88491
# Velocity P-wave (km/s) = 5.93849 6.55244 6.25300
#
# Compressibility (1/GPa) = 0.02842980
#
# Stress axis : x y z
#
# Youngs Moduli (GPa) = 41.35017 64.52201 101.12826
#
# Poissons Ratio (x) = 0.27424 0.20307
# Poissons Ratio (y) = 0.17575 0.43606
# Poissons Ratio (z) = 0.08303 0.27822
#
# Static dielectric constant tensor:
#      x y z
#    x 3.778970 -0.123700 -0.142510 
#    y -0.123700 4.031280 -0.549490 
#    z -0.142510 -0.549490 6.475930 
# 
# 
# High freq. dielectric constant tensor:
#      x y z
#    x 1.821350 -0.012020 -0.003330 
#    y -0.012020 1.827670 0.003180 
#    z -0.003330 0.003180 1.842850 
# 
# From -- ./inp_files/522617.got.cif
#   From: 2010.06.25/outbox.cif.g09.slc.cpg/sg2_262_cif.got.tgz:522617.got - 2010.06.27 13:26:56.
