data_PCOD8006215
_publ_section_title
;
Structure prediction by ZEFSAII (Michael W. Deem and Ramdas Pophale) SiO2 
 PCOD8006215
Probable space group: P -1
;
_chemical_formula_sum "Si O2"
_cell_formula_units_Z 16
_cell_length_a 22.002494
_cell_length_b 10.418040
_cell_length_c 5.263531
_cell_angle_alpha 123.333743
_cell_angle_beta 57.326793
_cell_angle_gamma 134.912887
_cell_volume 689.949778
_symmetry_space_group_name_H-M "P -1"
_symmetry_group_IT_number 2
_symmetry_cell_setting 'triclinic'
loop_
_space_group_symop_operation_xyz
x,y,z
-x,-y,-z
loop_
_atom_site_type_symbol
_atom_site_label
_atom_site_fract_x
_atom_site_fract_y
_atom_site_fract_z
Si Si1 0.288329 0.268171 0.079489
Si Si2 0.412634 0.312378 0.222776
Si Si3 0.249593 0.964573 0.505317
Si Si4 0.422717 0.607495 0.843243
Si Si5 0.706108 0.313846 0.775953
Si Si6 0.008619 0.191829 0.720049
Si Si7 0.054219 0.721218 0.557040
Si Si8 0.789460 0.542060 0.333953
O O1 0.381429 0.303629 0.997538
O O2 0.233417 0.302156 0.444145
O O3 0.325057 0.431600 0.966309
O O4 0.225139 0.055343 0.884245
O O5 0.446922 0.523710 0.467243
O O6 0.494001 0.292717 0.040056
O O7 0.322733 0.140986 0.365859
O O8 0.296151 0.871962 0.410144
O O9 0.159389 0.813039 0.392731
O O10 0.394517 0.748327 0.995754
O O11 0.732022 0.382030 0.500413
O O12 0.773941 0.461407 0.997011
O O13 0.975895 0.241340 0.598385
O O14 0.109798 0.363730 0.719450
O O15 0.955877 0.174214 0.072570
O O16 0.000000 0.000000 0.500000
O O17 0.000000 0.500000 0.500000
#
# Coordination Sequence:
#
# PCOD8006215 Si02
#       8
#     2   2   2   2   2   2   2   2
#     4  10  21  39  65  96 127 175 212 271 322 394
#     4  10  20  39  66  93 130 169 218 268 324 388
#     4  11  26  39  65  95 132 170 221 271 331 387
#     4   9  20  39  64  96 128 172 219 260 324 391
#     4  11  24  43  65  97 129 176 213 268 322 396
#     4  12  26  43  70 100 129 171 229 290 331 394
#     4  12  27  47  67  97 138 182 222 275 346 408
#     4  11  23  43  68  91 131 170 220 267 333 391
#
# _framework density 23.190094999999999
#
# number of rings (size 3 to 8) (size 9 to 14) (size 15 to 20)
#    0.000    1.250    1.250    4.125    5.250    0.500 
#    0.000    0.625    0.000    0.000    0.000    0.000 
#    0.000    0.000    0.000    0.000    0.000    0.000 
#
# Total GULP energy -198254.111911 kJ/mol
# GULP energy per Si atom -12390.881994 kJ/mol
# Density = 2.313731 g / cm^3
# Si number density = 23.190095 Si / 1000 Ang^3
#
#
#
# Elastic Constant Matrix: (Units=GPa)
#
#
# Indices 1 2 3 4 5 6 
#
# 1 146.7794 24.1201 11.0680 -5.2299 -7.6286 -0.8768
# 2 24.1201 64.5258 16.6840 7.5726 -8.0027 -0.1923
# 3 11.0680 16.6840 65.1638 6.0893 -3.2665 -7.4327
# 4 -5.2299 7.5726 6.0893 28.3517 -3.8200 -4.8954
# 5 -7.6286 -8.0027 -3.2665 -3.8200 41.1632 -1.3111
# 6 -0.8768 -0.1923 -7.4327 -4.8954 -1.3111 36.0212
#
#
#
# Elastic Compliance Matrix: (Units=1/GPa)
#
#
# Indices 1 2 3 4 5 6 
#
# 1 0.007465 -0.002773 -0.000692 0.002474 0.001032 0.000398
# 2 -0.002773 0.018334 -0.003835 -0.004499 0.002288 -0.001289
# 3 -0.000692 -0.003835 0.017031 -0.002158 0.000379 0.003197
# 4 0.002474 -0.004499 -0.002158 0.038675 0.003160 0.004962
# 5 0.001032 0.002288 0.000379 0.003160 0.025299 0.001466
# 6 0.000398 -0.001289 0.003197 0.004962 0.001466 0.029152
#
#
# Mechanical properties :
#
#
# Convention : Reuss Voigt Hill
#
# Bulk Modulus (GPa) = 35.42368 42.24589 38.83478
# Shear Modulus (GPa) = 31.25683 36.08035 33.66859
#
# Velocity S-wave (km/s) = 3.67529 3.94871 3.81445
# Velocity P-wave (km/s) = 5.77225 6.24872 6.01520
#
# Compressibility (1/GPa) = 0.02822971
#
# Stress axis : x y z
#
# Youngs Moduli (GPa) = 133.96010 54.54484 58.71738
#
# Poissons Ratio (x) = 0.15123 0.04064
# Poissons Ratio (y) = 0.37143 0.22518
# Poissons Ratio (z) = 0.09271 0.20918
#
# Static dielectric constant tensor:
#      x y z
#    x 4.568750 -0.034680 -0.151680 
#    y -0.034680 3.981750 0.098170 
#    z -0.151680 0.098170 4.312120 
# 
# 
# High freq. dielectric constant tensor:
#      x y z
#    x 1.939740 -0.001990 -0.009510 
#    y -0.001990 1.897100 0.004340 
#    z -0.009510 0.004340 1.912980 
# 
# From -- ./inp_files/37911.got.cif
#   From: 2010.06.25/outbox.cif.g09.slc.cpg/sg2_19_cif.got.tgz:37911.got - 2010.06.27 13:26:56.
