data_PCOD8006785
_publ_section_title
;
Structure prediction by ZEFSAII (Michael W. Deem and Ramdas Pophale) SiO2 
 PCOD8006785
Probable space group: P -1
;
_chemical_formula_sum "Si O2"
_cell_formula_units_Z 16
_cell_length_a 8.553763
_cell_length_b 8.909967
_cell_length_c 14.315403
_cell_angle_alpha 95.274002
_cell_angle_beta 112.222325
_cell_angle_gamma 50.160223
_cell_volume 757.958904
_symmetry_space_group_name_H-M "P -1"
_symmetry_group_IT_number 2
_symmetry_cell_setting 'triclinic'
loop_
_space_group_symop_operation_xyz
x,y,z
-x,-y,-z
loop_
_atom_site_type_symbol
_atom_site_label
_atom_site_fract_x
_atom_site_fract_y
_atom_site_fract_z
Si Si1 0.135316 0.774083 0.932518
Si Si2 0.409131 0.091377 0.345296
Si Si3 0.526298 0.521901 0.149002
Si Si4 0.489910 0.802715 0.812321
Si Si5 0.756524 0.694096 0.492845
Si Si6 0.042348 0.113603 0.817369
Si Si7 0.401270 0.765099 0.306510
Si Si8 0.861403 0.729854 0.994236
O O1 0.233789 0.627167 0.856402
O O2 0.932239 0.804487 0.934199
O O3 0.047767 0.988320 0.894664
O O4 0.336659 0.685790 0.044361
O O5 0.427229 0.196924 0.270583
O O6 0.250525 0.267172 0.396017
O O7 0.659905 0.902478 0.430964
O O8 0.297527 0.996174 0.283498
O O9 0.450338 0.406738 0.169789
O O10 0.544229 0.636289 0.240041
O O11 0.602707 0.837762 0.922039
O O12 0.223427 0.982456 0.769974
O O13 0.578693 0.663500 0.426873
O O14 0.000000 0.500000 0.500000
O O15 0.797238 0.240439 0.721626
O O16 0.091326 0.242205 0.887976
O O17 0.000000 0.500000 0.000000
#
# Coordination Sequence:
#
# PCOD8006785 Si02
#       8
#     2   2   2   2   2   2   2   2
#     4  10  21  36  56  81 126 167 213 238 296 354
#     4   9  22  43  69  94 120 151 214 252 314 375
#     4  10  21  38  56  88 122 166 208 246 298 364
#     4  11  23  39  56  90 126 162 201 257 306 350
#     4   9  21  44  72  94 117 152 204 260 318 379
#     4  11  23  36  58  84 127 166 204 247 301 364
#     4  10  20  40  64  89 117 160 207 251 304 380
#     4  12  22  37  55  86 125 166 209 257 289 354
#
# _framework density 21.109321999999999
#
# number of rings (size 3 to 8) (size 9 to 14) (size 15 to 20)
#    0.750    1.000    2.500    1.500    1.750    4.000 
#    4.500    1.250    0.000    0.000    0.000    0.000 
#    0.000    0.000    0.000    0.000    0.000    0.000 
#
# Total GULP energy -198281.655132 kJ/mol
# GULP energy per Si atom -12392.603446 kJ/mol
# Density = 2.106128 g / cm^3
# Si number density = 21.109322 Si / 1000 Ang^3
#
#
#
# Elastic Constant Matrix: (Units=GPa)
#
#
# Indices 1 2 3 4 5 6 
#
# 1 71.2755 15.5683 32.1132 11.5117 8.8522 -10.9695
# 2 15.5683 74.3091 27.2413 27.7355 10.0307 -15.1361
# 3 32.1132 27.2413 89.5670 31.0989 12.6105 1.1080
# 4 11.5117 27.7355 31.0989 40.7800 -0.7588 0.8766
# 5 8.8522 10.0307 12.6105 -0.7588 30.7971 -3.8385
# 6 -10.9695 -15.1361 1.1080 0.8766 -3.8385 29.3572
#
#
#
# Elastic Compliance Matrix: (Units=1/GPa)
#
#
# Indices 1 2 3 4 5 6 
#
# 1 0.018178 0.000525 -0.006130 -0.001003 -0.002031 0.007059
# 2 0.000525 0.022481 -0.001153 -0.014916 -0.005935 0.011500
# 3 -0.006130 -0.001153 0.018762 -0.011824 -0.006344 -0.004070
# 4 -0.001003 -0.014916 -0.011824 0.044319 0.010131 -0.007618
# 5 -0.002031 -0.005935 -0.006344 0.010131 0.037969 0.001083
# 6 0.007059 0.011500 -0.004070 -0.007618 0.001083 0.043153
#
#
# Mechanical properties :
#
#
# Convention : Reuss Voigt Hill
#
# Bulk Modulus (GPa) = 21.78414 42.77748 32.28081
# Shear Modulus (GPa) = 23.39933 30.86878 27.13406
#
# Velocity S-wave (km/s) = 3.33300 3.82819 3.58915
# Velocity P-wave (km/s) = 5.01537 6.31259 5.70100
#
# Compressibility (1/GPa) = 0.04590495
#
# Stress axis : x y z
#
# Youngs Moduli (GPa) = 55.01162 44.48165 53.29785
#
# Poissons Ratio (x) = -0.02337 0.32673
# Poissons Ratio (y) = -0.02890 0.06147
# Poissons Ratio (z) = 0.33724 0.05130
#
# Static dielectric constant tensor:
#      x y z
#    x 4.165340 0.079790 0.424560 
#    y 0.079790 3.829810 0.250490 
#    z 0.424560 0.250490 3.904580 
# 
# 
# High freq. dielectric constant tensor:
#      x y z
#    x 1.809940 -0.011300 0.009480 
#    y -0.011300 1.831040 0.016170 
#    z 0.009480 0.016170 1.812690 
# 
# From -- ./inp_files/495255.got.cif
#   From: 2010.06.25/outbox.cif.g09.slc.cpg/sg2_248_cif.got.tgz:495255.got - 2010.06.27 13:26:56.
