data_PCOD8006403
_publ_section_title
;
Structure prediction by ZEFSAII (Michael W. Deem and Ramdas Pophale) SiO2 
 PCOD8006403
Probable space group: P -1
;
_chemical_formula_sum "Si O2"
_cell_formula_units_Z 16
_cell_length_a 18.376427
_cell_length_b 9.868325
_cell_length_c 11.949328
_cell_angle_alpha 141.904695
_cell_angle_beta 143.113391
_cell_angle_gamma 36.500835
_cell_volume 707.923048
_symmetry_space_group_name_H-M "P -1"
_symmetry_group_IT_number 2
_symmetry_cell_setting 'triclinic'
loop_
_space_group_symop_operation_xyz
x,y,z
-x,-y,-z
loop_
_atom_site_type_symbol
_atom_site_label
_atom_site_fract_x
_atom_site_fract_y
_atom_site_fract_z
Si Si1 0.631175 0.521957 0.139955
Si Si2 0.284145 0.553244 0.425429
Si Si3 0.302537 0.646667 0.138249
Si Si4 0.911080 0.088953 0.274032
Si Si5 0.461646 0.803730 0.767540
Si Si6 0.560257 0.074788 0.432657
Si Si7 0.086722 0.720325 0.083727
Si Si8 0.982750 0.326566 0.699732
O O1 0.758022 0.308338 0.221992
O O2 0.599508 0.791575 0.319817
O O3 0.500000 0.500000 0.000000
O O4 0.663732 0.493920 0.029849
O O5 0.344941 0.749325 0.647619
O O6 0.402676 0.266709 0.392818
O O7 0.209241 0.596450 0.242591
O O8 0.176248 0.589680 0.413332
O O9 0.399738 0.457200 0.230300
O O10 0.336761 0.876405 0.328246
O O11 0.146383 0.741381 0.049683
O O12 0.009388 0.178376 0.518574
O O13 0.974343 0.994292 0.166607
O O14 0.916702 0.853305 0.196312
O O15 0.409325 0.891896 0.636436
O O16 0.500000 0.000000 0.000000
O O17 0.008975 0.558318 0.866382
#
# Coordination Sequence:
#
# PCOD8006403 Si02
#       8
#     2   2   2   2   2   2   2   2
#     4  12  30  44  67 100 141 183 224 278 352 420
#     4  10  20  39  69 106 138 169 234 286 336 399
#     4  11  24  44  67 103 133 182 229 280 347 397
#     4  10  25  46  62 103 136 176 234 271 340 406
#     4  11  20  38  72 107 137 176 227 289 343 401
#     4  11  23  43  66 102 140 178 220 289 340 407
#     4  11  22  43  74  98 131 177 235 283 333 399
#     4  10  24  43  75  99 133 182 223 298 331 389
#
# _framework density 22.601327000000001
#
# number of rings (size 3 to 8) (size 9 to 14) (size 15 to 20)
#    0.000    1.250    3.750    2.250    7.000    6.000 
#    0.000    1.250    0.000    0.000    0.000    0.000 
#    0.000    0.000    0.000    0.000    0.000    0.000 
#
# Total GULP energy -198351.466145 kJ/mol
# GULP energy per Si atom -12396.966634 kJ/mol
# Density = 2.254989 g / cm^3
# Si number density = 22.601327 Si / 1000 Ang^3
#
#
#
# Elastic Constant Matrix: (Units=GPa)
#
#
# Indices 1 2 3 4 5 6 
#
# 1 94.7455 39.6638 45.8126 16.5434 15.3618 -8.4651
# 2 39.6638 123.6188 31.0198 16.5192 18.5450 -22.2668
# 3 45.8126 31.0198 127.0185 33.9871 18.9978 -11.1770
# 4 16.5434 16.5192 33.9871 37.7444 1.2441 -4.7017
# 5 15.3618 18.5450 18.9978 1.2441 36.0936 -3.7905
# 6 -8.4651 -22.2668 -11.1770 -4.7017 -3.7905 16.3034
#
#
#
# Elastic Compliance Matrix: (Units=1/GPa)
#
#
# Indices 1 2 3 4 5 6 
#
# 1 0.014273 -0.003156 -0.003607 -0.001596 -0.002544 -0.000424
# 2 -0.003156 0.012414 0.000653 -0.002758 -0.003805 0.014084
# 3 -0.003607 0.000653 0.012565 -0.009386 -0.004687 0.003836
# 4 -0.001596 -0.002758 -0.009386 0.036776 0.005868 0.000940
# 5 -0.002544 -0.003805 -0.004687 0.005868 0.032969 -0.000374
# 6 -0.000424 0.014084 0.003836 0.000940 -0.000374 0.083167
#
#
# Mechanical properties :
#
#
# Convention : Reuss Voigt Hill
#
# Bulk Modulus (GPa) = 36.99326 64.26393 50.62859
# Shear Modulus (GPa) = 23.43070 33.28738 28.35904
#
# Velocity S-wave (km/s) = 3.22327 3.84188 3.54609
# Velocity P-wave (km/s) = 5.50054 6.94086 6.26224
#
# Compressibility (1/GPa) = 0.02703195
#
# Stress axis : x y z
#
# Youngs Moduli (GPa) = 70.06147 80.55119 79.58898
#
# Poissons Ratio (x) = 0.25422 0.28709
# Poissons Ratio (y) = 0.22111 -0.05197
# Poissons Ratio (z) = 0.25272 -0.05260
#
# Static dielectric constant tensor:
#      x y z
#    x 4.090490 -0.109940 -0.033210 
#    y -0.109940 4.116020 0.237420 
#    z -0.033210 0.237420 4.377120 
# 
# 
# High freq. dielectric constant tensor:
#      x y z
#    x 1.886210 -0.013880 -0.005620 
#    y -0.013880 1.881110 0.007770 
#    z -0.005620 0.007770 1.899620 
# 
# From -- ./inp_files/462595.got.cif
#   From: 2010.06.25/outbox.cif.g09.slc.cpg/sg2_232_cif.got.tgz:462595.got - 2010.06.27 13:26:56.
