data_PCOD8006136
_publ_section_title
;
Structure prediction by ZEFSAII (Michael W. Deem and Ramdas Pophale) SiO2 
 PCOD8006136
Probable space group: P -1
;
_chemical_formula_sum "Si O2"
_cell_formula_units_Z 16
_cell_length_a 10.439173
_cell_length_b 9.081358
_cell_length_c 18.053528
_cell_angle_alpha 97.110205
_cell_angle_beta 33.388341
_cell_angle_gamma 74.639569
_cell_volume 690.146245
_symmetry_space_group_name_H-M "P -1"
_symmetry_group_IT_number 2
_symmetry_cell_setting 'triclinic'
loop_
_space_group_symop_operation_xyz
x,y,z
-x,-y,-z
loop_
_atom_site_type_symbol
_atom_site_label
_atom_site_fract_x
_atom_site_fract_y
_atom_site_fract_z
Si Si1 0.588855 0.126682 0.445295
Si Si2 0.669157 0.161305 0.128355
Si Si3 0.642244 0.847805 0.082513
Si Si4 0.285153 0.543085 0.260579
Si Si5 0.667991 0.208629 0.643626
Si Si6 0.657654 0.527702 0.317839
Si Si7 0.862592 0.114206 0.724451
Si Si8 0.662266 0.632755 0.553674
O O1 0.340847 0.359277 0.606658
O O2 0.575612 0.154325 0.364621
O O3 0.500000 0.000000 0.500000
O O4 0.924324 0.009329 0.314947
O O5 0.620798 0.309574 0.096528
O O6 0.419860 0.323199 0.318458
O O7 0.553028 0.056828 0.145758
O O8 0.000000 0.000000 0.000000
O O9 0.550546 0.796952 0.197399
O O10 0.429723 0.870442 0.120800
O O11 0.003703 0.687223 0.873918
O O12 0.232060 0.673121 0.365225
O O13 0.271549 0.659500 0.202653
O O14 0.021874 0.531944 0.370116
O O15 0.428366 0.333048 0.700445
O O16 0.974588 0.994304 0.443350
O O17 0.397126 0.509960 0.455179
#
# Coordination Sequence:
#
# PCOD8006136 Si02
#       8
#     2   2   2   2   2   2   2   2
#     4  11  25  47  67  91 124 175 233 261 309 383
#     4  12  24  39  64 103 138 160 202 268 339 385
#     4  11  22  40  63  99 133 167 210 264 335 380
#     4  11  21  38  65  96 128 163 213 265 317 386
#     4  10  20  39  65  95 132 167 213 262 329 384
#     4  11  24  41  63  96 131 171 209 271 326 379
#     4  10  22  42  67  95 126 177 219 264 313 385
#     4  12  23  42  66  94 133 170 217 264 319 386
#
# _framework density 23.183492000000001
#
# number of rings (size 3 to 8) (size 9 to 14) (size 15 to 20)
#    0.000    1.000    3.750    4.125    5.250    1.000 
#    0.000    2.500    0.000    0.000    0.000    0.000 
#    0.000    0.000    0.000    0.000    0.000    0.000 
#
# Total GULP energy -198212.781932 kJ/mol
# GULP energy per Si atom -12388.298871 kJ/mol
# Density = 2.313073 g / cm^3
# Si number density = 23.183492 Si / 1000 Ang^3
#
#
#
# Elastic Constant Matrix: (Units=GPa)
#
#
# Indices 1 2 3 4 5 6 
#
# 1 61.4678 42.3423 26.6226 2.4355 -18.9950 14.2739
# 2 42.3423 135.4510 27.3299 26.2009 -13.2747 10.1778
# 3 26.6226 27.3299 48.1302 13.0117 -26.3760 4.9192
# 4 2.4355 26.2009 13.0117 27.6577 -1.9969 -7.1466
# 5 -18.9950 -13.2747 -26.3760 -1.9969 32.3042 0.8978
# 6 14.2739 10.1778 4.9192 -7.1466 0.8978 48.6406
#
#
#
# Elastic Compliance Matrix: (Units=1/GPa)
#
#
# Indices 1 2 3 4 5 6 
#
# 1 0.028421 -0.007605 -0.009863 0.008600 0.006193 -0.004602
# 2 -0.007605 0.012039 0.001228 -0.011813 0.000808 -0.002162
# 3 -0.009863 0.001228 0.052845 -0.024314 0.036543 -0.006954
# 4 0.008600 -0.011813 -0.024314 0.059825 -0.016271 0.011497
# 5 0.006193 0.000808 0.036543 -0.016271 0.064017 -0.009254
# 6 -0.004602 -0.002162 -0.006954 0.011497 -0.009254 0.024925
#
#
# Mechanical properties :
#
#
# Convention : Reuss Voigt Hill
#
# Bulk Modulus (GPa) = 16.44077 48.62652 32.53364
# Shear Modulus (GPa) = 16.95900 31.63743 24.29822
#
# Velocity S-wave (km/s) = 2.70758 3.69813 3.24092
# Velocity P-wave (km/s) = 4.10873 6.26538 5.29796
#
# Compressibility (1/GPa) = 0.06082440
#
# Stress axis : x y z
#
# Youngs Moduli (GPa) = 35.18511 83.06238 18.92319
#
# Poissons Ratio (x) = 0.63171 0.18664
# Poissons Ratio (y) = 0.26759 -0.02323
# Poissons Ratio (z) = 0.34703 -0.10197
#
# Static dielectric constant tensor:
#      x y z
#    x 4.762680 -0.129900 -0.255740 
#    y -0.129900 4.472370 0.223050 
#    z -0.255740 0.223050 3.918450 
# 
# 
# High freq. dielectric constant tensor:
#      x y z
#    x 1.927540 -0.000750 -0.026520 
#    y -0.000750 1.940110 0.016490 
#    z -0.026520 0.016490 1.873730 
# 
# From -- ./inp_files/593588.got.cif
#   From: 2010.06.25/outbox.cif.g09.slc.cpg/sg2_297_cif.got.tgz:593588.got - 2010.06.27 13:26:56.
