data_PCOD8006753
_publ_section_title
;
Structure prediction by ZEFSAII (Michael W. Deem and Ramdas Pophale) SiO2 
 PCOD8006753
Probable space group: P -1
;
_chemical_formula_sum "Si O2"
_cell_formula_units_Z 16
_cell_length_a 16.018266
_cell_length_b 12.092858
_cell_length_c 15.633648
_cell_angle_alpha 125.026307
_cell_angle_beta 152.744192
_cell_angle_gamma 36.673293
_cell_volume 713.288742
_symmetry_space_group_name_H-M "P -1"
_symmetry_group_IT_number 2
_symmetry_cell_setting 'triclinic'
loop_
_space_group_symop_operation_xyz
x,y,z
-x,-y,-z
loop_
_atom_site_type_symbol
_atom_site_label
_atom_site_fract_x
_atom_site_fract_y
_atom_site_fract_z
Si Si1 0.878588 0.618896 0.308574
Si Si2 0.388139 0.810513 0.492610
Si Si3 0.719209 0.819019 0.426232
Si Si4 0.243920 0.838049 0.553865
Si Si5 0.747009 0.297756 0.924812
Si Si6 0.885872 0.971393 0.010411
Si Si7 0.600765 0.240178 0.155728
Si Si8 0.757782 0.474830 0.547401
O O1 0.875054 0.722848 0.432188
O O2 0.086776 0.372297 0.412229
O O3 0.971933 0.631731 0.309543
O O4 0.544390 0.775047 0.052039
O O5 0.450842 0.752493 0.624791
O O6 0.691551 0.602648 0.628302
O O7 0.300754 0.016020 0.486694
O O8 0.140400 0.841735 0.255632
O O9 0.402228 0.934567 0.176007
O O10 0.387345 0.820328 0.761790
O O11 0.197702 0.705843 0.467312
O O12 0.928627 0.085842 0.357448
O O13 0.834588 0.157069 0.022181
O O14 0.606792 0.511778 0.929008
O O15 0.518801 0.341272 0.682706
O O16 0.011523 0.173089 0.044103
#
# Coordination Sequence:
#
# PCOD8006753 Si02
#       8
#     2   2   2   2   2   2   2   2
#     4  11  24  42  61 101 128 163 208 266 325 371
#     4  11  24  41  67  97 127 171 211 260 320 374
#     4  11  25  40  66  99 135 158 209 267 314 396
#     4  10  23  43  64  90 122 173 221 259 309 373
#     4   9  19  37  65  93 125 165 213 252 317 384
#     4  10  20  40  63  96 131 168 200 263 320 377
#     4  10  22  39  68  89 122 172 211 266 310 378
#     4  10  22  42  66  88 131 167 210 265 312 376
#
# _framework density 22.431308999999999
#
# number of rings (size 3 to 8) (size 9 to 14) (size 15 to 20)
#    0.000    1.750    1.250    1.875    7.000    1.000 
#    2.250    3.750    0.000    0.000    0.000    0.000 
#    0.000    0.000    0.000    0.000    0.000    0.000 
#
# Total GULP energy -198311.499708 kJ/mol
# GULP energy per Si atom -12394.468732 kJ/mol
# Density = 2.238025 g / cm^3
# Si number density = 22.431309 Si / 1000 Ang^3
#
#
#
# Elastic Constant Matrix: (Units=GPa)
#
#
# Indices 1 2 3 4 5 6 
#
# 1 104.5961 27.5007 9.7683 5.2854 4.7916 -15.3925
# 2 27.5007 84.4585 16.1026 -10.1089 3.6904 -5.4963
# 3 9.7683 16.1026 73.1651 3.5189 1.8127 -2.9864
# 4 5.2854 -10.1089 3.5189 24.5397 -2.4216 1.6219
# 5 4.7916 3.6904 1.8127 -2.4216 23.7468 -3.7346
# 6 -15.3925 -5.4963 -2.9864 1.6219 -3.7346 27.7793
#
#
#
# Elastic Compliance Matrix: (Units=1/GPa)
#
#
# Indices 1 2 3 4 5 6 
#
# 1 0.011756 -0.003904 -0.000218 -0.004622 -0.001306 0.005812
# 2 -0.003904 0.014570 -0.003024 0.007231 -0.000524 -0.000098
# 3 -0.000218 -0.003024 0.014586 -0.003432 -0.000801 0.000941
# 4 -0.004622 0.007231 -0.003432 0.045868 0.004180 -0.003615
# 5 -0.001306 -0.000524 -0.000801 0.004180 0.043685 0.004716
# 6 0.005812 -0.000098 0.000941 -0.003615 0.004716 0.040145
#
#
# Mechanical properties :
#
#
# Convention : Reuss Voigt Hill
#
# Bulk Modulus (GPa) = 37.56812 40.99585 39.28199
# Shear Modulus (GPa) = 25.80287 29.13638 27.46963
#
# Velocity S-wave (km/s) = 3.39530 3.60796 3.50324
# Velocity P-wave (km/s) = 5.67055 5.97263 5.82355
#
# Compressibility (1/GPa) = 0.02661831
#
# Stress axis : x y z
#
# Youngs Moduli (GPa) = 85.06111 68.63421 68.55990
#
# Poissons Ratio (x) = 0.26796 0.01497
# Poissons Ratio (y) = 0.33210 0.20734
# Poissons Ratio (z) = 0.01858 0.20757
#
# Static dielectric constant tensor:
#      x y z
#    x 4.013520 -0.267090 -0.097210 
#    y -0.267090 3.999040 -0.153700 
#    z -0.097210 -0.153700 3.880050 
# 
# 
# High freq. dielectric constant tensor:
#      x y z
#    x 1.881590 -0.016210 -0.010860 
#    y -0.016210 1.884320 -0.012730 
#    z -0.010860 -0.012730 1.865200 
# 
# From -- ./inp_files/260378.got.cif
#   From: 2010.06.25/outbox.cif.g09.slc.cpg/sg2_131_cif.got.tgz:260378.got - 2010.06.27 13:26:56.
