data_PCOD8006275
_publ_section_title
;
Structure prediction by ZEFSAII (Michael W. Deem and Ramdas Pophale) SiO2 
 PCOD8006275
Probable space group: P -1
;
_chemical_formula_sum "Si O2"
_cell_formula_units_Z 14
_cell_length_a 12.389828
_cell_length_b 11.224338
_cell_length_c 8.819822
_cell_angle_alpha 75.224910
_cell_angle_beta 142.668216
_cell_angle_gamma 85.116233
_cell_volume 626.555119
_symmetry_space_group_name_H-M "P -1"
_symmetry_group_IT_number 2
_symmetry_cell_setting 'triclinic'
loop_
_space_group_symop_operation_xyz
x,y,z
-x,-y,-z
loop_
_atom_site_type_symbol
_atom_site_label
_atom_site_fract_x
_atom_site_fract_y
_atom_site_fract_z
Si Si1 0.207310 0.428947 0.168716
Si Si2 0.508213 0.299976 0.801776
Si Si3 0.847250 0.951214 0.775681
Si Si4 0.334362 0.619230 0.593380
Si Si5 0.515127 0.789210 0.882312
Si Si6 0.194869 0.711060 0.082230
Si Si7 0.133716 0.254225 0.905214
O O1 0.366853 0.311216 0.498795
O O2 0.251478 0.555507 0.137514
O O3 0.187922 0.362136 0.014761
O O4 0.000000 0.500000 0.000000
O O5 0.434034 0.451975 0.746119
O O6 0.731092 0.229768 0.994285
O O7 0.508631 0.195554 0.966489
O O8 0.771093 0.893305 0.849012
O O9 0.657076 0.074065 0.438544
O O10 0.960327 0.823803 0.820328
O O11 0.000000 0.000000 0.000000
O O12 0.482562 0.656950 0.842905
O O13 0.315051 0.688976 0.383126
O O14 0.110745 0.681417 0.405540
O O15 0.740051 0.769571 0.102412
#
# Coordination Sequence:
#
# PCOD8006275 Si02
#       7
#     2   2   2   2   2   2   2
#     4  11  19  40  66  91 120 156 210 255 298 365
#     4  11  23  38  61  98 125 157 202 259 321 354
#     4  11  22  42  65  88 118 170 217 243 296 374
#     4  10  20  41  64  94 122 162 208 250 306 368
#     4  12  24  40  61  95 131 160 201 257 312 364
#     4  10  20  39  67  88 117 165 212 246 298 368
#     4  11  22  41  70  89 120 166 211 251 300 371
#
# _framework density 22.344404000000001
#
# number of rings (size 3 to 8) (size 9 to 14) (size 15 to 20)
#    0.000    1.143    7.143    4.286    0.000    1.143 
#    2.571    0.714    0.000    0.000    0.000    0.000 
#    0.000    0.000    0.000    0.000    0.000    0.000 
#
# Total GULP energy -173486.597563 kJ/mol
# GULP energy per Si atom -12391.899826 kJ/mol
# Density = 2.229355 g / cm^3
# Si number density = 22.344404 Si / 1000 Ang^3
#
#
#
# Elastic Constant Matrix: (Units=GPa)
#
#
# Indices 1 2 3 4 5 6 
#
# 1 186.2104 8.3301 37.3820 6.1242 -3.8177 24.0601
# 2 8.3301 38.6845 3.7948 3.1789 -0.6269 5.7649
# 3 37.3820 3.7948 40.9629 -7.8485 10.2217 6.4232
# 4 6.1242 3.1789 -7.8485 17.8499 4.9993 5.2731
# 5 -3.8177 -0.6269 10.2217 4.9993 22.6918 2.3797
# 6 24.0601 5.7649 6.4232 5.2731 2.3797 19.2925
#
#
#
# Elastic Compliance Matrix: (Units=1/GPa)
#
#
# Indices 1 2 3 4 5 6 
#
# 1 0.008865 0.001006 -0.011158 -0.008811 0.009154 -0.006362
# 2 0.001006 0.027807 -0.005252 -0.007243 0.005583 -0.006524
# 3 -0.011158 -0.005252 0.052420 0.039762 -0.033482 -0.008706
# 4 -0.008811 -0.007243 0.039762 0.094820 -0.038252 -0.021284
# 5 0.009154 0.005583 -0.033482 -0.038252 0.069276 -0.000027
# 6 -0.006362 -0.006524 -0.008706 -0.021284 -0.000027 0.070436
#
#
# Mechanical properties :
#
#
# Convention : Reuss Voigt Hill
#
# Bulk Modulus (GPa) = 17.15746 40.54128 28.84937
# Shear Modulus (GPa) = 13.37406 26.39022 19.88214
#
# Velocity S-wave (km/s) = 2.44917 3.44039 2.98619
# Velocity P-wave (km/s) = 3.96146 5.82794 4.98288
#
# Compressibility (1/GPa) = 0.05828368
#
# Stress axis : x y z
#
# Youngs Moduli (GPa) = 112.80746 35.96262 19.07676
#
# Poissons Ratio (x) = -0.03618 0.21285
# Poissons Ratio (y) = -0.11350 0.10019
# Poissons Ratio (z) = 1.25867 0.18888
#
# Static dielectric constant tensor:
#      x y z
#    x 4.215580 0.105890 0.164020 
#    y 0.105890 3.829980 -0.118560 
#    z 0.164020 -0.118560 3.951820 
# 
# 
# High freq. dielectric constant tensor:
#      x y z
#    x 1.891380 0.006130 0.012850 
#    y 0.006130 1.864520 -0.005320 
#    z 0.012850 -0.005320 1.858190 
# 
# From -- ./inp_files/257751.got.cif
#   From: 2010.06.25/outbox.cif.g09.slc.cpg/sg2_129_cif.got.tgz:257751.got - 2010.06.27 13:26:56.
