data_PCOD8006362
_publ_section_title
;
Structure prediction by ZEFSAII (Michael W. Deem and Ramdas Pophale) SiO2 
 PCOD8006362
Probable space group: P -1
;
_chemical_formula_sum "Si O2"
_cell_formula_units_Z 14
_cell_length_a 7.834627
_cell_length_b 14.506416
_cell_length_c 8.710159
_cell_angle_alpha 115.935151
_cell_angle_beta 52.097208
_cell_angle_gamma 85.504268
_cell_volume 612.688981
_symmetry_space_group_name_H-M "P -1"
_symmetry_group_IT_number 2
_symmetry_cell_setting 'triclinic'
loop_
_space_group_symop_operation_xyz
x,y,z
-x,-y,-z
loop_
_atom_site_type_symbol
_atom_site_label
_atom_site_fract_x
_atom_site_fract_y
_atom_site_fract_z
Si Si1 0.429620 0.377353 0.338858
Si Si2 0.164402 0.638599 0.678798
Si Si3 0.205250 0.168477 0.776243
Si Si4 0.294138 0.945490 0.737364
Si Si5 0.798566 0.199492 0.798517
Si Si6 0.518910 0.857683 0.871438
Si Si7 0.015468 0.832710 0.662374
O O1 0.203873 0.508218 0.531113
O O2 0.582081 0.372175 0.403713
O O3 0.331406 0.283799 0.350954
O O4 0.615481 0.333249 0.056053
O O5 0.098372 0.708492 0.606764
O O6 0.941226 0.703284 0.971593
O O7 0.473431 0.145693 0.560322
O O8 0.067380 0.153643 0.693245
O O9 0.222551 0.078208 0.832370
O O10 0.359342 0.927806 0.866102
O O11 0.067633 0.918777 0.807084
O O12 0.821891 0.192537 0.598733
O O13 0.679147 0.118405 0.863331
O O14 0.720606 0.897443 0.832933
#
# Coordination Sequence:
#
# PCOD8006362 Si02
#       7
#     2   2   2   2   2   2   2
#     4   8  19  42  64  91 133 162 207 273 308 380
#     4  10  20  39  68  94 124 171 215 254 327 373
#     4  10  22  43  67  91 132 171 210 274 309 381
#     4  11  23  43  65  94 131 170 218 257 323 379
#     4   9  21  41  63  93 134 158 212 265 314 371
#     4  10  22  44  63  96 132 166 210 269 310 384
#     4  12  23  38  69  97 128 172 212 254 326 389
#
# _framework density 22.850093000000001
#
# number of rings (size 3 to 8) (size 9 to 14) (size 15 to 20)
#    0.857    1.143    2.857    0.000    2.000    4.000 
#    0.000    3.571    0.000    0.000    0.000    0.000 
#    0.000    0.000    0.000    0.000    0.000    0.000 
#
# Total GULP energy -173591.735421 kJ/mol
# GULP energy per Si atom -12399.409673 kJ/mol
# Density = 2.279809 g / cm^3
# Si number density = 22.850093 Si / 1000 Ang^3
#
#
#
# Elastic Constant Matrix: (Units=GPa)
#
#
# Indices 1 2 3 4 5 6 
#
# 1 138.1311 50.8745 46.4059 -1.7165 -5.0868 -1.9505
# 2 50.8745 76.6446 36.7711 1.1572 7.6959 -14.3133
# 3 46.4059 36.7711 95.1347 0.3395 -5.1706 -5.2864
# 4 -1.7165 1.1572 0.3395 39.2863 -0.6573 3.5331
# 5 -5.0868 7.6959 -5.1706 -0.6573 39.4906 -4.8577
# 6 -1.9505 -14.3133 -5.2864 3.5331 -4.8577 37.2526
#
#
#
# Elastic Compliance Matrix: (Units=1/GPa)
#
#
# Indices 1 2 3 4 5 6 
#
# 1 0.010519 -0.006280 -0.002715 0.000888 0.001983 -0.002073
# 2 -0.006280 0.021425 -0.005104 -0.001544 -0.004855 0.006692
# 3 -0.002715 -0.005104 0.013956 -0.000066 0.002497 0.000209
# 4 0.000888 -0.001544 -0.000066 0.025812 0.000474 -0.002942
# 5 0.001983 -0.004855 0.002497 0.000474 0.027115 0.002084
# 6 -0.002073 0.006692 0.000209 -0.002942 0.002084 0.029887
#
#
# Mechanical properties :
#
#
# Convention : Reuss Voigt Hill
#
# Bulk Modulus (GPa) = 56.48775 64.22372 60.35573
# Shear Modulus (GPa) = 30.71032 34.92982 32.82007
#
# Velocity S-wave (km/s) = 3.67003 3.91404 3.79399
# Velocity P-wave (km/s) = 6.53708 6.97093 6.75749
#
# Compressibility (1/GPa) = 0.01770295
#
# Stress axis : x y z
#
# Youngs Moduli (GPa) = 95.06570 46.67463 71.65351
#
# Poissons Ratio (x) = 0.29310 0.19450
# Poissons Ratio (y) = 0.59697 0.36575
# Poissons Ratio (z) = 0.25806 0.23825
#
# Static dielectric constant tensor:
#      x y z
#    x 4.029950 -0.028190 -0.061950 
#    y -0.028190 4.043240 0.090400 
#    z -0.061950 0.090400 4.093050 
# 
# 
# High freq. dielectric constant tensor:
#      x y z
#    x 1.904570 -0.010030 0.001550 
#    y -0.010030 1.889240 0.003930 
#    z 0.001550 0.003930 1.907930 
# 
# From -- ./inp_files/202408.got.cif
#   From: 2010.06.25/outbox.cif.g09.slc.cpg/sg2_102_cif.got.tgz:202408.got - 2010.06.27 13:26:56.
