data_PCOD8006378
_publ_section_title
;
Structure prediction by ZEFSAII (Michael W. Deem and Ramdas Pophale) SiO2 
 PCOD8006378
Probable space group: P -1
;
_chemical_formula_sum "Si O2"
_cell_formula_units_Z 16
_cell_length_a 12.064362
_cell_length_b 9.475518
_cell_length_c 9.183812
_cell_angle_alpha 80.803854
_cell_angle_beta 77.770238
_cell_angle_gamma 44.201756
_cell_volume 715.287437
_symmetry_space_group_name_H-M "P -1"
_symmetry_group_IT_number 2
_symmetry_cell_setting 'triclinic'
loop_
_space_group_symop_operation_xyz
x,y,z
-x,-y,-z
loop_
_atom_site_type_symbol
_atom_site_label
_atom_site_fract_x
_atom_site_fract_y
_atom_site_fract_z
Si Si1 0.436777 0.152602 0.620611
Si Si2 0.911058 0.555155 0.248477
Si Si3 0.824012 0.548546 0.965937
Si Si4 0.550661 0.590369 0.619569
Si Si5 0.054193 0.160118 0.358312
Si Si6 0.660171 0.988018 0.866932
Si Si7 0.545771 0.623642 0.943835
Si Si8 0.770073 0.210380 0.448400
O O1 0.264937 0.235221 0.694126
O O2 0.418249 0.328048 0.534401
O O3 0.548537 0.060176 0.745612
O O4 0.500000 0.000000 0.500000
O O5 0.037053 0.570721 0.178699
O O6 0.982984 0.381720 0.378717
O O7 0.904355 0.468692 0.114812
O O8 0.721287 0.496330 0.983440
O O9 0.705717 0.792435 0.950525
O O10 0.562308 0.649312 0.765000
O O11 0.688018 0.347580 0.596728
O O12 0.371265 0.684369 0.646383
O O13 0.907522 0.188652 0.346662
O O14 0.181182 0.064855 0.208852
O O15 0.146148 0.015355 0.497521
O O16 0.578774 0.156606 0.985309
O O17 0.500000 0.500000 0.000000
#
# Coordination Sequence:
#
# PCOD8006378 Si02
#       8
#     2   2   2   2   2   2   2   2
#     4  12  24  42  70 100 130 176 233 284 336 399
#     4  10  22  42  71  97 133 179 228 281 343 395
#     4  10  23  44  70  97 135 183 229 278 340 405
#     4  11  24  41  67 100 130 181 224 276 334 409
#     4  10  20  39  68  97 129 180 217 278 344 393
#     4  11  23  45  69  94 140 180 229 282 336 404
#     4  12  26  41  69 103 139 178 226 277 343 410
#     4  10  21  40  68  94 137 172 223 275 341 406
#
# _framework density 22.36863
#
# number of rings (size 3 to 8) (size 9 to 14) (size 15 to 20)
#    0.000    1.250    3.750    1.875    5.250    0.000 
#    2.250    3.750    0.000    0.000    0.000    0.000 
#    0.000    0.000    0.000    0.000    0.000    0.000 
#
# Total GULP energy -198338.773994 kJ/mol
# GULP energy per Si atom -12396.173375 kJ/mol
# Density = 2.231772 g / cm^3
# Si number density = 22.368630 Si / 1000 Ang^3
#
#
#
# Elastic Constant Matrix: (Units=GPa)
#
#
# Indices 1 2 3 4 5 6 
#
# 1 136.6009 36.7966 20.3516 14.9055 -28.0890 -11.8394
# 2 36.7966 84.4119 30.2159 7.3282 -5.6529 -16.2793
# 3 20.3516 30.2159 74.3786 16.2329 -1.9921 -3.8097
# 4 14.9055 7.3282 16.2329 36.1239 1.0938 -7.1216
# 5 -28.0890 -5.6529 -1.9921 1.0938 35.9266 3.1787
# 6 -11.8394 -16.2793 -3.8097 -7.1216 3.1787 33.9633
#
#
#
# Elastic Compliance Matrix: (Units=1/GPa)
#
#
# Indices 1 2 3 4 5 6 
#
# 1 0.010280 -0.003431 -0.000432 -0.003490 0.007539 0.000453
# 2 -0.003431 0.016468 -0.005891 0.002049 -0.001061 0.006566
# 3 -0.000432 -0.005891 0.017341 -0.006914 0.000128 -0.002491
# 4 -0.003490 0.002049 -0.006914 0.033200 -0.004364 0.006360
# 5 0.007539 -0.001061 0.000128 -0.004364 0.033875 -0.001952
# 6 0.000453 0.006566 -0.002491 0.006360 -0.001952 0.033985
#
#
# Mechanical properties :
#
#
# Convention : Reuss Voigt Hill
#
# Bulk Modulus (GPa) = 40.68123 52.23551 46.45837
# Shear Modulus (GPa) = 28.92686 35.07124 31.99905
#
# Velocity S-wave (km/s) = 3.59999 3.96394 3.78634
# Velocity P-wave (km/s) = 5.95870 6.65982 6.31899
#
# Compressibility (1/GPa) = 0.02458136
#
# Stress axis : x y z
#
# Youngs Moduli (GPa) = 97.27936 60.72288 57.66770
#
# Poissons Ratio (x) = 0.20835 0.02491
# Poissons Ratio (y) = 0.33379 0.33969
# Poissons Ratio (z) = 0.04202 0.35769
#
# Static dielectric constant tensor:
#      x y z
#    x 4.353540 -0.131820 -0.329700 
#    y -0.131820 4.154810 -0.163470 
#    z -0.329700 -0.163470 3.935560 
# 
# 
# High freq. dielectric constant tensor:
#      x y z
#    x 1.892240 -0.019640 -0.026420 
#    y -0.019640 1.878670 -0.011260 
#    z -0.026420 -0.011260 1.867490 
# 
# From -- ./inp_files/243964.got.cif
#   From: 2010.06.25/outbox.cif.g09.slc.cpg/sg2_122_cif.got.tgz:243964.got - 2010.06.27 13:26:56.
