data_PCOD8006781
_publ_section_title
;
Structure prediction by ZEFSAII (Michael W. Deem and Ramdas Pophale) SiO2 
 PCOD8006781
Probable space group: P -1
;
_chemical_formula_sum "Si O2"
_cell_formula_units_Z 16
_cell_length_a 18.736050
_cell_length_b 15.756990
_cell_length_c 7.678341
_cell_angle_alpha 91.971241
_cell_angle_beta 91.334209
_cell_angle_gamma 19.821697
_cell_volume 767.938022
_symmetry_space_group_name_H-M "P -1"
_symmetry_group_IT_number 2
_symmetry_cell_setting 'triclinic'
loop_
_space_group_symop_operation_xyz
x,y,z
-x,-y,-z
loop_
_atom_site_type_symbol
_atom_site_label
_atom_site_fract_x
_atom_site_fract_y
_atom_site_fract_z
Si Si1 0.797876 0.851118 0.214621
Si Si2 0.364438 0.969631 0.412508
Si Si3 0.368576 0.730935 0.036396
Si Si4 0.998504 0.471097 0.297695
Si Si5 0.185943 0.995305 0.384660
Si Si6 0.785706 0.538781 0.259633
Si Si7 0.614104 0.622968 0.943611
Si Si8 0.039529 0.145288 0.759763
O O1 0.956776 0.594508 0.163230
O O2 0.936007 0.780961 0.220418
O O3 0.723573 0.902164 0.400800
O O4 0.587602 0.097491 0.108170
O O5 0.367446 0.863339 0.402946
O O6 0.600977 0.735755 0.400864
O O7 0.225682 0.169297 0.263487
O O8 0.264341 0.841752 0.231327
O O9 0.500000 0.500000 0.000000
O O10 0.525937 0.634758 0.021867
O O11 0.180574 0.942770 0.900492
O O12 0.823459 0.596613 0.247086
O O13 0.000000 0.500000 0.500000
O O14 0.128224 0.014301 0.566839
O O15 0.985247 0.271406 0.333492
O O16 0.733887 0.548952 0.079304
O O17 0.790252 0.402971 0.790240
#
# Coordination Sequence:
#
# PCOD8006781 Si02
#       8
#     2   2   2   2   2   2   2   2
#     4   9  20  35  55  84 123 159 202 252 296 349
#     4   9  18  35  58  83 116 166 205 244 298 352
#     4  11  24  43  66  92 123 154 195 255 309 365
#     4   9  20  34  52  88 123 160 207 254 292 346
#     4  10  20  40  64  88 123 163 199 245 303 362
#     4  11  20  34  62  85 118 167 204 245 300 353
#     4  11  22  39  61  89 122 157 207 248 303 364
#     4  10  22  41  63  89 123 162 201 245 302 366
#
# _framework density 20.835013
#
# number of rings (size 3 to 8) (size 9 to 14) (size 15 to 20)
#    0.000    2.000    2.500    1.500    0.000    4.500 
#    0.000    1.875    0.000    0.000    0.000    0.000 
#    0.000    0.000    0.000    0.000    0.000    0.000 
#
# Total GULP energy -198224.361517 kJ/mol
# GULP energy per Si atom -12389.022595 kJ/mol
# Density = 2.078759 g / cm^3
# Si number density = 20.835013 Si / 1000 Ang^3
#
#
#
# Elastic Constant Matrix: (Units=GPa)
#
#
# Indices 1 2 3 4 5 6 
#
# 1 55.6697 26.2019 25.2291 -6.3052 1.1088 1.3122
# 2 26.2019 50.7477 27.8457 12.2164 -5.3405 1.1861
# 3 25.2291 27.8457 92.7290 2.9409 -0.3358 6.5571
# 4 -6.3052 12.2164 2.9409 24.6783 -6.8723 -1.4891
# 5 1.1088 -5.3405 -0.3358 -6.8723 19.0586 4.5227
# 6 1.3122 1.1861 6.5571 -1.4891 4.5227 35.3406
#
#
#
# Elastic Compliance Matrix: (Units=1/GPa)
#
#
# Indices 1 2 3 4 5 6 
#
# 1 0.029586 -0.017492 -0.003387 0.016403 -0.000990 0.000935
# 2 -0.017492 0.037440 -0.005728 -0.021274 0.003962 -0.000948
# 3 -0.003387 -0.005728 0.013571 0.000044 -0.000651 -0.002115
# 4 0.016403 -0.021274 0.000044 0.059259 0.014271 0.000768
# 5 -0.000990 0.003962 -0.000651 0.014271 0.060459 -0.007111
# 6 0.000935 -0.000948 -0.002115 0.000768 -0.007111 0.029628
#
#
# Mechanical properties :
#
#
# Convention : Reuss Voigt Hill
#
# Bulk Modulus (GPa) = 36.51704 39.74442 38.13073
# Shear Modulus (GPa) = 17.10655 23.80681 20.45668
#
# Velocity S-wave (km/s) = 2.86850 3.38396 3.13683
# Velocity P-wave (km/s) = 5.34190 5.86391 5.60898
#
# Compressibility (1/GPa) = 0.02738448
#
# Stress axis : x y z
#
# Youngs Moduli (GPa) = 33.79928 26.70929 73.68460
#
# Poissons Ratio (x) = 0.46720 0.24956
# Poissons Ratio (y) = 0.59122 0.42204
# Poissons Ratio (z) = 0.11447 0.15298
#
# Static dielectric constant tensor:
#      x y z
#    x 3.729150 0.009160 0.041770 
#    y 0.009160 4.980970 -0.230300 
#    z 0.041770 -0.230300 4.080980 
# 
# 
# High freq. dielectric constant tensor:
#      x y z
#    x 1.794000 -0.008200 0.000300 
#    y -0.008200 1.823430 -0.000250 
#    z 0.000300 -0.000250 1.814640 
# 
# From -- ./inp_files/45027.got.cif
#   From: 2010.06.25/outbox.cif.g09.slc.cpg/sg2_23_cif.got.tgz:45027.got - 2010.06.27 13:26:56.
