data_PCOD8006602
_publ_section_title
;
Structure prediction by ZEFSAII (Michael W. Deem and Ramdas Pophale) SiO2 
 PCOD8006602
Probable space group: P -1
;
_chemical_formula_sum "Si O2"
_cell_formula_units_Z 14
_cell_length_a 17.478763
_cell_length_b 8.562401
_cell_length_c 12.076419
_cell_angle_alpha 85.350029
_cell_angle_beta 135.571624
_cell_angle_gamma 130.124486
_cell_volume 682.870244
_symmetry_space_group_name_H-M "P -1"
_symmetry_group_IT_number 2
_symmetry_cell_setting 'triclinic'
loop_
_space_group_symop_operation_xyz
x,y,z
-x,-y,-z
loop_
_atom_site_type_symbol
_atom_site_label
_atom_site_fract_x
_atom_site_fract_y
_atom_site_fract_z
Si Si1 0.966614 0.825152 0.260819
Si Si2 0.382547 0.655842 0.228912
Si Si3 0.062523 0.395248 0.079220
Si Si4 0.477883 0.913425 0.803461
Si Si5 0.739319 0.868945 0.629734
Si Si6 0.771869 0.599631 0.565525
Si Si7 0.821974 0.396503 0.289057
O O1 0.912368 0.672663 0.327301
O O2 0.126063 0.910396 0.349687
O O3 0.765904 0.611761 0.993309
O O4 0.069812 0.120201 0.369548
O O5 0.261129 0.606151 0.198458
O O6 0.525066 0.946342 0.292534
O O7 0.527101 0.700865 0.431047
O O8 0.118102 0.415668 0.261598
O O9 0.000000 0.500000 0.000000
O O10 0.873353 0.059173 0.866763
O O11 0.419926 0.687061 0.688527
O O12 0.312350 0.739552 0.735569
O O13 0.697386 0.164639 0.073267
O O14 0.700311 0.634805 0.586367
O O15 0.000000 0.500000 0.500000
#
# Coordination Sequence:
#
# PCOD8006602 Si02
#       7
#     2   2   2   2   2   2   2
#     4   8  20  38  59  87 120 154 194 245 300 347
#     4  10  20  40  62  84 121 164 199 238 296 355
#     4  11  23  39  60  89 123 163 202 240 288 358
#     4  10  22  38  61  90 118 150 206 246 290 363
#     4   9  20  38  60  85 125 156 197 245 291 347
#     4  10  22  41  57  91 126 151 202 250 296 347
#     4  10  20  40  65  84 116 160 197 244 303 355
#
# _framework density 20.5017
#
# number of rings (size 3 to 8) (size 9 to 14) (size 15 to 20)
#    0.857    1.429    0.000    2.143    0.000    5.714 
#    5.143    0.714    0.000    0.000    0.000    0.000 
#    0.000    0.000    0.000    0.000    0.000    0.000 
#
# Total GULP energy -173510.236418 kJ/mol
# GULP energy per Si atom -12393.588316 kJ/mol
# Density = 2.045504 g / cm^3
# Si number density = 20.501700 Si / 1000 Ang^3
#
#
#
# Elastic Constant Matrix: (Units=GPa)
#
#
# Indices 1 2 3 4 5 6 
#
# 1 66.1617 29.3830 45.3992 -1.0516 3.2181 -16.8590
# 2 29.3830 116.8961 47.9935 -4.0394 -3.0331 -9.8606
# 3 45.3992 47.9935 125.6671 -5.3063 5.1785 -19.1536
# 4 -1.0516 -4.0394 -5.3063 29.5602 -8.9180 -6.6517
# 5 3.2181 -3.0331 5.1785 -8.9180 38.0033 9.5879
# 6 -16.8590 -9.8606 -19.1536 -6.6517 9.5879 33.2707
#
#
#
# Elastic Compliance Matrix: (Units=1/GPa)
#
#
# Indices 1 2 3 4 5 6 
#
# 1 0.022510 -0.002702 -0.005673 0.000273 -0.003397 0.008374
# 2 -0.002702 0.010589 -0.003141 0.001282 0.001885 -0.000326
# 3 -0.005673 -0.003141 0.011980 0.001826 -0.001991 0.004030
# 4 0.000273 0.001282 0.001826 0.038053 0.006950 0.007174
# 5 -0.003397 0.001885 -0.001991 0.006950 0.031151 -0.009897
# 6 0.008374 -0.000326 0.004030 0.007174 -0.009897 0.040809
#
#
# Mechanical properties :
#
#
# Convention : Reuss Voigt Hill
#
# Bulk Modulus (GPa) = 45.35518 61.58624 53.47071
# Shear Modulus (GPa) = 26.95819 32.56346 29.76082
#
# Velocity S-wave (km/s) = 3.63012 3.98971 3.81416
# Velocity P-wave (km/s) = 6.30405 7.16439 6.74795
#
# Compressibility (1/GPa) = 0.02204820
#
# Stress axis : x y z
#
# Youngs Moduli (GPa) = 44.42477 94.43652 83.47298
#
# Poissons Ratio (x) = 0.25512 0.47351
# Poissons Ratio (y) = 0.12001 0.26222
# Poissons Ratio (z) = 0.25200 0.29666
#
# Static dielectric constant tensor:
#      x y z
#    x 3.338850 0.014680 -0.119670 
#    y 0.014680 3.667840 0.141640 
#    z -0.119670 0.141640 3.722390 
# 
# 
# High freq. dielectric constant tensor:
#      x y z
#    x 1.770750 0.008790 -0.002880 
#    y 0.008790 1.808930 0.009860 
#    z -0.002880 0.009860 1.805020 
# 
# From -- ./inp_files/462156.got.cif
#   From: 2010.06.25/outbox.cif.g09.slc.cpg/sg2_232_cif.got.tgz:462156.got - 2010.06.27 13:26:56.
