data_PCOD8006317
_publ_section_title
;
Structure prediction by ZEFSAII (Michael W. Deem and Ramdas Pophale) SiO2 
 PCOD8006317
Probable space group: P -1
;
_chemical_formula_sum "Si O2"
_cell_formula_units_Z 14
_cell_length_a 12.737022
_cell_length_b 9.058523
_cell_length_c 13.278666
_cell_angle_alpha 53.442904
_cell_angle_beta 141.648446
_cell_angle_gamma 135.916453
_cell_volume 659.504805
_symmetry_space_group_name_H-M "P -1"
_symmetry_group_IT_number 2
_symmetry_cell_setting 'triclinic'
loop_
_space_group_symop_operation_xyz
x,y,z
-x,-y,-z
loop_
_atom_site_type_symbol
_atom_site_label
_atom_site_fract_x
_atom_site_fract_y
_atom_site_fract_z
Si Si1 0.723908 0.500381 0.051631
Si Si2 0.079174 0.972299 0.381884
Si Si3 0.903037 0.959071 0.051098
Si Si4 0.786427 0.335463 0.365337
Si Si5 0.690826 0.569704 0.550334
Si Si6 0.069547 0.624875 0.105283
Si Si7 0.662451 0.590772 0.288225
O O1 0.741462 0.708682 0.037173
O O2 0.762034 0.362411 0.217622
O O3 0.878959 0.561076 0.054614
O O4 0.506891 0.366133 0.896954
O O5 0.240581 0.898159 0.545726
O O6 0.065481 0.012141 0.237521
O O7 0.869008 0.800144 0.337953
O O8 0.147610 0.186350 0.407961
O O9 0.818828 0.119783 0.936892
O O10 0.000000 0.000000 0.000000
O O11 0.638274 0.379046 0.301188
O O12 0.000000 0.500000 0.500000
O O13 0.500000 0.500000 0.500000
O O14 0.779764 0.420858 0.704260
O O15 0.628869 0.536107 0.402007
O O16 0.000000 0.500000 0.000000
#
# Coordination Sequence:
#
# PCOD8006317 Si02
#       7
#     2   2   2   2   2   2   2
#     4  11  22  42  66 101 131 167 219 270 327 390
#     4  11  23  45  66  97 132 174 217 269 327 383
#     4  10  22  37  69  95 132 166 219 262 327 378
#     4  10  20  39  67  96 129 168 214 268 327 376
#     4  12  27  46  64  95 134 173 223 269 323 392
#     4  11  22  42  67  91 132 179 215 262 329 382
#     4  11  24  41  69  97 134 170 217 272 324 391
#
# _framework density 21.228048999999999
#
# number of rings (size 3 to 8) (size 9 to 14) (size 15 to 20)
#    0.000    1.143    4.286    3.429    4.000    1.143 
#    0.000    2.857    0.000    0.000    0.000    0.000 
#    0.000    0.000    0.000    0.000    0.000    0.000 
#
# Total GULP energy -173596.670606 kJ/mol
# GULP energy per Si atom -12399.762186 kJ/mol
# Density = 2.117973 g / cm^3
# Si number density = 21.228049 Si / 1000 Ang^3
#
#
#
# Elastic Constant Matrix: (Units=GPa)
#
#
# Indices 1 2 3 4 5 6 
#
# 1 105.7685 23.7981 49.9281 -5.6721 -6.2399 -6.2883
# 2 23.7981 98.4924 42.7934 -25.7417 7.0770 -19.4935
# 3 49.9281 42.7934 172.8005 -22.8851 -8.8252 -5.9651
# 4 -5.6721 -25.7417 -22.8851 36.5179 -0.5038 3.8855
# 5 -6.2399 7.0770 -8.8252 -0.5038 47.0662 2.2642
# 6 -6.2883 -19.4935 -5.9651 3.8855 2.2642 26.7958
#
#
#
# Elastic Compliance Matrix: (Units=1/GPa)
#
#
# Indices 1 2 3 4 5 6 
#
# 1 0.011267 -0.001729 -0.002921 -0.001373 0.001151 0.000838
# 2 -0.001729 0.015900 -0.002149 0.008510 -0.003400 0.009736
# 3 -0.002921 -0.002149 0.007586 0.002923 0.001443 -0.001106
# 4 -0.001373 0.008510 0.002923 0.034831 -0.000614 0.001521
# 5 0.001151 -0.003400 0.001443 -0.000614 0.022352 -0.003682
# 6 0.000838 0.009736 -0.001106 0.001521 -0.003682 0.044443
#
#
# Mechanical properties :
#
#
# Convention : Reuss Voigt Hill
#
# Bulk Modulus (GPa) = 47.26975 67.78895 57.52935
# Shear Modulus (GPa) = 31.84176 39.44546 35.64361
#
# Velocity S-wave (km/s) = 3.87717 4.31533 4.10210
# Velocity P-wave (km/s) = 6.50839 7.53873 7.04243
#
# Compressibility (1/GPa) = 0.02115518
#
# Stress axis : x y z
#
# Youngs Moduli (GPa) = 88.75738 62.89449 131.82502
#
# Poissons Ratio (x) = 0.10872 0.38510
# Poissons Ratio (y) = 0.15343 0.28323
# Poissons Ratio (z) = 0.25929 0.13513
#
# Static dielectric constant tensor:
#      x y z
#    x 3.834660 -0.349360 -0.090170 
#    y -0.349360 4.221890 -0.337090 
#    z -0.090170 -0.337090 3.868750 
# 
# 
# High freq. dielectric constant tensor:
#      x y z
#    x 1.830300 -0.014510 -0.013100 
#    y -0.014510 1.822350 -0.014060 
#    z -0.013100 -0.014060 1.850450 
# 
# From -- ./inp_files/184170.got.cif
#   From: 2010.06.25/outbox.cif.g09.slc.cpg/sg2_93_cif.got.tgz:184170.got - 2010.06.27 13:26:56.
