data_PCOD8006287
_publ_section_title
;
Structure prediction by ZEFSAII (Michael W. Deem and Ramdas Pophale) SiO2 
 PCOD8006287
Probable space group: P -1
;
_chemical_formula_sum "Si O2"
_cell_formula_units_Z 14
_cell_length_a 8.811291
_cell_length_b 20.620885
_cell_length_c 14.382459
_cell_angle_alpha 30.319773
_cell_angle_beta 140.746746
_cell_angle_gamma 147.884132
_cell_volume 692.189474
_symmetry_space_group_name_H-M "P -1"
_symmetry_group_IT_number 2
_symmetry_cell_setting 'triclinic'
loop_
_space_group_symop_operation_xyz
x,y,z
-x,-y,-z
loop_
_atom_site_type_symbol
_atom_site_label
_atom_site_fract_x
_atom_site_fract_y
_atom_site_fract_z
Si Si1 0.117363 0.251764 0.386652
Si Si2 0.664253 0.034609 0.938704
Si Si3 0.640825 0.448397 0.766736
Si Si4 0.248388 0.663874 0.454735
Si Si5 0.889558 0.613538 0.503573
Si Si6 0.598516 0.141161 0.157516
Si Si7 0.930821 0.079590 0.697641
O O1 0.160544 0.412940 0.238487
O O2 0.424422 0.280213 0.474789
O O3 0.923151 0.195857 0.270944
O O4 0.943530 0.115776 0.549380
O O5 0.809417 0.214430 0.766864
O O6 0.460130 0.932409 0.881843
O O7 0.500000 0.000000 0.000000
O O8 0.920480 0.010425 0.098825
O O9 0.809631 0.485484 0.702539
O O10 0.357266 0.452715 0.611161
O O11 0.566032 0.285156 0.969159
O O12 0.000000 0.500000 0.500000
O O13 0.191246 0.658893 0.544884
O O14 0.891599 0.756220 0.370382
O O15 0.389413 0.021286 0.286505
#
# Coordination Sequence:
#
# PCOD8006287 Si02
#       7
#     2   2   2   2   2   2   2
#     4  11  25  42  62  98 135 166 205 265 326 377
#     4  12  25  42  66  97 125 166 219 267 309 376
#     4  10  21  39  66  93 126 162 219 259 308 376
#     4  12  24  41  65  92 130 167 211 261 324 375
#     4  10  20  39  67  92 119 169 216 263 304 375
#     4  12  24  42  67  94 131 169 212 264 319 374
#     4  11  22  44  67  92 123 170 221 259 311 378
#
# _framework density 20.225677000000001
#
# number of rings (size 3 to 8) (size 9 to 14) (size 15 to 20)
#    0.000    0.857    5.714    2.143    2.000    0.571 
#    0.000    0.714    0.000    0.000    0.000    0.000 
#    0.000    0.000    0.000    0.000    0.000    0.000 
#
# Total GULP energy -173564.314122 kJ/mol
# GULP energy per Si atom -12397.451009 kJ/mol
# Density = 2.017964 g / cm^3
# Si number density = 20.225677 Si / 1000 Ang^3
#
#
#
# Elastic Constant Matrix: (Units=GPa)
#
#
# Indices 1 2 3 4 5 6 
#
# 1 127.6607 34.7223 27.3707 1.7561 -13.3285 8.5139
# 2 34.7223 102.3187 45.8889 2.3433 -0.2621 -7.7496
# 3 27.3707 45.8889 76.7475 -16.5899 -1.6654 -9.7362
# 4 1.7561 2.3433 -16.5899 33.8720 4.0076 -4.8416
# 5 -13.3285 -0.2621 -1.6654 4.0076 29.1573 -4.7636
# 6 8.5139 -7.7496 -9.7362 -4.8416 -4.7636 28.5416
#
#
#
# Elastic Compliance Matrix: (Units=1/GPa)
#
#
# Indices 1 2 3 4 5 6 
#
# 1 0.009910 -0.002061 -0.003490 -0.003209 0.004005 -0.004582
# 2 -0.002061 0.014740 -0.009164 -0.005266 -0.000526 0.000510
# 3 -0.003490 -0.009164 0.023867 0.013870 -0.000764 0.008920
# 4 -0.003209 -0.005266 0.013870 0.038813 -0.004406 0.010107
# 5 0.004005 -0.000526 -0.000764 -0.004406 0.037319 0.003883
# 6 -0.004582 0.000510 0.008920 0.010107 0.003883 0.041947
#
#
# Mechanical properties :
#
#
# Convention : Reuss Voigt Hill
#
# Bulk Modulus (GPa) = 52.38979 58.07676 55.23327
# Shear Modulus (GPa) = 24.70505 31.56385 28.13445
#
# Velocity S-wave (km/s) = 3.49874 3.95471 3.73369
# Velocity P-wave (km/s) = 6.50234 7.04483 6.77902
#
# Compressibility (1/GPa) = 0.01908769
#
# Stress axis : x y z
#
# Youngs Moduli (GPa) = 100.90843 67.84050 41.89968
#
# Poissons Ratio (x) = 0.13982 0.14623
# Poissons Ratio (y) = 0.20798 0.38395
# Poissons Ratio (z) = 0.35217 0.62166
#
# Static dielectric constant tensor:
#      x y z
#    x 3.879770 0.005250 -0.166470 
#    y 0.005250 3.572320 -0.175590 
#    z -0.166470 -0.175590 3.641090 
# 
# 
# High freq. dielectric constant tensor:
#      x y z
#    x 1.796210 0.001530 -0.007220 
#    y 0.001530 1.785140 -0.020200 
#    z -0.007220 -0.020200 1.789110 
# 
# From -- ./inp_files/149114.got.cif
#   From: 2010.06.25/outbox.cif.g09.slc.cpg/sg2_75_cif.got.tgz:149114.got - 2010.06.27 13:26:56.
