data_PCOD8006002
_publ_section_title
;
Structure prediction by ZEFSAII (Michael W. Deem and Ramdas Pophale) SiO2 
 PCOD8006002
Probable space group: P -1
;
_chemical_formula_sum "Si O2"
_cell_formula_units_Z 16
_cell_length_a 14.975451
_cell_length_b 9.541825
_cell_length_c 14.587021
_cell_angle_alpha 140.544853
_cell_angle_beta 52.701040
_cell_angle_gamma 96.817726
_cell_volume 761.918954
_symmetry_space_group_name_H-M "P -1"
_symmetry_group_IT_number 2
_symmetry_cell_setting 'triclinic'
loop_
_space_group_symop_operation_xyz
x,y,z
-x,-y,-z
loop_
_atom_site_type_symbol
_atom_site_label
_atom_site_fract_x
_atom_site_fract_y
_atom_site_fract_z
Si Si1 0.354850 0.698523 0.943620
Si Si2 0.170021 0.871096 0.322338
Si Si3 0.224183 0.171563 0.830094
Si Si4 0.874211 0.737518 0.309677
Si Si5 0.629650 0.789693 0.087927
Si Si6 0.353847 0.248504 0.624501
Si Si7 0.360824 0.147740 0.092830
Si Si8 0.705022 0.295921 0.560942
O O1 0.370754 0.486989 0.749555
O O2 0.518095 0.525674 0.806146
O O3 0.224454 0.799456 0.147372
O O4 0.288205 0.008860 0.091958
O O5 0.168419 0.122426 0.490274
O O6 0.290378 0.557674 0.147057
O O7 0.000000 0.000000 0.500000
O O8 0.247878 0.207212 0.938832
O O9 0.353075 0.120141 0.658387
O O10 0.250201 0.872092 0.651118
O O11 0.058136 0.474759 0.049491
O O12 0.803193 0.596279 0.256484
O O13 0.803065 0.022982 0.433923
O O14 0.484216 0.971781 0.337461
O O15 0.583209 0.936284 0.090205
O O16 0.245283 0.513762 0.366014
O O17 0.500000 0.000000 0.000000
#
# Coordination Sequence:
#
# PCOD8006002 Si02
#       8
#     2   2   2   2   2   2   2   2
#     4  11  23  42  62  92 135 164 212 265 317 376
#     4  12  23  39  66  95 129 163 216 267 318 376
#     4  11  21  40  63 100 132 160 210 269 323 371
#     4  11  23  35  66  97 131 162 209 268 320 368
#     4  12  22  40  68  91 126 168 215 257 322 375
#     4  11  22  37  64  98 126 162 213 267 317 367
#     4  10  25  43  61  94 129 172 211 260 317 378
#     4  10  20  39  64  92 129 169 205 260 315 378
#
# _framework density 20.999609
#
# number of rings (size 3 to 8) (size 9 to 14) (size 15 to 20)
#    0.000    1.000    5.000    3.375    3.500    1.500 
#    0.000    0.625    0.000    1.500    0.000    0.000 
#    0.000    0.000    0.000    0.000    0.000    0.000 
#
# Total GULP energy -198287.354081 kJ/mol
# GULP energy per Si atom -12392.959630 kJ/mol
# Density = 2.095181 g / cm^3
# Si number density = 20.999609 Si / 1000 Ang^3
#
#
#
# Elastic Constant Matrix: (Units=GPa)
#
#
# Indices 1 2 3 4 5 6 
#
# 1 104.4912 40.7131 32.6932 6.9153 14.0891 -8.3712
# 2 40.7131 92.6476 51.2588 6.7727 0.5306 -2.7616
# 3 32.6932 51.2588 113.0590 5.9186 6.4757 5.2742
# 4 6.9153 6.7727 5.9186 26.8012 5.0687 12.8087
# 5 14.0891 0.5306 6.4757 5.0687 39.4120 7.6640
# 6 -8.3712 -2.7616 5.2742 12.8087 7.6640 30.7852
#
#
#
# Elastic Compliance Matrix: (Units=1/GPa)
#
#
# Indices 1 2 3 4 5 6 
#
# 1 0.013284 -0.004414 -0.001634 -0.004070 -0.005156 0.006473
# 2 -0.004414 0.016468 -0.006261 -0.003061 0.002384 0.002030
# 3 -0.001634 -0.006261 0.012305 0.001040 -0.000838 -0.003338
# 4 -0.004070 -0.003061 0.001040 0.049560 -0.000773 -0.021987
# 5 -0.005156 0.002384 -0.000838 -0.000773 0.028964 -0.007934
# 6 0.006473 0.002030 -0.003338 -0.021987 -0.007934 0.046121
#
#
# Mechanical properties :
#
#
# Convention : Reuss Voigt Hill
#
# Bulk Modulus (GPa) = 57.33809 62.16978 59.75393
# Shear Modulus (GPa) = 25.36367 31.76854 28.56611
#
# Velocity S-wave (km/s) = 3.47914 3.89371 3.69225
# Velocity P-wave (km/s) = 6.59567 7.06287 6.83326
#
# Compressibility (1/GPa) = 0.01744041
#
# Stress axis : x y z
#
# Youngs Moduli (GPa) = 75.27660 60.72519 81.26625
#
# Poissons Ratio (x) = 0.26802 0.13278
# Poissons Ratio (y) = 0.33225 0.50879
# Poissons Ratio (z) = 0.12300 0.38019
#
# Static dielectric constant tensor:
#      x y z
#    x 4.429270 0.177070 0.451230 
#    y 0.177070 3.640660 0.287560 
#    z 0.451230 0.287560 4.074110 
# 
# 
# High freq. dielectric constant tensor:
#      x y z
#    x 1.844610 -0.000760 0.021410 
#    y -0.000760 1.768980 0.009560 
#    z 0.021410 0.009560 1.831780 
# 
# From -- ./inp_files/282572.got.cif
#   From: 2010.06.25/outbox.cif.g09.slc.cpg/sg2_142_cif.got.tgz:282572.got - 2010.06.27 13:26:56.
