data_PCOD8006894
_publ_section_title
;
Structure prediction by ZEFSAII (Michael W. Deem and Ramdas Pophale) SiO2 
 PCOD8006894
Probable space group: P -1
;
_chemical_formula_sum "Si O2"
_cell_formula_units_Z 16
_cell_length_a 12.152227
_cell_length_b 18.423423
_cell_length_c 6.483888
_cell_angle_alpha 120.314677
_cell_angle_beta 86.378676
_cell_angle_gamma 135.267795
_cell_volume 770.690524
_symmetry_space_group_name_H-M "P -1"
_symmetry_group_IT_number 2
_symmetry_cell_setting 'triclinic'
loop_
_space_group_symop_operation_xyz
x,y,z
-x,-y,-z
loop_
_atom_site_type_symbol
_atom_site_label
_atom_site_fract_x
_atom_site_fract_y
_atom_site_fract_z
Si Si1 0.647946 0.531689 0.421879
Si Si2 0.478379 0.105512 0.529421
Si Si3 0.232765 0.938875 0.963780
Si Si4 0.205442 0.261004 0.649005
Si Si5 0.072065 0.290438 0.037674
Si Si6 0.219298 0.835224 0.414516
Si Si7 0.406769 0.253367 0.845604
Si Si8 0.872322 0.973862 0.130529
O O1 0.500000 0.500000 0.500000
O O2 0.743851 0.651577 0.423262
O O3 0.796077 0.582381 0.636380
O O4 0.571037 0.403543 0.135626
O O5 0.680822 0.194249 0.663618
O O6 0.475645 0.204062 0.695713
O O7 0.348730 0.988658 0.549102
O O8 0.413999 0.033505 0.208775
O O9 0.186314 0.835809 0.661088
O O10 0.069914 0.848739 0.015296
O O11 0.260055 0.046120 0.010694
O O12 0.335342 0.258384 0.655866
O O13 0.215031 0.317804 0.942184
O O14 0.998003 0.110606 0.444379
O O15 0.963075 0.281021 0.867227
O O16 0.245270 0.154727 0.890150
O O17 0.000000 0.000000 0.000000
#
# Coordination Sequence:
#
# PCOD8006894 Si02
#       8
#     2   2   2   2   2   2   2   2
#     4  12  25  42  63  92 129 176 209 247 316 385
#     4  10  22  38  61  96 128 164 205 268 320 365
#     4  11  19  38  64  92 123 164 208 257 315 374
#     4  12  23  43  63  89 130 168 205 257 319 382
#     4  11  21  40  66  88 119 173 216 249 306 381
#     4  10  20  40  65  90 127 165 213 259 318 372
#     4  12  24  40  61  97 133 161 210 264 312 372
#     4  12  21  36  61  95 129 159 205 262 317 369
#
# _framework density 20.760604000000001
#
# number of rings (size 3 to 8) (size 9 to 14) (size 15 to 20)
#    0.000    0.750    5.000    4.125    0.000    0.000 
#    0.000    0.625    0.000    3.000    0.000    0.000 
#    0.000    0.000    0.000    0.000    0.000    0.000 
#
# Total GULP energy -198340.494593 kJ/mol
# GULP energy per Si atom -12396.280912 kJ/mol
# Density = 2.071335 g / cm^3
# Si number density = 20.760604 Si / 1000 Ang^3
#
#
#
# Elastic Constant Matrix: (Units=GPa)
#
#
# Indices 1 2 3 4 5 6 
#
# 1 128.8913 33.3111 55.0159 -2.0200 5.8918 -6.0692
# 2 33.3111 41.5360 36.4776 -5.9769 11.7436 -2.3346
# 3 55.0159 36.4776 114.8321 -5.8317 22.7778 -8.9597
# 4 -2.0200 -5.9769 -5.8317 31.1185 5.1611 -3.3946
# 5 5.8918 11.7436 22.7778 5.1611 32.7785 -2.1307
# 6 -6.0692 -2.3346 -8.9597 -3.3946 -2.1307 19.4555
#
#
#
# Elastic Compliance Matrix: (Units=1/GPa)
#
#
# Indices 1 2 3 4 5 6 
#
# 1 0.010961 -0.006561 -0.003856 -0.001733 0.003393 0.000925
# 2 -0.006561 0.039221 -0.007185 0.007219 -0.009041 -0.000380
# 3 -0.003856 -0.007185 0.014740 0.002797 -0.007128 0.004430
# 4 -0.001733 0.007219 0.002797 0.036258 -0.009479 0.006902
# 5 0.003393 -0.009041 -0.007128 -0.009479 0.039541 -0.000632
# 6 0.000925 -0.000380 0.004430 0.006902 -0.000632 0.054818
#
#
# Mechanical properties :
#
#
# Convention : Reuss Voigt Hill
#
# Bulk Modulus (GPa) = 33.65046 59.42985 46.54015
# Shear Modulus (GPa) = 20.77696 27.36751 24.07223
#
# Velocity S-wave (km/s) = 3.16696 3.63470 3.40886
# Velocity P-wave (km/s) = 5.44213 6.80464 6.16117
#
# Compressibility (1/GPa) = 0.02971728
#
# Stress axis : x y z
#
# Youngs Moduli (GPa) = 91.22876 25.49648 67.84243
#
# Poissons Ratio (x) = 0.16728 0.26162
# Poissons Ratio (y) = 0.59854 0.48748
# Poissons Ratio (z) = 0.35181 0.18320
#
# Static dielectric constant tensor:
#      x y z
#    x 3.738210 0.011300 0.225970 
#    y 0.011300 3.691300 -0.167700 
#    z 0.225970 -0.167700 4.033070 
# 
# 
# High freq. dielectric constant tensor:
#      x y z
#    x 1.805670 0.006690 0.015740 
#    y 0.006690 1.791420 -0.024130 
#    z 0.015740 -0.024130 1.822330 
# 
# From -- ./inp_files/77428.got.cif
#   From: 2010.06.25/outbox.cif.g09.slc.cpg/sg2_39_cif.got.tgz:77428.got - 2010.06.27 13:26:56.
