data_PCOD8006264
_publ_section_title
;
Structure prediction by ZEFSAII (Michael W. Deem and Ramdas Pophale) SiO2 
 PCOD8006264
Probable space group: P -1
;
_chemical_formula_sum "Si O2"
_cell_formula_units_Z 16
_cell_length_a 14.562141
_cell_length_b 8.276020
_cell_length_c 9.185887
_cell_angle_alpha 64.090278
_cell_angle_beta 92.050660
_cell_angle_gamma 50.772687
_cell_volume 689.655376
_symmetry_space_group_name_H-M "P -1"
_symmetry_group_IT_number 2
_symmetry_cell_setting 'triclinic'
loop_
_space_group_symop_operation_xyz
x,y,z
-x,-y,-z
loop_
_atom_site_type_symbol
_atom_site_label
_atom_site_fract_x
_atom_site_fract_y
_atom_site_fract_z
Si Si1 0.984355 0.827519 0.995262
Si Si2 0.677959 0.402443 0.265533
Si Si3 0.587773 0.053998 0.972508
Si Si4 0.420043 0.281544 0.334055
Si Si5 0.783694 0.295723 0.624335
Si Si6 0.672520 0.041094 0.295134
Si Si7 0.241504 0.408388 0.015458
Si Si8 0.083710 0.518425 0.398002
O O1 0.086659 0.622578 0.956030
O O2 0.845250 0.040065 0.818489
O O3 0.997706 0.658546 0.189371
O O4 0.000000 0.000000 0.000000
O O5 0.748824 0.271607 0.474032
O O6 0.720866 0.178619 0.250161
O O7 0.735704 0.498542 0.158750
O O8 0.517432 0.638813 0.185255
O O9 0.694723 0.874360 0.917984
O O10 0.500000 0.000000 0.000000
O O11 0.668931 0.975395 0.156057
O O12 0.353652 0.462466 0.399772
O O13 0.525977 0.259388 0.269833
O O14 0.500000 0.000000 0.500000
O O15 0.305597 0.393901 0.170947
O O16 0.885083 0.323699 0.603463
O O17 0.771261 0.776083 0.499874
O O18 0.000000 0.500000 0.500000
#
# Coordination Sequence:
#
# PCOD8006264 Si02
#       8
#     2   2   2   2   2   2   2   2
#     4  10  22  44  70 103 134 188 239 281 350 417
#     4  11  25  41  68 108 141 181 238 286 350 418
#     4  10  20  39  67 103 136 174 231 282 348 412
#     4  12  21  39  73  97 138 185 228 285 359 411
#     4  11  24  46  73 101 143 190 234 285 351 424
#     4  12  24  42  69 107 138 179 235 297 345 407
#     4  11  21  40  73  98 138 189 229 283 348 424
#     4  11  24  44  73 101 139 181 233 293 350 417
#
# _framework density 23.199991000000001
#
# number of rings (size 3 to 8) (size 9 to 14) (size 15 to 20)
#    0.000    1.000    6.250    2.625    3.500    1.000 
#    2.250    0.625    2.750    0.000    0.000    0.000 
#    0.000    0.000    0.000    0.000    0.000    0.000 
#
# Total GULP energy -198294.111647 kJ/mol
# GULP energy per Si atom -12393.381978 kJ/mol
# Density = 2.314719 g / cm^3
# Si number density = 23.199991 Si / 1000 Ang^3
#
#
#
# Elastic Constant Matrix: (Units=GPa)
#
#
# Indices 1 2 3 4 5 6 
#
# 1 47.9568 30.5872 15.1433 3.0090 -0.4344 -1.2183
# 2 30.5872 129.2978 43.3842 -0.7455 2.2204 -2.5530
# 3 15.1433 43.3842 158.3654 -13.1756 2.0284 10.3644
# 4 3.0090 -0.7455 -13.1756 46.1050 -0.4319 1.6730
# 5 -0.4344 2.2204 2.0284 -0.4319 22.3123 3.1534
# 6 -1.2183 -2.5530 10.3644 1.6730 3.1534 34.6105
#
#
#
# Elastic Compliance Matrix: (Units=1/GPa)
#
#
# Indices 1 2 3 4 5 6 
#
# 1 0.024885 -0.005530 -0.001100 -0.002048 0.000981 0.000807
# 2 -0.005530 0.009842 -0.002255 -0.000182 -0.001071 0.001313
# 3 -0.001100 -0.002255 0.007389 0.002238 -0.000069 -0.002520
# 4 -0.002048 -0.000182 0.002238 0.022533 0.000478 -0.001888
# 5 0.000981 -0.001071 -0.000069 0.000478 0.045553 -0.004197
# 6 0.000807 0.001313 -0.002520 -0.001888 -0.004197 0.030246
#
#
# Mechanical properties :
#
#
# Convention : Reuss Voigt Hill
#
# Bulk Modulus (GPa) = 41.07540 57.09438 49.08489
# Shear Modulus (GPa) = 30.05989 37.03924 33.54957
#
# Velocity S-wave (km/s) = 3.60347 3.99998 3.80689
# Velocity P-wave (km/s) = 5.92087 6.78205 6.36604
#
# Compressibility (1/GPa) = 0.02434547
#
# Stress axis : x y z
#
# Youngs Moduli (GPa) = 40.18525 101.60322 135.32908
#
# Poissons Ratio (x) = 0.56190 0.14890
# Poissons Ratio (y) = 0.22224 0.30514
# Poissons Ratio (z) = 0.04421 0.22909
#
# Static dielectric constant tensor:
#      x y z
#    x 3.984280 -0.126740 0.045520 
#    y -0.126740 4.699150 -0.431500 
#    z 0.045520 -0.431500 4.373270 
# 
# 
# High freq. dielectric constant tensor:
#      x y z
#    x 1.883300 -0.001580 0.000520 
#    y -0.001580 1.926010 -0.013750 
#    z 0.000520 -0.013750 1.929260 
# 
# From -- ./inp_files/297908.got.cif
#   From: 2010.06.25/outbox.cif.g09.slc.cpg/sg2_149_cif.got.tgz:297908.got - 2010.06.27 13:26:56.
