data_PCOD8006042
_publ_section_title
;
Structure prediction by ZEFSAII (Michael W. Deem and Ramdas Pophale) SiO2 
 PCOD8006042
Probable space group: P -1
;
_chemical_formula_sum "Si O2"
_cell_formula_units_Z 16
_cell_length_a 14.850923
_cell_length_b 11.624154
_cell_length_c 14.398564
_cell_angle_alpha 119.858955
_cell_angle_beta 29.044347
_cell_angle_gamma 137.905511
_cell_volume 716.782586
_symmetry_space_group_name_H-M "P -1"
_symmetry_group_IT_number 2
_symmetry_cell_setting 'triclinic'
loop_
_space_group_symop_operation_xyz
x,y,z
-x,-y,-z
loop_
_atom_site_type_symbol
_atom_site_label
_atom_site_fract_x
_atom_site_fract_y
_atom_site_fract_z
Si Si1 0.962720 0.927674 0.817522
Si Si2 0.870758 0.233712 0.499011
Si Si3 0.454334 0.370437 0.570638
Si Si4 0.356497 0.674079 0.008886
Si Si5 0.034142 0.600247 0.104620
Si Si6 0.351979 0.024434 0.983116
Si Si7 0.345432 0.368394 0.865927
Si Si8 0.829115 0.443071 0.505556
O O1 0.989256 0.830369 0.676502
O O2 0.714115 0.892229 0.996848
O O3 0.900897 0.829353 0.934839
O O4 0.251064 0.147521 0.639018
O O5 0.621933 0.086491 0.735068
O O6 0.758470 0.253052 0.516804
O O7 0.115546 0.448140 0.405625
O O8 0.500000 0.500000 0.500000
O O9 0.745475 0.450485 0.358462
O O10 0.304224 0.365433 0.791212
O O11 0.604283 0.888345 0.917391
O O12 0.286789 0.669181 0.962304
O O13 0.091551 0.584393 0.263254
O O14 0.414784 0.547827 0.919245
O O15 0.000000 0.500000 0.000000
O O16 0.104284 0.792801 0.106753
O O17 0.587848 0.390767 0.652034
#
# Coordination Sequence:
#
# PCOD8006042 Si02
#       8
#     2   2   2   2   2   2   2   2
#     4  12  24  42  70 106 136 180 230 285 351 408
#     4  10  21  38  65 101 135 171 217 274 347 414
#     4  12  26  47  66  94 141 186 237 282 334 416
#     4  11  24  43  70 104 137 179 231 285 349 409
#     4  12  25  48  72  95 137 192 237 282 342 409
#     4  11  24  43  71 103 141 178 228 292 341 412
#     4  12  24  43  69 103 139 180 225 290 350 407
#     4  10  20  39  64  98 138 171 213 277 346 413
#
# _framework density 22.321971000000001
#
# number of rings (size 3 to 8) (size 9 to 14) (size 15 to 20)
#    0.000    0.750    5.000    3.000    0.000    1.000 
#    0.000    1.875    0.000    0.000    0.000    0.000 
#    0.000    0.000    0.000    0.000    0.000    0.000 
#
# Total GULP energy -198271.048881 kJ/mol
# GULP energy per Si atom -12391.940555 kJ/mol
# Density = 2.227117 g / cm^3
# Si number density = 22.321971 Si / 1000 Ang^3
#
#
#
# Elastic Constant Matrix: (Units=GPa)
#
#
# Indices 1 2 3 4 5 6 
#
# 1 99.8574 45.3997 17.3541 -0.6972 15.8390 2.3543
# 2 45.3997 128.3314 25.7887 -1.1240 14.5159 2.8478
# 3 17.3541 25.7887 75.2588 1.2497 12.2019 -0.0034
# 4 -0.6972 -1.1240 1.2497 31.7412 -3.8974 -4.0496
# 5 15.8390 14.5159 12.2019 -3.8974 31.5561 2.0405
# 6 2.3543 2.8478 -0.0034 -4.0496 2.0405 32.4175
#
#
#
# Elastic Compliance Matrix: (Units=1/GPa)
#
#
# Indices 1 2 3 4 5 6 
#
# 1 0.012569 -0.003779 -0.000909 -0.000389 -0.004244 -0.000362
# 2 -0.003779 0.009776 -0.002203 0.000081 -0.001708 -0.000467
# 3 -0.000909 -0.002203 0.015002 -0.001191 -0.004504 0.000396
# 4 -0.000389 0.000081 -0.001191 0.032572 0.004395 0.003813
# 5 -0.004244 -0.001708 -0.004504 0.004395 0.036975 -0.001321
# 6 -0.000362 -0.000467 0.000396 0.003813 -0.001321 0.031474
#
#
# Mechanical properties :
#
#
# Convention : Reuss Voigt Hill
#
# Bulk Modulus (GPa) = 42.43513 53.39251 47.91382
# Shear Modulus (GPa) = 31.24863 33.46997 32.35930
#
# Velocity S-wave (km/s) = 3.74559 3.87643 3.81157
# Velocity P-wave (km/s) = 6.14473 6.63376 6.39392
#
# Compressibility (1/GPa) = 0.02356538
#
# Stress axis : x y z
#
# Youngs Moduli (GPa) = 79.55796 102.28779 66.65790
#
# Poissons Ratio (x) = 0.38659 0.06058
# Poissons Ratio (y) = 0.30068 0.14684
# Poissons Ratio (z) = 0.07231 0.22533
#
# Static dielectric constant tensor:
#      x y z
#    x 4.228540 0.050310 -0.020390 
#    y 0.050310 4.035240 0.061100 
#    z -0.020390 0.061100 3.934700 
# 
# 
# High freq. dielectric constant tensor:
#      x y z
#    x 1.877860 -0.004220 0.001300 
#    y -0.004220 1.880100 0.008410 
#    z 0.001300 0.008410 1.876490 
# 
# From -- ./inp_files/455800.got.cif
#   From: 2010.06.25/outbox.cif.g09.slc.cpg/sg2_228_cif.got.tgz:455800.got - 2010.06.27 13:26:56.
