data_PCOD8006559
_publ_section_title
;
Structure prediction by ZEFSAII (Michael W. Deem and Ramdas Pophale) SiO2 
 PCOD8006559
Probable space group: P -1
;
_chemical_formula_sum "Si O2"
_cell_formula_units_Z 16
_cell_length_a 25.122112
_cell_length_b 18.592228
_cell_length_c 6.611917
_cell_angle_alpha 75.927852
_cell_angle_beta 85.657351
_cell_angle_gamma 17.920174
_cell_volume 786.493176
_symmetry_space_group_name_H-M "P -1"
_symmetry_group_IT_number 2
_symmetry_cell_setting 'triclinic'
loop_
_space_group_symop_operation_xyz
x,y,z
-x,-y,-z
loop_
_atom_site_type_symbol
_atom_site_label
_atom_site_fract_x
_atom_site_fract_y
_atom_site_fract_z
Si Si1 0.147515 0.871428 0.057696
Si Si2 0.315292 0.704987 0.515858
Si Si3 0.266370 0.093757 0.656649
Si Si4 0.316857 0.159805 0.320426
Si Si5 0.730110 0.671988 0.429023
Si Si6 0.872918 0.608997 0.192436
Si Si7 0.513710 0.348173 0.039271
Si Si8 0.891610 0.937113 0.319540
O O1 0.162287 0.875355 0.282612
O O2 0.374050 0.549696 0.136132
O O3 0.052287 0.065634 0.823424
O O4 0.000000 0.000000 0.000000
O O5 0.500000 0.500000 0.500000
O O6 0.182875 0.940939 0.519647
O O7 0.392091 0.533169 0.746642
O O8 0.369265 0.022402 0.550797
O O9 0.170343 0.253234 0.785058
O O10 0.095415 0.285738 0.429152
O O11 0.430832 0.812819 0.865931
O O12 0.232273 0.343350 0.346984
O O13 0.522411 0.904910 0.320977
O O14 0.148195 0.359140 0.067654
O O15 0.714410 0.759392 0.211584
O O16 0.908669 0.379188 0.509551
O O17 0.711763 0.133734 0.128641
#
# Coordination Sequence:
#
# PCOD8006559 Si02
#       8
#     2   2   2   2   2   2   2   2
#     4  11  25  43  65  93 131 161 202 264 317 368
#     4  11  21  43  69  89 121 168 207 255 318 371
#     4  10  22  38  59  92 124 154 207 257 299 363
#     4  10  22  40  62  86 128 166 198 253 315 360
#     4  10  22  40  61  90 125 159 208 253 302 367
#     4  10  20  40  61  87 123 161 203 254 304 363
#     4  11  22  41  65  92 126 162 210 260 301 378
#     4  11  22  41  65  94 124 161 215 254 302 382
#
# _framework density 20.34347
#
# number of rings (size 3 to 8) (size 9 to 14) (size 15 to 20)
#    0.000    1.500    3.750    1.500    1.750    4.000 
#    4.500    0.000    0.000    0.000    0.000    0.000 
#    0.000    0.000    0.000    0.000    0.000    0.000 
#
# Total GULP energy -198427.697675 kJ/mol
# GULP energy per Si atom -12401.731105 kJ/mol
# Density = 2.029717 g / cm^3
# Si number density = 20.343470 Si / 1000 Ang^3
#
#
#
# Elastic Constant Matrix: (Units=GPa)
#
#
# Indices 1 2 3 4 5 6 
#
# 1 100.6862 29.8086 36.7305 -1.3392 -2.7666 3.7804
# 2 29.8086 94.1241 40.3403 -3.3518 -7.0398 21.8870
# 3 36.7305 40.3403 92.0498 13.4292 8.8517 24.2919
# 4 -1.3392 -3.3518 13.4292 24.1271 3.0008 -1.8929
# 5 -2.7666 -7.0398 8.8517 3.0008 37.6134 -1.2303
# 6 3.7804 21.8870 24.2919 -1.8929 -1.2303 37.0381
#
#
#
# Elastic Compliance Matrix: (Units=1/GPa)
#
#
# Indices 1 2 3 4 5 6 
#
# 1 0.012677 -0.002171 -0.005918 0.003802 0.001751 0.004123
# 2 -0.002171 0.015188 -0.005462 0.004218 0.003474 -0.004840
# 3 -0.005918 -0.005462 0.020860 -0.012829 -0.005693 -0.010695
# 4 0.003802 0.004218 -0.012829 0.049975 0.000366 0.008100
# 5 0.001751 0.003474 -0.005693 0.000366 0.028757 0.002476
# 6 0.004123 -0.004840 -0.010695 0.008100 0.002476 0.036949
#
#
# Mechanical properties :
#
#
# Convention : Reuss Voigt Hill
#
# Bulk Modulus (GPa) = 46.24523 55.62433 50.93478
# Shear Modulus (GPa) = 25.16145 31.75442 28.45793
#
# Velocity S-wave (km/s) = 3.52068 3.95513 3.74421
# Velocity P-wave (km/s) = 6.26965 6.94689 6.61694
#
# Compressibility (1/GPa) = 0.02162385
#
# Stress axis : x y z
#
# Youngs Moduli (GPa) = 78.88044 65.84056 47.93784
#
# Poissons Ratio (x) = 0.14292 0.28371
# Poissons Ratio (y) = 0.17123 0.26183
# Poissons Ratio (z) = 0.46685 0.35962
#
# Static dielectric constant tensor:
#      x y z
#    x 3.797820 -0.019220 -0.033570 
#    y -0.019220 3.682830 0.178900 
#    z -0.033570 0.178900 3.658400 
# 
# 
# High freq. dielectric constant tensor:
#      x y z
#    x 1.803600 -0.005620 -0.004010 
#    y -0.005620 1.790990 0.013870 
#    z -0.004010 0.013870 1.786790 
# 
# From -- ./inp_files/47970.got.cif
#   From: 2010.06.25/outbox.cif.g09.slc.cpg/sg2_24_cif.got.tgz:47970.got - 2010.06.27 13:26:56.
