data_PCOD8006449
_publ_section_title
;
Structure prediction by ZEFSAII (Michael W. Deem and Ramdas Pophale) SiO2 
 PCOD8006449
Probable space group: P -1
;
_chemical_formula_sum "Si O2"
_cell_formula_units_Z 16
_cell_length_a 9.110776
_cell_length_b 14.815789
_cell_length_c 9.817820
_cell_angle_alpha 44.418539
_cell_angle_beta 104.251086
_cell_angle_gamma 78.290708
_cell_volume 745.792033
_symmetry_space_group_name_H-M "P -1"
_symmetry_group_IT_number 2
_symmetry_cell_setting 'triclinic'
loop_
_space_group_symop_operation_xyz
x,y,z
-x,-y,-z
loop_
_atom_site_type_symbol
_atom_site_label
_atom_site_fract_x
_atom_site_fract_y
_atom_site_fract_z
Si Si1 0.354261 0.967051 0.048336
Si Si2 0.477646 0.361256 0.124221
Si Si3 0.636672 0.675814 0.565869
Si Si4 0.836425 0.521045 0.291697
Si Si5 0.055656 0.071747 0.055068
Si Si6 0.132390 0.584374 0.302305
Si Si7 0.102145 0.214439 0.536258
Si Si8 0.120076 0.880655 0.541906
O O1 0.463493 0.784373 0.308213
O O2 0.236433 0.062088 0.053006
O O3 0.500000 0.000000 0.000000
O O4 0.210201 0.037057 0.813397
O O5 0.429996 0.324392 0.298958
O O6 0.668341 0.219500 0.259687
O O7 0.500000 0.500000 0.000000
O O8 0.326102 0.398327 0.939467
O O9 0.746346 0.504635 0.707776
O O10 0.761404 0.744275 0.539315
O O11 0.765118 0.524322 0.424454
O O12 0.933989 0.613108 0.208676
O O13 0.984516 0.338572 0.493422
O O14 0.110777 0.964623 0.312186
O O15 0.895748 0.248684 0.867799
O O16 0.000000 0.000000 0.000000
O O17 0.960067 0.226680 0.379743
O O18 0.000000 0.000000 0.500000
#
# Coordination Sequence:
#
# PCOD8006449 Si02
#       8
#     2   2   2   2   2   2   2   2
#     4  10  20  39  70  98 128 174 223 274 328 395
#     4  12  26  45  67  97 143 177 218 274 348 402
#     4  10  24  42  71 101 130 178 227 278 333 407
#     4  10  21  42  69  98 136 175 217 285 329 392
#     4  12  23  44  71  94 134 183 223 277 346 398
#     4  10  23  41  70 103 128 170 236 275 330 393
#     4  10  20  44  70  92 135 182 219 274 345 389
#     4  12  27  44  64  98 138 177 224 277 340 406
#
# _framework density 21.453700999999999
#
# number of rings (size 3 to 8) (size 9 to 14) (size 15 to 20)
#    0.000    1.250    5.000    0.000    3.500    4.000 
#    2.250    2.500    0.000    0.000    0.000    0.000 
#    0.000    0.000    0.000    0.000    0.000    0.000 
#
# Total GULP energy -198270.354167 kJ/mol
# GULP energy per Si atom -12391.897135 kJ/mol
# Density = 2.140487 g / cm^3
# Si number density = 21.453701 Si / 1000 Ang^3
#
#
#
# Elastic Constant Matrix: (Units=GPa)
#
#
# Indices 1 2 3 4 5 6 
#
# 1 97.2677 50.2004 52.7507 4.6655 6.2789 -15.1156
# 2 50.2004 110.9028 39.2900 -6.2066 6.2814 -4.1489
# 3 52.7507 39.2900 121.2381 -1.2969 18.6119 3.2170
# 4 4.6655 -6.2066 -1.2969 33.7883 -0.7890 0.8605
# 5 6.2789 6.2814 18.6119 -0.7890 26.3970 0.0166
# 6 -15.1156 -4.1489 3.2170 0.8605 0.0166 38.9122
#
#
#
# Elastic Compliance Matrix: (Units=1/GPa)
#
#
# Indices 1 2 3 4 5 6 
#
# 1 0.017955 -0.005924 -0.006349 -0.003953 0.001492 0.006955
# 2 -0.005924 0.012315 -0.001274 0.003043 -0.000531 -0.000950
# 3 -0.006349 -0.001274 0.012614 0.001056 -0.007047 -0.003665
# 4 -0.003953 0.003043 0.001056 0.030801 0.000394 -0.001980
# 5 0.001492 -0.000531 -0.007047 0.000394 0.042634 0.001079
# 6 0.006955 -0.000950 -0.003665 -0.001980 0.001079 0.028646
#
#
# Mechanical properties :
#
#
# Convention : Reuss Voigt Hill
#
# Bulk Modulus (GPa) = 63.32863 68.21009 65.76936
# Shear Modulus (GPa) = 28.19751 32.29735 30.24743
#
# Velocity S-wave (km/s) = 3.62932 3.88421 3.75893
# Velocity P-wave (km/s) = 6.86625 7.20967 7.04005
#
# Compressibility (1/GPa) = 0.01579065
#
# Stress axis : x y z
#
# Youngs Moduli (GPa) = 55.69371 81.20442 79.27945
#
# Poissons Ratio (x) = 0.48106 0.50331
# Poissons Ratio (y) = 0.32993 0.10100
# Poissons Ratio (z) = 0.35357 0.10345
#
# Static dielectric constant tensor:
#      x y z
#    x 4.483160 -0.052770 0.547230 
#    y -0.052770 3.827250 -0.197280 
#    z 0.547230 -0.197280 3.926310 
# 
# 
# High freq. dielectric constant tensor:
#      x y z
#    x 1.850220 -0.013300 0.000390 
#    y -0.013300 1.826810 -0.003280 
#    z 0.000390 -0.003280 1.847660 
# 
# From -- ./inp_files/205638.got.cif
#   From: 2010.06.25/outbox.cif.g09.slc.cpg/sg2_103_cif.got.tgz:205638.got - 2010.06.27 13:26:56.
