data_PCOD8006919
_publ_section_title
;
Structure prediction by ZEFSAII (Michael W. Deem and Ramdas Pophale) SiO2 
 PCOD8006919
Probable space group: P -1
;
_chemical_formula_sum "Si O2"
_cell_formula_units_Z 16
_cell_length_a 14.359165
_cell_length_b 13.846832
_cell_length_c 10.998050
_cell_angle_alpha 68.856804
_cell_angle_beta 51.179317
_cell_angle_gamma 29.305764
_cell_volume 728.051835
_symmetry_space_group_name_H-M "P -1"
_symmetry_group_IT_number 2
_symmetry_cell_setting 'triclinic'
loop_
_space_group_symop_operation_xyz
x,y,z
-x,-y,-z
loop_
_atom_site_type_symbol
_atom_site_label
_atom_site_fract_x
_atom_site_fract_y
_atom_site_fract_z
Si Si1 0.535561 0.759733 0.145572
Si Si2 0.522705 0.811358 0.866196
Si Si3 0.332567 0.670468 0.724359
Si Si4 0.340790 0.025862 0.573056
Si Si5 0.997375 0.732810 0.039180
Si Si6 0.236381 0.812121 0.484533
Si Si7 0.366156 0.385829 0.379512
Si Si8 0.773625 0.831919 0.668635
O O1 0.389570 0.799367 0.341985
O O2 0.447047 0.944558 0.166594
O O3 0.467799 0.790704 0.044776
O O4 0.840602 0.494211 0.030722
O O5 0.628873 0.652421 0.748309
O O6 0.736680 0.736479 0.750132
O O7 0.257760 0.071061 0.924237
O O8 0.173424 0.851917 0.662941
O O9 0.599190 0.416775 0.572269
O O10 0.434395 0.671495 0.743482
O O11 0.152665 0.720992 0.906667
O O12 0.258216 0.101440 0.469629
O O13 0.078331 0.216954 0.780486
O O14 0.500000 0.000000 0.500000
O O15 0.528142 0.783616 0.541261
O O16 0.000000 0.000000 0.500000
O O17 0.069184 0.635535 0.553665
#
# Coordination Sequence:
#
# PCOD8006919 Si02
#       8
#     2   2   2   2   2   2   2   2
#     4  11  24  39  63  96 128 170 215 268 325 376
#     4  11  24  41  61  93 129 176 214 270 323 373
#     4  10  22  40  65  99 126 171 213 263 327 375
#     4  11  23  43  65  94 126 172 213 263 329 374
#     4  10  23  43  66  92 133 162 216 272 319 387
#     4  10  20  40  65  92 134 169 211 264 319 387
#     4  11  24  41  68  93 132 172 217 268 316 392
#     4  12  24  41  65  96 128 175 222 261 325 385
#
# _framework density 21.976458999999998
#
# number of rings (size 3 to 8) (size 9 to 14) (size 15 to 20)
#    0.000    1.250    2.500    3.750    1.750    5.500 
#    0.000    6.875    0.000    0.000    0.000    0.000 
#    0.000    0.000    0.000    0.000    0.000    0.000 
#
# Total GULP energy -198341.427837 kJ/mol
# GULP energy per Si atom -12396.339240 kJ/mol
# Density = 2.192644 g / cm^3
# Si number density = 21.976459 Si / 1000 Ang^3
#
#
#
# Elastic Constant Matrix: (Units=GPa)
#
#
# Indices 1 2 3 4 5 6 
#
# 1 102.9789 21.7396 39.9512 -1.3998 -6.9471 5.7549
# 2 21.7396 69.1364 47.4134 6.7805 3.7395 4.3461
# 3 39.9512 47.4134 102.0666 -1.2511 2.3470 -4.0083
# 4 -1.3998 6.7805 -1.2511 45.1552 -2.9809 -1.8517
# 5 -6.9471 3.7395 2.3470 -2.9809 27.6219 0.5294
# 6 5.7549 4.3461 -4.0083 -1.8517 0.5294 29.9119
#
#
#
# Elastic Compliance Matrix: (Units=1/GPa)
#
#
# Indices 1 2 3 4 5 6 
#
# 1 0.012046 -0.000714 -0.004573 0.000476 0.003621 -0.002861
# 2 -0.000714 0.022695 -0.010438 -0.004094 -0.002716 -0.004764
# 3 -0.004573 -0.010438 0.016672 0.002015 -0.001028 0.004773
# 4 0.000476 -0.004094 0.002015 0.023115 0.002956 0.002152
# 5 0.003621 -0.002716 -0.001028 0.002956 0.037906 -0.000928
# 6 -0.002861 -0.004764 0.004773 0.002152 -0.000928 0.035463
#
#
# Mechanical properties :
#
#
# Convention : Reuss Voigt Hill
#
# Bulk Modulus (GPa) = 50.09329 54.71002 52.40165
# Shear Modulus (GPa) = 26.88149 31.54300 29.21225
#
# Velocity S-wave (km/s) = 3.50121 3.79266 3.64985
# Velocity P-wave (km/s) = 6.26005 6.64288 6.45430
#
# Compressibility (1/GPa) = 0.01996275
#
# Stress axis : x y z
#
# Youngs Moduli (GPa) = 83.01248 44.06304 59.98061
#
# Poissons Ratio (x) = 0.03147 0.27431
# Poissons Ratio (y) = 0.05929 0.62606
# Poissons Ratio (z) = 0.37964 0.45992
#
# Static dielectric constant tensor:
#      x y z
#    x 3.831530 -0.005960 0.190350 
#    y -0.005960 4.195410 -0.033270 
#    z 0.190350 -0.033270 3.974290 
# 
# 
# High freq. dielectric constant tensor:
#      x y z
#    x 1.851230 -0.001630 0.001790 
#    y -0.001630 1.879380 -0.005550 
#    z 0.001790 -0.005550 1.865740 
# 
# From -- ./inp_files/454733.got.cif
#   From: 2010.06.25/outbox.cif.g09.slc.cpg/sg2_228_cif.got.tgz:454733.got - 2010.06.27 13:26:56.
