data_PCOD8006062
_publ_section_title
;
Structure prediction by ZEFSAII (Michael W. Deem and Ramdas Pophale) SiO2 
 PCOD8006062
Probable space group: P -1
;
_chemical_formula_sum "Si O2"
_cell_formula_units_Z 16
_cell_length_a 20.932156
_cell_length_b 18.326870
_cell_length_c 7.031217
_cell_angle_alpha 66.508311
_cell_angle_beta 68.856863
_cell_angle_gamma 17.919043
_cell_volume 759.457562
_symmetry_space_group_name_H-M "P -1"
_symmetry_group_IT_number 2
_symmetry_cell_setting 'triclinic'
loop_
_space_group_symop_operation_xyz
x,y,z
-x,-y,-z
loop_
_atom_site_type_symbol
_atom_site_label
_atom_site_fract_x
_atom_site_fract_y
_atom_site_fract_z
Si Si1 0.065622 0.850778 0.695829
Si Si2 0.625050 0.623978 0.677462
Si Si3 0.396485 0.509947 0.947106
Si Si4 0.999679 0.795078 0.526211
Si Si5 0.229892 0.373216 0.396924
Si Si6 0.803631 0.857399 0.551037
Si Si7 0.574886 0.952659 0.769805
Si Si8 0.188655 0.894680 0.933135
O O1 0.316996 0.578069 0.744658
O O2 0.981960 0.864365 0.666536
O O3 0.000000 0.000000 0.500000
O O4 0.985506 0.944206 0.901587
O O5 0.715597 0.594846 0.746191
O O6 0.754726 0.488455 0.481349
O O7 0.379418 0.903166 0.625869
O O8 0.680071 0.477867 0.850962
O O9 0.295755 0.703050 0.918193
O O10 0.644689 0.242854 0.968168
O O11 0.887033 0.833075 0.634325
O O12 0.898098 0.951176 0.293459
O O13 0.272042 0.276192 0.264087
O O14 0.988386 0.628041 0.448904
O O15 0.373658 0.189161 0.610894
O O16 0.709376 0.885048 0.734874
O O17 0.500000 0.000000 0.000000
#
# Coordination Sequence:
#
# PCOD8006062 Si02
#       8
#     2   2   2   2   2   2   2   2
#     4  12  24  39  61  90 123 168 216 270 320 368
#     4  10  20  39  65  87 126 168 207 257 315 367
#     4  11  22  40  63  89 122 167 215 266 313 370
#     4  11  22  41  62  91 127 165 217 263 317 373
#     4   9  21  41  65  95 127 162 207 252 311 376
#     4  10  21  41  66  94 130 169 203 264 313 375
#     4  10  21  42  69  97 125 163 204 250 317 383
#     4  11  23  41  63  88 120 169 220 262 320 370
#
# _framework density 21.067668000000001
#
# number of rings (size 3 to 8) (size 9 to 14) (size 15 to 20)
#    0.000    1.500    3.750    1.500    0.000    2.000 
#    9.000    0.000    0.000    0.000    0.000    0.000 
#    0.000    0.000    0.000    0.000    0.000    0.000 
#
# Total GULP energy -198311.766645 kJ/mol
# GULP energy per Si atom -12394.485415 kJ/mol
# Density = 2.101972 g / cm^3
# Si number density = 21.067668 Si / 1000 Ang^3
#
#
#
# Elastic Constant Matrix: (Units=GPa)
#
#
# Indices 1 2 3 4 5 6 
#
# 1 128.8209 30.4919 37.5484 6.5165 -3.8212 -7.5089
# 2 30.4919 108.1990 22.3211 3.3215 4.6898 -13.2645
# 3 37.5484 22.3211 67.8763 9.4703 3.5235 -9.8667
# 4 6.5165 3.3215 9.4703 14.7292 -3.8491 6.5377
# 5 -3.8212 4.6898 3.5235 -3.8491 33.6855 -2.0542
# 6 -7.5089 -13.2645 -9.8667 6.5377 -2.0542 38.6187
#
#
#
# Elastic Compliance Matrix: (Units=1/GPa)
#
#
# Indices 1 2 3 4 5 6 
#
# 1 0.009659 -0.001778 -0.004759 -0.000440 0.001804 0.000222
# 2 -0.001778 0.010614 -0.001623 -0.002402 -0.001588 0.003207
# 3 -0.004759 -0.001623 0.021070 -0.014833 -0.003834 0.006207
# 4 -0.000440 -0.002402 -0.014833 0.089572 0.010895 -0.019284
# 5 0.001804 -0.001588 -0.003834 0.010895 0.031677 -0.001334
# 6 0.000222 0.003207 0.006207 -0.019284 -0.001334 0.031819
#
#
# Mechanical properties :
#
#
# Convention : Reuss Voigt Hill
#
# Bulk Modulus (GPa) = 39.96218 53.95769 46.95994
# Shear Modulus (GPa) = 22.82362 31.70901 27.26631
#
# Velocity S-wave (km/s) = 3.29500 3.88377 3.60144
# Velocity P-wave (km/s) = 5.78668 6.76600 6.29541
#
# Compressibility (1/GPa) = 0.02502366
#
# Stress axis : x y z
#
# Youngs Moduli (GPa) = 103.52676 94.21628 47.46124
#
# Poissons Ratio (x) = 0.16751 0.22586
# Poissons Ratio (y) = 0.18406 0.07703
# Poissons Ratio (z) = 0.49266 0.15292
#
# Static dielectric constant tensor:
#      x y z
#    x 4.280720 -0.110540 -0.023310 
#    y -0.110540 4.062950 -0.173990 
#    z -0.023310 -0.173990 3.416350 
# 
# 
# High freq. dielectric constant tensor:
#      x y z
#    x 1.848310 -0.006750 -0.011260 
#    y -0.006750 1.839690 -0.013450 
#    z -0.011260 -0.013450 1.786600 
# 
# From -- ./inp_files/120009.got.cif
#   From: 2010.06.25/outbox.cif.g09.slc.cpg/sg2_61_cif.got.tgz:120009.got - 2010.06.27 13:26:56.
