data_PCOD8006531
_publ_section_title
;
Structure prediction by ZEFSAII (Michael W. Deem and Ramdas Pophale) SiO2 
 PCOD8006531
Probable space group: P -1
;
_chemical_formula_sum "Si O2"
_cell_formula_units_Z 14
_cell_length_a 14.374837
_cell_length_b 17.420096
_cell_length_c 8.215588
_cell_angle_alpha 68.205700
_cell_angle_beta 80.367289
_cell_angle_gamma 23.120964
_cell_volume 659.032229
_symmetry_space_group_name_H-M "P -1"
_symmetry_group_IT_number 2
_symmetry_cell_setting 'triclinic'
loop_
_space_group_symop_operation_xyz
x,y,z
-x,-y,-z
loop_
_atom_site_type_symbol
_atom_site_label
_atom_site_fract_x
_atom_site_fract_y
_atom_site_fract_z
Si Si1 0.257535 0.688744 0.797387
Si Si2 0.708702 0.060632 0.337151
Si Si3 0.298223 0.806924 0.485729
Si Si4 0.736660 0.870804 0.674241
Si Si5 0.156210 0.293764 0.550763
Si Si6 0.188373 0.569705 0.988117
Si Si7 0.112407 0.650347 0.314348
O O1 0.323779 0.688888 0.617576
O O2 0.238149 0.606909 0.823150
O O3 0.500000 0.500000 0.000000
O O4 0.959887 0.963486 0.736903
O O5 0.779887 0.078976 0.416409
O O6 0.654889 0.021905 0.486105
O O7 0.438157 0.302269 0.125464
O O8 0.948387 0.854081 0.299387
O O9 0.585910 0.603079 0.494274
O O10 0.880138 0.690949 0.644983
O O11 0.933874 0.726452 0.879374
O O12 0.473414 0.044093 0.691406
O O13 0.000000 0.500000 0.500000
O O14 0.038524 0.312793 0.666333
O O15 0.139230 0.651198 0.115881
#
# Coordination Sequence:
#
# PCOD8006531 Si02
#       7
#     2   2   2   2   2   2   2
#     4  11  20  38  65  86 118 165 199 238 306 349
#     4  10  20  40  60  87 125 157 199 249 292 356
#     4  10  21  39  62  84 121 161 197 249 294 354
#     4  10  22  40  61  88 120 164 200 237 307 354
#     4  10  21  39  64  88 120 158 200 248 296 362
#     4  11  22  39  63  88 124 160 199 249 297 354
#     4  10  22  39  61  93 120 153 204 250 299 350
#
# _framework density 21.243271
#
# number of rings (size 3 to 8) (size 9 to 14) (size 15 to 20)
#    0.000    1.714    4.286    1.714    0.000    1.714 
#    2.571   15.714    0.000    0.000    0.000    0.000 
#    0.000    0.000    0.000    0.000    0.000    0.000 
#
# Total GULP energy -173518.934728 kJ/mol
# GULP energy per Si atom -12394.209623 kJ/mol
# Density = 2.119492 g / cm^3
# Si number density = 21.243271 Si / 1000 Ang^3
#
#
#
# Elastic Constant Matrix: (Units=GPa)
#
#
# Indices 1 2 3 4 5 6 
#
# 1 90.3166 49.2091 25.1914 -11.3580 -0.2387 -20.1653
# 2 49.2091 139.3236 47.2989 -21.4220 2.7810 0.3784
# 3 25.1914 47.2989 101.0112 -38.0186 4.3746 -13.8139
# 4 -11.3580 -21.4220 -38.0186 30.2769 -4.1489 10.7033
# 5 -0.2387 2.7810 4.3746 -4.1489 33.9882 -10.4941
# 6 -20.1653 0.3784 -13.8139 10.7033 -10.4941 38.2433
#
#
#
# Elastic Compliance Matrix: (Units=1/GPa)
#
#
# Indices 1 2 3 4 5 6 
#
# 1 0.016565 -0.005971 -0.000986 -0.002318 0.003555 0.010062
# 2 -0.005971 0.010902 -0.003021 0.003485 -0.001926 -0.005851
# 3 -0.000986 -0.003021 0.020145 0.022655 0.000602 0.000611
# 4 -0.002318 0.003485 0.022655 0.067344 0.001445 -0.011525
# 5 0.003555 -0.001926 0.000602 0.001445 0.033029 0.010770
# 6 0.010062 -0.005851 0.000611 -0.011525 0.010770 0.037913
#
#
# Mechanical properties :
#
#
# Convention : Reuss Voigt Hill
#
# Bulk Modulus (GPa) = 36.15793 63.78336 49.97064
# Shear Modulus (GPa) = 23.24811 34.43182 28.83997
#
# Velocity S-wave (km/s) = 3.31172 4.03033 3.68857
# Velocity P-wave (km/s) = 5.62860 7.19364 6.45870
#
# Compressibility (1/GPa) = 0.02765645
#
# Stress axis : x y z
#
# Youngs Moduli (GPa) = 60.36950 91.72484 49.64107
#
# Poissons Ratio (x) = 0.54766 0.04893
# Poissons Ratio (y) = 0.36045 0.14997
# Poissons Ratio (z) = 0.05951 0.27711
#
# Static dielectric constant tensor:
#      x y z
#    x 4.115360 -0.127970 -0.003910 
#    y -0.127970 3.920160 -0.296190 
#    z -0.003910 -0.296190 3.772550 
# 
# 
# High freq. dielectric constant tensor:
#      x y z
#    x 1.850780 -0.015240 0.003440 
#    y -0.015240 1.822110 -0.027450 
#    z 0.003440 -0.027450 1.812670 
# 
# From -- ./inp_files/312693.got.cif
#   From: 2010.06.25/outbox.cif.g09.slc.cpg/sg2_157_cif.got.tgz:312693.got - 2010.06.27 13:26:56.
