data_PCOD8006793
_publ_section_title
;
Structure prediction by ZEFSAII (Michael W. Deem and Ramdas Pophale) SiO2 
 PCOD8006793
Probable space group: P -1
;
_chemical_formula_sum "Si O2"
_cell_formula_units_Z 16
_cell_length_a 7.820373
_cell_length_b 11.372654
_cell_length_c 16.327726
_cell_angle_alpha 124.530189
_cell_angle_beta 128.382806
_cell_angle_gamma 40.148324
_cell_volume 721.629918
_symmetry_space_group_name_H-M "P -1"
_symmetry_group_IT_number 2
_symmetry_cell_setting 'triclinic'
loop_
_space_group_symop_operation_xyz
x,y,z
-x,-y,-z
loop_
_atom_site_type_symbol
_atom_site_label
_atom_site_fract_x
_atom_site_fract_y
_atom_site_fract_z
Si Si1 0.907072 0.385234 0.573149
Si Si2 0.674746 0.011685 0.993210
Si Si3 0.573968 0.359208 0.587911
Si Si4 0.344642 0.457566 0.728764
Si Si5 0.550899 0.715187 0.097618
Si Si6 0.805490 0.090947 0.794627
Si Si7 0.885885 0.333121 0.102619
Si Si8 0.222331 0.022189 0.429020
O O1 0.806573 0.377924 0.632027
O O2 0.649163 0.574534 0.525729
O O3 0.176508 0.376735 0.649208
O O4 0.975661 0.210208 0.476136
O O5 0.800183 0.851849 0.898482
O O6 0.442441 0.208209 0.956634
O O7 0.905776 0.007051 0.108161
O O8 0.500000 0.000000 0.000000
O O9 0.394691 0.494255 0.666203
O O10 0.723968 0.149005 0.575355
O O11 0.657589 0.298563 0.797644
O O12 0.172950 0.643706 0.807195
O O13 0.432757 0.869210 0.195800
O O14 0.845478 0.513853 0.129027
O O15 0.316915 0.687964 0.014616
O O16 0.871709 0.960715 0.686675
O O17 0.500000 0.000000 0.500000
#
# Coordination Sequence:
#
# PCOD8006793 Si02
#       8
#     2   2   2   2   2   2   2   2
#     4  11  22  41  61  90 131 161 210 258 304 365
#     4  11  23  41  59  94 129 152 201 262 306 369
#     4  10  23  40  60  91 126 162 209 264 298 364
#     4  10  20  40  64  90 122 168 206 251 311 368
#     4   9  19  39  63  85 114 157 205 255 294 371
#     4   9  19  39  62  87 116 164 209 241 309 360
#     4   9  19  39  63  85 115 158 203 243 312 363
#     4  11  21  40  66  89 124 171 203 254 313 362
#
# _framework density 22.172028000000001
#
# number of rings (size 3 to 8) (size 9 to 14) (size 15 to 20)
#    0.000    2.000    2.500    3.000    0.000    2.500 
#   15.750    0.000    0.000    0.000    0.000    0.000 
#    0.000    0.000    0.000    0.000    0.000    0.000 
#
# Total GULP energy -198210.913239 kJ/mol
# GULP energy per Si atom -12388.182077 kJ/mol
# Density = 2.212156 g / cm^3
# Si number density = 22.172028 Si / 1000 Ang^3
#
#
#
# Elastic Constant Matrix: (Units=GPa)
#
#
# Indices 1 2 3 4 5 6 
#
# 1 96.8397 21.7785 32.8502 2.3777 -37.5248 12.9871
# 2 21.7785 67.1961 25.0410 1.8158 -13.0435 9.2453
# 3 32.8502 25.0410 105.5546 13.5109 -33.6163 4.0763
# 4 2.3777 1.8158 13.5109 36.2084 -0.7365 -16.4257
# 5 -37.5248 -13.0435 -33.6163 -0.7365 30.2597 -4.6090
# 6 12.9871 9.2453 4.0763 -16.4257 -4.6090 26.8425
#
#
#
# Elastic Compliance Matrix: (Units=1/GPa)
#
#
# Indices 1 2 3 4 5 6 
#
# 1 0.022445 -0.001416 0.004266 -0.006951 0.030258 -0.010077
# 2 -0.001416 0.017604 -0.002507 -0.002661 0.002025 -0.006278
# 3 0.004266 -0.002507 0.017087 -0.008403 0.022206 -0.005124
# 4 -0.006951 -0.002661 -0.008403 0.045067 -0.013306 0.030849
# 5 0.030258 0.002025 0.022206 -0.013306 0.094162 -0.010684
# 6 -0.010077 -0.006278 -0.005124 0.030849 -0.010684 0.062113
#
#
# Mechanical properties :
#
#
# Convention : Reuss Voigt Hill
#
# Bulk Modulus (GPa) = 17.29511 47.65885 32.47698
# Shear Modulus (GPa) = 18.04625 31.32349 24.68487
#
# Velocity S-wave (km/s) = 2.85602 3.76273 3.34029
# Velocity P-wave (km/s) = 4.32356 6.35761 5.43656
#
# Compressibility (1/GPa) = 0.05781981
#
# Stress axis : x y z
#
# Youngs Moduli (GPa) = 44.55393 56.80512 58.52553
#
# Poissons Ratio (x) = 0.08046 -0.24968
# Poissons Ratio (y) = 0.06311 0.14675
# Poissons Ratio (z) = -0.19008 0.14244
#
# Static dielectric constant tensor:
#      x y z
#    x 3.741620 -0.122150 -0.461730 
#    y -0.122150 4.338510 0.194380 
#    z -0.461730 0.194380 4.184200 
# 
# 
# High freq. dielectric constant tensor:
#      x y z
#    x 1.840850 -0.001730 -0.032500 
#    y -0.001730 1.875170 -0.004780 
#    z -0.032500 -0.004780 1.874990 
# 
# From -- ./inp_files/500727.got.cif
#   From: 2010.06.25/outbox.cif.g09.slc.cpg/sg2_251_cif.got.tgz:500727.got - 2010.06.27 13:26:56.
