data_PCOD8006828
_publ_section_title
;
Structure prediction by ZEFSAII (Michael W. Deem and Ramdas Pophale) SiO2 
 PCOD8006828
Probable space group: P -1
;
_chemical_formula_sum "Si O2"
_cell_formula_units_Z 16
_cell_length_a 5.635995
_cell_length_b 8.195511
_cell_length_c 17.916938
_cell_angle_alpha 51.764588
_cell_angle_beta 108.367605
_cell_angle_gamma 89.830749
_cell_volume 594.773001
_symmetry_space_group_name_H-M "P -1"
_symmetry_group_IT_number 2
_symmetry_cell_setting 'triclinic'
loop_
_space_group_symop_operation_xyz
x,y,z
-x,-y,-z
loop_
_atom_site_type_symbol
_atom_site_label
_atom_site_fract_x
_atom_site_fract_y
_atom_site_fract_z
Si Si1 0.857902 0.591637 0.535606
Si Si2 0.816544 0.052069 0.397004
Si Si3 0.792260 0.834658 0.110156
Si Si4 0.968159 0.856805 0.760652
Si Si5 0.667588 0.506473 0.283888
Si Si6 0.270352 0.747914 0.291334
Si Si7 0.950350 0.594234 0.055966
Si Si8 0.353585 0.735220 0.953849
O O1 0.677135 0.442438 0.587282
O O2 0.000000 0.500000 0.500000
O O3 0.050164 0.577747 0.628419
O O4 0.700757 0.843163 0.434589
O O5 0.998863 0.074569 0.339497
O O6 0.592411 0.280398 0.321650
O O7 0.000000 0.000000 0.500000
O O8 0.652593 0.641492 0.166696
O O9 0.926152 0.796189 0.052592
O O10 0.001556 0.798211 0.206795
O O11 0.610469 0.081433 0.033971
O O12 0.904901 0.624636 0.824644
O O13 0.239875 0.846949 0.833517
O O14 0.730714 0.031968 0.727416
O O15 0.498290 0.676808 0.275618
O O16 0.647861 0.583662 0.011453
O O17 0.119785 0.630843 0.991006
#
# Coordination Sequence:
#
# PCOD8006828 Si02
#       8
#     2   2   2   2   2   2   2   2
#     4  10  20  40  64  94 138 172 226 291 348 420
#     4  10  21  42  70  97 138 181 227 289 353 423
#     4  10  23  41  70  97 142 180 230 291 351 418
#     4  11  23  45  69 100 144 184 228 299 352 420
#     4  10  22  41  66  96 135 180 232 281 350 425
#     4  10  23  41  66 102 134 184 234 280 355 422
#     4  12  25  47  70 108 140 191 238 299 348 428
#     4  11  27  44  72 104 145 186 243 289 362 417
#
# _framework density 26.901021
#
# number of rings (size 3 to 8) (size 9 to 14) (size 15 to 20)
#    0.000    1.500    2.500    1.500    5.250    1.000 
#    4.500    1.250    0.000    0.000    0.000    0.000 
#    0.000    0.000    0.000    0.000    0.000    0.000 
#
# Total GULP energy -198280.706640 kJ/mol
# GULP energy per Si atom -12392.544165 kJ/mol
# Density = 2.683979 g / cm^3
# Si number density = 26.901021 Si / 1000 Ang^3
#
#
#
# Elastic Constant Matrix: (Units=GPa)
#
#
# Indices 1 2 3 4 5 6 
#
# 1 84.9251 52.1178 44.4489 -11.7307 -12.6554 -33.8896
# 2 52.1178 149.0604 46.3814 -26.0519 0.9458 -42.7556
# 3 44.4489 46.3814 118.8154 -11.9573 -12.1989 -19.5820
# 4 -11.7307 -26.0519 -11.9573 54.8346 -11.5271 -6.6002
# 5 -12.6554 0.9458 -12.1989 -11.5271 26.8429 -1.4953
# 6 -33.8896 -42.7556 -19.5820 -6.6002 -1.4953 46.1533
#
#
#
# Elastic Compliance Matrix: (Units=1/GPa)
#
#
# Indices 1 2 3 4 5 6 
#
# 1 0.024806 -0.000974 -0.003484 0.009399 0.015166 0.017669
# 2 -0.000974 0.011697 -0.001627 0.006633 0.001819 0.010438
# 3 -0.003484 -0.001627 0.011191 0.001983 0.004413 0.001108
# 4 0.009399 0.006633 0.001983 0.030105 0.019074 0.018810
# 5 0.015166 0.001819 0.004413 0.019074 0.055608 0.019223
# 6 0.017669 0.010438 0.001108 0.018810 0.019223 0.048093
#
#
# Mechanical properties :
#
#
# Convention : Reuss Voigt Hill
#
# Bulk Modulus (GPa) = 28.15196 70.96635 49.55915
# Shear Modulus (GPa) = 24.32941 39.55635 31.94288
#
# Velocity S-wave (km/s) = 3.01059 3.83879 3.44964
# Velocity P-wave (km/s) = 4.75107 6.78869 5.85913
#
# Compressibility (1/GPa) = 0.03552150
#
# Stress axis : x y z
#
# Youngs Moduli (GPa) = 40.31282 85.48967 89.36122
#
# Poissons Ratio (x) = 0.08331 0.31138
# Poissons Ratio (y) = 0.03928 0.14541
# Poissons Ratio (z) = 0.14047 0.13911
#
# Static dielectric constant tensor:
#      x y z
#    x 4.330150 -0.092760 -0.020230 
#    y -0.092760 5.830930 -0.576880 
#    z -0.020230 -0.576880 5.345000 
# 
# 
# High freq. dielectric constant tensor:
#      x y z
#    x 2.040620 -0.013950 0.002800 
#    y -0.013950 2.131100 -0.002280 
#    z 0.002800 -0.002280 2.097940 
# 
# From -- ./inp_files/90359.got.cif
#   From: 2010.06.25/outbox.cif.g09.slc.cpg/sg2_46_cif.got.tgz:90359.got - 2010.06.27 13:26:56.
