data_PCOD8006548
_publ_section_title
;
Structure prediction by ZEFSAII (Michael W. Deem and Ramdas Pophale) SiO2 
 PCOD8006548
Probable space group: P -1
;
_chemical_formula_sum "Si O2"
_cell_formula_units_Z 14
_cell_length_a 6.894473
_cell_length_b 20.019942
_cell_length_c 10.008764
_cell_angle_alpha 46.011778
_cell_angle_beta 44.813283
_cell_angle_gamma 68.432972
_cell_volume 678.881818
_symmetry_space_group_name_H-M "P -1"
_symmetry_group_IT_number 2
_symmetry_cell_setting 'triclinic'
loop_
_space_group_symop_operation_xyz
x,y,z
-x,-y,-z
loop_
_atom_site_type_symbol
_atom_site_label
_atom_site_fract_x
_atom_site_fract_y
_atom_site_fract_z
Si Si1 0.054193 0.090771 0.944261
Si Si2 0.577026 0.595984 0.483313
Si Si3 0.531088 0.618825 0.171103
Si Si4 0.979139 0.293372 0.681186
Si Si5 0.880869 0.992612 0.714619
Si Si6 0.960085 0.344859 0.332902
Si Si7 0.387922 0.860743 0.261684
O O1 0.395096 0.134601 0.726306
O O2 0.920527 0.178405 0.843557
O O3 0.937634 0.052824 0.203138
O O4 0.000000 0.000000 0.000000
O O5 0.646753 0.632578 0.246843
O O6 0.634637 0.491558 0.620999
O O7 0.237546 0.581268 0.699806
O O8 0.777458 0.672875 0.374237
O O9 0.313960 0.684412 0.156306
O O10 0.798314 0.650274 0.899537
O O11 0.087169 0.353478 0.409115
O O12 0.878108 0.099205 0.616638
O O13 0.554682 0.927014 0.966368
O O14 0.000000 0.000000 0.500000
O O15 0.723613 0.245407 0.587114
#
# Coordination Sequence:
#
# PCOD8006548 Si02
#       7
#     2   2   2   2   2   2   2
#     4  10  20  40  61  85 126 162 200 258 309 353
#     4  10  21  44  64  90 127 164 205 260 311 362
#     4  10  24  40  66  93 125 163 207 256 313 376
#     4  11  23  39  63  94 128 159 208 263 303 369
#     4   9  19  37  61  82 109 164 206 250 301 359
#     4  11  22  40  62  92 126 167 203 250 317 373
#     4   9  20  38  60  82 125 156 202 258 300 362
#
# _framework density 20.622143999999999
#
# number of rings (size 3 to 8) (size 9 to 14) (size 15 to 20)
#    0.857    1.143    1.429    1.714    0.000    5.143 
#    2.571    0.714    0.000    0.000    0.000    0.000 
#    0.000    0.000    0.000    0.000    0.000    0.000 
#
# Total GULP energy -173484.591853 kJ/mol
# GULP energy per Si atom -12391.756561 kJ/mol
# Density = 2.057521 g / cm^3
# Si number density = 20.622144 Si / 1000 Ang^3
#
#
#
# Elastic Constant Matrix: (Units=GPa)
#
#
# Indices 1 2 3 4 5 6 
#
# 1 96.2036 42.3624 39.8612 7.3176 10.9264 0.0665
# 2 42.3624 128.6654 46.5244 3.8610 4.6354 -13.1825
# 3 39.8612 46.5244 96.0028 36.3561 12.0098 0.1076
# 4 7.3176 3.8610 36.3561 42.3127 3.2693 -0.5650
# 5 10.9264 4.6354 12.0098 3.2693 20.1398 -3.1711
# 6 0.0665 -13.1825 0.1076 -0.5650 -3.1711 44.6450
#
#
#
# Elastic Compliance Matrix: (Units=1/GPa)
#
#
# Indices 1 2 3 4 5 6 
#
# 1 0.013970 -0.002956 -0.004592 0.002146 -0.004696 -0.001189
# 2 -0.002956 0.011155 -0.006310 0.004762 0.002586 0.003557
# 3 -0.004592 -0.006310 0.023097 -0.017944 -0.007336 -0.002660
# 4 0.002146 0.004762 -0.017944 0.038074 0.002592 0.002112
# 5 -0.004696 0.002586 -0.007336 0.002592 0.056318 0.004821
# 6 -0.001189 0.003557 -0.002660 0.002112 0.004821 0.023827
#
#
# Mechanical properties :
#
#
# Convention : Reuss Voigt Hill
#
# Bulk Modulus (GPa) = 48.76415 64.26310 56.51362
# Shear Modulus (GPa) = 24.87675 34.22775 29.55225
#
# Velocity S-wave (km/s) = 3.47697 4.07843 3.78965
# Velocity P-wave (km/s) = 6.31006 7.30808 6.82733
#
# Compressibility (1/GPa) = 0.02050687
#
# Stress axis : x y z
#
# Youngs Moduli (GPa) = 71.58282 89.64337 43.29636
#
# Poissons Ratio (x) = 0.26501 0.19880
# Poissons Ratio (y) = 0.21161 0.27318
# Poissons Ratio (z) = 0.32868 0.56561
#
# Static dielectric constant tensor:
#      x y z
#    x 3.252730 0.663730 0.684730 
#    y 0.663730 2.408030 -1.019810 
#    z 0.684730 -1.019810 2.774460 
# 
# 
# High freq. dielectric constant tensor:
#      x y z
#    x 1.802280 -0.004070 0.013370 
#    y -0.004070 1.826710 -0.006810 
#    z 0.013370 -0.006810 1.773570 
# 
# From -- ./inp_files/140052.got.cif
#   From: 2010.06.25/outbox.cif.g09.slc.cpg/sg2_71_cif.got.tgz:140052.got - 2010.06.27 13:26:56.
