data_PCOD8006812
_publ_section_title
;
Structure prediction by ZEFSAII (Michael W. Deem and Ramdas Pophale) SiO2 
 PCOD8006812
Probable space group: P -1
;
_chemical_formula_sum "Si O2"
_cell_formula_units_Z 14
_cell_length_a 11.438668
_cell_length_b 9.956211
_cell_length_c 11.801005
_cell_angle_alpha 60.040820
_cell_angle_beta 145.214096
_cell_angle_gamma 129.066669
_cell_volume 594.810191
_symmetry_space_group_name_H-M "P -1"
_symmetry_group_IT_number 2
_symmetry_cell_setting 'triclinic'
loop_
_space_group_symop_operation_xyz
x,y,z
-x,-y,-z
loop_
_atom_site_type_symbol
_atom_site_label
_atom_site_fract_x
_atom_site_fract_y
_atom_site_fract_z
Si Si1 0.702457 0.991945 0.095395
Si Si2 0.215909 0.677159 0.068275
Si Si3 0.312592 0.267200 0.641887
Si Si4 0.167152 0.882864 0.291817
Si Si5 0.327992 0.143961 0.112846
Si Si6 0.642283 0.380671 0.428513
Si Si7 0.599694 0.825640 0.477511
O O1 0.811461 0.893097 0.301442
O O2 0.603114 0.891526 0.941158
O O3 0.500000 0.000000 0.000000
O O4 0.873628 0.193886 0.118126
O O5 0.407411 0.649868 0.156903
O O6 0.348018 0.780219 0.243916
O O7 0.000000 0.500000 0.000000
O O8 0.227665 0.411360 0.544605
O O9 0.244728 0.200805 0.486262
O O10 0.180384 0.700975 0.378253
O O11 0.322138 0.004562 0.261843
O O12 0.263454 0.979449 0.448108
O O13 0.908624 0.844796 0.085485
O O14 0.523482 0.328980 0.232417
O O15 0.442845 0.308727 0.396634
#
# Coordination Sequence:
#
# PCOD8006812 Si02
#       7
#     2   2   2   2   2   2   2
#     4  10  20  40  64  92 133 172 212 259 330 391
#     4   9  19  35  63  95 124 165 221 268 306 379
#     4   9  22  36  62  93 133 176 202 263 340 379
#     4  10  21  38  67  95 130 167 217 274 314 378
#     4  10  22  39  65  95 126 172 222 259 322 383
#     4  11  20  37  63  92 128 170 212 274 312 380
#     4   9  19  37  61  91 130 169 211 267 322 371
#
# _framework density 23.536921
#
# number of rings (size 3 to 8) (size 9 to 14) (size 15 to 20)
#    0.857    1.429    0.000    3.857    0.000    5.143 
#    0.000    1.429    0.000    0.000    0.000    6.000 
#    0.000    0.000    0.000    0.000    0.000    0.000 
#
# Total GULP energy -173442.054402 kJ/mol
# GULP energy per Si atom -12388.718172 kJ/mol
# Density = 2.348335 g / cm^3
# Si number density = 23.536921 Si / 1000 Ang^3
#
#
#
# Elastic Constant Matrix: (Units=GPa)
#
#
# Indices 1 2 3 4 5 6 
#
# 1 88.6496 50.2135 31.9107 2.3000 -34.3707 -18.8474
# 2 50.2135 163.1777 49.5467 -40.4132 -12.9298 -17.2976
# 3 31.9107 49.5467 83.6264 -6.6637 -11.4062 -12.0447
# 4 2.3000 -40.4132 -6.6637 27.3132 0.4470 -4.5548
# 5 -34.3707 -12.9298 -11.4062 0.4470 35.6283 6.7142
# 6 -18.8474 -17.2976 -12.0447 -4.5548 6.7142 40.0347
#
#
#
# Elastic Compliance Matrix: (Units=1/GPa)
#
#
# Indices 1 2 3 4 5 6 
#
# 1 0.027172 -0.010069 -0.002591 -0.017835 0.021573 0.002015
# 2 -0.010069 0.017032 -0.004257 0.026002 -0.006228 0.005341
# 3 -0.002591 -0.004257 0.015586 -0.002078 0.000732 0.001271
# 4 -0.017835 0.026002 -0.002078 0.078466 -0.011894 0.013135
# 5 0.021573 -0.006228 0.000732 -0.011894 0.047304 -0.001601
# 6 0.002015 0.005341 0.001271 0.013135 -0.001601 0.030380
#
#
# Mechanical properties :
#
#
# Convention : Reuss Voigt Hill
#
# Bulk Modulus (GPa) = 38.52793 66.53285 52.53039
# Shear Modulus (GPa) = 19.34795 34.18077 26.76436
#
# Velocity S-wave (km/s) = 2.87021 3.81493 3.37578
# Velocity P-wave (km/s) = 5.23343 6.90896 6.12873
#
# Compressibility (1/GPa) = 0.02595520
#
# Stress axis : x y z
#
# Youngs Moduli (GPa) = 36.80325 58.71376 64.15904
#
# Poissons Ratio (x) = 0.59117 0.16626
# Poissons Ratio (y) = 0.37056 0.27313
# Poissons Ratio (z) = 0.09537 0.24995
#
# Static dielectric constant tensor:
#      x y z
#    x 4.147130 -0.087900 -0.411800 
#    y -0.087900 4.195750 -0.237800 
#    z -0.411800 -0.237800 4.187170 
# 
# 
# High freq. dielectric constant tensor:
#      x y z
#    x 1.915360 -0.023260 -0.016960 
#    y -0.023260 1.917920 -0.010420 
#    z -0.016960 -0.010420 1.925150 
# 
# From -- ./inp_files/416985.got.cif
#   From: 2010.06.25/outbox.cif.g09.slc.cpg/sg2_209_cif.got.tgz:416985.got - 2010.06.27 13:26:56.
