data_PCOD8006353
_publ_section_title
;
Structure prediction by ZEFSAII (Michael W. Deem and Ramdas Pophale) SiO2 
 PCOD8006353
Probable space group: P -1
;
_chemical_formula_sum "Si O2"
_cell_formula_units_Z 12
_cell_length_a 9.750442
_cell_length_b 11.927956
_cell_length_c 9.503761
_cell_angle_alpha 53.139167
_cell_angle_beta 53.929137
_cell_angle_gamma 90.467933
_cell_volume 592.811267
_symmetry_space_group_name_H-M "P -1"
_symmetry_group_IT_number 2
_symmetry_cell_setting 'triclinic'
loop_
_space_group_symop_operation_xyz
x,y,z
-x,-y,-z
loop_
_atom_site_type_symbol
_atom_site_label
_atom_site_fract_x
_atom_site_fract_y
_atom_site_fract_z
Si Si1 0.127641 0.136135 0.196636
Si Si2 0.108387 0.944471 0.080090
Si Si3 0.515466 0.016262 0.644866
Si Si4 0.167043 0.361766 0.350231
Si Si5 0.541195 0.709055 0.919806
Si Si6 0.936104 0.320791 0.231889
O O1 0.356163 0.283907 0.998593
O O2 0.018709 0.232554 0.148725
O O3 0.155936 0.047562 0.116610
O O4 0.000000 0.000000 0.500000
O O5 0.968777 0.746038 0.353143
O O6 0.308951 0.979602 0.860583
O O7 0.000000 0.000000 0.000000
O O8 0.690725 0.200332 0.460450
O O9 0.500000 0.000000 0.500000
O O10 0.564746 0.884898 0.765688
O O11 0.322499 0.304375 0.271725
O O12 0.023498 0.337673 0.323677
O O13 0.303559 0.557616 0.166542
O O14 0.000000 0.500000 0.000000
#
# Coordination Sequence:
#
# PCOD8006353 Si02
#       6
#     2   2   2   2   2   2
#     4  11  20  44  67  92 129 175 210 263 328 384
#     4  12  25  41  66  94 132 172 222 267 325 392
#     4  12  24  40  63  94 129 174 222 269 326 384
#     4  10  21  40  64  98 128 175 213 267 323 389
#     4  10  20  39  68  90 130 169 218 257 331 382
#     4  11  22  40  68  97 133 169 220 267 325 385
#
# _framework density 20.242529000000001
#
# number of rings (size 3 to 8) (size 9 to 14) (size 15 to 20)
#    0.000    1.000    5.000    3.000    0.000    6.000 
#    0.000    5.000    0.000    0.000    0.000    0.000 
#    0.000    0.000    0.000    0.000    0.000    0.000 
#
# Total GULP energy -148770.335823 kJ/mol
# GULP energy per Si atom -12397.527985 kJ/mol
# Density = 2.019646 g / cm^3
# Si number density = 20.242529 Si / 1000 Ang^3
#
#
#
# Elastic Constant Matrix: (Units=GPa)
#
#
# Indices 1 2 3 4 5 6 
#
# 1 116.9819 31.9034 74.4134 -4.0834 -11.4386 4.4824
# 2 31.9034 91.4065 63.2180 -2.7891 -4.9426 -0.5128
# 3 74.4134 63.2180 151.2926 -9.7094 -11.5227 1.4509
# 4 -4.0834 -2.7891 -9.7094 44.4334 1.5000 0.4856
# 5 -11.4386 -4.9426 -11.5227 1.5000 36.0480 -11.6583
# 6 4.4824 -0.5128 1.4509 0.4856 -11.6583 47.7043
#
#
#
# Elastic Compliance Matrix: (Units=1/GPa)
#
#
# Indices 1 2 3 4 5 6 
#
# 1 0.012605 -0.000158 -0.005998 -0.000220 0.001896 -0.000538
# 2 -0.000158 0.015405 -0.006379 -0.000452 0.000179 0.000423
# 3 -0.005998 -0.006379 0.012427 0.001717 0.001254 0.000406
# 4 -0.000220 -0.000452 0.001717 0.022860 -0.000675 -0.000434
# 5 0.001896 0.000179 0.001254 -0.000675 0.031194 0.007416
# 6 -0.000538 0.000423 0.000406 -0.000434 0.007416 0.022822
#
#
# Mechanical properties :
#
#
# Convention : Reuss Voigt Hill
#
# Bulk Modulus (GPa) = 65.07434 77.63895 71.35665
# Shear Modulus (GPa) = 33.89664 38.31357 36.10510
#
# Velocity S-wave (km/s) = 4.09654 4.35527 4.22788
# Velocity P-wave (km/s) = 7.38868 7.98303 7.69160
#
# Compressibility (1/GPa) = 0.01536704
#
# Stress axis : x y z
#
# Youngs Moduli (GPa) = 79.33050 64.91303 80.46826
#
# Poissons Ratio (x) = 0.01027 0.48269
# Poissons Ratio (y) = 0.01256 0.51329
# Poissons Ratio (z) = 0.47586 0.41406
#
# Static dielectric constant tensor:
#      x y z
#    x 3.833990 -0.131990 -0.377310 
#    y -0.131990 3.902550 -0.222860 
#    z -0.377310 -0.222860 3.580490 
# 
# 
# High freq. dielectric constant tensor:
#      x y z
#    x 1.809800 0.001910 -0.010410 
#    y 0.001910 1.792120 -0.019340 
#    z -0.010410 -0.019340 1.775740 
# 
# From -- ./inp_files/148914.got.cif
#   From: 2010.06.25/outbox.cif.g09.slc.cpg/sg2_75_cif.got.tgz:148914.got - 2010.06.27 13:26:56.
