data_PCOD8006445
_publ_section_title
;
Structure prediction by ZEFSAII (Michael W. Deem and Ramdas Pophale) SiO2 
 PCOD8006445
Probable space group: P -1
;
_chemical_formula_sum "Si O2"
_cell_formula_units_Z 16
_cell_length_a 12.193679
_cell_length_b 15.160451
_cell_length_c 10.240823
_cell_angle_alpha 81.153980
_cell_angle_beta 58.694398
_cell_angle_gamma 33.133696
_cell_volume 705.694735
_symmetry_space_group_name_H-M "P -1"
_symmetry_group_IT_number 2
_symmetry_cell_setting 'triclinic'
loop_
_space_group_symop_operation_xyz
x,y,z
-x,-y,-z
loop_
_atom_site_type_symbol
_atom_site_label
_atom_site_fract_x
_atom_site_fract_y
_atom_site_fract_z
Si Si1 0.296014 0.921324 0.607389
Si Si2 0.787650 0.771402 0.712062
Si Si3 0.680057 0.335198 0.596308
Si Si4 0.649617 0.316030 0.910084
Si Si5 0.322309 0.346943 0.087734
Si Si6 0.380528 0.447595 0.515837
Si Si7 0.334110 0.952020 0.277589
Si Si8 0.275055 0.215730 0.542983
O O1 0.344910 0.786151 0.619659
O O2 0.516195 0.829452 0.593484
O O3 0.360567 0.919349 0.423179
O O4 0.968892 0.136505 0.807339
O O5 0.620590 0.782368 0.840954
O O6 0.618824 0.970600 0.800579
O O7 0.868431 0.721657 0.519803
O O8 0.075344 0.585696 0.666265
O O9 0.644577 0.306452 0.759476
O O10 0.428930 0.458782 0.626445
O O11 0.622299 0.477289 0.614923
O O12 0.014847 0.118023 0.388091
O O13 0.500000 0.500000 0.000000
O O14 0.510872 0.309353 0.046985
O O15 0.989451 0.592189 0.238998
O O16 0.424912 0.258730 0.896743
O O17 0.500000 0.000000 0.500000
#
# Coordination Sequence:
#
# PCOD8006445 Si02
#       8
#     2   2   2   2   2   2   2   2
#     4  11  22  43  69  94 134 180 227 265 349 389
#     4  11  24  44  69  96 143 175 222 280 347 399
#     4   9  21  42  67  94 139 177 225 268 346 391
#     4  11  25  44  68  98 140 179 225 285 331 400
#     4  12  25  42  70 105 132 175 234 276 336 399
#     4  10  20  39  70  95 123 185 223 270 329 409
#     4  10  22  43  70 100 137 178 222 286 326 404
#     4  12  25  46  68  97 133 185 220 273 343 414
#
# _framework density 22.672692000000001
#
# number of rings (size 3 to 8) (size 9 to 14) (size 15 to 20)
#    0.000    1.250    2.500    3.000    3.500    2.500 
#    2.250   10.000    0.000    0.000    0.000    0.000 
#    0.000    0.000    0.000    0.000    0.000    0.000 
#
# Total GULP energy -198223.557863 kJ/mol
# GULP energy per Si atom -12388.972366 kJ/mol
# Density = 2.262109 g / cm^3
# Si number density = 22.672692 Si / 1000 Ang^3
#
#
#
# Elastic Constant Matrix: (Units=GPa)
#
#
# Indices 1 2 3 4 5 6 
#
# 1 130.6499 33.2471 49.2439 10.7184 -15.2266 9.6277
# 2 33.2471 89.6600 37.8229 23.1870 -3.0150 19.8076
# 3 49.2439 37.8229 99.1596 31.3811 -10.1717 13.3539
# 4 10.7184 23.1870 31.3811 34.8050 8.1091 4.6322
# 5 -15.2266 -3.0150 -10.1717 8.1091 27.6149 3.8247
# 6 9.6277 19.8076 13.3539 4.6322 3.8247 49.8998
#
#
#
# Elastic Compliance Matrix: (Units=1/GPa)
#
#
# Indices 1 2 3 4 5 6 
#
# 1 0.010106 -0.002117 -0.004248 0.001379 0.003422 -0.000363
# 2 -0.002117 0.016020 -0.001102 -0.009184 0.003576 -0.005077
# 3 -0.004248 -0.001102 0.019741 -0.017772 0.010468 -0.003178
# 4 0.001379 -0.009184 -0.017772 0.055331 -0.023704 0.004816
# 5 0.003422 0.003576 0.010468 -0.023704 0.050210 -0.006529
# 6 -0.000363 -0.005077 -0.003178 0.004816 -0.006529 0.023030
#
#
# Mechanical properties :
#
#
# Convention : Reuss Voigt Hill
#
# Bulk Modulus (GPa) = 32.32755 62.23304 47.28029
# Shear Modulus (GPa) = 25.03960 35.74098 30.39029
#
# Velocity S-wave (km/s) = 3.32685 3.97468 3.66511
# Velocity P-wave (km/s) = 5.38948 6.96938 6.22972
#
# Compressibility (1/GPa) = 0.03093337
#
# Stress axis : x y z
#
# Youngs Moduli (GPa) = 98.94808 62.42081 50.65599
#
# Poissons Ratio (x) = 0.13214 0.21519
# Poissons Ratio (y) = 0.20946 0.05583
# Poissons Ratio (z) = 0.42033 0.06880
#
# Static dielectric constant tensor:
#      x y z
#    x 4.787610 0.265310 -0.062490 
#    y 0.265310 4.190610 0.077010 
#    z -0.062490 0.077010 3.867480 
# 
# 
# High freq. dielectric constant tensor:
#      x y z
#    x 1.911020 0.020110 -0.007710 
#    y 0.020110 1.901370 0.011000 
#    z -0.007710 0.011000 1.863780 
# 
# From -- ./inp_files/434032.got.cif
#   From: 2010.06.25/outbox.cif.g09.slc.cpg/sg2_218_cif.got.tgz:434032.got - 2010.06.27 13:26:56.
