data_PCOD8006638
_publ_section_title
;
Structure prediction by ZEFSAII (Michael W. Deem and Ramdas Pophale) SiO2 
 PCOD8006638
Probable space group: P -1
;
_chemical_formula_sum "Si O2"
_cell_formula_units_Z 16
_cell_length_a 12.246515
_cell_length_b 9.325340
_cell_length_c 11.580433
_cell_angle_alpha 89.582055
_cell_angle_beta 143.777599
_cell_angle_gamma 94.245616
_cell_volume 776.269331
_symmetry_space_group_name_H-M "P -1"
_symmetry_group_IT_number 2
_symmetry_cell_setting 'triclinic'
loop_
_space_group_symop_operation_xyz
x,y,z
-x,-y,-z
loop_
_atom_site_type_symbol
_atom_site_label
_atom_site_fract_x
_atom_site_fract_y
_atom_site_fract_z
Si Si1 0.192521 0.703949 0.207547
Si Si2 0.376837 0.687431 0.825384
Si Si3 0.530282 0.063162 0.651537
Si Si4 0.280536 0.365587 0.744399
Si Si5 0.039519 0.845190 0.579406
Si Si6 0.209824 0.377361 0.199477
Si Si7 0.460271 0.755447 0.640934
Si Si8 0.776842 0.744741 0.541773
O O1 0.284817 0.821313 0.191949
O O2 0.236887 0.548308 0.200978
O O3 0.272559 0.742932 0.403410
O O4 0.969587 0.703089 0.019580
O O5 0.276347 0.530566 0.780112
O O6 0.417031 0.675984 0.724325
O O7 0.253821 0.816039 0.750835
O O8 0.568627 0.715804 0.058026
O O9 0.350355 0.133949 0.534484
O O10 0.500000 0.000000 0.500000
O O11 0.541648 0.921420 0.740960
O O12 0.080628 0.276013 0.601871
O O13 0.323966 0.357770 0.643832
O O14 0.970973 0.825204 0.654433
O O15 0.000000 0.000000 0.500000
O O16 0.391517 0.317515 0.307602
O O17 0.183666 0.350782 0.314082
#
# Coordination Sequence:
#
# PCOD8006638 Si02
#       8
#     2   2   2   2   2   2   2   2
#     4  10  23  38  60  92 127 158 206 252 308 381
#     4  11  22  44  66  93 123 172 212 258 313 359
#     4  10  20  40  62  90 128 159 200 251 313 374
#     4   9  24  41  65  95 122 166 219 257 303 373
#     4  10  23  42  63  91 130 165 209 259 308 371
#     4  11  22  40  61  98 116 164 209 246 324 364
#     4  11  23  40  64  88 129 161 199 263 306 372
#     4  10  21  41  64  92 126 160 206 258 309 367
#
# _framework density 20.611405000000001
#
# number of rings (size 3 to 8) (size 9 to 14) (size 15 to 20)
#    0.750    1.000    2.500    2.250    1.750    3.000 
#    9.000    0.000    0.000    0.000    0.000    0.000 
#    0.000    0.000    0.000    0.000    0.000    0.000 
#
# Total GULP energy -198313.626575 kJ/mol
# GULP energy per Si atom -12394.601661 kJ/mol
# Density = 2.056449 g / cm^3
# Si number density = 20.611405 Si / 1000 Ang^3
#
#
#
# Elastic Constant Matrix: (Units=GPa)
#
#
# Indices 1 2 3 4 5 6 
#
# 1 80.4966 3.3257 19.0392 -0.9290 -2.9457 -1.4330
# 2 3.3257 86.8175 7.2662 0.6940 7.6451 6.8678
# 3 19.0392 7.2662 89.8345 -0.4858 -3.8515 3.8464
# 4 -0.9290 0.6940 -0.4858 27.6975 0.1214 7.7260
# 5 -2.9457 7.6451 -3.8515 0.1214 21.7227 -0.4552
# 6 -1.4330 6.8678 3.8464 7.7260 -0.4552 33.0608
#
#
#
# Elastic Compliance Matrix: (Units=1/GPa)
#
#
# Indices 1 2 3 4 5 6 
#
# 1 0.013162 -0.000486 -0.002727 0.000126 0.001492 0.000980
# 2 -0.000486 0.012226 -0.000969 0.000408 -0.004597 -0.002607
# 3 -0.002727 -0.000969 0.011939 0.000524 0.002056 -0.001400
# 4 0.000126 0.000408 0.000524 0.038671 -0.000442 -0.009183
# 5 0.001492 -0.004597 0.002056 -0.000442 0.048255 0.001548
# 6 0.000980 -0.002607 -0.001400 -0.009183 0.001548 0.033161
#
#
# Mechanical properties :
#
#
# Convention : Reuss Voigt Hill
#
# Bulk Modulus (GPa) = 34.52861 35.15677 34.84269
# Shear Modulus (GPa) = 28.50103 31.66404 30.08254
#
# Velocity S-wave (km/s) = 3.72261 3.92374 3.82450
# Velocity P-wave (km/s) = 5.93849 6.13365 6.03686
#
# Compressibility (1/GPa) = 0.02896149
#
# Stress axis : x y z
#
# Youngs Moduli (GPa) = 75.97890 81.79337 83.75959
#
# Poissons Ratio (x) = 0.03974 0.22845
# Poissons Ratio (y) = 0.03691 0.08118
# Poissons Ratio (z) = 0.20723 0.07928
#
# Static dielectric constant tensor:
#      x y z
#    x 3.554990 0.358820 0.068740 
#    y 0.358820 4.016840 -0.069140 
#    z 0.068740 -0.069140 3.625800 
# 
# 
# High freq. dielectric constant tensor:
#      x y z
#    x 1.793940 0.007070 0.005230 
#    y 0.007070 1.818510 -0.004550 
#    z 0.005230 -0.004550 1.793270 
# 
# From -- ./inp_files/417463.got.cif
#   From: 2010.06.25/outbox.cif.g09.slc.cpg/sg2_209_cif.got.tgz:417463.got - 2010.06.27 13:26:56.
