data_PCOD8006427
_publ_section_title
;
Structure prediction by ZEFSAII (Michael W. Deem and Ramdas Pophale) SiO2 
 PCOD8006427
Probable space group: P -1
;
_chemical_formula_sum "Si O2"
_cell_formula_units_Z 16
_cell_length_a 8.208615
_cell_length_b 15.293106
_cell_length_c 11.559215
_cell_angle_alpha 45.677480
_cell_angle_beta 99.109750
_cell_angle_gamma 133.085999
_cell_volume 600.525208
_symmetry_space_group_name_H-M "P -1"
_symmetry_group_IT_number 2
_symmetry_cell_setting 'triclinic'
loop_
_space_group_symop_operation_xyz
x,y,z
-x,-y,-z
loop_
_atom_site_type_symbol
_atom_site_label
_atom_site_fract_x
_atom_site_fract_y
_atom_site_fract_z
Si Si1 0.751644 0.259900 0.725809
Si Si2 0.859343 0.042784 0.066121
Si Si3 0.185362 0.264073 0.669136
Si Si4 0.013201 0.859678 0.746439
Si Si5 0.963082 0.378470 0.874464
Si Si6 0.324947 0.824376 0.746456
Si Si7 0.472976 0.279702 0.279186
Si Si8 0.853815 0.242556 0.517628
O O1 0.838675 0.235251 0.876174
O O2 0.689492 0.140559 0.716960
O O3 0.000000 0.500000 0.500000
O O4 0.466924 0.155595 0.823880
O O5 0.935398 0.149259 0.104315
O O6 0.904673 0.926315 0.198312
O O7 0.042652 0.209107 0.827540
O O8 0.500000 0.500000 0.500000
O O9 0.084989 0.277312 0.530166
O O10 0.068139 0.771264 0.752765
O O11 0.703445 0.732937 0.810403
O O12 0.259555 0.102942 0.516058
O O13 0.261745 0.492888 0.841308
O O14 0.015499 0.548163 0.682903
O O15 0.721464 0.251864 0.059049
O O16 0.347107 0.718527 0.767738
O O17 0.631711 0.077760 0.540936
#
# Coordination Sequence:
#
# PCOD8006427 Si02
#       8
#     2   2   2   2   2   2   2   2
#     4  10  20  39  69  98 139 177 226 285 350 422
#     4  11  23  46  67 104 147 177 239 296 352 436
#     4  11  25  41  68 102 146 189 224 291 366 432
#     4  11  24  45  75 102 137 192 235 296 358 416
#     4  11  24  41  69 102 140 182 232 294 344 429
#     4  12  24  45  75 100 140 191 237 295 358 416
#     4  11  25  47  70 102 143 185 244 296 347 422
#     4  11  23  42  70 101 137 181 228 287 361 424
#
# _framework density 26.643343999999999
#
# number of rings (size 3 to 8) (size 9 to 14) (size 15 to 20)
#    0.000    1.000    2.500    4.500    1.750    4.500 
#    0.000    0.000    2.750    0.000    0.000    0.000 
#    0.000    0.000    0.000    0.000    0.000    0.000 
#
# Total GULP energy -198234.485210 kJ/mol
# GULP energy per Si atom -12389.655326 kJ/mol
# Density = 2.658270 g / cm^3
# Si number density = 26.643344 Si / 1000 Ang^3
#
#
#
# Elastic Constant Matrix: (Units=GPa)
#
#
# Indices 1 2 3 4 5 6 
#
# 1 140.3657 60.7065 24.0552 1.9543 -15.9617 23.6318
# 2 60.7065 98.4003 8.0412 2.6256 -4.4871 18.0280
# 3 24.0552 8.0412 108.8671 -1.1448 -8.2577 0.1485
# 4 1.9543 2.6256 -1.1448 43.9208 5.8390 5.4092
# 5 -15.9617 -4.4871 -8.2577 5.8390 38.2825 6.3181
# 6 23.6318 18.0280 0.1485 5.4092 6.3181 52.1788
#
#
#
# Elastic Compliance Matrix: (Units=1/GPa)
#
#
# Indices 1 2 3 4 5 6 
#
# 1 0.010978 -0.005810 -0.001681 -0.000314 0.004148 -0.003430
# 2 -0.005810 0.014121 0.000217 -0.000269 -0.000319 -0.002182
# 3 -0.001681 0.000217 0.009640 0.000078 0.001311 0.000492
# 4 -0.000314 -0.000269 0.000078 0.023476 -0.003432 -0.001783
# 5 0.004148 -0.000319 0.001311 -0.003432 0.029442 -0.004981
# 6 -0.003430 -0.002182 0.000492 -0.001783 -0.004981 0.022259
#
#
# Mechanical properties :
#
#
# Convention : Reuss Voigt Hill
#
# Bulk Modulus (GPa) = 49.52277 59.24877 54.38577
# Shear Modulus (GPa) = 38.11107 43.86510 40.98808
#
# Velocity S-wave (km/s) = 3.78619 4.06196 3.92650
# Velocity P-wave (km/s) = 6.14339 6.65473 6.40417
#
# Compressibility (1/GPa) = 0.02019273
#
# Stress axis : x y z
#
# Youngs Moduli (GPa) = 91.08823 70.81435 103.72944
#
# Poissons Ratio (x) = 0.41141 0.17433
# Poissons Ratio (y) = 0.52920 -0.02247
# Poissons Ratio (z) = 0.15309 -0.01534
#
# Static dielectric constant tensor:
#      x y z
#    x 5.100280 -0.128950 0.160600 
#    y -0.128950 5.765100 0.418650 
#    z 0.160600 0.418650 5.302160 
# 
# 
# High freq. dielectric constant tensor:
#      x y z
#    x 2.083570 0.001900 0.023390 
#    y 0.001900 2.077160 0.009360 
#    z 0.023390 0.009360 2.105000 
# 
# From -- ./inp_files/403011.got.cif
#   From: 2010.06.25/outbox.cif.g09.slc.cpg/sg2_202_cif.got.tgz:403011.got - 2010.06.27 13:26:56.
