data_PCOD8006218
_publ_section_title
;
Structure prediction by ZEFSAII (Michael W. Deem and Ramdas Pophale) SiO2 
 PCOD8006218
Probable space group: P -1
;
_chemical_formula_sum "Si O2"
_cell_formula_units_Z 16
_cell_length_a 16.594118
_cell_length_b 16.613283
_cell_length_c 15.805969
_cell_angle_alpha 39.658018
_cell_angle_beta 36.926791
_cell_angle_gamma 17.221087
_cell_volume 774.573936
_symmetry_space_group_name_H-M "P -1"
_symmetry_group_IT_number 2
_symmetry_cell_setting 'triclinic'
loop_
_space_group_symop_operation_xyz
x,y,z
-x,-y,-z
loop_
_atom_site_type_symbol
_atom_site_label
_atom_site_fract_x
_atom_site_fract_y
_atom_site_fract_z
Si Si1 0.788747 0.824847 0.993061
Si Si2 0.142763 0.293026 0.156767
Si Si3 0.063655 0.238537 0.438477
Si Si4 0.056367 0.805776 0.902794
Si Si5 0.683410 0.358636 0.750049
Si Si6 0.398854 0.363367 0.269674
Si Si7 0.118559 0.159912 0.804980
Si Si8 0.364735 0.218053 0.569608
O O1 0.898167 0.603458 0.122050
O O2 0.444719 0.114877 0.055995
O O3 0.886283 0.751879 0.872546
O O4 0.910573 0.845609 0.919839
O O5 0.108211 0.214023 0.320400
O O6 0.843434 0.307968 0.585449
O O7 0.932083 0.478046 0.390339
O O8 0.366585 0.959310 0.455915
O O9 0.387944 0.550705 0.803524
O O10 0.893259 0.073180 0.833950
O O11 0.049430 0.740391 0.050823
O O12 0.599437 0.510614 0.779535
O O13 0.407070 0.232382 0.427316
O O14 0.111461 0.599223 0.264373
O O15 0.688049 0.117123 0.168746
O O16 0.341966 0.086500 0.697576
#
# Coordination Sequence:
#
# PCOD8006218 Si02
#       8
#     2   2   2   2   2   2   2   2
#     4  10  22  39  63  94 123 145 179 243 294 339
#     4  10  20  39  66  94 119 145 185 233 296 352
#     4  11  21  39  63  85 115 158 194 228 288 350
#     4  12  24  40  58  84 119 156 197 235 283 338
#     4  11  25  41  56  79 118 161 199 238 274 334
#     4  11  23  40  57  83 116 152 196 243 292 337
#     4  12  23  36  61  86 112 151 195 246 297 344
#     4  11  22  38  61  89 118 143 189 251 298 341
#
# _framework density 20.656517000000001
#
# number of rings (size 3 to 8) (size 9 to 14) (size 15 to 20)
#    0.000    1.000    0.000    9.000    0.000    3.000 
#    0.000    1.250    0.000    0.000    0.000    0.000 
#    0.000    0.000    0.000    0.000    0.000    0.000 
#
# Total GULP energy -198513.262669 kJ/mol
# GULP energy per Si atom -12407.078917 kJ/mol
# Density = 2.060950 g / cm^3
# Si number density = 20.656517 Si / 1000 Ang^3
#
#
#
# Elastic Constant Matrix: (Units=GPa)
#
#
# Indices 1 2 3 4 5 6 
#
# 1 78.4041 10.6927 61.8210 2.5274 9.2404 -8.6735
# 2 10.6927 84.2831 23.4302 -5.3627 8.6971 -13.5235
# 3 61.8210 23.4302 107.5768 2.0117 5.4330 -6.2748
# 4 2.5274 -5.3627 2.0117 24.0567 -3.8620 -1.0206
# 5 9.2404 8.6971 5.4330 -3.8620 21.7427 -2.2899
# 6 -8.6735 -13.5235 -6.2748 -1.0206 -2.2899 31.1506
#
#
#
# Elastic Compliance Matrix: (Units=1/GPa)
#
#
# Indices 1 2 3 4 5 6 
#
# 1 0.025179 0.002161 -0.014244 -0.002053 -0.007904 0.004432
# 2 0.002161 0.014225 -0.003826 0.002778 -0.004552 0.005763
# 3 -0.014244 -0.003826 0.018078 -0.000497 0.002789 -0.001797
# 4 -0.002053 0.002778 -0.000497 0.043828 0.007940 0.002554
# 5 -0.007904 -0.004552 0.002789 0.007940 0.051934 0.000463
# 6 0.004432 0.005763 -0.001797 0.002554 0.000463 0.035594
#
#
# Mechanical properties :
#
#
# Convention : Reuss Voigt Hill
#
# Bulk Modulus (GPa) = 38.96409 51.35021 45.15715
# Shear Modulus (GPa) = 21.81384 27.01136 24.41260
#
# Velocity S-wave (km/s) = 3.25318 3.62006 3.44151
# Velocity P-wave (km/s) = 5.74584 6.51046 6.14007
#
# Compressibility (1/GPa) = 0.02566466
#
# Stress axis : x y z
#
# Youngs Moduli (GPa) = 39.71533 70.29661 55.31449
#
# Poissons Ratio (x) = -0.15194 0.78792
# Poissons Ratio (y) = -0.08584 0.21165
# Poissons Ratio (z) = 0.56572 0.26898
#
# Static dielectric constant tensor:
#      x y z
#    x 3.647780 -0.019120 0.087860 
#    y -0.019120 3.902670 0.001140 
#    z 0.087860 0.001140 3.707220 
# 
# 
# High freq. dielectric constant tensor:
#      x y z
#    x 1.796780 -0.006710 0.006620 
#    y -0.006710 1.829250 -0.001880 
#    z 0.006620 -0.001880 1.804370 
# 
# From -- ./inp_files/137620.got.cif
#   From: 2010.06.25/outbox.cif.g09.slc.cpg/sg2_69_cif.got.tgz:137620.got - 2010.06.27 13:26:56.
