data_PCOD8006962
_publ_section_title
;
Structure prediction by ZEFSAII (Michael W. Deem and Ramdas Pophale) SiO2 
 PCOD8006962
Probable space group: P -1
;
_chemical_formula_sum "Si O2"
_cell_formula_units_Z 14
_cell_length_a 9.319577
_cell_length_b 16.706455
_cell_length_c 11.668506
_cell_angle_alpha 147.373373
_cell_angle_beta 37.370123
_cell_angle_gamma 128.135960
_cell_volume 587.039828
_symmetry_space_group_name_H-M "P -1"
_symmetry_group_IT_number 2
_symmetry_cell_setting 'triclinic'
loop_
_space_group_symop_operation_xyz
x,y,z
-x,-y,-z
loop_
_atom_site_type_symbol
_atom_site_label
_atom_site_fract_x
_atom_site_fract_y
_atom_site_fract_z
Si Si1 0.016756 0.252584 0.487766
Si Si2 0.189456 0.380599 0.128799
Si Si3 0.705889 0.358257 0.486496
Si Si4 0.250434 0.900092 0.695763
Si Si5 0.198759 0.412862 0.913691
Si Si6 0.580901 0.812754 0.038999
Si Si7 0.953885 0.157127 0.649652
O O1 0.236140 0.230937 0.234485
O O2 0.777897 0.202748 0.521986
O O3 0.081259 0.145265 0.429174
O O4 0.963989 0.425371 0.773132
O O5 0.190665 0.554976 0.367956
O O6 0.331391 0.284113 0.022087
O O7 0.911483 0.354300 0.254819
O O8 0.310114 0.348818 0.889471
O O9 0.683618 0.192121 0.341351
O O10 0.434571 0.430048 0.707095
O O11 0.442800 0.012843 0.695478
O O12 0.000000 0.000000 0.000000
O O13 0.045085 0.292695 0.821024
O O14 0.326012 0.784906 0.122873
O O15 0.000000 0.000000 0.500000
#
# Coordination Sequence:
#
# PCOD8006962 Si02
#       7
#     2   2   2   2   2   2   2
#     4  11  24  46  69  98 137 178 223 281 341 389
#     4  11  22  39  72 105 130 169 230 279 334 393
#     4  11  21  40  66 103 136 168 220 280 336 387
#     4  10  20  40  65  99 131 168 216 276 336 380
#     4  12  26  43  69 103 141 177 220 276 337 405
#     4  11  25  45  72 101 134 176 225 283 336 397
#     4  12  30  47  65 100 137 188 229 264 336 413
#
# _framework density 23.848468
#
# number of rings (size 3 to 8) (size 9 to 14) (size 15 to 20)
#    0.000    0.857    4.286    3.429    4.000    2.857 
#    0.000    0.000    0.000    0.000    0.000    0.000 
#    0.000    0.000    0.000    0.000    0.000    0.000 
#
# Total GULP energy -173495.401681 kJ/mol
# GULP energy per Si atom -12392.528692 kJ/mol
# Density = 2.379419 g / cm^3
# Si number density = 23.848468 Si / 1000 Ang^3
#
#
#
# Elastic Constant Matrix: (Units=GPa)
#
#
# Indices 1 2 3 4 5 6 
#
# 1 99.5668 54.4406 23.0268 -0.5058 -7.7227 -2.1613
# 2 54.4406 110.3804 42.0579 8.5930 -11.8503 2.8322
# 3 23.0268 42.0579 71.7355 8.4343 -8.2909 7.4829
# 4 -0.5058 8.5930 8.4343 43.2505 9.0830 0.1672
# 5 -7.7227 -11.8503 -8.2909 9.0830 27.8409 0.4839
# 6 -2.1613 2.8322 7.4829 0.1672 0.4839 58.4173
#
#
#
# Elastic Compliance Matrix: (Units=1/GPa)
#
#
# Indices 1 2 3 4 5 6 
#
# 1 0.013934 -0.006686 -0.000810 0.001595 0.000241 0.000937
# 2 -0.006686 0.015275 -0.006032 -0.002722 0.003743 -0.000238
# 3 -0.000810 -0.006032 0.018803 -0.003292 0.003919 -0.002169
# 4 0.001595 -0.002722 -0.003292 0.026494 -0.010351 0.000623
# 5 0.000241 0.003743 0.003919 -0.010351 0.042140 -0.000994
# 6 0.000937 -0.000238 -0.002169 0.000623 -0.000994 0.017449
#
#
# Mechanical properties :
#
#
# Convention : Reuss Voigt Hill
#
# Bulk Modulus (GPa) = 47.71947 57.85926 52.78936
# Shear Modulus (GPa) = 29.73773 36.71221 33.22497
#
# Velocity S-wave (km/s) = 3.53504 3.92777 3.73657
# Velocity P-wave (km/s) = 6.05928 6.69953 6.38743
#
# Compressibility (1/GPa) = 0.02095581
#
# Stress axis : x y z
#
# Youngs Moduli (GPa) = 71.76860 65.46478 53.18268
#
# Poissons Ratio (x) = 0.43768 0.04309
# Poissons Ratio (y) = 0.47983 0.32081
# Poissons Ratio (z) = 0.05815 0.39490
#
# Static dielectric constant tensor:
#      x y z
#    x 4.337930 -0.011070 -0.024120 
#    y -0.011070 6.145820 2.013110 
#    z -0.024120 2.013110 7.115950 
# 
# 
# High freq. dielectric constant tensor:
#      x y z
#    x 1.924020 0.002790 -0.007060 
#    y 0.002790 1.971130 0.004890 
#    z -0.007060 0.004890 1.942630 
# 
# From -- ./inp_files/403465.got.cif
#   From: 2010.06.25/outbox.cif.g09.slc.cpg/sg2_202_cif.got.tgz:403465.got - 2010.06.27 13:26:56.
