data_PCOD8006440
_publ_section_title
;
Structure prediction by ZEFSAII (Michael W. Deem and Ramdas Pophale) SiO2 
 PCOD8006440
Probable space group: P -1
;
_chemical_formula_sum "Si O2"
_cell_formula_units_Z 16
_cell_length_a 8.716482
_cell_length_b 15.006407
_cell_length_c 11.637326
_cell_angle_alpha 128.638635
_cell_angle_beta 75.545470
_cell_angle_gamma 63.723890
_cell_volume 703.895850
_symmetry_space_group_name_H-M "P -1"
_symmetry_group_IT_number 2
_symmetry_cell_setting 'triclinic'
loop_
_space_group_symop_operation_xyz
x,y,z
-x,-y,-z
loop_
_atom_site_type_symbol
_atom_site_label
_atom_site_fract_x
_atom_site_fract_y
_atom_site_fract_z
Si Si1 0.290724 0.092647 0.880441
Si Si2 0.733339 0.596407 0.586305
Si Si3 0.291272 0.323155 0.591285
Si Si4 0.147599 0.616723 0.967114
Si Si5 0.521309 0.590573 0.823986
Si Si6 0.838902 0.984991 0.969967
Si Si7 0.290783 0.963914 0.205474
Si Si8 0.946600 0.304979 0.688916
O O1 0.437088 0.896903 0.646194
O O2 0.106948 0.153333 0.068239
O O3 0.475714 0.080571 0.892376
O O4 0.134438 0.236696 0.920289
O O5 0.768682 0.559563 0.413085
O O6 0.675113 0.519859 0.616954
O O7 0.473744 0.820851 0.825798
O O8 0.000000 0.500000 0.500000
O O9 0.065873 0.359588 0.679584
O O10 0.293824 0.410816 0.767335
O O11 0.121258 0.668531 0.144663
O O12 0.290324 0.633512 0.880857
O O13 0.693322 0.434804 0.764292
O O14 0.406051 0.772762 0.044402
O O15 0.911672 0.915501 0.768083
O O16 0.000000 0.000000 0.000000
O O17 0.138395 0.090956 0.450092
#
# Coordination Sequence:
#
# PCOD8006440 Si02
#       8
#     2   2   2   2   2   2   2   2
#     4  10  22  40  64  95 128 171 221 263 328 392
#     4  10  20  39  70  94 126 170 219 268 333 398
#     4  10  23  42  66  94 127 171 217 275 323 392
#     4  12  26  40  64  97 135 175 218 273 324 381
#     4  11  24  42  64  95 132 168 220 274 334 386
#     4  10  21  39  65 100 136 165 212 280 342 392
#     4  10  23  41  69  92 126 177 216 268 324 397
#     4  11  24  43  65  94 128 180 228 258 321 395
#
# _framework density 22.730634999999999
#
# number of rings (size 3 to 8) (size 9 to 14) (size 15 to 20)
#    0.000    1.500    1.250    3.375    1.750    9.000 
#    0.000    0.000    0.000    0.000    0.000    0.000 
#    0.000    0.000    0.000    0.000    0.000    0.000 
#
# Total GULP energy -198322.710232 kJ/mol
# GULP energy per Si atom -12395.169390 kJ/mol
# Density = 2.267890 g / cm^3
# Si number density = 22.730635 Si / 1000 Ang^3
#
#
#
# Elastic Constant Matrix: (Units=GPa)
#
#
# Indices 1 2 3 4 5 6 
#
# 1 110.8499 19.6318 40.8912 -1.0146 4.7384 7.0084
# 2 19.6318 74.2485 4.7742 -6.3809 -13.9909 -6.7969
# 3 40.8912 4.7742 65.8892 -7.8784 -1.0549 7.1870
# 4 -1.0146 -6.3809 -7.8784 35.5928 4.3484 4.8736
# 5 4.7384 -13.9909 -1.0549 4.3484 24.3476 4.0604
# 6 7.0084 -6.7969 7.1870 4.8736 4.0604 27.4647
#
#
#
# Elastic Compliance Matrix: (Units=1/GPa)
#
#
# Indices 1 2 3 4 5 6 
#
# 1 0.012880 -0.004025 -0.007792 -0.001325 -0.004701 -0.001313
# 2 -0.004025 0.016683 0.001289 0.001558 0.009627 0.003118
# 3 -0.007792 0.001289 0.021050 0.004916 0.003046 -0.004523
# 4 -0.001325 0.001558 0.004916 0.030568 -0.003173 -0.005518
# 5 -0.004701 0.009627 0.003046 -0.003173 0.048864 -0.003876
# 6 -0.001313 0.003118 -0.004523 -0.005518 -0.003876 0.040253
#
#
# Mechanical properties :
#
#
# Convention : Reuss Voigt Hill
#
# Bulk Modulus (GPa) = 33.83269 42.39798 38.11534
# Shear Modulus (GPa) = 24.85009 29.86038 27.35524
#
# Velocity S-wave (km/s) = 3.31001 3.62838 3.47284
# Velocity P-wave (km/s) = 5.43366 6.02050 5.73459
#
# Compressibility (1/GPa) = 0.02955721
#
# Stress axis : x y z
#
# Youngs Moduli (GPa) = 77.63735 59.94120 47.50698
#
# Poissons Ratio (x) = 0.24124 0.37020
# Poissons Ratio (y) = 0.31246 -0.06125
# Poissons Ratio (z) = 0.60499 -0.07728
#
# Static dielectric constant tensor:
#      x y z
#    x 3.978030 -0.066440 -0.011670 
#    y -0.066440 4.066020 -0.163790 
#    z -0.011670 -0.163790 4.198970 
# 
# 
# High freq. dielectric constant tensor:
#      x y z
#    x 1.895100 -0.003900 -0.000590 
#    y -0.003900 1.891950 -0.002150 
#    z -0.000590 -0.002150 1.895020 
# 
# From -- ./inp_files/399597.got.cif
#   From: 2010.06.25/outbox.cif.g09.slc.cpg/sg2_200_cif.got.tgz:399597.got - 2010.06.27 13:26:56.
