data_PCOD8006610
_publ_section_title
;
Structure prediction by ZEFSAII (Michael W. Deem and Ramdas Pophale) SiO2 
 PCOD8006610
Probable space group: P -1
;
_chemical_formula_sum "Si O2"
_cell_formula_units_Z 14
_cell_length_a 18.178930
_cell_length_b 11.340931
_cell_length_c 9.428921
_cell_angle_alpha 81.840273
_cell_angle_beta 131.956125
_cell_angle_gamma 136.554816
_cell_volume 736.501419
_symmetry_space_group_name_H-M "P -1"
_symmetry_group_IT_number 2
_symmetry_cell_setting 'triclinic'
loop_
_space_group_symop_operation_xyz
x,y,z
-x,-y,-z
loop_
_atom_site_type_symbol
_atom_site_label
_atom_site_fract_x
_atom_site_fract_y
_atom_site_fract_z
Si Si1 0.025885 0.393031 0.599606
Si Si2 0.787882 0.098169 0.603232
Si Si3 0.790027 0.833606 0.734840
Si Si4 0.463803 0.337132 0.321457
Si Si5 0.378350 0.993995 0.322397
Si Si6 0.541217 0.176253 0.978871
Si Si7 0.307278 0.030389 0.943731
O O1 0.000000 0.500000 0.500000
O O2 0.966429 0.326600 0.699557
O O3 0.241175 0.571395 0.825830
O O4 0.888489 0.167219 0.365163
O O5 0.806518 0.976012 0.654723
O O6 0.790216 0.167404 0.747882
O O7 0.584746 0.921028 0.302255
O O8 0.666063 0.613926 0.516037
O O9 0.682040 0.734167 0.762451
O O10 0.000000 0.000000 0.000000
O O11 0.504612 0.247249 0.458469
O O12 0.354121 0.204089 0.052211
O O13 0.500000 0.000000 0.500000
O O14 0.291798 0.908156 0.064812
O O15 0.487082 0.197209 0.042775
O O16 0.500000 0.000000 0.000000
#
# Coordination Sequence:
#
# PCOD8006610 Si02
#       7
#     2   2   2   2   2   2   2
#     4  11  22  36  58  84 123 166 199 237 294 370
#     4  10  22  38  60  93 117 160 206 244 306 366
#     4  10  20  40  62  87 121 160 203 252 304 353
#     4   8  20  37  58  86 121 154 195 253 301 347
#     4   9  18  35  60  89 122 150 197 251 311 360
#     4  11  20  38  61  80 125 166 194 239 304 364
#     4   9  20  38  57  88 118 158 200 241 303 354
#
# _framework density 19.008787999999999
#
# number of rings (size 3 to 8) (size 9 to 14) (size 15 to 20)
#    0.857    1.429    2.857    0.857    0.000    4.571 
#    0.000    3.571    0.000    5.143    0.000    0.000 
#    0.000    0.000    0.000    0.000    0.000    0.000 
#
# Total GULP energy -173470.177155 kJ/mol
# GULP energy per Si atom -12390.726940 kJ/mol
# Density = 1.896552 g / cm^3
# Si number density = 19.008788 Si / 1000 Ang^3
#
#
#
# Elastic Constant Matrix: (Units=GPa)
#
#
# Indices 1 2 3 4 5 6 
#
# 1 80.6788 31.5028 29.2094 15.6430 7.5991 14.2032
# 2 31.5028 81.7052 20.1882 10.2815 17.8133 15.7032
# 3 29.2094 20.1882 77.1419 18.0663 24.6804 14.5785
# 4 15.6430 10.2815 18.0663 36.1448 0.9223 2.6431
# 5 7.5991 17.8133 24.6804 0.9223 32.4820 -2.8281
# 6 14.2032 15.7032 14.5785 2.6431 -2.8281 46.5546
#
#
#
# Elastic Compliance Matrix: (Units=1/GPa)
#
#
# Indices 1 2 3 4 5 6 
#
# 1 0.016805 -0.005104 -0.004688 -0.003422 0.002387 -0.001598
# 2 -0.005104 0.017401 0.002685 -0.003397 -0.010781 -0.005615
# 3 -0.004688 0.002685 0.023688 -0.009548 -0.018755 -0.007490
# 4 -0.003422 -0.003397 -0.009548 0.034373 0.009273 0.003792
# 5 0.002387 -0.010781 -0.018755 0.009273 0.051116 0.011360
# 6 -0.001598 -0.005615 -0.007490 0.003792 0.011360 0.026682
#
#
# Mechanical properties :
#
#
# Convention : Reuss Voigt Hill
#
# Bulk Modulus (GPa) = 22.89412 44.59185 33.74299
# Shear Modulus (GPa) = 25.14611 33.61131 29.37871
#
# Velocity S-wave (km/s) = 3.64107 4.20956 3.93559
# Velocity P-wave (km/s) = 5.45405 6.86561 6.20013
#
# Compressibility (1/GPa) = 0.04367934
#
# Stress axis : x y z
#
# Youngs Moduli (GPa) = 59.50643 57.46880 42.21607
#
# Poissons Ratio (x) = 0.29331 0.19790
# Poissons Ratio (y) = 0.30371 -0.11333
# Poissons Ratio (z) = 0.27895 -0.15428
#
# Static dielectric constant tensor:
#      x y z
#    x 3.768150 0.283750 0.046100 
#    y 0.283750 3.583100 0.172800 
#    z 0.046100 0.172800 3.490290 
# 
# 
# High freq. dielectric constant tensor:
#      x y z
#    x 1.744500 0.011770 -0.005780 
#    y 0.011770 1.731970 -0.001750 
#    z -0.005780 -0.001750 1.719350 
# 
# From -- ./inp_files/333275.got.cif
#   From: 2010.06.25/outbox.cif.g09.slc.cpg/sg2_167_cif.got.tgz:333275.got - 2010.06.27 13:26:56.
