data_PCOD8006195
_publ_section_title
;
Structure prediction by ZEFSAII (Michael W. Deem and Ramdas Pophale) SiO2 
 PCOD8006195
Probable space group: P -1
;
_chemical_formula_sum "Si O2"
_cell_formula_units_Z 16
_cell_length_a 10.305421
_cell_length_b 9.631601
_cell_length_c 12.701281
_cell_angle_alpha 130.994560
_cell_angle_beta 59.119645
_cell_angle_gamma 125.109819
_cell_volume 759.303403
_symmetry_space_group_name_H-M "P -1"
_symmetry_group_IT_number 2
_symmetry_cell_setting 'triclinic'
loop_
_space_group_symop_operation_xyz
x,y,z
-x,-y,-z
loop_
_atom_site_type_symbol
_atom_site_label
_atom_site_fract_x
_atom_site_fract_y
_atom_site_fract_z
Si Si1 0.780016 0.920154 0.396568
Si Si2 0.056658 0.358937 0.275469
Si Si3 0.478499 0.281264 0.439333
Si Si4 0.997719 0.390364 0.075641
Si Si5 0.746861 0.514031 0.142942
Si Si6 0.255064 0.705070 0.499178
Si Si7 0.533050 0.837640 0.837229
Si Si8 0.099249 0.018266 0.207899
O O1 0.705973 0.846825 0.507262
O O2 0.730393 0.726315 0.246566
O O3 0.711334 0.078253 0.455080
O O4 0.977921 0.006829 0.351588
O O5 0.043704 0.357100 0.155849
O O6 0.213352 0.545699 0.342247
O O7 0.069507 0.151915 0.195470
O O8 0.893590 0.372384 0.396812
O O9 0.500000 0.500000 0.500000
O O10 0.587896 0.289734 0.499653
O O11 0.523493 0.170713 0.265937
O O12 0.865438 0.496843 0.180845
O O13 0.168542 0.527866 0.018896
O O14 0.921698 0.189897 0.939272
O O15 0.564148 0.364767 0.162339
O O16 0.721174 0.872033 0.768456
O O17 0.500000 0.000000 0.000000
#
# Coordination Sequence:
#
# PCOD8006195 Si02
#       8
#     2   2   2   2   2   2   2   2
#     4  10  23  44  66  94 130 172 218 267 326 386
#     4  10  21  39  66  93 128 173 219 260 330 386
#     4  12  24  42  71  93 129 177 214 269 332 383
#     4  10  20  39  66  90 132 172 212 268 327 386
#     4  10  21  40  62  94 131 169 218 268 320 386
#     4  10  23  42  63  97 131 167 217 275 317 392
#     4  12  24  41  64  99 132 168 219 272 325 385
#     4  10  22  41  64  96 134 167 217 270 320 396
#
# _framework density 21.071943999999998
#
# number of rings (size 3 to 8) (size 9 to 14) (size 15 to 20)
#    0.000    1.500    2.500    2.250    0.000    1.500 
#    0.000    0.625    0.000    0.000    0.000    0.000 
#    0.000    0.000    0.000    0.000    0.000    0.000 
#
# Total GULP energy -198299.200504 kJ/mol
# GULP energy per Si atom -12393.700032 kJ/mol
# Density = 2.102398 g / cm^3
# Si number density = 21.071944 Si / 1000 Ang^3
#
#
#
# Elastic Constant Matrix: (Units=GPa)
#
#
# Indices 1 2 3 4 5 6 
#
# 1 68.6895 55.7221 19.9846 -7.1835 -5.6403 8.9781
# 2 55.7221 154.4078 45.8533 -13.1247 -4.1519 2.8417
# 3 19.9846 45.8533 83.0641 -7.5107 0.8158 1.1690
# 4 -7.1835 -13.1247 -7.5107 33.9995 -4.0144 -7.8404
# 5 -5.6403 -4.1519 0.8158 -4.0144 25.4140 0.4473
# 6 8.9781 2.8417 1.1690 -7.8404 0.4473 33.9999
#
#
#
# Elastic Compliance Matrix: (Units=1/GPa)
#
#
# Indices 1 2 3 4 5 6 
#
# 1 0.021857 -0.007281 -0.001129 0.000874 0.003923 -0.004974
# 2 -0.007281 0.010401 -0.003831 0.002072 0.000504 0.001656
# 3 -0.001129 -0.003831 0.014563 0.001477 -0.001119 0.000473
# 4 0.000874 0.002072 0.001477 0.033015 0.005575 0.007085
# 5 0.003923 0.000504 -0.001119 0.005575 0.041223 -0.000296
# 6 -0.004974 0.001656 0.000473 0.007085 -0.000296 0.032208
#
#
# Mechanical properties :
#
#
# Convention : Reuss Voigt Hill
#
# Bulk Modulus (GPa) = 44.76345 61.03126 52.89735
# Shear Modulus (GPa) = 26.99860 30.98943 28.99402
#
# Velocity S-wave (km/s) = 3.58335 3.83906 3.71341
# Velocity P-wave (km/s) = 6.19756 6.97692 6.59876
#
# Compressibility (1/GPa) = 0.02233965
#
# Stress axis : x y z
#
# Youngs Moduli (GPa) = 45.75195 96.14783 68.66776
#
# Poissons Ratio (x) = 0.70006 0.07751
# Poissons Ratio (y) = 0.33313 0.26303
# Poissons Ratio (z) = 0.05164 0.36830
#
# Static dielectric constant tensor:
#      x y z
#    x 3.821700 0.283490 -0.141920 
#    y 0.283490 4.279480 -0.044560 
#    z -0.141920 -0.044560 3.801790 
# 
# 
# High freq. dielectric constant tensor:
#      x y z
#    x 1.808690 0.004970 -0.019280 
#    y 0.004970 1.846910 -0.003550 
#    z -0.019280 -0.003550 1.818310 
# 
# From -- ./inp_files/270489.got.cif
#   From: 2010.06.25/outbox.cif.g09.slc.cpg/sg2_136_cif.got.tgz:270489.got - 2010.06.27 13:26:56.
