data_PCOD8006447
_publ_section_title
;
Structure prediction by ZEFSAII (Michael W. Deem and Ramdas Pophale) SiO2 
 PCOD8006447
Probable space group: P -1
;
_chemical_formula_sum "Si O2"
_cell_formula_units_Z 14
_cell_length_a 11.719777
_cell_length_b 11.437011
_cell_length_c 10.854296
_cell_angle_alpha 100.762370
_cell_angle_beta 75.867774
_cell_angle_gamma 36.267721
_cell_volume 620.574112
_symmetry_space_group_name_H-M "P -1"
_symmetry_group_IT_number 2
_symmetry_cell_setting 'triclinic'
loop_
_space_group_symop_operation_xyz
x,y,z
-x,-y,-z
loop_
_atom_site_type_symbol
_atom_site_label
_atom_site_fract_x
_atom_site_fract_y
_atom_site_fract_z
Si Si1 0.273449 0.607438 0.578724
Si Si2 0.244026 0.884799 0.060701
Si Si3 0.592728 0.779591 0.580961
Si Si4 0.381196 0.633076 0.215705
Si Si5 0.866279 0.727035 0.356517
Si Si6 0.436027 0.183075 0.111390
Si Si7 0.926823 0.913433 0.485158
O O1 0.500000 0.500000 0.500000
O O2 0.402565 0.359258 0.499696
O O3 0.094536 0.773290 0.537722
O O4 0.071228 0.820563 0.786338
O O5 0.398603 0.704087 0.107682
O O6 0.350636 0.687016 0.896937
O O7 0.336378 0.931438 0.005251
O O8 0.827228 0.640490 0.426113
O O9 0.612991 0.771479 0.720308
O O10 0.323139 0.089140 0.674479
O O11 0.126984 0.773495 0.296160
O O12 0.324537 0.769028 0.376570
O O13 0.161604 0.468592 0.177548
O O14 0.813258 0.885092 0.493923
O O15 0.500000 0.000000 0.000000
#
# Coordination Sequence:
#
# PCOD8006447 Si02
#       7
#     2   2   2   2   2   2   2
#     4  11  24  41  68  99 139 180 231 285 341 412
#     4  10  21  39  62 101 133 175 225 280 351 392
#     4  11  26  44  69 105 134 180 241 277 336 420
#     4   9  19  34  64  99 126 165 238 265 327 419
#     4  11  24  45  73  97 137 186 233 280 337 413
#     4  12  25  44  73  97 140 180 225 292 349 407
#     4  10  20  39  70  95 131 190 224 274 352 399
#
# _framework density 22.559757000000001
#
# number of rings (size 3 to 8) (size 9 to 14) (size 15 to 20)
#    0.000    1.429    2.857    1.286   10.000    0.571 
#    0.000    4.286    6.286    0.000    0.000    0.000 
#    0.000    0.000    0.000    0.000    0.000    0.000 
#
# Total GULP energy -173491.636496 kJ/mol
# GULP energy per Si atom -12392.259750 kJ/mol
# Density = 2.250841 g / cm^3
# Si number density = 22.559757 Si / 1000 Ang^3
#
#
#
# Elastic Constant Matrix: (Units=GPa)
#
#
# Indices 1 2 3 4 5 6 
#
# 1 133.6890 24.9519 43.2326 13.5102 1.1794 30.6672
# 2 24.9519 59.6256 36.8354 9.5902 -2.6996 16.7900
# 3 43.2326 36.8354 132.9045 33.9348 -1.8346 15.4204
# 4 13.5102 9.5902 33.9348 35.6488 8.1280 0.3559
# 5 1.1794 -2.6996 -1.8346 8.1280 40.3461 5.4181
# 6 30.6672 16.7900 15.4204 0.3559 5.4181 41.1061
#
#
#
# Elastic Compliance Matrix: (Units=1/GPa)
#
#
# Indices 1 2 3 4 5 6 
#
# 1 0.009872 -0.000910 -0.001681 -0.002025 0.000849 -0.006457
# 2 -0.000910 0.022393 -0.004579 -0.001851 0.002641 -0.007081
# 3 -0.001681 -0.004579 0.012214 -0.010336 0.002610 -0.001712
# 4 -0.002025 -0.001851 -0.010336 0.041322 -0.009810 0.007080
# 5 0.000849 0.002641 0.002610 -0.009810 0.027876 -0.006281
# 6 -0.006457 -0.007081 -0.001712 0.007080 -0.006281 0.033446
#
#
# Mechanical properties :
#
#
# Convention : Reuss Voigt Hill
#
# Bulk Modulus (GPa) = 33.18151 59.58430 46.38290
# Shear Modulus (GPa) = 29.15306 38.16683 33.65994
#
# Velocity S-wave (km/s) = 3.59870 4.11762 3.86688
# Velocity P-wave (km/s) = 5.65754 7.00539 6.36723
#
# Compressibility (1/GPa) = 0.03013727
#
# Stress axis : x y z
#
# Youngs Moduli (GPa) = 101.29792 44.65742 81.87400
#
# Poissons Ratio (x) = 0.04065 0.13762
# Poissons Ratio (y) = 0.09221 0.37494
# Poissons Ratio (z) = 0.17027 0.20451
#
# Static dielectric constant tensor:
#      x y z
#    x 4.114110 0.318110 0.006790 
#    y 0.318110 4.094140 0.247450 
#    z 0.006790 0.247450 4.606510 
# 
# 
# High freq. dielectric constant tensor:
#      x y z
#    x 1.887940 0.026280 -0.002800 
#    y 0.026280 1.884580 0.012780 
#    z -0.002800 0.012780 1.894050 
# 
# From -- ./inp_files/426162.got.cif
#   From: 2010.06.25/outbox.cif.g09.slc.cpg/sg2_214_cif.got.tgz:426162.got - 2010.06.27 13:26:56.
