data_PCOD8006914
_publ_section_title
;
Structure prediction by ZEFSAII (Michael W. Deem and Ramdas Pophale) SiO2 
 PCOD8006914
Probable space group: P -1
;
_chemical_formula_sum "Si O2"
_cell_formula_units_Z 16
_cell_length_a 21.319324
_cell_length_b 9.117589
_cell_length_c 13.128654
_cell_angle_alpha 37.007496
_cell_angle_beta 35.053311
_cell_angle_gamma 62.232412
_cell_volume 740.654605
_symmetry_space_group_name_H-M "P -1"
_symmetry_group_IT_number 2
_symmetry_cell_setting 'triclinic'
loop_
_space_group_symop_operation_xyz
x,y,z
-x,-y,-z
loop_
_atom_site_type_symbol
_atom_site_label
_atom_site_fract_x
_atom_site_fract_y
_atom_site_fract_z
Si Si1 0.532690 0.294509 0.008434
Si Si2 0.763098 0.871514 0.340370
Si Si3 0.114610 0.778607 0.825872
Si Si4 0.427914 0.909934 0.540043
Si Si5 0.377800 0.355925 0.819737
Si Si6 0.141198 0.313472 0.851883
Si Si7 0.120026 0.227882 0.148166
Si Si8 0.675617 0.045831 0.702835
O O1 0.677510 0.518514 0.652899
O O2 0.500000 0.500000 0.000000
O O3 0.440838 0.113696 0.135805
O O4 0.525368 0.071217 0.225382
O O5 0.850437 0.917521 0.100895
O O6 0.848192 0.987704 0.264537
O O7 0.684401 0.024326 0.344089
O O8 0.200896 0.942805 0.519214
O O9 0.149089 0.550109 0.947415
O O10 0.962097 0.617674 0.094287
O O11 0.373932 0.575602 0.781746
O O12 0.500000 0.000000 0.500000
O O13 0.500000 0.500000 0.500000
O O14 0.245778 0.213872 0.010062
O O15 0.372898 0.115691 0.034071
O O16 0.278116 0.619289 0.523275
O O17 0.082235 0.136222 0.132435
O O18 0.000000 0.000000 0.500000
#
# Coordination Sequence:
#
# PCOD8006914 Si02
#       8
#     2   2   2   2   2   2   2   2
#     4  10  20  40  65  92 125 179 215 261 330 407
#     4  11  23  42  66  97 135 170 222 274 330 404
#     4  11  21  46  68  93 129 181 230 263 336 409
#     4  11  23  42  63  94 137 174 210 265 351 402
#     4  12  26  40  66 103 136 171 223 289 335 390
#     4  11  25  40  71  99 126 176 234 278 321 404
#     4  11  23  46  68  94 138 176 225 278 344 400
#     4  11  22  43  69  95 130 178 224 272 335 399
#
# _framework density 21.602512000000001
#
# number of rings (size 3 to 8) (size 9 to 14) (size 15 to 20)
#    0.000    1.000    3.750    5.625    5.250    0.500 
#    0.000    0.625    0.000    0.000    0.000    0.000 
#    0.000    0.000    0.000    0.000    0.000    0.000 
#
# Total GULP energy -198307.572792 kJ/mol
# GULP energy per Si atom -12394.223300 kJ/mol
# Density = 2.155334 g / cm^3
# Si number density = 21.602512 Si / 1000 Ang^3
#
#
#
# Elastic Constant Matrix: (Units=GPa)
#
#
# Indices 1 2 3 4 5 6 
#
# 1 131.8896 27.3402 48.4805 10.3600 3.2897 18.3775
# 2 27.3402 94.8820 30.4397 19.1676 2.4868 23.6434
# 3 48.4805 30.4397 120.3965 16.6411 10.2205 7.1851
# 4 10.3600 19.1676 16.6411 25.5134 4.9216 1.8023
# 5 3.2897 2.4868 10.2205 4.9216 41.0503 -1.0423
# 6 18.3775 23.6434 7.1851 1.8023 -1.0423 33.8801
#
#
#
# Elastic Compliance Matrix: (Units=1/GPa)
#
#
# Indices 1 2 3 4 5 6 
#
# 1 0.009561 -0.000436 -0.003353 -0.001101 0.000123 -0.004108
# 2 -0.000436 0.015663 -0.001894 -0.009758 0.000480 -0.009758
# 3 -0.003353 -0.001894 0.010776 -0.003969 -0.001798 0.001011
# 4 -0.001101 -0.009758 -0.003969 0.049984 -0.004186 0.005461
# 5 0.000123 0.000480 -0.001798 -0.004186 0.025296 0.000981
# 6 -0.004108 -0.009758 0.001011 0.005461 0.000981 0.038079
#
#
# Mechanical properties :
#
#
# Convention : Reuss Voigt Hill
#
# Bulk Modulus (GPa) = 40.59513 62.18765 51.39139
# Shear Modulus (GPa) = 29.59708 36.14928 32.87318
#
# Velocity S-wave (km/s) = 3.70547 4.09514 3.90517
# Velocity P-wave (km/s) = 6.09426 7.15611 6.64642
#
# Compressibility (1/GPa) = 0.02463350
#
# Stress axis : x y z
#
# Youngs Moduli (GPa) = 104.59394 63.84420 92.80227
#
# Poissons Ratio (x) = 0.02787 0.31113
# Poissons Ratio (y) = 0.04565 0.17576
# Poissons Ratio (z) = 0.35066 0.12092
#
# Static dielectric constant tensor:
#      x y z
#    x 4.140480 0.134740 0.083430 
#    y 0.134740 3.930590 0.095450 
#    z 0.083430 0.095450 4.309070 
# 
# 
# High freq. dielectric constant tensor:
#      x y z
#    x 1.849400 0.021880 0.000060 
#    y 0.021880 1.851700 0.006480 
#    z 0.000060 0.006480 1.844810 
# 
# From -- ./inp_files/469760.got.cif
#   From: 2010.06.25/outbox.cif.g09.slc.cpg/sg2_235_cif.got.tgz:469760.got - 2010.06.27 13:26:56.
