data_PCOD8006883
_publ_section_title
;
Structure prediction by ZEFSAII (Michael W. Deem and Ramdas Pophale) SiO2 
 PCOD8006883
Probable space group: P -1
;
_chemical_formula_sum "Si O2"
_cell_formula_units_Z 14
_cell_length_a 17.278521
_cell_length_b 15.985845
_cell_length_c 9.277122
_cell_angle_alpha 66.878890
_cell_angle_beta 48.278854
_cell_angle_gamma 26.983612
_cell_volume 699.608013
_symmetry_space_group_name_H-M "P -1"
_symmetry_group_IT_number 2
_symmetry_cell_setting 'triclinic'
loop_
_space_group_symop_operation_xyz
x,y,z
-x,-y,-z
loop_
_atom_site_type_symbol
_atom_site_label
_atom_site_fract_x
_atom_site_fract_y
_atom_site_fract_z
Si Si1 0.416047 0.669746 0.490878
Si Si2 0.391225 0.986295 0.616415
Si Si3 0.229764 0.563835 0.561354
Si Si4 0.784216 0.500006 0.969002
Si Si5 0.424334 0.324018 0.204628
Si Si6 0.779998 0.606910 0.167529
Si Si7 0.039598 0.031463 0.296917
O O1 0.500000 0.500000 0.500000
O O2 0.479565 0.662377 0.573204
O O3 0.107135 0.908973 0.685898
O O4 0.576096 0.592033 0.217244
O O5 0.485521 0.844947 0.725944
O O6 0.511560 0.851127 0.410684
O O7 0.500000 0.000000 0.500000
O O8 0.081534 0.229650 0.812762
O O9 0.246792 0.526140 0.397242
O O10 0.097697 0.585831 0.793184
O O11 0.066830 0.783921 0.650979
O O12 0.739980 0.560423 0.815619
O O13 0.732122 0.633656 0.037191
O O14 0.665036 0.196152 0.961433
O O15 0.000000 0.500000 0.000000
O O16 0.000000 0.000000 0.500000
#
# Coordination Sequence:
#
# PCOD8006883 Si02
#       7
#     2   2   2   2   2   2   2
#     4   9  18  38  61  85 122 167 200 251 312 360
#     4  11  23  41  65  90 124 167 205 257 319 365
#     4   9  22  39  60  90 127 159 210 260 302 379
#     4  11  22  41  63  91 127 162 212 258 306 377
#     4  11  24  41  63  95 127 161 213 262 302 374
#     4  10  20  40  65  89 121 167 205 255 317 367
#     4  11  21  39  63  91 126 164 203 257 314 360
#
# _framework density 20.011206999999999
#
# number of rings (size 3 to 8) (size 9 to 14) (size 15 to 20)
#    0.000    1.714    2.857    2.571    0.000    2.857 
#    2.571    0.714    0.000    0.000    0.000    0.000 
#    0.000    0.000    0.000    0.000    0.000    0.000 
#
# Total GULP energy -173434.230409 kJ/mol
# GULP energy per Si atom -12388.159315 kJ/mol
# Density = 1.996566 g / cm^3
# Si number density = 20.011207 Si / 1000 Ang^3
#
#
#
# Elastic Constant Matrix: (Units=GPa)
#
#
# Indices 1 2 3 4 5 6 
#
# 1 135.1992 41.9072 43.1155 -15.1630 5.2195 -12.0513
# 2 41.9072 72.4601 18.9799 -7.8831 4.3077 -8.3086
# 3 43.1155 18.9799 73.5645 -1.8396 2.9396 -7.6420
# 4 -15.1630 -7.8831 -1.8396 30.6765 -1.3344 0.9766
# 5 5.2195 4.3077 2.9396 -1.3344 47.4475 -10.8111
# 6 -12.0513 -8.3086 -7.6420 0.9766 -10.8111 38.3880
#
#
#
# Elastic Compliance Matrix: (Units=1/GPa)
#
#
# Indices 1 2 3 4 5 6 
#
# 1 0.010932 -0.004420 -0.005025 0.003920 -0.000071 0.001355
# 2 -0.004420 0.017240 -0.001595 0.002069 -0.000505 0.001831
# 3 -0.005025 -0.001595 0.017061 -0.001922 -0.000071 0.001502
# 4 0.003920 0.002069 -0.001922 0.034961 0.000615 0.000580
# 5 -0.000071 -0.000505 -0.000071 0.000615 0.022562 0.006193
# 6 0.001355 0.001831 0.001502 0.000580 0.006193 0.028900
#
#
# Mechanical properties :
#
#
# Convention : Reuss Voigt Hill
#
# Bulk Modulus (GPa) = 43.19230 54.35876 48.77553
# Shear Modulus (GPa) = 30.96820 35.11716 33.04268
#
# Velocity S-wave (km/s) = 3.93815 4.19367 4.06791
# Velocity P-wave (km/s) = 6.50458 7.11844 6.81843
#
# Compressibility (1/GPa) = 0.02315227
#
# Stress axis : x y z
#
# Youngs Moduli (GPa) = 91.47093 58.00407 58.61255
#
# Poissons Ratio (x) = 0.25640 0.29454
# Poissons Ratio (y) = 0.40433 0.09349
# Poissons Ratio (z) = 0.45967 0.09252
#
# Static dielectric constant tensor:
#      x y z
#    x 3.608370 0.194110 0.554690 
#    y 0.194110 3.180940 -0.767200 
#    z 0.554690 -0.767200 2.822900 
# 
# 
# High freq. dielectric constant tensor:
#      x y z
#    x 1.797290 0.001610 -0.007460 
#    y 0.001610 1.766860 -0.010970 
#    z -0.007460 -0.010970 1.781790 
# 
# From -- ./inp_files/220424.got.cif
#   From: 2010.06.25/outbox.cif.g09.slc.cpg/sg2_111_cif.got.tgz:220424.got - 2010.06.27 13:26:56.
