data_PCOD8006051
_publ_section_title
;
Structure prediction by ZEFSAII (Michael W. Deem and Ramdas Pophale) SiO2 
 PCOD8006051
Probable space group: P -1
;
_chemical_formula_sum "Si O2"
_cell_formula_units_Z 16
_cell_length_a 12.076703
_cell_length_b 10.030025
_cell_length_c 15.543353
_cell_angle_alpha 79.919738
_cell_angle_beta 154.478500
_cell_angle_gamma 89.826922
_cell_volume 738.928949
_symmetry_space_group_name_H-M "P -1"
_symmetry_group_IT_number 2
_symmetry_cell_setting 'triclinic'
loop_
_space_group_symop_operation_xyz
x,y,z
-x,-y,-z
loop_
_atom_site_type_symbol
_atom_site_label
_atom_site_fract_x
_atom_site_fract_y
_atom_site_fract_z
Si Si1 0.288506 0.365983 0.737114
Si Si2 0.894212 0.613061 0.839392
Si Si3 0.269394 0.226863 0.921195
Si Si4 0.069859 0.098452 0.158125
Si Si5 0.595553 0.996046 0.432101
Si Si6 0.639334 0.294508 0.458259
Si Si7 0.629760 0.546300 0.915342
Si Si8 0.513274 0.081449 0.812555
O O1 0.285401 0.276856 0.830237
O O2 0.519595 0.436478 0.900985
O O3 0.368099 0.241625 0.733402
O O4 0.000000 0.500000 0.500000
O O5 0.009688 0.733661 0.940238
O O6 0.557653 0.665564 0.598383
O O7 0.000000 0.500000 0.000000
O O8 0.039312 0.541360 0.859601
O O9 0.945906 0.264815 0.710920
O O10 0.402795 0.312205 0.067590
O O11 0.447347 0.052659 0.078428
O O12 0.304458 0.998434 0.267908
O O13 0.168821 0.095362 0.326620
O O14 0.811755 0.050386 0.982587
O O15 0.605097 0.154475 0.408391
O O16 0.668339 0.921723 0.397769
O O17 0.542285 0.413646 0.299836
#
# Coordination Sequence:
#
# PCOD8006051 Si02
#       8
#     2   2   2   2   2   2   2   2
#     4  12  27  48  67  94 136 177 233 288 321 392
#     4   9  20  38  66  96 136 175 206 270 332 400
#     4  12  25  43  71  97 130 181 227 279 335 386
#     4  10  20  39  65 100 138 166 214 267 328 404
#     4  10  21  39  67 101 135 171 209 268 336 404
#     4  10  20  41  65 101 139 163 219 276 329 401
#     4  11  22  45  68  93 134 181 222 273 338 393
#     4  12  24  44  69  98 132 179 223 274 340 391
#
# _framework density 21.65296
#
# number of rings (size 3 to 8) (size 9 to 14) (size 15 to 20)
#    0.000    1.250    5.000    1.125    0.000    1.500 
#    2.250    1.250    0.000    0.000    0.000    0.000 
#    0.000    0.000    0.000    0.000    0.000    0.000 
#
# Total GULP energy -198270.014038 kJ/mol
# GULP energy per Si atom -12391.875877 kJ/mol
# Density = 2.160368 g / cm^3
# Si number density = 21.652960 Si / 1000 Ang^3
#
#
#
# Elastic Constant Matrix: (Units=GPa)
#
#
# Indices 1 2 3 4 5 6 
#
# 1 89.5092 37.9834 39.6829 1.4694 1.4008 10.1345
# 2 37.9834 106.4031 36.2194 -9.0968 0.2133 4.7483
# 3 39.6829 36.2194 68.6867 -1.4185 -2.8874 -6.7052
# 4 1.4694 -9.0968 -1.4185 24.4494 3.0348 -0.3878
# 5 1.4008 0.2133 -2.8874 3.0348 31.1297 -0.2025
# 6 10.1345 4.7483 -6.7052 -0.3878 -0.2025 37.8991
#
#
#
# Elastic Compliance Matrix: (Units=1/GPa)
#
#
# Indices 1 2 3 4 5 6 
#
# 1 0.017175 -0.003023 -0.009010 -0.002602 -0.001372 -0.005842
# 2 -0.003023 0.012665 -0.005031 0.004686 -0.000885 -0.001625
# 3 -0.009010 -0.005031 0.023224 -0.000199 0.002660 0.007161
# 4 -0.002602 0.004686 -0.000199 0.043312 -0.004153 0.000494
# 5 -0.001372 -0.000885 0.002660 -0.004153 0.032850 0.001081
# 6 -0.005842 -0.001625 0.007161 0.000494 0.001081 0.029429
#
#
# Mechanical properties :
#
#
# Convention : Reuss Voigt Hill
#
# Bulk Modulus (GPa) = 52.81092 54.70782 53.75937
# Shear Modulus (GPa) = 25.11350 28.74322 26.92836
#
# Velocity S-wave (km/s) = 3.40930 3.64737 3.53035
# Velocity P-wave (km/s) = 6.31985 6.56189 6.44200
#
# Compressibility (1/GPa) = 0.01893548
#
# Stress axis : x y z
#
# Youngs Moduli (GPa) = 58.22365 78.95908 43.05880
#
# Poissons Ratio (x) = 0.23869 0.38798
# Poissons Ratio (y) = 0.17601 0.21662
# Poissons Ratio (z) = 0.52462 0.39723
#
# Static dielectric constant tensor:
#      x y z
#    x 4.148050 0.424340 0.233370 
#    y 0.424340 3.895320 -0.006070 
#    z 0.233370 -0.006070 3.812410 
# 
# 
# High freq. dielectric constant tensor:
#      x y z
#    x 1.852890 0.018840 0.002650 
#    y 0.018840 1.858560 -0.012610 
#    z 0.002650 -0.012610 1.831280 
# 
# From -- ./inp_files/515560.got.cif
#   From: 2010.06.25/outbox.cif.g09.slc.cpg/sg2_258_cif.got.tgz:515560.got - 2010.06.27 13:26:56.
