data_PCOD8006897
_publ_section_title
;
Structure prediction by ZEFSAII (Michael W. Deem and Ramdas Pophale) SiO2 
 PCOD8006897
Probable space group: P -1
;
_chemical_formula_sum "Si O2"
_cell_formula_units_Z 14
_cell_length_a 8.868032
_cell_length_b 12.247320
_cell_length_c 18.495202
_cell_angle_alpha 140.903322
_cell_angle_beta 149.191356
_cell_angle_gamma 47.157235
_cell_volume 648.251226
_symmetry_space_group_name_H-M "P -1"
_symmetry_group_IT_number 2
_symmetry_cell_setting 'triclinic'
loop_
_space_group_symop_operation_xyz
x,y,z
-x,-y,-z
loop_
_atom_site_type_symbol
_atom_site_label
_atom_site_fract_x
_atom_site_fract_y
_atom_site_fract_z
Si Si1 0.274515 0.152232 0.508813
Si Si2 0.822696 0.840335 0.868111
Si Si3 0.122747 0.514864 0.904722
Si Si4 0.524214 0.470381 0.699394
Si Si5 0.273858 0.410680 0.412005
Si Si6 0.270658 0.369684 0.744758
Si Si7 0.378354 0.861516 0.822646
O O1 0.405915 0.340280 0.642725
O O2 0.251834 0.177894 0.600454
O O3 0.968827 0.112009 0.323082
O O4 0.500000 0.000000 0.500000
O O5 0.724726 0.781743 0.718138
O O6 0.544647 0.886899 0.828399
O O7 0.021954 0.691261 0.912628
O O8 0.000000 0.000000 0.000000
O O9 0.187865 0.365176 0.793912
O O10 0.877871 0.450772 0.826471
O O11 0.406861 0.550861 0.088238
O O12 0.379463 0.405528 0.533615
O O13 0.431442 0.670359 0.780295
O O14 0.500000 0.500000 0.500000
O O15 0.954257 0.504796 0.327377
O O16 0.500000 0.000000 0.000000
#
# Coordination Sequence:
#
# PCOD8006897 Si02
#       7
#     2   2   2   2   2   2   2
#     4  12  28  44  61  98 139 176 214 266 329 392
#     4  10  22  38  66  98 124 162 214 276 320 381
#     4   9  21  40  67  95 120 166 221 275 319 380
#     4  11  23  44  71  91 127 180 218 271 322 389
#     4  11  18  40  70  93 120 165 229 265 322 387
#     4  10  20  40  65  90 129 162 217 269 325 377
#     4  11  25  44  65  96 133 169 219 265 322 393
#
# _framework density 21.596565999999999
#
# number of rings (size 3 to 8) (size 9 to 14) (size 15 to 20)
#    0.000    1.429    5.714    0.429    6.000    1.714 
#    7.714    0.714    0.000    0.000    0.000    0.000 
#    0.000    0.000    0.000    0.000    0.000    0.000 
#
# Total GULP energy -173496.599788 kJ/mol
# GULP energy per Si atom -12392.614271 kJ/mol
# Density = 2.154741 g / cm^3
# Si number density = 21.596566 Si / 1000 Ang^3
#
#
#
# Elastic Constant Matrix: (Units=GPa)
#
#
# Indices 1 2 3 4 5 6 
#
# 1 80.3748 51.9681 50.3660 8.1887 4.7545 -31.6295
# 2 51.9681 73.5829 56.8907 13.6092 7.3655 -22.1932
# 3 50.3660 56.8907 163.6584 4.5263 -2.0754 -30.8746
# 4 8.1887 13.6092 4.5263 48.0685 -12.1780 6.3681
# 5 4.7545 7.3655 -2.0754 -12.1780 54.1235 8.6237
# 6 -31.6295 -22.1932 -30.8746 6.3681 8.6237 40.9225
#
#
#
# Elastic Compliance Matrix: (Units=1/GPa)
#
#
# Indices 1 2 3 4 5 6 
#
# 1 0.028617 -0.013540 -0.001136 -0.004006 -0.004070 0.015399
# 2 -0.013540 0.030863 -0.005561 -0.007960 -0.005736 0.004525
# 3 -0.001136 -0.005561 0.008840 0.000868 0.001004 0.002429
# 4 -0.004006 -0.007960 0.000868 0.027898 0.009845 -0.013174
# 5 -0.004070 -0.005736 0.001004 0.009845 0.023787 -0.012044
# 6 0.015399 0.004525 0.002429 -0.013174 -0.012044 0.045214
#
#
# Mechanical properties :
#
#
# Convention : Reuss Voigt Hill
#
# Bulk Modulus (GPa) = 35.91014 70.67398 53.29206
# Shear Modulus (GPa) = 23.25883 39.18230 31.22056
#
# Velocity S-wave (km/s) = 3.28528 4.26406 3.80626
# Velocity P-wave (km/s) = 5.57266 7.55239 6.63676
#
# Compressibility (1/GPa) = 0.02784729
#
# Stress axis : x y z
#
# Youngs Moduli (GPa) = 34.94464 32.40140 113.12433
#
# Poissons Ratio (x) = 0.43870 0.12850
# Poissons Ratio (y) = 0.47313 0.62904
# Poissons Ratio (z) = 0.03969 0.18017
#
# Static dielectric constant tensor:
#      x y z
#    x 4.902370 0.044450 -0.753800 
#    y 0.044450 3.820600 -0.379320 
#    z -0.753800 -0.379320 4.926560 
# 
# 
# High freq. dielectric constant tensor:
#      x y z
#    x 1.863410 -0.027800 -0.004860 
#    y -0.027800 1.810210 -0.005770 
#    z -0.004860 -0.005770 1.872860 
# 
# From -- ./inp_files/560083.got.cif
#   From: 2010.06.25/outbox.cif.g09.slc.cpg/sg2_281_cif.got.tgz:560083.got - 2010.06.27 13:26:56.
