data_PCOD8006790
_publ_section_title
;
Structure prediction by ZEFSAII (Michael W. Deem and Ramdas Pophale) SiO2 
 PCOD8006790
Probable space group: P -1
;
_chemical_formula_sum "Si O2"
_cell_formula_units_Z 16
_cell_length_a 8.997106
_cell_length_b 16.042220
_cell_length_c 8.271710
_cell_angle_alpha 115.215309
_cell_angle_beta 130.594242
_cell_angle_gamma 93.837132
_cell_volume 709.852642
_symmetry_space_group_name_H-M "P -1"
_symmetry_group_IT_number 2
_symmetry_cell_setting 'triclinic'
loop_
_space_group_symop_operation_xyz
x,y,z
-x,-y,-z
loop_
_atom_site_type_symbol
_atom_site_label
_atom_site_fract_x
_atom_site_fract_y
_atom_site_fract_z
Si Si1 0.837977 0.854631 0.603623
Si Si2 0.225537 0.640607 0.573559
Si Si3 0.991118 0.706014 0.699326
Si Si4 0.271526 0.889114 0.268264
Si Si5 0.080660 0.742224 0.294899
Si Si6 0.235799 0.444145 0.301438
Si Si7 0.838116 0.916121 0.992985
Si Si8 0.296103 0.200400 0.873800
O O1 0.700474 0.852322 0.341513
O O2 0.862954 0.749824 0.532157
O O3 0.712397 0.858063 0.685720
O O4 0.089349 0.959839 0.862548
O O5 0.053989 0.627398 0.584676
O O6 0.223000 0.727196 0.523220
O O7 0.151732 0.527664 0.348084
O O8 0.478121 0.685829 0.858307
O O9 0.813586 0.637317 0.655013
O O10 0.219502 0.807039 0.015364
O O11 0.271324 0.826567 0.378260
O O12 0.066942 0.911601 0.155044
O O13 0.500000 0.000000 0.500000
O O14 0.926513 0.789766 0.285784
O O15 0.913217 0.624746 0.010168
O O16 0.500000 0.500000 0.500000
O O17 0.703949 0.866556 0.023886
#
# Coordination Sequence:
#
# PCOD8006790 Si02
#       8
#     2   2   2   2   2   2   2   2
#     4  10  20  40  64  89 134 175 220 272 326 385
#     4  12  24  41  68  96 131 170 220 276 344 388
#     4  10  23  42  64  96 133 163 223 282 320 404
#     4   9  20  39  62  92 134 173 214 268 327 390
#     4  10  22  44  65  96 130 170 222 275 323 405
#     4  11  23  46  70  92 128 174 221 280 343 397
#     4   9  21  38  64  92 135 182 225 265 322 402
#     4  11  22  41  65  98 136 175 219 272 333 396
#
# _framework density 22.539888999999999
#
# number of rings (size 3 to 8) (size 9 to 14) (size 15 to 20)
#    0.000    1.750    2.500    1.875    1.750    3.000 
#    2.250    5.000    0.000    0.000    0.000    0.000 
#    0.000    0.000    0.000    0.000    0.000    0.000 
#
# Total GULP energy -198293.986157 kJ/mol
# GULP energy per Si atom -12393.374135 kJ/mol
# Density = 2.248859 g / cm^3
# Si number density = 22.539889 Si / 1000 Ang^3
#
#
#
# Elastic Constant Matrix: (Units=GPa)
#
#
# Indices 1 2 3 4 5 6 
#
# 1 69.5775 28.5425 42.3746 -4.3206 -7.6550 12.6378
# 2 28.5425 87.7231 21.7299 4.5033 -8.5674 10.8286
# 3 42.3746 21.7299 90.2617 4.1837 -13.0584 24.4590
# 4 -4.3206 4.5033 4.1837 34.0086 11.8811 -8.9882
# 5 -7.6550 -8.5674 -13.0584 11.8811 36.1048 -5.2795
# 6 12.6378 10.8286 24.4590 -8.9882 -5.2795 38.5775
#
#
#
# Elastic Compliance Matrix: (Units=1/GPa)
#
#
# Indices 1 2 3 4 5 6 
#
# 1 0.022859 -0.005586 -0.010468 0.006127 -0.002008 0.001869
# 2 -0.005586 0.013997 0.000877 -0.004777 0.003546 -0.003283
# 3 -0.010468 0.000877 0.020083 -0.009089 0.006671 -0.010755
# 4 0.006127 -0.004777 -0.009089 0.040325 -0.014564 0.012499
# 5 -0.002008 0.003546 0.006671 -0.014564 0.034852 -0.003191
# 6 0.001869 -0.003283 -0.010755 0.012499 -0.003191 0.035525
#
#
# Mechanical properties :
#
#
# Convention : Reuss Voigt Hill
#
# Bulk Modulus (GPa) = 37.61565 48.09516 42.85540
# Shear Modulus (GPa) = 24.17147 32.06587 28.11867
#
# Velocity S-wave (km/s) = 3.27828 3.77587 3.53584
# Velocity P-wave (km/s) = 5.57263 6.35560 5.97695
#
# Compressibility (1/GPa) = 0.02658468
#
# Stress axis : x y z
#
# Youngs Moduli (GPa) = 43.74607 71.44585 49.79428
#
# Poissons Ratio (x) = 0.39910 0.52123
# Poissons Ratio (y) = 0.24437 -0.04366
# Poissons Ratio (z) = 0.45792 -0.06265
#
# Static dielectric constant tensor:
#      x y z
#    x 4.024930 0.159180 -0.357710 
#    y 0.159180 4.212430 0.021200 
#    z -0.357710 0.021200 4.061740 
# 
# 
# High freq. dielectric constant tensor:
#      x y z
#    x 1.880640 0.007830 -0.019940 
#    y 0.007830 1.894700 -0.002620 
#    z -0.019940 -0.002620 1.877030 
# 
# From -- ./inp_files/218420.got.cif
#   From: 2010.06.25/outbox.cif.g09.slc.cpg/sg2_110_cif.got.tgz:218420.got - 2010.06.27 13:26:56.
