data_PCOD8006903
_publ_section_title
;
Structure prediction by ZEFSAII (Michael W. Deem and Ramdas Pophale) SiO2 
 PCOD8006903
Probable space group: P -1
;
_chemical_formula_sum "Si O2"
_cell_formula_units_Z 14
_cell_length_a 14.053195
_cell_length_b 12.130988
_cell_length_c 9.825564
_cell_angle_alpha 136.403556
_cell_angle_beta 121.903156
_cell_angle_gamma 32.964721
_cell_volume 614.364570
_symmetry_space_group_name_H-M "P -1"
_symmetry_group_IT_number 2
_symmetry_cell_setting 'triclinic'
loop_
_space_group_symop_operation_xyz
x,y,z
-x,-y,-z
loop_
_atom_site_type_symbol
_atom_site_label
_atom_site_fract_x
_atom_site_fract_y
_atom_site_fract_z
Si Si1 0.154170 0.048045 0.084301
Si Si2 0.349726 0.952451 0.645941
Si Si3 0.786104 0.376456 0.184683
Si Si4 0.419051 0.914304 0.357810
Si Si5 0.836658 0.562520 0.937708
Si Si6 0.113759 0.028972 0.739523
Si Si7 0.251725 0.539323 0.459828
O O1 0.938398 0.310642 0.162926
O O2 0.268236 0.058203 0.256136
O O3 0.185656 0.844311 0.000478
O O4 0.212682 0.978559 0.907992
O O5 0.329183 0.967650 0.481309
O O6 0.200791 0.007498 0.651581
O O7 0.536401 0.667109 0.578732
O O8 0.326145 0.165542 0.865518
O O9 0.590757 0.615037 0.184730
O O10 0.795647 0.435949 0.397635
O O11 0.500000 0.000000 0.500000
O O12 0.786509 0.578619 0.758699
O O13 0.905861 0.321485 0.848596
O O14 0.000000 0.500000 0.000000
O O15 0.132222 0.817159 0.556325
#
# Coordination Sequence:
#
# PCOD8006903 Si02
#       7
#     2   2   2   2   2   2   2
#     4  10  22  43  67  90 129 163 210 265 307 374
#     4  10  23  42  60  92 124 164 203 255 319 369
#     4   9  22  42  66  94 121 168 213 256 317 365
#     4  11  25  41  64  94 128 167 209 255 318 383
#     4  10  22  36  58  89 128 158 198 249 312 367
#     4  10  22  40  64  94 118 161 214 254 312 365
#     4  10  20  40  65  91 121 162 210 260 302 374
#
# _framework density 22.787773000000001
#
# number of rings (size 3 to 8) (size 9 to 14) (size 15 to 20)
#    0.000    2.000    0.000    1.714    6.000    6.286 
#    2.571    0.000    0.000    0.000    0.000    0.000 
#    0.000    0.000    0.000    0.000    0.000    0.000 
#
# Total GULP energy -173512.204434 kJ/mol
# GULP energy per Si atom -12393.728888 kJ/mol
# Density = 2.273591 g / cm^3
# Si number density = 22.787773 Si / 1000 Ang^3
#
#
#
# Elastic Constant Matrix: (Units=GPa)
#
#
# Indices 1 2 3 4 5 6 
#
# 1 75.3406 9.2841 19.8899 -9.7202 -12.5817 -8.7541
# 2 9.2841 52.8830 15.5382 16.0510 -4.9440 0.2359
# 3 19.8899 15.5382 105.6969 -6.1826 -0.4418 -12.6511
# 4 -9.7202 16.0510 -6.1826 49.8728 -5.4859 3.8962
# 5 -12.5817 -4.9440 -0.4418 -5.4859 30.4933 -0.2616
# 6 -8.7541 0.2359 -12.6511 3.8962 -0.2616 24.4030
#
#
#
# Elastic Compliance Matrix: (Units=1/GPa)
#
#
# Indices 1 2 3 4 5 6 
#
# 1 0.016377 -0.003024 -0.001833 0.004377 0.007065 0.004331
# 2 -0.003024 0.023058 -0.003513 -0.008200 0.000949 -0.001809
# 3 -0.001833 -0.003513 0.010991 0.001670 -0.000825 0.004799
# 4 0.004377 -0.008200 0.001670 0.024390 0.004877 -0.001327
# 5 0.007065 0.000949 -0.000825 0.004877 0.036743 0.001713
# 6 0.004331 -0.001809 0.004799 -0.001327 0.001713 0.045268
#
#
# Mechanical properties :
#
#
# Convention : Reuss Voigt Hill
#
# Bulk Modulus (GPa) = 29.68544 35.92722 32.80633
# Shear Modulus (GPa) = 27.05667 33.56771 30.31219
#
# Velocity S-wave (km/s) = 3.44951 3.84221 3.65114
# Velocity P-wave (km/s) = 5.37779 5.95681 5.67469
#
# Compressibility (1/GPa) = 0.03368655
#
# Stress axis : x y z
#
# Youngs Moduli (GPa) = 61.05976 43.36805 90.98274
#
# Poissons Ratio (x) = 0.13113 0.16682
# Poissons Ratio (y) = 0.18463 0.31963
# Poissons Ratio (z) = 0.11195 0.15235
#
# Static dielectric constant tensor:
#      x y z
#    x 3.657690 0.089150 -0.089350 
#    y 0.089150 4.746070 0.615270 
#    z -0.089350 0.615270 4.520870 
# 
# 
# High freq. dielectric constant tensor:
#      x y z
#    x 1.866430 0.002210 -0.007090 
#    y 0.002210 1.907240 0.010760 
#    z -0.007090 0.010760 1.911760 
# 
# From -- ./inp_files/258675.got.cif
#   From: 2010.06.25/outbox.cif.g09.slc.cpg/sg2_130_cif.got.tgz:258675.got - 2010.06.27 13:26:56.
