data_PCOD8006239
_publ_section_title
;
Structure prediction by ZEFSAII (Michael W. Deem and Ramdas Pophale) SiO2 
 PCOD8006239
Probable space group: P -1
;
_chemical_formula_sum "Si O2"
_cell_formula_units_Z 16
_cell_length_a 16.626897
_cell_length_b 15.582439
_cell_length_c 9.572383
_cell_angle_alpha 89.097722
_cell_angle_beta 73.363074
_cell_angle_gamma 154.859633
_cell_volume 744.459291
_symmetry_space_group_name_H-M "P -1"
_symmetry_group_IT_number 2
_symmetry_cell_setting 'triclinic'
loop_
_space_group_symop_operation_xyz
x,y,z
-x,-y,-z
loop_
_atom_site_type_symbol
_atom_site_label
_atom_site_fract_x
_atom_site_fract_y
_atom_site_fract_z
Si Si1 0.446820 0.688997 0.000534
Si Si2 0.429829 0.109907 0.786923
Si Si3 0.043217 0.464010 0.874459
Si Si4 0.310066 0.253944 0.188995
Si Si5 0.383037 0.034409 0.334641
Si Si6 0.843941 0.066950 0.322630
Si Si7 0.734647 0.768367 0.466622
Si Si8 0.279331 0.759799 0.500422
O O1 0.436179 0.699120 0.169771
O O2 0.143543 0.376306 0.111164
O O3 0.632068 0.787289 0.879160
O O4 0.572363 0.891108 0.847952
O O5 0.632843 0.232118 0.642210
O O6 0.363309 0.102484 0.686285
O O7 0.167402 0.814871 0.992852
O O8 0.330118 0.698508 0.743035
O O9 0.020333 0.479745 0.727184
O O10 0.000000 0.500000 0.000000
O O11 0.367755 0.326164 0.321348
O O12 0.500000 0.500000 0.000000
O O13 0.998657 0.966508 0.316845
O O14 0.212971 0.940059 0.504056
O O15 0.221621 0.786544 0.429567
O O16 0.807092 0.931096 0.366333
O O17 0.500000 0.500000 0.500000
O O18 0.500000 0.000000 0.500000
#
# Coordination Sequence:
#
# PCOD8006239 Si02
#       8
#     2   2   2   2   2   2   2   2
#     4  12  28  43  68 105 137 180 232 280 346 416
#     4  12  25  41  69 101 133 182 235 278 338 413
#     4  11  19  39  69  92 132 184 230 282 340 391
#     4  11  25  50  70 103 151 176 214 300 352 408
#     4  11  22  42  68  93 141 182 220 284 347 387
#     4  12  24  46  68 100 142 176 222 291 341 403
#     4  11  27  46  79 106 135 183 233 276 355 430
#     4  10  20  39  66  96 134 185 225 283 344 389
#
# _framework density 21.492106
#
# number of rings (size 3 to 8) (size 9 to 14) (size 15 to 20)
#    0.000    0.750    8.750    0.000    1.750    4.000 
#    0.000    1.250    0.000    0.000    0.000    0.000 
#    0.000    0.000    0.000    0.000    0.000    0.000 
#
# Total GULP energy -198439.950910 kJ/mol
# GULP energy per Si atom -12402.496932 kJ/mol
# Density = 2.144319 g / cm^3
# Si number density = 21.492106 Si / 1000 Ang^3
#
#
#
# Elastic Constant Matrix: (Units=GPa)
#
#
# Indices 1 2 3 4 5 6 
#
# 1 126.4750 36.8707 48.3303 9.9656 -6.1696 -10.3022
# 2 36.8707 75.6674 32.4228 19.4506 -8.8274 3.1506
# 3 48.3303 32.4228 128.9922 9.7212 5.2998 -8.0184
# 4 9.9656 19.4506 9.7212 30.9826 -5.0554 0.4364
# 5 -6.1696 -8.8274 5.2998 -5.0554 50.7477 6.0130
# 6 -10.3022 3.1506 -8.0184 0.4364 6.0130 19.5381
#
#
#
# Elastic Compliance Matrix: (Units=1/GPa)
#
#
# Indices 1 2 3 4 5 6 
#
# 1 0.010552 -0.004233 -0.002583 0.000036 0.000213 0.005120
# 2 -0.004233 0.019793 -0.003283 -0.009401 0.003230 -0.007555
# 3 -0.002583 -0.003283 0.009949 -0.000690 -0.002470 0.004026
# 4 0.000036 -0.009401 -0.000690 0.038770 0.002343 -0.000335
# 5 0.000213 0.003230 -0.002470 0.002343 0.021752 -0.008169
# 6 0.005120 -0.007555 0.004026 -0.000335 -0.008169 0.059274
#
#
# Mechanical properties :
#
#
# Convention : Reuss Voigt Hill
#
# Bulk Modulus (GPa) = 49.75899 62.93134 56.34516
# Shear Modulus (GPa) = 26.73994 34.48776 30.61385
#
# Velocity S-wave (km/s) = 3.53111 4.01018 3.77825
# Velocity P-wave (km/s) = 6.31090 7.12648 6.73106
#
# Compressibility (1/GPa) = 0.02009687
#
# Stress axis : x y z
#
# Youngs Moduli (GPa) = 94.76602 50.52341 100.51167
#
# Poissons Ratio (x) = 0.21385 0.25962
# Poissons Ratio (y) = 0.40111 0.32998
# Poissons Ratio (z) = 0.24478 0.16587
#
# Static dielectric constant tensor:
#      x y z
#    x 4.287860 0.051890 0.267890 
#    y 0.051890 3.835360 -0.087390 
#    z 0.267890 -0.087390 4.353150 
# 
# 
# High freq. dielectric constant tensor:
#      x y z
#    x 1.855890 -0.001430 0.006340 
#    y -0.001430 1.822850 -0.000380 
#    z 0.006340 -0.000380 1.867010 
# 
# From -- ./inp_files/315084.got.cif
#   From: 2010.06.25/outbox.cif.g09.slc.cpg/sg2_158_cif.got.tgz:315084.got - 2010.06.27 13:26:56.
