data_PCOD8006908
_publ_section_title
;
Structure prediction by ZEFSAII (Michael W. Deem and Ramdas Pophale) SiO2 
 PCOD8006908
Probable space group: P -1
;
_chemical_formula_sum "Si O2"
_cell_formula_units_Z 16
_cell_length_a 11.291957
_cell_length_b 20.617179
_cell_length_c 16.729066
_cell_angle_alpha 158.934395
_cell_angle_beta 146.413169
_cell_angle_gamma 31.966722
_cell_volume 723.394574
_symmetry_space_group_name_H-M "P -1"
_symmetry_group_IT_number 2
_symmetry_cell_setting 'triclinic'
loop_
_space_group_symop_operation_xyz
x,y,z
-x,-y,-z
loop_
_atom_site_type_symbol
_atom_site_label
_atom_site_fract_x
_atom_site_fract_y
_atom_site_fract_z
Si Si1 0.740330 0.094141 0.318915
Si Si2 0.238551 0.928567 0.459718
Si Si3 0.518580 0.890171 0.075574
Si Si4 0.619385 0.150723 0.730338
Si Si5 0.984484 0.501092 0.398223
Si Si6 0.896571 0.926899 0.044819
Si Si7 0.504345 0.527185 0.180400
Si Si8 0.430967 0.536554 0.676988
O O1 0.566748 0.311388 0.478757
O O2 0.641978 0.938388 0.122668
O O3 0.780015 0.058357 0.206310
O O4 0.972512 0.065481 0.467208
O O5 0.312829 0.849840 0.323212
O O6 0.285110 0.724284 0.296831
O O7 0.392136 0.039872 0.713249
O O8 0.552797 0.663906 0.844196
O O9 0.246960 0.999664 0.033179
O O10 0.846162 0.078324 0.830248
O O11 0.500000 0.000000 0.500000
O O12 0.457152 0.368374 0.914394
O O13 0.158138 0.599859 0.572375
O O14 0.000000 0.500000 0.500000
O O15 0.710951 0.588830 0.327694
O O16 0.088988 0.287892 0.174880
O O17 0.567851 0.423135 0.181757
#
# Coordination Sequence:
#
# PCOD8006908 Si02
#       8
#     2   2   2   2   2   2   2   2
#     4  11  24  45  62  92 135 166 213 267 317 376
#     4  11  23  42  66  91 128 176 208 260 329 375
#     4  12  23  40  66  97 122 172 218 256 321 375
#     4  10  22  41  64  97 132 161 214 269 314 381
#     4   9  18  38  62  89 125 163 201 262 314 371
#     4  10  22  42  66  89 133 171 203 269 321 372
#     4  10  20  40  65  91 129 170 210 257 325 381
#     4  11  23  38  66  96 128 165 216 265 316 376
#
# _framework density 22.117943
#
# number of rings (size 3 to 8) (size 9 to 14) (size 15 to 20)
#    0.000    1.500    2.500    2.625    0.000    2.000 
#    4.500    6.875    0.000    0.000    0.000    0.000 
#    0.000    0.000    0.000    0.000    0.000    0.000 
#
# Total GULP energy -198224.412142 kJ/mol
# GULP energy per Si atom -12389.025759 kJ/mol
# Density = 2.206760 g / cm^3
# Si number density = 22.117943 Si / 1000 Ang^3
#
#
#
# Elastic Constant Matrix: (Units=GPa)
#
#
# Indices 1 2 3 4 5 6 
#
# 1 46.3303 14.8331 39.3915 12.1290 7.7505 -12.6370
# 2 14.8331 93.9779 35.1274 -13.7630 8.2240 -7.2166
# 3 39.3915 35.1274 134.0004 -6.7555 20.6396 -12.0183
# 4 12.1290 -13.7630 -6.7555 33.6179 5.7606 -4.8426
# 5 7.7505 8.2240 20.6396 5.7606 36.3145 6.9647
# 6 -12.6370 -7.2166 -12.0183 -4.8426 6.9647 18.1886
#
#
#
# Elastic Compliance Matrix: (Units=1/GPa)
#
#
# Indices 1 2 3 4 5 6 
#
# 1 0.039853 -0.003204 -0.009488 -0.014462 -0.003474 0.017628
# 2 -0.003204 0.013576 -0.000959 0.008189 -0.004368 0.006380
# 3 -0.009488 -0.000959 0.012572 0.007700 -0.007311 0.006184
# 4 -0.014462 0.008189 0.007700 0.044273 -0.013059 0.015077
# 5 -0.003474 -0.004368 -0.007311 -0.013059 0.040886 -0.028110
# 6 0.017628 0.006380 0.006184 0.015077 -0.028110 0.088622
#
#
# Mechanical properties :
#
#
# Convention : Reuss Voigt Hill
#
# Bulk Modulus (GPa) = 25.84116 50.33473 38.08794
# Shear Modulus (GPa) = 17.85810 29.95465 23.90638
#
# Velocity S-wave (km/s) = 2.84457 3.68409 3.29121
# Velocity P-wave (km/s) = 4.74315 6.39559 5.63032
#
# Compressibility (1/GPa) = 0.03869796
#
# Stress axis : x y z
#
# Youngs Moduli (GPa) = 25.09244 73.65690 79.53987
#
# Poissons Ratio (x) = 0.23599 0.75471
# Poissons Ratio (y) = 0.08039 0.07631
# Poissons Ratio (z) = 0.23809 0.07066
#
# Static dielectric constant tensor:
#      x y z
#    x 3.234710 -0.503050 0.088200 
#    y -0.503050 4.068050 -0.293680 
#    z 0.088200 -0.293680 4.093220 
# 
# 
# High freq. dielectric constant tensor:
#      x y z
#    x 1.854380 -0.010580 -0.016970 
#    y -0.010580 1.866950 -0.016040 
#    z -0.016970 -0.016040 1.876890 
# 
# From -- ./inp_files/570822.got.cif
#   From: 2010.06.25/outbox.cif.g09.slc.cpg/sg2_286_cif.got.tgz:570822.got - 2010.06.27 13:26:56.
