data_PCOD8006156
_publ_section_title
;
Structure prediction by ZEFSAII (Michael W. Deem and Ramdas Pophale) SiO2 
 PCOD8006156
Probable space group: P -1
;
_chemical_formula_sum "Si O2"
_cell_formula_units_Z 16
_cell_length_a 11.443179
_cell_length_b 16.896589
_cell_length_c 8.254183
_cell_angle_alpha 58.304051
_cell_angle_beta 97.328446
_cell_angle_gamma 48.362862
_cell_volume 671.766391
_symmetry_space_group_name_H-M "P -1"
_symmetry_group_IT_number 2
_symmetry_cell_setting 'triclinic'
loop_
_space_group_symop_operation_xyz
x,y,z
-x,-y,-z
loop_
_atom_site_type_symbol
_atom_site_label
_atom_site_fract_x
_atom_site_fract_y
_atom_site_fract_z
Si Si1 0.747712 0.460373 0.902667
Si Si2 0.374917 0.261120 0.300724
Si Si3 0.284367 0.714495 0.958076
Si Si4 0.212423 0.955945 0.584257
Si Si5 0.625274 0.981469 0.917690
Si Si6 0.356378 0.697886 0.339976
Si Si7 0.072220 0.074488 0.790981
Si Si8 0.767027 0.804986 0.818700
O O1 0.690959 0.585524 0.873062
O O2 0.600095 0.571810 0.590213
O O3 0.676271 0.405900 0.015491
O O4 0.030437 0.264056 0.136337
O O5 0.616134 0.086772 0.423884
O O6 0.171985 0.341528 0.080278
O O7 0.433115 0.176778 0.577306
O O8 0.370797 0.752094 0.854728
O O9 0.399412 0.613791 0.264877
O O10 0.999786 0.923113 0.707726
O O11 0.100192 0.072180 0.605881
O O12 0.765981 0.815992 0.999767
O O13 0.500000 0.000000 0.000000
O O14 0.815469 0.914523 0.112007
O O15 0.206683 0.889103 0.056137
O O16 0.202604 0.744748 0.395024
O O17 0.500000 0.000000 0.500000
#
# Coordination Sequence:
#
# PCOD8006156 Si02
#       8
#     2   2   2   2   2   2   2   2
#     4  12  23  39  70  97 133 168 218 270 333 381
#     4  11  23  42  65  93 132 170 218 276 327 372
#     4  10  22  38  64  97 135 173 218 253 320 385
#     4  10  22  40  66  95 137 177 218 254 312 399
#     4  11  22  41  72  96 123 173 230 266 318 395
#     4  10  21  38  67  95 138 172 215 268 320 388
#     4  10  20  39  66 100 132 179 219 259 322 384
#     4  10  23  43  69  92 125 173 218 268 330 392
#
# _framework density 23.817803000000001
#
# number of rings (size 3 to 8) (size 9 to 14) (size 15 to 20)
#    0.000    1.500    1.250    4.500    5.250    1.500 
#    0.000    0.625   11.000    0.000    0.000    0.000 
#    0.000    0.000    0.000    0.000    0.000    0.000 
#
# Total GULP energy -198234.873243 kJ/mol
# GULP energy per Si atom -12389.679578 kJ/mol
# Density = 2.376359 g / cm^3
# Si number density = 23.817803 Si / 1000 Ang^3
#
#
#
# Elastic Constant Matrix: (Units=GPa)
#
#
# Indices 1 2 3 4 5 6 
#
# 1 111.5888 50.2256 10.8767 22.2167 21.8507 3.1394
# 2 50.2256 100.1626 11.5689 11.3670 6.2693 15.6415
# 3 10.8767 11.5689 62.2245 15.2286 17.3150 -6.9198
# 4 22.2167 11.3670 15.2286 28.4427 0.2383 0.5475
# 5 21.8507 6.2693 17.3150 0.2383 39.7048 3.5838
# 6 3.1394 15.6415 -6.9198 0.5475 3.5838 58.9172
#
#
#
# Elastic Compliance Matrix: (Units=1/GPa)
#
#
# Indices 1 2 3 4 5 6 
#
# 1 0.015799 -0.006809 0.004341 -0.011905 -0.009637 0.002172
# 2 -0.006809 0.014005 -0.003101 0.001430 0.003234 -0.003929
# 3 0.004341 -0.003101 0.023395 -0.014655 -0.012396 0.004230
# 4 -0.011905 0.001430 -0.014655 0.051679 0.012652 -0.002716
# 5 -0.009637 0.003234 -0.012396 0.012652 0.035678 -0.004089
# 6 0.002172 -0.003929 0.004230 -0.002716 -0.004089 0.018671
#
#
# Mechanical properties :
#
#
# Convention : Reuss Voigt Hill
#
# Bulk Modulus (GPa) = 23.77386 46.59094 35.18240
# Shear Modulus (GPa) = 27.11733 38.83327 32.97530
#
# Velocity S-wave (km/s) = 3.37787 4.04224 3.72490
# Velocity P-wave (km/s) = 5.02161 6.43352 5.77091
#
# Compressibility (1/GPa) = 0.04206301
#
# Stress axis : x y z
#
# Youngs Moduli (GPa) = 63.29440 71.40303 42.74449
#
# Poissons Ratio (x) = 0.48617 -0.18556
# Poissons Ratio (y) = 0.43096 0.13253
# Poissons Ratio (z) = -0.27478 0.22139
#
# Static dielectric constant tensor:
#      x y z
#    x 4.771040 0.568950 0.084630 
#    y 0.568950 4.692930 0.030500 
#    z 0.084630 0.030500 4.247810 
# 
# 
# High freq. dielectric constant tensor:
#      x y z
#    x 1.962490 0.026650 0.003800 
#    y 0.026650 1.940390 -0.004150 
#    z 0.003800 -0.004150 1.935480 
# 
# From -- ./inp_files/277601.got.cif
#   From: 2010.06.25/outbox.cif.g09.slc.cpg/sg2_139_cif.got.tgz:277601.got - 2010.06.27 13:26:56.
