data_PCOD8006345
_publ_section_title
;
Structure prediction by ZEFSAII (Michael W. Deem and Ramdas Pophale) SiO2 
 PCOD8006345
Probable space group: P -1
;
_chemical_formula_sum "Si O2"
_cell_formula_units_Z 12
_cell_length_a 22.471194
_cell_length_b 6.681041
_cell_length_c 5.419261
_cell_angle_alpha 71.879648
_cell_angle_beta 91.716197
_cell_angle_gamma 45.026635
_cell_volume 507.878409
_symmetry_space_group_name_H-M "P -1"
_symmetry_group_IT_number 2
_symmetry_cell_setting 'triclinic'
loop_
_space_group_symop_operation_xyz
x,y,z
-x,-y,-z
loop_
_atom_site_type_symbol
_atom_site_label
_atom_site_fract_x
_atom_site_fract_y
_atom_site_fract_z
Si Si1 0.205330 0.235136 0.219421
Si Si2 0.671116 0.840231 0.415192
Si Si3 0.057060 0.330517 0.322231
Si Si4 0.293754 0.676418 0.086563
Si Si5 0.511535 0.836066 0.813130
Si Si6 0.188288 0.662230 0.751623
O O1 0.297098 0.052046 0.449387
O O2 0.130873 0.320146 0.345797
O O3 0.234724 0.005769 0.090798
O O4 0.156629 0.580444 0.986876
O O5 0.682632 0.581274 0.637345
O O6 0.736335 0.672591 0.253456
O O7 0.565155 0.144050 0.207829
O O8 0.000000 0.500000 0.500000
O O9 0.104476 0.971937 0.460087
O O10 0.000000 0.500000 0.000000
O O11 0.386424 0.531351 0.041827
O O12 0.232181 0.758780 0.824944
O O13 0.500000 0.000000 0.500000
O O14 0.500000 0.000000 0.000000
#
# Coordination Sequence:
#
# PCOD8006345 Si02
#       6
#     2   2   2   2   2   2
#     4  11  26  44  74 106 140 195 237 297 364 430
#     4  10  22  41  70 104 144 192 240 288 349 420
#     4  12  29  51  75 105 140 184 239 305 373 439
#     4  10  21  43  70 102 150 195 234 290 349 419
#     4  10  20  39  68 105 147 193 240 285 339 408
#     4  11  24  45  74 102 144 188 238 293 364 432
#
# _framework density 23.627704000000001
#
# number of rings (size 3 to 8) (size 9 to 14) (size 15 to 20)
#    0.000    1.333    3.333    1.000    7.000    2.000 
#    0.000    0.833    0.000    0.000    0.000    0.000 
#    0.000    0.000    0.000    0.000    0.000    0.000 
#
# Total GULP energy -148747.088097 kJ/mol
# GULP energy per Si atom -12395.590675 kJ/mol
# Density = 2.357393 g / cm^3
# Si number density = 23.627704 Si / 1000 Ang^3
#
#
#
# Elastic Constant Matrix: (Units=GPa)
#
#
# Indices 1 2 3 4 5 6 
#
# 1 96.4186 26.0719 30.5545 -10.4683 -8.5530 -15.5630
# 2 26.0719 93.3794 29.0110 12.0674 1.9286 -21.5258
# 3 30.5545 29.0110 103.2755 9.6909 8.6524 -11.0489
# 4 -10.4683 12.0674 9.6909 39.8434 0.5690 3.0189
# 5 -8.5530 1.9286 8.6524 0.5690 27.9731 13.3600
# 6 -15.5630 -21.5258 -11.0489 3.0189 13.3600 37.2294
#
#
#
# Elastic Compliance Matrix: (Units=1/GPa)
#
#
# Indices 1 2 3 4 5 6 
#
# 1 0.013673 -0.003341 -0.004064 0.005502 0.005476 0.000167
# 2 -0.003341 0.015119 -0.001152 -0.005823 -0.006227 0.009710
# 3 -0.004064 -0.001152 0.012623 -0.004009 -0.007001 0.004219
# 4 0.005502 -0.005823 -0.004009 0.029713 0.005971 -0.006809
# 5 0.005476 -0.006227 -0.007001 0.005971 0.050381 -0.021952
# 6 0.000167 0.009710 0.004219 -0.006809 -0.021952 0.042226
#
#
# Mechanical properties :
#
#
# Convention : Reuss Voigt Hill
#
# Bulk Modulus (GPa) = 41.14910 51.59425 46.37168
# Shear Modulus (GPa) = 26.46228 34.83824 30.65026
#
# Velocity S-wave (km/s) = 3.35022 3.84404 3.60560
# Velocity P-wave (km/s) = 5.69375 6.44872 6.08296
#
# Compressibility (1/GPa) = 0.02430187
#
# Stress axis : x y z
#
# Youngs Moduli (GPa) = 73.13904 66.14146 79.22200
#
# Poissons Ratio (x) = 0.22095 0.32195
# Poissons Ratio (y) = 0.24432 0.09125
# Poissons Ratio (z) = 0.29723 0.07618
#
# Static dielectric constant tensor:
#      x y z
#    x 4.654260 -0.331560 0.091030 
#    y -0.331560 4.099040 0.031640 
#    z 0.091030 0.031640 4.334620 
# 
# 
# High freq. dielectric constant tensor:
#      x y z
#    x 1.945030 -0.008660 -0.002860 
#    y -0.008660 1.920700 0.004170 
#    z -0.002860 0.004170 1.948000 
# 
# From -- ./inp_files/3680.got.cif
#   From: 2010.06.25/outbox.cif.g09.slc.cpg/sg2_2_cif.got.tgz:3680.got - 2010.06.27 13:26:56.
