data_PCOD8006278
_publ_section_title
;
Structure prediction by ZEFSAII (Michael W. Deem and Ramdas Pophale) SiO2 
 PCOD8006278
Probable space group: P -1
;
_chemical_formula_sum "Si O2"
_cell_formula_units_Z 12
_cell_length_a 14.827526
_cell_length_b 5.212024
_cell_length_c 8.875012
_cell_angle_alpha 82.915122
_cell_angle_beta 70.190421
_cell_angle_gamma 99.903576
_cell_volume 623.344911
_symmetry_space_group_name_H-M "P -1"
_symmetry_group_IT_number 2
_symmetry_cell_setting 'triclinic'
loop_
_space_group_symop_operation_xyz
x,y,z
-x,-y,-z
loop_
_atom_site_type_symbol
_atom_site_label
_atom_site_fract_x
_atom_site_fract_y
_atom_site_fract_z
Si Si1 0.269649 0.761704 0.677428
Si Si2 0.628279 0.949551 0.133750
Si Si3 0.112731 0.795034 0.529586
Si Si4 0.463488 0.747029 0.437315
Si Si5 0.885556 0.669975 0.662691
Si Si6 0.726808 0.515693 0.013435
O O1 0.173414 0.812921 0.648025
O O2 0.344487 0.691999 0.512527
O O3 0.319742 0.020924 0.731033
O O4 0.239815 0.515560 0.830039
O O5 0.511443 0.820727 0.238017
O O6 0.672669 0.757250 0.014815
O O7 0.649234 0.242869 0.024984
O O8 0.134306 0.558565 0.434079
O O9 0.998829 0.742293 0.644475
O O10 0.146122 0.072090 0.402651
O O11 0.500000 0.500000 0.500000
O O12 0.500000 0.000000 0.500000
O O13 0.822694 0.568895 0.852623
#
# Coordination Sequence:
#
# PCOD8006278 Si02
#       6
#     2   2   2   2   2   2
#     4   9  21  31  59  82 101 134 180 224 243 306
#     4   9  18  31  52  84 104 134 168 218 261 304
#     4  10  22  38  56  75 105 138 186 205 262 315
#     4  10  16  30  50  81 107 134 164 215 260 306
#     4  10  22  39  54  74 106 149 165 217 265 318
#     4  10  19  33  55  78 106 137 172 213 268 299
#
# _framework density 19.250979000000001
#
# number of rings (size 3 to 8) (size 9 to 14) (size 15 to 20)
#    1.000    1.333    1.667    1.000    2.333    0.667 
#    0.000    0.833    0.000    6.000    0.000    0.000 
#    0.000    0.000    0.000    0.000    0.000    0.000 
#
# Total GULP energy -148677.654003 kJ/mol
# GULP energy per Si atom -12389.804500 kJ/mol
# Density = 1.920716 g / cm^3
# Si number density = 19.250979 Si / 1000 Ang^3
#
#
#
# Elastic Constant Matrix: (Units=GPa)
#
#
# Indices 1 2 3 4 5 6 
#
# 1 17.2340 3.8407 12.8405 -3.4141 -3.0256 -2.6729
# 2 3.8407 117.3887 16.2945 -13.6256 -10.8244 -4.3901
# 3 12.8405 16.2945 106.8486 -16.5829 -36.4149 7.0973
# 4 -3.4141 -13.6256 -16.5829 23.4621 0.7004 -3.0256
# 5 -3.0256 -10.8244 -36.4149 0.7004 24.4303 1.2592
# 6 -2.6729 -4.3901 7.0973 -3.0256 1.2592 12.1131
#
#
#
# Elastic Compliance Matrix: (Units=1/GPa)
#
#
# Indices 1 2 3 4 5 6 
#
# 1 0.071389 -0.000213 -0.014792 0.003708 -0.014790 0.026806
# 2 -0.000213 0.009842 0.001424 0.007000 0.006059 0.003804
# 3 -0.014792 0.001424 0.029485 0.015557 0.043366 -0.020646
# 4 0.003708 0.007000 0.015557 0.058286 0.024758 0.006225
# 5 -0.014790 0.006059 0.043366 0.024758 0.107337 -0.031451
# 6 0.026806 0.003804 -0.020646 0.006225 -0.031451 0.106770
#
#
# Mechanical properties :
#
#
# Convention : Reuss Voigt Hill
#
# Bulk Modulus (GPa) = 11.96863 34.15806 23.06335
# Shear Modulus (GPa) = 11.41229 25.90081 18.65655
#
# Velocity S-wave (km/s) = 2.43742 3.67199 3.11645
# Velocity P-wave (km/s) = 3.76192 5.97997 4.99560
#
# Compressibility (1/GPa) = 0.08355176
#
# Stress axis : x y z
#
# Youngs Moduli (GPa) = 14.00774 101.60912 33.91551
#
# Poissons Ratio (x) = 0.02168 0.50169
# Poissons Ratio (y) = 0.00299 -0.04828
# Poissons Ratio (z) = 0.20721 -0.14465
#
# Static dielectric constant tensor:
#      x y z
#    x 3.241400 -0.056420 -0.447190 
#    y -0.056420 3.617180 -0.048950 
#    z -0.447190 -0.048950 3.497140 
# 
# 
# High freq. dielectric constant tensor:
#      x y z
#    x 1.709870 -0.007290 -0.032180 
#    y -0.007290 1.763770 -0.004710 
#    z -0.032180 -0.004710 1.743290 
# 
# From -- ./inp_files/50464.got.cif
#   From: 2010.06.25/outbox.cif.g09.slc.cpg/sg2_26_cif.got.tgz:50464.got - 2010.06.27 13:26:56.
