data_PCOD8006438
_publ_section_title
;
Structure prediction by ZEFSAII (Michael W. Deem and Ramdas Pophale) SiO2 
 PCOD8006438
Probable space group: P -1
;
_chemical_formula_sum "Si O2"
_cell_formula_units_Z 14
_cell_length_a 14.627858
_cell_length_b 14.592266
_cell_length_c 9.208957
_cell_angle_alpha 151.498535
_cell_angle_beta 128.039561
_cell_angle_gamma 50.528175
_cell_volume 715.176113
_symmetry_space_group_name_H-M "P -1"
_symmetry_group_IT_number 2
_symmetry_cell_setting 'triclinic'
loop_
_space_group_symop_operation_xyz
x,y,z
-x,-y,-z
loop_
_atom_site_type_symbol
_atom_site_label
_atom_site_fract_x
_atom_site_fract_y
_atom_site_fract_z
Si Si1 0.186292 0.041952 0.857396
Si Si2 0.662243 0.017657 0.806636
Si Si3 0.209587 0.213975 0.807522
Si Si4 0.795906 0.411124 0.820573
Si Si5 0.951098 0.336748 0.143237
Si Si6 0.876717 0.049883 0.862162
Si Si7 0.591658 0.750235 0.137873
O O1 0.209644 0.146032 0.877525
O O2 0.186875 0.813601 0.519484
O O3 0.057763 0.149258 0.943656
O O4 0.290993 0.056221 0.090729
O O5 0.767269 0.078719 0.906606
O O6 0.549683 0.211512 0.978282
O O7 0.615471 0.840603 0.442574
O O8 0.344928 0.142517 0.774802
O O9 0.122199 0.120484 0.492990
O O10 0.167328 0.455806 0.088311
O O11 0.879767 0.434864 0.069783
O O12 0.656745 0.513958 0.872515
O O13 0.000000 0.500000 0.500000
O O14 0.862445 0.257207 0.052162
O O15 0.000000 0.000000 0.000000
#
# Coordination Sequence:
#
# PCOD8006438 Si02
#       7
#     2   2   2   2   2   2   2
#     4  12  23  38  65  96 123 169 205 262 322 369
#     4  10  20  39  70  88 127 166 215 255 311 371
#     4   9  22  41  62  92 127 165 205 259 320 361
#     4  10  22  41  61  90 132 159 209 261 308 374
#     4  12  24  39  63  93 130 165 212 259 313 377
#     4  11  20  39  64  92 125 167 208 254 310 373
#     4   8  20  44  64  88 124 173 205 262 306 367
#
# _framework density 19.575596999999998
#
# number of rings (size 3 to 8) (size 9 to 14) (size 15 to 20)
#    0.857    0.857    2.857    2.143    0.000    2.857 
#    0.000    0.714    3.143    0.000    0.000    0.000 
#    0.000    0.000    0.000    0.000    0.000    0.000 
#
# Total GULP energy -173519.143967 kJ/mol
# GULP energy per Si atom -12394.224569 kJ/mol
# Density = 1.953104 g / cm^3
# Si number density = 19.575597 Si / 1000 Ang^3
#
#
#
# Elastic Constant Matrix: (Units=GPa)
#
#
# Indices 1 2 3 4 5 6 
#
# 1 93.3693 71.2634 48.4324 -6.4168 1.4116 -1.0596
# 2 71.2634 149.4239 54.6876 -4.9761 -3.2256 8.0280
# 3 48.4324 54.6876 55.1745 9.8399 -7.7519 22.0802
# 4 -6.4168 -4.9761 9.8399 44.0909 0.4497 -1.5853
# 5 1.4116 -3.2256 -7.7519 0.4497 26.1800 5.0168
# 6 -1.0596 8.0280 22.0802 -1.5853 5.0168 48.2117
#
#
#
# Elastic Compliance Matrix: (Units=1/GPa)
#
#
# Indices 1 2 3 4 5 6 
#
# 1 0.041275 -0.001972 -0.052237 0.018699 -0.023668 0.028237
# 2 -0.001972 0.012511 -0.013820 0.004413 -0.003422 0.004704
# 3 -0.052237 -0.013820 0.113542 -0.037019 0.046269 -0.056880
# 4 0.018699 0.004413 -0.037019 0.035020 -0.015749 0.019421
# 5 -0.023668 -0.003422 0.046269 -0.015749 0.058336 -0.027729
# 6 0.028237 0.004704 -0.056880 0.019421 -0.027729 0.050153
#
#
# Mechanical properties :
#
#
# Convention : Reuss Voigt Hill
#
# Bulk Modulus (GPa) = 31.98008 71.85939 51.91974
# Shear Modulus (GPa) = 10.93324 31.93547 21.43435
#
# Velocity S-wave (km/s) = 2.36585 4.04343 3.31260
# Velocity P-wave (km/s) = 4.88213 7.65424 6.41960
#
# Compressibility (1/GPa) = 0.03126946
#
# Stress axis : x y z
#
# Youngs Moduli (GPa) = 24.22768 79.92808 8.80729
#
# Poissons Ratio (x) = 0.15761 0.46007
# Poissons Ratio (y) = 0.04777 0.12172
# Poissons Ratio (z) = 1.26559 1.10463
#
# Static dielectric constant tensor:
#      x y z
#    x 3.641340 0.007910 -0.075860 
#    y 0.007910 3.693340 -0.087960 
#    z -0.075860 -0.087960 3.486290 
# 
# 
# High freq. dielectric constant tensor:
#      x y z
#    x 1.753920 0.000500 -0.006030 
#    y 0.000500 1.766440 -0.007880 
#    z -0.006030 -0.007880 1.759720 
# 
# From -- ./inp_files/233469.got.cif
#   From: 2010.06.25/outbox.cif.g09.slc.cpg/sg2_117_cif.got.tgz:233469.got - 2010.06.27 13:26:56.
