data_PCOD8006943
_publ_section_title
;
Structure prediction by ZEFSAII (Michael W. Deem and Ramdas Pophale) SiO2 
 PCOD8006943
Probable space group: P -1
;
_chemical_formula_sum "Si O2"
_cell_formula_units_Z 12
_cell_length_a 16.668090
_cell_length_b 16.168778
_cell_length_c 5.470513
_cell_angle_alpha 97.351279
_cell_angle_beta 78.216778
_cell_angle_gamma 25.953715
_cell_volume 433.539775
_symmetry_space_group_name_H-M "P -1"
_symmetry_group_IT_number 2
_symmetry_cell_setting 'triclinic'
loop_
_space_group_symop_operation_xyz
x,y,z
-x,-y,-z
loop_
_atom_site_type_symbol
_atom_site_label
_atom_site_fract_x
_atom_site_fract_y
_atom_site_fract_z
Si Si1 0.952812 0.144040 0.583944
Si Si2 0.232544 0.707205 0.745248
Si Si3 0.665561 0.082884 0.730424
Si Si4 0.798012 0.688519 0.975097
Si Si5 0.459927 0.905968 0.585032
Si Si6 0.133951 0.532543 0.451660
O O1 0.792154 0.324583 0.500619
O O2 0.243238 0.909145 0.322460
O O3 0.786338 0.329571 0.006257
O O4 0.000000 0.000000 0.500000
O O5 0.500000 0.500000 0.500000
O O6 0.000000 0.000000 0.000000
O O7 0.849201 0.858092 0.738568
O O8 0.722441 0.989478 0.387995
O O9 0.346860 0.379287 0.095029
O O10 0.532945 0.895719 0.309132
O O11 0.711153 0.869425 0.030493
O O12 0.910197 0.522706 0.619281
O O13 0.000000 0.500000 0.000000
O O14 0.732398 0.602002 0.414585
#
# Coordination Sequence:
#
# PCOD8006943 Si02
#       6
#     2   2   2   2   2   2
#     4  10  24  47  73 103 141 187 238 292 354 423
#     4  10  22  42  71 101 133 174 230 288 346 415
#     4  11  26  43  64 100 135 174 231 284 345 417
#     4  10  20  40  65  94 131 173 229 272 338 418
#     4  10  23  41  64  94 136 174 221 286 337 414
#     4  11  25  42  66  98 133 179 223 279 354 404
#
# _framework density 27.679120999999999
#
# number of rings (size 3 to 8) (size 9 to 14) (size 15 to 20)
#    0.000    1.667    1.667    1.000    4.667    6.000 
#    3.000    0.000    0.000    0.000    0.000    0.000 
#    0.000    0.000    0.000    0.000    0.000    0.000 
#
# Total GULP energy -148714.321585 kJ/mol
# GULP energy per Si atom -12392.860132 kJ/mol
# Density = 2.761612 g / cm^3
# Si number density = 27.679121 Si / 1000 Ang^3
#
#
#
# Elastic Constant Matrix: (Units=GPa)
#
#
# Indices 1 2 3 4 5 6 
#
# 1 171.5840 12.9257 1.7707 -16.0131 -13.9506 -23.1430
# 2 12.9257 118.8992 12.5693 -17.4192 11.1355 -31.3298
# 3 1.7707 12.5693 59.8833 -15.4411 -0.9702 -11.4130
# 4 -16.0131 -17.4192 -15.4411 58.4624 -5.7716 4.1544
# 5 -13.9506 11.1355 -0.9702 -5.7716 37.6121 -1.9794
# 6 -23.1430 -31.3298 -11.4130 4.1544 -1.9794 47.9398
#
#
#
# Elastic Compliance Matrix: (Units=1/GPa)
#
#
# Indices 1 2 3 4 5 6 
#
# 1 0.006733 0.000124 0.001064 0.002210 0.003012 0.003518
# 2 0.000124 0.010790 -0.000405 0.002425 -0.002434 0.006704
# 3 0.001064 -0.000405 0.018927 0.005056 0.002010 0.004400
# 4 0.002210 0.002425 0.005056 0.019944 0.003412 0.002268
# 5 0.003012 -0.002434 0.002010 0.003412 0.029066 0.001247
# 6 0.003518 0.006704 0.004400 0.002268 0.001247 0.027841
#
#
# Mechanical properties :
#
#
# Convention : Reuss Voigt Hill
#
# Bulk Modulus (GPa) = 26.30420 44.98865 35.64643
# Shear Modulus (GPa) = 40.19054 50.34293 45.26674
#
# Velocity S-wave (km/s) = 3.81467 4.26937 4.04841
# Velocity P-wave (km/s) = 5.37830 6.37121 5.89570
#
# Compressibility (1/GPa) = 0.03801674
#
# Stress axis : x y z
#
# Youngs Moduli (GPa) = 148.51492 92.68227 52.83344
#
# Poissons Ratio (x) = -0.01150 -0.05621
# Poissons Ratio (y) = -0.01843 0.02138
# Poissons Ratio (z) = -0.15800 0.03751
#
# Static dielectric constant tensor:
#      x y z
#    x 5.208220 0.082490 -0.085510 
#    y 0.082490 4.170350 -0.107530 
#    z -0.085510 -0.107530 5.903810 
# 
# 
# High freq. dielectric constant tensor:
#      x y z
#    x 2.127550 -0.015740 -0.017030 
#    y -0.015740 2.109010 -0.015800 
#    z -0.017030 -0.015800 2.121960 
# 
# From -- ./inp_files/3474.got.cif
#   From: 2010.06.25/outbox.cif.g09.slc.cpg/sg2_2_cif.got.tgz:3474.got - 2010.06.27 13:26:56.
