data_PCOD8006551
_publ_section_title
;
Structure prediction by ZEFSAII (Michael W. Deem and Ramdas Pophale) SiO2 
 PCOD8006551
Probable space group: P -1
;
_chemical_formula_sum "Si O2"
_cell_formula_units_Z 16
_cell_length_a 9.400877
_cell_length_b 22.712316
_cell_length_c 6.923015
_cell_angle_alpha 93.918897
_cell_angle_beta 133.856255
_cell_angle_gamma 58.824253
_cell_volume 804.666768
_symmetry_space_group_name_H-M "P -1"
_symmetry_group_IT_number 2
_symmetry_cell_setting 'triclinic'
loop_
_space_group_symop_operation_xyz
x,y,z
-x,-y,-z
loop_
_atom_site_type_symbol
_atom_site_label
_atom_site_fract_x
_atom_site_fract_y
_atom_site_fract_z
Si Si1 0.057860 0.826855 0.763992
Si Si2 0.420861 0.336040 0.863338
Si Si3 0.656579 0.409986 0.154522
Si Si4 0.887916 0.685178 0.152633
Si Si5 0.875408 0.676435 0.690518
Si Si6 0.713814 0.848777 0.122196
Si Si7 0.421192 0.856348 0.188337
Si Si8 0.588169 0.917762 0.616092
O O1 0.927448 0.846244 0.434950
O O2 0.860911 0.847531 0.753894
O O3 0.299492 0.735648 0.976487
O O4 0.151350 0.875171 0.904352
O O5 0.338076 0.308901 0.955294
O O6 0.209673 0.369308 0.499194
O O7 0.443230 0.399159 0.969174
O O8 0.829253 0.382143 0.504306
O O9 0.843147 0.360274 0.135689
O O10 0.500000 0.500000 0.000000
O O11 0.833474 0.765245 0.132459
O O12 0.891705 0.664829 0.930464
O O13 0.663540 0.765776 0.441813
O O14 0.477165 0.881069 0.050400
O O15 0.608674 0.909224 0.862953
O O16 0.381141 0.910095 0.339149
O O17 0.500000 0.000000 0.500000
#
# Coordination Sequence:
#
# PCOD8006551 Si02
#       8
#     2   2   2   2   2   2   2   2
#     4  10  21  38  63  88 113 153 202 243 287 350
#     4  10  21  39  60  91 114 152 201 243 293 339
#     4  11  23  41  60  87 128 158 188 241 298 351
#     4  11  21  37  63  89 113 155 202 247 286 345
#     4  10  21  38  61  91 118 151 201 249 286 342
#     4  11  20  38  62  85 115 153 200 242 293 346
#     4  10  20  40  61  86 117 152 200 249 288 345
#     4  11  25  39  58  89 125 156 190 245 303 350
#
# _framework density 19.884005999999999
#
# number of rings (size 3 to 8) (size 9 to 14) (size 15 to 20)
#    0.000    1.500    6.250    0.750    0.000    9.000 
#    0.000    2.500    0.000    0.000    0.000    0.000 
#    0.000    0.000    0.000    0.000    0.000    0.000 
#
# Total GULP energy -198380.170735 kJ/mol
# GULP energy per Si atom -12398.760671 kJ/mol
# Density = 1.983875 g / cm^3
# Si number density = 19.884006 Si / 1000 Ang^3
#
#
#
# Elastic Constant Matrix: (Units=GPa)
#
#
# Indices 1 2 3 4 5 6 
#
# 1 82.0073 29.9604 58.2040 19.1625 -3.1219 6.9595
# 2 29.9604 66.5588 32.8240 13.7862 1.0887 24.1225
# 3 58.2040 32.8240 106.3170 29.1752 -13.4759 9.2390
# 4 19.1625 13.7862 29.1752 35.0639 5.4322 -0.1970
# 5 -3.1219 1.0887 -13.4759 5.4322 36.7873 15.4908
# 6 6.9595 24.1225 9.2390 -0.1970 15.4908 32.8156
#
#
#
# Elastic Compliance Matrix: (Units=1/GPa)
#
#
# Indices 1 2 3 4 5 6 
#
# 1 0.021542 -0.006113 -0.010999 0.000461 -0.004196 0.005006
# 2 -0.006113 0.028409 0.001127 -0.010656 0.011277 -0.025292
# 3 -0.010999 0.001127 0.021963 -0.014955 0.014097 -0.011424
# 4 0.000461 -0.010656 -0.014955 0.048395 -0.021745 0.022501
# 5 -0.004196 0.011277 0.014097 -0.021745 0.049563 -0.034896
# 6 0.005006 -0.025292 -0.011424 0.022501 -0.034896 0.067828
#
#
# Mechanical properties :
#
#
# Convention : Reuss Voigt Hill
#
# Bulk Modulus (GPa) = 25.03564 55.20667 40.12115
# Shear Modulus (GPa) = 17.66878 29.85966 23.76422
#
# Velocity S-wave (km/s) = 2.98416 3.87937 3.46083
# Velocity P-wave (km/s) = 4.94892 6.92031 6.01591
#
# Compressibility (1/GPa) = 0.03994306
#
# Stress axis : x y z
#
# Youngs Moduli (GPa) = 46.42141 35.19978 45.53146
#
# Poissons Ratio (x) = 0.21519 0.50081
# Poissons Ratio (y) = 0.28380 -0.05132
# Poissons Ratio (z) = 0.51060 -0.03968
#
# Static dielectric constant tensor:
#      x y z
#    x 3.734810 0.068690 0.114080 
#    y 0.068690 3.627820 0.452330 
#    z 0.114080 0.452330 3.850410 
# 
# 
# High freq. dielectric constant tensor:
#      x y z
#    x 1.772920 0.007850 0.007380 
#    y 0.007850 1.765750 0.025060 
#    z 0.007380 0.025060 1.773670 
# 
# From -- ./inp_files/55533.got.cif
#   From: 2010.06.25/outbox.cif.g09.slc.cpg/sg2_28_cif.got.tgz:55533.got - 2010.06.27 13:26:56.
