data_PCOD8006096
_publ_section_title
;
Structure prediction by ZEFSAII (Michael W. Deem and Ramdas Pophale) SiO2 
 PCOD8006096
Probable space group: P -1
;
_chemical_formula_sum "Si O2"
_cell_formula_units_Z 16
_cell_length_a 8.535989
_cell_length_b 11.783243
_cell_length_c 10.908755
_cell_angle_alpha 109.277270
_cell_angle_beta 64.900057
_cell_angle_gamma 127.800099
_cell_volume 781.322517
_symmetry_space_group_name_H-M "P -1"
_symmetry_group_IT_number 2
_symmetry_cell_setting 'triclinic'
loop_
_space_group_symop_operation_xyz
x,y,z
-x,-y,-z
loop_
_atom_site_type_symbol
_atom_site_label
_atom_site_fract_x
_atom_site_fract_y
_atom_site_fract_z
Si Si1 0.163515 0.134739 0.143229
Si Si2 0.726873 0.640794 0.620207
Si Si3 0.543391 0.140870 0.097389
Si Si4 0.994249 0.587048 0.339715
Si Si5 0.580850 0.288406 0.369862
Si Si6 0.029800 0.647893 0.077889
Si Si7 0.417718 0.660553 0.343218
Si Si8 0.831386 0.807087 0.118227
O O1 0.135863 0.232508 0.282432
O O2 0.400333 0.182779 0.093182
O O3 0.137927 0.176740 0.031454
O O4 0.003480 0.965911 0.171677
O O5 0.561736 0.656130 0.606403
O O6 0.593623 0.485127 0.674139
O O7 0.898365 0.655491 0.477075
O O8 0.523865 0.148956 0.255714
O O9 0.779145 0.246984 0.029806
O O10 0.500000 0.000000 0.000000
O O11 0.196290 0.611137 0.345113
O O12 0.822462 0.416912 0.315910
O O13 0.065441 0.673456 0.219736
O O14 0.538963 0.247372 0.512844
O O15 0.855542 0.678575 0.108968
O O16 0.000000 0.500000 0.000000
O O17 0.602293 0.759798 0.221553
#
# Coordination Sequence:
#
# PCOD8006096 Si02
#       8
#     2   2   2   2   2   2   2   2
#     4  10  24  43  64  91 127 173 204 260 319 378
#     4  10  21  39  66  92 125 165 211 255 322 371
#     4  11  22  43  63  96 127 169 208 252 319 378
#     4  11  22  40  61  98 126 161 213 261 315 371
#     4  10  20  39  65  92 129 164 206 260 319 369
#     4  12  24  39  69  94 127 166 211 262 312 370
#     4  11  23  39  65  94 126 165 212 264 309 371
#     4  11  24  44  62  92 132 164 213 260 314 375
#
# _framework density 20.478100999999999
#
# number of rings (size 3 to 8) (size 9 to 14) (size 15 to 20)
#    0.000    1.250    2.500    5.250    3.500    1.500 
#    2.250    2.500    0.000    0.000    0.000    0.000 
#    0.000    0.000    0.000    0.000    0.000    0.000 
#
# Total GULP energy -198296.437245 kJ/mol
# GULP energy per Si atom -12393.527328 kJ/mol
# Density = 2.043149 g / cm^3
# Si number density = 20.478101 Si / 1000 Ang^3
#
#
#
# Elastic Constant Matrix: (Units=GPa)
#
#
# Indices 1 2 3 4 5 6 
#
# 1 111.3222 25.9363 49.8470 2.4381 2.6435 10.0085
# 2 25.9363 70.7244 61.8759 23.2684 0.8468 1.2274
# 3 49.8470 61.8759 133.1122 21.5438 2.2569 -0.4427
# 4 2.4381 23.2684 21.5438 42.6726 5.6290 -1.0357
# 5 2.6435 0.8468 2.2569 5.6290 34.7104 -5.2417
# 6 10.0085 1.2274 -0.4427 -1.0357 -5.2417 28.9064
#
#
#
# Elastic Compliance Matrix: (Units=1/GPa)
#
#
# Indices 1 2 3 4 5 6 
#
# 1 0.011454 -0.001314 -0.004022 0.002198 -0.001566 -0.004177
# 2 -0.001314 0.026969 -0.010530 -0.009539 0.001536 -0.000915
# 3 -0.004022 -0.010530 0.014098 -0.001115 0.000135 0.002040
# 4 0.002198 -0.009539 -0.001115 0.029689 -0.004701 -0.000162
# 5 -0.001566 0.001536 0.000135 -0.004701 0.030528 0.005846
# 6 -0.004177 -0.000915 0.002040 -0.000162 0.005846 0.037165
#
#
# Mechanical properties :
#
#
# Convention : Reuss Voigt Hill
#
# Bulk Modulus (GPa) = 48.09659 65.60860 56.85259
# Shear Modulus (GPa) = 26.51607 33.09119 29.80363
#
# Velocity S-wave (km/s) = 3.60231 4.02423 3.81910
# Velocity P-wave (km/s) = 6.39062 7.32806 6.87533
#
# Compressibility (1/GPa) = 0.02079150
#
# Stress axis : x y z
#
# Youngs Moduli (GPa) = 87.30256 37.07903 70.93247
#
# Poissons Ratio (x) = 0.04872 0.28526
# Poissons Ratio (y) = 0.11471 0.74689
# Poissons Ratio (z) = 0.35110 0.39043
#
# Static dielectric constant tensor:
#      x y z
#    x 3.999010 -0.301650 -0.290240 
#    y -0.301650 4.331330 0.727850 
#    z -0.290240 0.727850 4.456160 
# 
# 
# High freq. dielectric constant tensor:
#      x y z
#    x 1.810320 0.010830 -0.001240 
#    y 0.010830 1.780840 0.010750 
#    z -0.001240 0.010750 1.819510 
# 
# From -- ./inp_files/392730.got.cif
#   From: 2010.06.25/outbox.cif.g09.slc.cpg/sg2_197_cif.got.tgz:392730.got - 2010.06.27 13:26:56.
