data_PCOD8006328
_publ_section_title
;
Structure prediction by ZEFSAII (Michael W. Deem and Ramdas Pophale) SiO2 
 PCOD8006328
Probable space group: P -1
;
_chemical_formula_sum "Si O2"
_cell_formula_units_Z 16
_cell_length_a 25.764967
_cell_length_b 9.044551
_cell_length_c 20.610383
_cell_angle_alpha 152.662242
_cell_angle_beta 159.740948
_cell_angle_gamma 36.570320
_cell_volume 749.809993
_symmetry_space_group_name_H-M "P -1"
_symmetry_group_IT_number 2
_symmetry_cell_setting 'triclinic'
loop_
_space_group_symop_operation_xyz
x,y,z
-x,-y,-z
loop_
_atom_site_type_symbol
_atom_site_label
_atom_site_fract_x
_atom_site_fract_y
_atom_site_fract_z
Si Si1 0.287833 0.807835 0.595852
Si Si2 0.428117 0.971728 0.332871
Si Si3 0.881245 0.019724 0.713409
Si Si4 0.184482 0.444374 0.770599
Si Si5 0.332771 0.308854 0.563171
Si Si6 0.552336 0.253163 0.015479
Si Si7 0.194466 0.404152 0.216960
Si Si8 0.840039 0.407701 0.346802
O O1 0.314020 0.518952 0.560539
O O2 0.162296 0.620388 0.325822
O O3 0.236275 0.096969 0.688062
O O4 0.433105 0.924203 0.763934
O O5 0.568602 0.966543 0.446971
O O6 0.500000 0.000000 0.500000
O O7 0.357681 0.295436 0.363895
O O8 0.293035 0.653688 0.033846
O O9 0.822428 0.365018 0.774328
O O10 0.827812 0.864857 0.660636
O O11 0.811880 0.768233 0.476617
O O12 0.063788 0.077359 0.940344
O O13 0.188434 0.634865 0.780306
O O14 0.005498 0.359492 0.547505
O O15 0.431736 0.558042 0.824850
O O16 0.708739 0.153617 0.132279
O O17 0.500000 0.500000 0.000000
#
# Coordination Sequence:
#
# PCOD8006328 Si02
#       8
#     2   2   2   2   2   2   2   2
#     4  12  22  40  65  96 130 178 214 261 331 395
#     4  12  24  42  63  97 137 176 211 272 328 391
#     4  10  22  43  67  99 129 171 222 272 326 389
#     4  11  22  39  67  98 130 169 220 268 328 381
#     4  11  24  40  64  94 130 173 216 265 329 391
#     4  11  20  39  65  97 126 165 219 270 321 384
#     4  11  23  42  69  93 134 175 217 269 331 386
#     4  10  20  39  67  98 130 164 218 278 321 376
#
# _framework density 21.338739
#
# number of rings (size 3 to 8) (size 9 to 14) (size 15 to 20)
#    0.000    1.000    6.250    1.125    0.000    1.000 
#    0.000    5.000    0.000    0.000    0.000    0.000 
#    0.000    0.000    0.000    0.000    0.000    0.000 
#
# Total GULP energy -198252.100123 kJ/mol
# GULP energy per Si atom -12390.756258 kJ/mol
# Density = 2.129017 g / cm^3
# Si number density = 21.338739 Si / 1000 Ang^3
#
#
#
# Elastic Constant Matrix: (Units=GPa)
#
#
# Indices 1 2 3 4 5 6 
#
# 1 85.2857 29.4073 35.4455 -8.4707 16.6985 6.5073
# 2 29.4073 96.8186 28.3891 -5.5530 22.4145 -2.6727
# 3 35.4455 28.3891 91.2548 -7.4854 1.1851 10.5018
# 4 -8.4707 -5.5530 -7.4854 26.9339 -0.5054 5.1871
# 5 16.6985 22.4145 1.1851 -0.5054 41.7673 2.5259
# 6 6.5073 -2.6727 10.5018 5.1871 2.5259 39.0158
#
#
#
# Elastic Compliance Matrix: (Units=1/GPa)
#
#
# Indices 1 2 3 4 5 6 
#
# 1 0.015966 -0.002065 -0.005033 0.003407 -0.004995 -0.001579
# 2 -0.002065 0.013630 -0.003609 0.000534 -0.006537 0.002602
# 3 -0.005033 -0.003609 0.014651 0.002575 0.003802 -0.003940
# 4 0.003407 0.000534 0.002575 0.040266 -0.000840 -0.006524
# 5 -0.004995 -0.006537 0.003802 -0.000840 0.029477 -0.002435
# 6 -0.001579 0.002602 -0.003940 -0.006524 -0.002435 0.028158
#
#
# Mechanical properties :
#
#
# Convention : Reuss Voigt Hill
#
# Bulk Modulus (GPa) = 43.79616 51.09367 47.44491
# Shear Modulus (GPa) = 29.21024 33.55122 31.38073
#
# Velocity S-wave (km/s) = 3.70386 3.96954 3.83900
# Velocity P-wave (km/s) = 6.23380 6.70863 6.47557
#
# Compressibility (1/GPa) = 0.02283305
#
# Stress axis : x y z
#
# Youngs Moduli (GPa) = 62.63229 73.36769 68.25396
#
# Poissons Ratio (x) = 0.15154 0.34352
# Poissons Ratio (y) = 0.12937 0.24631
# Poissons Ratio (z) = 0.31523 0.26476
#
# Static dielectric constant tensor:
#      x y z
#    x 3.840550 -0.266510 0.064900 
#    y -0.266510 3.662720 -0.139690 
#    z 0.064900 -0.139690 4.070910 
# 
# 
# High freq. dielectric constant tensor:
#      x y z
#    x 1.831210 -0.012680 -0.005460 
#    y -0.012680 1.821530 -0.010680 
#    z -0.005460 -0.010680 1.845800 
# 
# From -- ./inp_files/602313.got.cif
#   From: 2010.06.25/outbox.cif.g09.slc.cpg/sg2_302_cif.got.tgz:602313.got - 2010.06.27 13:26:56.
