data_PCOD8006516
_publ_section_title
;
Structure prediction by ZEFSAII (Michael W. Deem and Ramdas Pophale) SiO2 
 PCOD8006516
Probable space group: P -1
;
_chemical_formula_sum "Si O2"
_cell_formula_units_Z 16
_cell_length_a 10.583937
_cell_length_b 11.264931
_cell_length_c 12.392320
_cell_angle_alpha 62.777795
_cell_angle_beta 105.660544
_cell_angle_gamma 145.866706
_cell_volume 719.522087
_symmetry_space_group_name_H-M "P -1"
_symmetry_group_IT_number 2
_symmetry_cell_setting 'triclinic'
loop_
_space_group_symop_operation_xyz
x,y,z
-x,-y,-z
loop_
_atom_site_type_symbol
_atom_site_label
_atom_site_fract_x
_atom_site_fract_y
_atom_site_fract_z
Si Si1 0.211659 0.769553 0.410222
Si Si2 0.723224 0.115011 0.397902
Si Si3 0.090816 0.627916 0.214979
Si Si4 0.782682 0.789960 0.677715
Si Si5 0.271071 0.231865 0.089257
Si Si6 0.418351 0.651180 0.235571
Si Si7 0.159025 0.949588 0.989114
Si Si8 0.275546 0.149914 0.583210
O O1 0.217212 0.878746 0.466063
O O2 0.171909 0.784674 0.272475
O O3 0.000000 0.500000 0.500000
O O4 0.449526 0.887642 0.418353
O O5 0.838158 0.352261 0.291108
O O6 0.816768 0.079254 0.355559
O O7 0.267060 0.655790 0.219333
O O8 0.083991 0.731507 0.075646
O O9 0.705604 0.796941 0.768683
O O10 0.726160 0.584487 0.760002
O O11 0.644971 0.732827 0.566100
O O12 0.056115 0.047845 0.619206
O O13 0.236831 0.077512 0.067710
O O14 0.500000 0.500000 0.000000
O O15 0.054880 0.150495 0.067806
O O16 0.506851 0.662307 0.364847
O O17 0.635010 0.875312 0.120965
#
# Coordination Sequence:
#
# PCOD8006516 Si02
#       8
#     2   2   2   2   2   2   2   2
#     4   9  20  38  59  88 130 168 209 262 319 383
#     4  10  20  40  59  93 135 166 213 265 317 400
#     4  11  23  40  65  97 131 177 211 266 338 388
#     4  11  24  43  68  95 126 175 220 273 339 384
#     4  11  24  49  67  92 132 174 227 279 318 395
#     4  12  22  45  65  99 136 163 222 280 324 399
#     4  11  26  43  67  97 131 174 223 271 327 392
#     4  11  23  41  67  96 129 170 219 272 335 391
#
# _framework density 22.236982000000001
#
# number of rings (size 3 to 8) (size 9 to 14) (size 15 to 20)
#    0.000    1.250    5.000    0.750    1.750    1.000 
#    4.500    1.250    0.000    0.000    0.000    0.000 
#    0.000    0.000    0.000    0.000    0.000    0.000 
#
# Total GULP energy -198293.576324 kJ/mol
# GULP energy per Si atom -12393.348520 kJ/mol
# Density = 2.218637 g / cm^3
# Si number density = 22.236982 Si / 1000 Ang^3
#
#
#
# Elastic Constant Matrix: (Units=GPa)
#
#
# Indices 1 2 3 4 5 6 
#
# 1 52.2449 24.0568 24.5717 -0.5019 -10.9538 13.9471
# 2 24.0568 87.3653 31.2084 -5.7817 -8.9889 5.9644
# 3 24.5717 31.2084 121.6572 1.9063 -11.9433 6.3712
# 4 -0.5019 -5.7817 1.9063 32.6332 -2.9528 -11.4185
# 5 -10.9538 -8.9889 -11.9433 -2.9528 37.0129 -2.2857
# 6 13.9471 5.9644 6.3712 -11.4185 -2.2857 30.8879
#
#
#
# Elastic Compliance Matrix: (Units=1/GPa)
#
#
# Indices 1 2 3 4 5 6 
#
# 1 0.027088 -0.005388 -0.002949 -0.004044 0.004710 -0.011729
# 2 -0.005388 0.014079 -0.002520 0.003215 0.001362 0.001523
# 3 -0.002949 -0.002520 0.009652 -0.001079 0.001515 -0.000460
# 4 -0.004044 0.003215 -0.001079 0.036842 0.003119 0.015278
# 5 0.004710 0.001362 0.001515 0.003119 0.029519 0.000635
# 6 -0.011729 0.001523 -0.000460 0.015278 0.000635 0.043167
#
#
# Mechanical properties :
#
#
# Convention : Reuss Voigt Hill
#
# Bulk Modulus (GPa) = 34.35812 46.77126 40.56469
# Shear Modulus (GPa) = 26.07402 32.20216 29.13809
#
# Velocity S-wave (km/s) = 3.42797 3.80957 3.62379
# Velocity P-wave (km/s) = 5.58143 6.35839 5.98254
#
# Compressibility (1/GPa) = 0.02910521
#
# Stress axis : x y z
#
# Youngs Moduli (GPa) = 36.91646 71.02874 103.61001
#
# Poissons Ratio (x) = 0.38269 0.30555
# Poissons Ratio (y) = 0.19890 0.26108
# Poissons Ratio (z) = 0.10887 0.17898
#
# Static dielectric constant tensor:
#      x y z
#    x 3.913790 -0.097160 -0.311520 
#    y -0.097160 4.248750 0.280100 
#    z -0.311520 0.280100 4.150750 
# 
# 
# High freq. dielectric constant tensor:
#      x y z
#    x 1.863480 -0.003100 -0.019340 
#    y -0.003100 1.884910 0.002810 
#    z -0.019340 0.002810 1.876300 
# 
# From -- ./inp_files/83211.got.cif
#   From: 2010.06.25/outbox.cif.g09.slc.cpg/sg2_42_cif.got.tgz:83211.got - 2010.06.27 13:26:56.
