data_PCOD8006255
_publ_section_title
;
Structure prediction by ZEFSAII (Michael W. Deem and Ramdas Pophale) SiO2 
 PCOD8006255
Probable space group: P -1
;
_chemical_formula_sum "Si O2"
_cell_formula_units_Z 12
_cell_length_a 5.143793
_cell_length_b 8.476394
_cell_length_c 12.245238
_cell_angle_alpha 100.452934
_cell_angle_beta 106.525245
_cell_angle_gamma 84.150662
_cell_volume 502.637617
_symmetry_space_group_name_H-M "P -1"
_symmetry_group_IT_number 2
_symmetry_cell_setting 'triclinic'
loop_
_space_group_symop_operation_xyz
x,y,z
-x,-y,-z
loop_
_atom_site_type_symbol
_atom_site_label
_atom_site_fract_x
_atom_site_fract_y
_atom_site_fract_z
Si Si1 0.427807 0.684412 0.634607
Si Si2 0.848496 0.874497 0.095165
Si Si3 0.163780 0.527707 0.770240
Si Si4 0.150433 0.183015 0.152888
Si Si5 0.715021 0.339706 0.618081
Si Si6 0.572760 0.272766 0.818507
O O1 0.185080 0.640448 0.680197
O O2 0.605583 0.817448 0.730130
O O3 0.613118 0.524602 0.614950
O O4 0.305558 0.750273 0.512320
O O5 0.611094 0.844956 0.149661
O O6 0.111951 0.748405 0.112507
O O7 0.724800 0.863252 0.956881
O O8 0.945102 0.052096 0.152512
O O9 0.456393 0.459612 0.845155
O O10 0.004086 0.640290 0.853300
O O11 0.022472 0.361721 0.699867
O O12 0.557757 0.243131 0.680696
#
# Coordination Sequence:
#
# PCOD8006255 Si02
#       6
#     2   2   2   2   2   2
#     4   9  19  36  66  94 128 162 218 256 312 380
#     4  11  26  44  66  88 138 167 212 258 322 379
#     4  10  20  39  67 100 124 164 218 258 319 369
#     4  10  25  42  63  96 122 179 211 260 311 385
#     4   9  18  39  62  98 127 165 204 269 316 371
#     4  11  23  43  67  95 127 172 204 269 321 366
#
# _framework density 23.874054999999998
#
# number of rings (size 3 to 8) (size 9 to 14) (size 15 to 20)
#    0.000    2.000    1.667    0.500    4.667    4.000 
#    0.000    1.667    0.000    0.000    0.000    0.000 
#    0.000    0.000    0.000    0.000    0.000    0.000 
#
# Total GULP energy -148683.528342 kJ/mol
# GULP energy per Si atom -12390.294029 kJ/mol
# Density = 2.381972 g / cm^3
# Si number density = 23.874055 Si / 1000 Ang^3
#
#
#
# Elastic Constant Matrix: (Units=GPa)
#
#
# Indices 1 2 3 4 5 6 
#
# 1 91.0493 13.4799 34.3879 2.5618 -10.2410 30.2646
# 2 13.4799 49.6307 45.7422 2.7285 -9.0033 11.5676
# 3 34.3879 45.7422 143.9437 13.6153 -11.4856 31.7221
# 4 2.5618 2.7285 13.6153 27.5086 13.8058 -1.4649
# 5 -10.2410 -9.0033 -11.4856 13.8058 24.2702 -21.2754
# 6 30.2646 11.5676 31.7221 -1.4649 -21.2754 41.2322
#
#
#
# Elastic Compliance Matrix: (Units=1/GPa)
#
#
# Indices 1 2 3 4 5 6 
#
# 1 0.015362 -0.001769 -0.000879 0.003057 -0.009294 -0.014790
# 2 -0.001769 0.030652 -0.009172 -0.006774 0.017733 0.008665
# 3 -0.000879 -0.009172 0.011885 -0.004340 -0.001843 -0.007030
# 4 0.003057 -0.006774 -0.004340 0.074406 -0.074238 -0.032667
# 5 -0.009294 0.017733 -0.001843 -0.074238 0.156600 0.081432
# 6 -0.014790 0.008665 -0.007030 -0.032667 0.081432 0.078944
#
#
# Mechanical properties :
#
#
# Convention : Reuss Voigt Hill
#
# Bulk Modulus (GPa) = 29.18954 52.42707 40.80831
# Shear Modulus (GPa) = 12.40977 31.33643 21.87310
#
# Velocity S-wave (km/s) = 2.28239 3.62687 3.03014
# Velocity P-wave (km/s) = 4.38164 6.28860 5.41965
#
# Compressibility (1/GPa) = 0.03425885
#
# Stress axis : x y z
#
# Youngs Moduli (GPa) = 65.09650 32.62390 84.14288
#
# Poissons Ratio (x) = 0.05771 0.07397
# Poissons Ratio (y) = 0.11516 0.77175
# Poissons Ratio (z) = 0.05722 0.29922
#
# Static dielectric constant tensor:
#      x y z
#    x 4.373210 -0.008680 0.083850 
#    y -0.008680 3.957030 -0.241640 
#    z 0.083850 -0.241640 4.522690 
# 
# 
# High freq. dielectric constant tensor:
#      x y z
#    x 1.954670 0.005410 -0.006150 
#    y 0.005410 1.911180 -0.016810 
#    z -0.006150 -0.016810 1.937280 
# 
# From -- ./inp_files/19860.got.cif
#   From: 2010.06.25/outbox.cif.g09.slc.cpg/sg2_10_cif.got.tgz:19860.got - 2010.06.27 13:26:56.
