data_PCOD8006506
_publ_section_title
;
Structure prediction by ZEFSAII (Michael W. Deem and Ramdas Pophale) SiO2 
 PCOD8006506
Probable space group: P -1
;
_chemical_formula_sum "Si O2"
_cell_formula_units_Z 16
_cell_length_a 13.630092
_cell_length_b 13.473843
_cell_length_c 14.195164
_cell_angle_alpha 35.646398
_cell_angle_beta 135.414171
_cell_angle_gamma 148.966235
_cell_volume 782.155683
_symmetry_space_group_name_H-M "P -1"
_symmetry_group_IT_number 2
_symmetry_cell_setting 'triclinic'
loop_
_space_group_symop_operation_xyz
x,y,z
-x,-y,-z
loop_
_atom_site_type_symbol
_atom_site_label
_atom_site_fract_x
_atom_site_fract_y
_atom_site_fract_z
Si Si1 0.160571 0.816760 0.140453
Si Si2 0.821463 0.550612 0.562090
Si Si3 0.225159 0.414289 0.849249
Si Si4 0.176327 0.458287 0.211945
Si Si5 0.449600 0.386777 0.653005
Si Si6 0.188438 0.861887 0.910985
Si Si7 0.979301 0.290734 0.611459
Si Si8 0.354921 0.153341 0.178735
O O1 0.252030 0.703883 0.296977
O O2 0.941129 0.632445 0.167898
O O3 0.301438 0.051598 0.115207
O O4 0.159466 0.887002 0.980351
O O5 0.879699 0.635169 0.645533
O O6 0.663814 0.557485 0.413660
O O7 0.992481 0.710368 0.480319
O O8 0.419889 0.687453 0.769668
O O9 0.137296 0.313980 0.761548
O O10 0.285345 0.289388 0.036427
O O11 0.346134 0.487956 0.258981
O O12 0.003225 0.263780 0.179211
O O13 0.244062 0.710513 0.054484
O O14 0.500000 0.500000 0.500000
O O15 0.340027 0.116993 0.774441
O O16 0.000000 0.500000 0.500000
O O17 0.763748 0.053922 0.666903
#
# Coordination Sequence:
#
# PCOD8006506 Si02
#       8
#     2   2   2   2   2   2   2   2
#     4  10  20  40  59  86 119 160 197 241 296 349
#     4  10  21  38  59  87 122 160 192 237 300 350
#     4  10  22  39  60  87 119 154 206 242 292 347
#     4   9  21  43  61  88 118 153 204 244 287 353
#     4  10  22  38  60  87 123 149 195 247 296 345
#     4  10  21  38  69  86 115 158 197 243 298 348
#     4  11  20  39  62  85 125 159 191 241 297 348
#     4  10  22  39  61  85 121 155 201 251 284 350
#
# _framework density 20.456285000000001
#
# number of rings (size 3 to 8) (size 9 to 14) (size 15 to 20)
#    0.000    2.000    2.500    1.875    3.500    3.500 
#    2.250   10.000    0.000    0.000    0.000    0.000 
#    0.000    0.000    0.000    0.000    0.000    0.000 
#
# Total GULP energy -198259.164536 kJ/mol
# GULP energy per Si atom -12391.197784 kJ/mol
# Density = 2.040973 g / cm^3
# Si number density = 20.456285 Si / 1000 Ang^3
#
#
#
# Elastic Constant Matrix: (Units=GPa)
#
#
# Indices 1 2 3 4 5 6 
#
# 1 79.4654 41.7700 33.8372 -1.2348 -4.0108 0.5379
# 2 41.7700 113.7572 35.1252 -3.3741 -9.0632 16.6031
# 3 33.8372 35.1252 85.0672 -1.3752 -15.0709 13.1059
# 4 -1.2348 -3.3741 -1.3752 26.4046 13.5578 -5.4259
# 5 -4.0108 -9.0632 -15.0709 13.5578 32.4119 8.7316
# 6 0.5379 16.6031 13.1059 -5.4259 8.7316 24.0407
#
#
#
# Elastic Compliance Matrix: (Units=1/GPa)
#
#
# Indices 1 2 3 4 5 6 
#
# 1 0.019931 -0.007514 -0.009351 0.009093 -0.012182 0.016317
# 2 -0.007514 0.014118 0.001536 -0.007595 0.011282 -0.016231
# 3 -0.009351 0.001536 0.022656 -0.016350 0.023496 -0.025427
# 4 0.009093 -0.007595 -0.016350 0.073913 -0.052953 0.049870
# 5 -0.012182 0.011282 0.023496 -0.052953 0.082327 -0.062180
# 6 0.016317 -0.016231 -0.025427 0.049870 -0.062180 0.100142
#
#
# Mechanical properties :
#
#
# Convention : Reuss Voigt Hill
#
# Bulk Modulus (GPa) = 38.38986 55.52829 46.95908
# Shear Modulus (GPa) = 14.18737 27.74191 20.96464
#
# Velocity S-wave (km/s) = 2.63638 3.68660 3.20480
# Velocity P-wave (km/s) = 5.29857 6.73239 6.05805
#
# Compressibility (1/GPa) = 0.02604854
#
# Stress axis : x y z
#
# Youngs Moduli (GPa) = 50.17277 70.83261 44.13756
#
# Poissons Ratio (x) = 0.53221 0.41272
# Poissons Ratio (y) = 0.37698 -0.06779
# Poissons Ratio (z) = 0.46915 -0.10879
#
# Static dielectric constant tensor:
#      x y z
#    x 4.182270 0.282010 0.288650 
#    y 0.282010 3.648380 0.155180 
#    z 0.288650 0.155180 4.214660 
# 
# 
# High freq. dielectric constant tensor:
#      x y z
#    x 1.795040 0.010120 0.004250 
#    y 0.010120 1.777710 -0.000750 
#    z 0.004250 -0.000750 1.818650 
# 
# From -- ./inp_files/270386.got.cif
#   From: 2010.06.25/outbox.cif.g09.slc.cpg/sg2_136_cif.got.tgz:270386.got - 2010.06.27 13:26:56.
