data_PCOD8006128
_publ_section_title
;
Structure prediction by ZEFSAII (Michael W. Deem and Ramdas Pophale) SiO2 
 PCOD8006128
Probable space group: P -1
;
_chemical_formula_sum "Si O2"
_cell_formula_units_Z 14
_cell_length_a 13.656892
_cell_length_b 8.869897
_cell_length_c 14.572703
_cell_angle_alpha 146.674115
_cell_angle_beta 138.218635
_cell_angle_gamma 46.344415
_cell_volume 635.195091
_symmetry_space_group_name_H-M "P -1"
_symmetry_group_IT_number 2
_symmetry_cell_setting 'triclinic'
loop_
_space_group_symop_operation_xyz
x,y,z
-x,-y,-z
loop_
_atom_site_type_symbol
_atom_site_label
_atom_site_fract_x
_atom_site_fract_y
_atom_site_fract_z
Si Si1 0.322643 0.815178 0.476048
Si Si2 0.786007 0.044405 0.128627
Si Si3 0.380976 0.458693 0.647254
Si Si4 0.002811 0.819034 0.001161
Si Si5 0.517648 0.776405 0.752628
Si Si6 0.007938 0.811740 0.320449
Si Si7 0.678349 0.107394 0.689868
O O1 0.411223 0.944580 0.684810
O O2 0.370489 0.481080 0.345199
O O3 0.362994 0.931586 0.465975
O O4 0.145541 0.886316 0.398254
O O5 0.866275 0.882759 0.190429
O O6 0.884265 0.981782 0.073633
O O7 0.745762 0.378556 0.289357
O O8 0.621431 0.970498 0.968294
O O9 0.407275 0.677331 0.698983
O O10 0.538671 0.333902 0.745893
O O11 0.314187 0.204121 0.422865
O O12 0.170126 0.776150 0.135895
O O13 0.968110 0.513992 0.800234
O O14 0.000000 0.000000 0.000000
O O15 0.000000 0.000000 0.500000
#
# Coordination Sequence:
#
# PCOD8006128 Si02
#       7
#     2   2   2   2   2   2   2
#     4  10  20  39  65  94 133 179 226 272 341 408
#     4  12  24  45  73 101 144 178 241 285 350 407
#     4  10  23  40  69 101 133 185 222 293 340 421
#     4  12  28  45  71 102 145 187 232 290 350 414
#     4  10  21  38  69  98 132 177 233 279 338 412
#     4  12  25  43  70 105 139 184 235 283 343 416
#     4  10  23  45  66  97 146 180 227 284 363 403
#
# _framework density 22.040472000000001
#
# number of rings (size 3 to 8) (size 9 to 14) (size 15 to 20)
#    0.000    1.143    2.857    3.429    4.000    5.143 
#    0.000    1.429    0.000    0.000    0.000    0.000 
#    0.000    0.000    0.000    0.000    0.000    0.000 
#
# Total GULP energy -173547.865330 kJ/mol
# GULP energy per Si atom -12396.276095 kJ/mol
# Density = 2.199031 g / cm^3
# Si number density = 22.040472 Si / 1000 Ang^3
#
#
#
# Elastic Constant Matrix: (Units=GPa)
#
#
# Indices 1 2 3 4 5 6 
#
# 1 103.9006 42.7378 38.7897 10.4862 -11.0393 -7.0475
# 2 42.7378 100.0151 40.3688 -2.2364 -12.3130 -0.9687
# 3 38.7897 40.3688 82.2652 -8.3800 -11.3448 -4.8241
# 4 10.4862 -2.2364 -8.3800 40.5558 -11.1335 -8.3963
# 5 -11.0393 -12.3130 -11.3448 -11.1335 33.9656 -2.0793
# 6 -7.0475 -0.9687 -4.8241 -8.3963 -2.0793 39.9249
#
#
#
# Elastic Compliance Matrix: (Units=1/GPa)
#
#
# Indices 1 2 3 4 5 6 
#
# 1 0.013581 -0.003929 -0.004923 -0.004630 -0.000127 0.000727
# 2 -0.003929 0.013831 -0.004428 0.001524 0.002731 -0.000430
# 3 -0.004923 -0.004428 0.018258 0.006875 0.005328 0.002953
# 4 -0.004630 0.001524 0.006875 0.032313 0.012394 0.007491
# 5 -0.000127 0.002731 0.005328 0.012394 0.036551 0.005198
# 6 0.000727 -0.000430 0.002953 0.007491 0.005198 0.027368
#
#
# Mechanical properties :
#
#
# Convention : Reuss Voigt Hill
#
# Bulk Modulus (GPa) = 52.32356 58.88592 55.60474
# Shear Modulus (GPa) = 28.59921 33.84155 31.22038
#
# Velocity S-wave (km/s) = 3.60610 3.92270 3.76773
# Velocity P-wave (km/s) = 6.41326 6.87692 6.64913
#
# Compressibility (1/GPa) = 0.01911185
#
# Stress axis : x y z
#
# Youngs Moduli (GPa) = 73.62981 72.30333 54.77103
#
# Poissons Ratio (x) = 0.28407 0.26961
# Poissons Ratio (y) = 0.28928 0.24251
# Poissons Ratio (z) = 0.36245 0.32013
#
# Static dielectric constant tensor:
#      x y z
#    x 3.967950 -0.227710 -0.062550 
#    y -0.227710 4.023300 -0.111770 
#    z -0.062550 -0.111770 3.987530 
# 
# 
# High freq. dielectric constant tensor:
#      x y z
#    x 1.872530 -0.015040 0.004800 
#    y -0.015040 1.864070 -0.007340 
#    z 0.004800 -0.007340 1.858860 
# 
# From -- ./inp_files/190118.got.cif
#   From: 2010.06.25/outbox.cif.g09.slc.cpg/sg2_96_cif.got.tgz:190118.got - 2010.06.27 13:26:56.
