data_PCOD8006639
_publ_section_title
;
Structure prediction by ZEFSAII (Michael W. Deem and Ramdas Pophale) SiO2 
 PCOD8006639
Probable space group: P -1
;
_chemical_formula_sum "Si O2"
_cell_formula_units_Z 16
_cell_length_a 7.760426
_cell_length_b 14.039269
_cell_length_c 6.740121
_cell_angle_alpha 99.494546
_cell_angle_beta 81.077330
_cell_angle_gamma 78.764426
_cell_volume 696.966546
_symmetry_space_group_name_H-M "P -1"
_symmetry_group_IT_number 2
_symmetry_cell_setting 'triclinic'
loop_
_space_group_symop_operation_xyz
x,y,z
-x,-y,-z
loop_
_atom_site_type_symbol
_atom_site_label
_atom_site_fract_x
_atom_site_fract_y
_atom_site_fract_z
Si Si1 0.343013 0.821868 0.126479
Si Si2 0.744447 0.776686 0.964841
Si Si3 0.069432 0.309028 0.730556
Si Si4 0.834761 0.451497 0.547299
Si Si5 0.252393 0.712711 0.744367
Si Si6 0.053472 0.851867 0.513241
Si Si7 0.844942 0.976085 0.890539
Si Si8 0.652463 0.656327 0.590207
O O1 0.554351 0.782669 0.111980
O O2 0.236515 0.847161 0.359608
O O3 0.314975 0.925537 0.047552
O O4 0.264938 0.739277 0.985534
O O5 0.905617 0.707892 0.042645
O O6 0.770063 0.886829 0.964339
O O7 0.749570 0.720863 0.737696
O O8 0.239159 0.349993 0.637383
O O9 0.881022 0.381462 0.712956
O O10 0.077737 0.199896 0.605947
O O11 0.800586 0.390649 0.336129
O O12 0.665977 0.544913 0.639545
O O13 0.000000 0.500000 0.500000
O O14 0.105027 0.798731 0.698746
O O15 0.446886 0.708554 0.610791
O O16 0.929586 0.956749 0.643839
O O17 0.000000 0.000000 0.000000
#
# Coordination Sequence:
#
# PCOD8006639 Si02
#       8
#     2   2   2   2   2   2   2   2
#     4  11  24  41  63  91 126 163 204 254 306 364
#     4  11  24  41  62  91 128 162 204 252 310 362
#     4  10  21  38  62  90 123 162 203 252 304 366
#     4   9  20  36  64  92 123 161 205 254 305 363
#     4  10  21  39  62  90 126 163 200 254 310 360
#     4  11  22  40  63  91 122 163 207 251 303 363
#     4  12  23  42  64  91 123 163 208 254 301 364
#     4  10  20  40  62  90 128 160 202 255 310 361
#
# _framework density 22.956626
#
# number of rings (size 3 to 8) (size 9 to 14) (size 15 to 20)
#    0.000    1.500    2.500    2.625    0.000    0.500 
#    0.000    5.000    0.000   13.500    0.000    0.000 
#    0.000    0.000    0.000    0.000    0.000    0.000 
#
# Total GULP energy -198269.424097 kJ/mol
# GULP energy per Si atom -12391.839006 kJ/mol
# Density = 2.290438 g / cm^3
# Si number density = 22.956626 Si / 1000 Ang^3
#
#
#
# Elastic Constant Matrix: (Units=GPa)
#
#
# Indices 1 2 3 4 5 6 
#
# 1 64.0617 5.4403 13.2802 12.1785 17.7140 6.0485
# 2 5.4403 92.2991 25.3838 16.9150 21.4697 3.1433
# 3 13.2802 25.3838 59.9689 4.2645 13.0643 16.1793
# 4 12.1785 16.9150 4.2645 33.6567 2.1000 4.5008
# 5 17.7140 21.4697 13.0643 2.1000 36.9395 3.2457
# 6 6.0485 3.1433 16.1793 4.5008 3.2457 36.2457
#
#
#
# Elastic Compliance Matrix: (Units=1/GPa)
#
#
# Indices 1 2 3 4 5 6 
#
# 1 0.020343 0.003513 -0.003085 -0.008044 -0.010213 -0.000409
# 2 0.003513 0.015548 -0.005553 -0.008161 -0.008497 0.002319
# 3 -0.003085 -0.005553 0.022573 0.002433 -0.002611 -0.009148
# 4 -0.008044 -0.008161 0.002433 0.036591 0.006022 -0.004119
# 5 -0.010213 -0.008497 -0.002611 0.006022 0.037532 -0.000502
# 6 -0.000409 0.002319 -0.009148 -0.004119 -0.000502 0.032097
#
#
# Mechanical properties :
#
#
# Convention : Reuss Voigt Hill
#
# Bulk Modulus (GPa) = 20.74101 33.83758 27.28930
# Shear Modulus (GPa) = 26.17747 32.85008 29.51378
#
# Velocity S-wave (km/s) = 3.38050 3.78691 3.58946
# Velocity P-wave (km/s) = 4.92864 5.82174 5.39371
#
# Compressibility (1/GPa) = 0.04821366
#
# Stress axis : x y z
#
# Youngs Moduli (GPa) = 49.15728 64.31843 44.30102
#
# Poissons Ratio (x) = -0.22595 0.13665
# Poissons Ratio (y) = -0.17269 0.24601
# Poissons Ratio (z) = 0.15163 0.35717
#
# Static dielectric constant tensor:
#      x y z
#    x 4.176890 -0.278220 0.064180 
#    y -0.278220 4.717650 0.248930 
#    z 0.064180 0.248930 4.014590 
# 
# 
# High freq. dielectric constant tensor:
#      x y z
#    x 1.912070 -0.002810 0.006250 
#    y -0.002810 1.908040 0.012920 
#    z 0.006250 0.012920 1.890760 
# 
# From -- ./inp_files/39825.got.cif
#   From: 2010.06.25/outbox.cif.g09.slc.cpg/sg2_20_cif.got.tgz:39825.got - 2010.06.27 13:26:56.
