data_PCOD8006059
_publ_section_title
;
Structure prediction by ZEFSAII (Michael W. Deem and Ramdas Pophale) SiO2 
 PCOD8006059
Probable space group: P -1
;
_chemical_formula_sum "Si O2"
_cell_formula_units_Z 16
_cell_length_a 16.723499
_cell_length_b 9.960298
_cell_length_c 9.872151
_cell_angle_alpha 113.269666
_cell_angle_beta 100.206186
_cell_angle_gamma 34.738761
_cell_volume 825.967476
_symmetry_space_group_name_H-M "P -1"
_symmetry_group_IT_number 2
_symmetry_cell_setting 'triclinic'
loop_
_space_group_symop_operation_xyz
x,y,z
-x,-y,-z
loop_
_atom_site_type_symbol
_atom_site_label
_atom_site_fract_x
_atom_site_fract_y
_atom_site_fract_z
Si Si1 0.844522 0.785649 0.909766
Si Si2 0.867503 0.611743 0.567443
Si Si3 0.638981 0.352371 0.060796
Si Si4 0.941631 0.170019 0.419336
Si Si5 0.122357 0.814386 0.077651
Si Si6 0.634358 0.589449 0.373923
Si Si7 0.353981 0.117507 0.622260
Si Si8 0.843760 0.572204 0.068936
O O1 0.806032 0.783378 0.749625
O O2 0.004746 0.616976 0.887379
O O3 0.730954 0.078965 0.035448
O O4 0.830051 0.674876 0.964852
O O5 0.919108 0.372877 0.528561
O O6 0.736657 0.810261 0.501175
O O7 0.000000 0.500000 0.500000
O O8 0.736186 0.305844 0.971470
O O9 0.500000 0.500000 0.000000
O O10 0.589035 0.516948 0.243653
O O11 0.788711 0.327407 0.388451
O O12 0.000000 0.000000 0.500000
O O13 0.059977 0.980654 0.260469
O O14 0.169497 0.578534 0.027768
O O15 0.000000 0.000000 0.000000
O O16 0.643520 0.710938 0.320711
O O17 0.514406 0.804921 0.539243
O O18 0.284305 0.182223 0.771393
#
# Coordination Sequence:
#
# PCOD8006059 Si02
#       8
#     2   2   2   2   2   2   2   2
#     4  11  23  37  61  95 129 154 207 266 311 360
#     4  11  20  36  59  89 120 159 205 250 300 369
#     4  12  24  41  65  96 126 164 212 263 308 370
#     4  11  23  39  63  94 120 159 209 260 307 369
#     4  12  20  42  71  88 119 171 218 250 303 380
#     4  10  21  40  65  89 122 164 214 256 305 375
#     4  10  20  39  65  86 119 168 208 248 311 375
#     4  11  21  39  64  92 121 167 204 258 316 365
#
# _framework density 19.371221999999999
#
# number of rings (size 3 to 8) (size 9 to 14) (size 15 to 20)
#    0.000    1.000    5.000    3.000    0.000    1.000 
#    2.250    1.250    0.000    0.000    0.000    0.000 
#    0.000    0.000    0.000    0.000    0.000    0.000 
#
# Total GULP energy -198480.223536 kJ/mol
# GULP energy per Si atom -12405.013971 kJ/mol
# Density = 1.932713 g / cm^3
# Si number density = 19.371222 Si / 1000 Ang^3
#
#
#
# Elastic Constant Matrix: (Units=GPa)
#
#
# Indices 1 2 3 4 5 6 
#
# 1 100.8961 41.0836 19.9082 1.0611 10.7765 -11.3436
# 2 41.0836 77.3494 26.6135 8.6513 0.4534 -5.2082
# 3 19.9082 26.6135 94.1331 8.0459 7.3483 -7.4016
# 4 1.0611 8.6513 8.0459 25.3355 -1.7822 -1.4691
# 5 10.7765 0.4534 7.3483 -1.7822 33.9383 8.2214
# 6 -11.3436 -5.2082 -7.4016 -1.4691 8.2214 27.3802
#
#
#
# Elastic Compliance Matrix: (Units=1/GPa)
#
#
# Indices 1 2 3 4 5 6 
#
# 1 0.014200 -0.007236 -0.000170 0.001888 -0.005804 0.006305
# 2 -0.007236 0.018424 -0.003636 -0.004718 0.002985 -0.001626
# 3 -0.000170 -0.003636 0.012484 -0.002764 -0.003605 0.003547
# 4 0.001888 -0.004718 -0.002764 0.042071 0.002085 0.000769
# 5 -0.005804 0.002985 -0.003605 0.002085 0.035386 -0.013325
# 6 0.006305 -0.001626 0.003547 0.000769 -0.013325 0.043826
#
#
# Mechanical properties :
#
#
# Convention : Reuss Voigt Hill
#
# Bulk Modulus (GPa) = 43.43500 49.73214 46.58357
# Shear Modulus (GPa) = 25.49070 29.64901 27.56986
#
# Velocity S-wave (km/s) = 3.63148 3.91649 3.77668
# Velocity P-wave (km/s) = 6.32887 6.79565 6.56641
#
# Compressibility (1/GPa) = 0.02302291
#
# Stress axis : x y z
#
# Youngs Moduli (GPa) = 70.42181 54.27801 80.10476
#
# Poissons Ratio (x) = 0.39278 0.01361
# Poissons Ratio (y) = 0.50961 0.29126
# Poissons Ratio (z) = 0.01196 0.19735
#
# Static dielectric constant tensor:
#      x y z
#    x 3.516990 -0.069010 0.059120 
#    y -0.069010 3.466970 0.139750 
#    z 0.059120 0.139750 3.204010 
# 
# 
# High freq. dielectric constant tensor:
#      x y z
#    x 1.758220 -0.000890 0.006070 
#    y -0.000890 1.746360 0.015250 
#    z 0.006070 0.015250 1.764030 
# 
# From -- ./inp_files/256981.got.cif
#   From: 2010.06.25/outbox.cif.g09.slc.cpg/sg2_129_cif.got.tgz:256981.got - 2010.06.27 13:26:56.
