data_PCOD8006678
_publ_section_title
;
Structure prediction by ZEFSAII (Michael W. Deem and Ramdas Pophale) SiO2 
 PCOD8006678
Probable space group: P -1
;
_chemical_formula_sum "Si O2"
_cell_formula_units_Z 16
_cell_length_a 17.363816
_cell_length_b 6.974702
_cell_length_c 18.538530
_cell_angle_alpha 78.146604
_cell_angle_beta 20.537989
_cell_angle_gamma 86.631658
_cell_volume 710.118908
_symmetry_space_group_name_H-M "P -1"
_symmetry_group_IT_number 2
_symmetry_cell_setting 'triclinic'
loop_
_space_group_symop_operation_xyz
x,y,z
-x,-y,-z
loop_
_atom_site_type_symbol
_atom_site_label
_atom_site_fract_x
_atom_site_fract_y
_atom_site_fract_z
Si Si1 0.915166 0.279175 0.165574
Si Si2 0.622076 0.467234 0.324419
Si Si3 0.005247 0.434974 0.221460
Si Si4 0.902529 0.023766 0.506752
Si Si5 0.266300 0.152669 0.560080
Si Si6 0.520259 0.696955 0.784423
Si Si7 0.148534 0.042099 0.144501
Si Si8 0.666891 0.316879 0.650389
O O1 0.757831 0.311927 0.236000
O O2 0.956651 0.463218 0.177190
O O3 0.768657 0.042990 0.341443
O O4 0.178013 0.314501 0.900449
O O5 0.500000 0.500000 0.500000
O O6 0.416820 0.368308 0.452650
O O7 0.057029 0.222006 0.186538
O O8 0.763004 0.396890 0.479975
O O9 0.234543 0.612781 0.045298
O O10 0.641791 0.837473 0.736835
O O11 0.870042 0.250164 0.514925
O O12 0.000000 0.000000 0.500000
O O13 0.086949 0.000958 0.286893
O O14 0.403291 0.152308 0.365025
O O15 0.011021 0.153464 0.754242
O O16 0.612284 0.503334 0.721801
O O17 0.424216 0.103587 0.879955
#
# Coordination Sequence:
#
# PCOD8006678 Si02
#       8
#     2   2   2   2   2   2   2   2
#     4  10  22  40  60  84 125 163 202 261 315 362
#     4  11  24  39  56  90 126 161 203 255 316 374
#     4   9  18  37  63  86 117 158 209 260 301 364
#     4  10  22  40  61  92 128 163 204 254 312 376
#     4  10  20  40  63  84 121 161 206 259 304 364
#     4  10  21  39  63  92 120 157 215 256 302 378
#     4   8  19  38  60  90 119 158 210 257 295 369
#     4  10  21  39  63  91 125 161 208 258 313 363
#
# _framework density 22.531438999999999
#
# number of rings (size 3 to 8) (size 9 to 14) (size 15 to 20)
#    0.000    2.250    1.250    1.125    1.750    3.500 
#    0.000    9.375    0.000    0.000    0.000    0.000 
#    0.000    0.000    0.000    0.000    0.000    0.000 
#
# Total GULP energy -198224.060178 kJ/mol
# GULP energy per Si atom -12389.003761 kJ/mol
# Density = 2.248016 g / cm^3
# Si number density = 22.531439 Si / 1000 Ang^3
#
#
#
# Elastic Constant Matrix: (Units=GPa)
#
#
# Indices 1 2 3 4 5 6 
#
# 1 131.2852 18.7317 50.3887 -5.7053 -7.3614 2.3069
# 2 18.7317 42.9315 31.9641 2.5552 -10.7964 -9.3074
# 3 50.3887 31.9641 157.3775 -9.1131 8.5837 7.0285
# 4 -5.7053 2.5552 -9.1131 32.2579 4.2872 0.5353
# 5 -7.3614 -10.7964 8.5837 4.2872 21.9000 -7.3314
# 6 2.3069 -9.3074 7.0285 0.5353 -7.3314 25.6731
#
#
#
# Elastic Compliance Matrix: (Units=1/GPa)
#
#
# Indices 1 2 3 4 5 6 
#
# 1 0.009106 -0.000110 -0.003207 0.000065 0.004707 0.001363
# 2 -0.000110 0.061984 -0.018648 -0.018392 0.056162 0.044008
# 3 -0.003207 -0.018648 0.013638 0.008081 -0.022857 -0.016902
# 4 0.000065 -0.018392 0.008081 0.038409 -0.025403 -0.016941
# 5 0.004707 0.056162 -0.022857 -0.025403 0.108149 0.057609
# 6 0.001363 0.044008 -0.016902 -0.016941 0.057609 0.076215
#
#
# Mechanical properties :
#
#
# Convention : Reuss Voigt Hill
#
# Bulk Modulus (GPa) = 24.51064 59.30704 41.90884
# Shear Modulus (GPa) = 13.69747 31.33349 22.51548
#
# Velocity S-wave (km/s) = 2.46829 3.73320 3.16459
# Velocity P-wave (km/s) = 4.36180 6.70533 5.65627
#
# Compressibility (1/GPa) = 0.04079860
#
# Stress axis : x y z
#
# Youngs Moduli (GPa) = 109.81181 16.13315 73.32535
#
# Poissons Ratio (x) = 0.00178 0.23517
# Poissons Ratio (y) = 0.01209 1.36735
# Poissons Ratio (z) = 0.35218 0.30085
#
# Static dielectric constant tensor:
#      x y z
#    x 4.001210 0.023730 -0.171870 
#    y 0.023730 3.904790 -0.257330 
#    z -0.171870 -0.257330 4.537030 
# 
# 
# High freq. dielectric constant tensor:
#      x y z
#    x 1.868980 -0.006140 -0.002720 
#    y -0.006140 1.870980 -0.007970 
#    z -0.002720 -0.007970 1.904900 
# 
# From -- ./inp_files/599488.got.cif
#   From: 2010.06.25/outbox.cif.g09.slc.cpg/sg2_300_cif.got.tgz:599488.got - 2010.06.27 13:26:56.
