data_PCOD8006326
_publ_section_title
;
Structure prediction by ZEFSAII (Michael W. Deem and Ramdas Pophale) SiO2 
 PCOD8006326
Probable space group: P -1
;
_chemical_formula_sum "Si O2"
_cell_formula_units_Z 16
_cell_length_a 9.335925
_cell_length_b 12.884070
_cell_length_c 8.127120
_cell_angle_alpha 65.976459
_cell_angle_beta 112.913523
_cell_angle_gamma 119.422638
_cell_volume 755.376093
_symmetry_space_group_name_H-M "P -1"
_symmetry_group_IT_number 2
_symmetry_cell_setting 'triclinic'
loop_
_space_group_symop_operation_xyz
x,y,z
-x,-y,-z
loop_
_atom_site_type_symbol
_atom_site_label
_atom_site_fract_x
_atom_site_fract_y
_atom_site_fract_z
Si Si1 0.691777 0.084792 0.494474
Si Si2 0.198303 0.630122 0.664444
Si Si3 0.198588 0.488603 0.432650
Si Si4 0.369315 0.074523 0.724470
Si Si5 0.282928 0.860417 0.054497
Si Si6 0.025974 0.879982 0.145930
Si Si7 0.694982 0.717530 0.285498
Si Si8 0.325787 0.643528 0.058736
O O1 0.706061 0.223005 0.388463
O O2 0.823189 0.071315 0.688755
O O3 0.500000 0.000000 0.500000
O O4 0.737704 0.026469 0.389712
O O5 0.254211 0.577594 0.560132
O O6 0.999294 0.594582 0.595537
O O7 0.251563 0.579989 0.890351
O O8 0.300912 0.400335 0.541254
O O9 0.240504 0.560132 0.232651
O O10 0.574570 0.135116 0.747658
O O11 0.301036 0.183275 0.637670
O O12 0.335530 0.001808 0.929445
O O13 0.094785 0.815239 0.075743
O O14 0.284580 0.766413 0.972587
O O15 0.855198 0.773353 0.201287
O O16 0.000000 0.000000 0.000000
O O17 0.526392 0.678989 0.125097
#
# Coordination Sequence:
#
# PCOD8006326 Si02
#       8
#     2   2   2   2   2   2   2   2
#     4  12  24  42  71 103 135 176 234 282 341 419
#     4  11  25  45  74 104 134 183 238 286 334 417
#     4  11  25  48  69 100 144 182 233 287 341 399
#     4  10  21  40  67  97 134 176 220 280 344 406
#     4  10  20  39  67  97 131 177 224 275 342 409
#     4  12  24  41  63 101 141 181 216 282 361 398
#     4  11  25  44  67 101 145 177 223 292 347 408
#     4  11  24  45  75  98 131 189 239 276 344 411
#
# _framework density 21.181501999999998
#
# number of rings (size 3 to 8) (size 9 to 14) (size 15 to 20)
#    0.000    1.000    5.000    1.500    5.250    1.000 
#    2.250    0.000    0.000    0.000    0.000    0.000 
#    0.000    0.000    0.000    0.000    0.000    0.000 
#
# Total GULP energy -198368.895042 kJ/mol
# GULP energy per Si atom -12398.055940 kJ/mol
# Density = 2.113329 g / cm^3
# Si number density = 21.181502 Si / 1000 Ang^3
#
#
#
# Elastic Constant Matrix: (Units=GPa)
#
#
# Indices 1 2 3 4 5 6 
#
# 1 130.3907 46.0470 42.6600 -3.6744 9.1023 1.4807
# 2 46.0470 114.5670 48.3490 -3.7314 -2.6052 -15.5436
# 3 42.6600 48.3490 123.9306 2.7559 -4.5796 -18.3895
# 4 -3.6744 -3.7314 2.7559 34.2735 -2.1823 3.8832
# 5 9.1023 -2.6052 -4.5796 -2.1823 28.9668 -5.0997
# 6 1.4807 -15.5436 -18.3895 3.8832 -5.0997 37.2507
#
#
#
# Elastic Compliance Matrix: (Units=1/GPa)
#
#
# Indices 1 2 3 4 5 6 
#
# 1 0.010283 -0.003501 -0.002979 0.001128 -0.004653 -0.004094
# 2 -0.003501 0.011938 -0.002786 0.000855 0.002502 0.003999
# 3 -0.002979 -0.002786 0.011093 -0.001885 0.003189 0.005065
# 4 0.001128 0.000855 -0.001885 0.030018 0.001051 -0.003604
# 5 -0.004653 0.002502 0.003189 0.001051 0.038187 0.007921
# 6 -0.004094 0.003999 0.005065 -0.003604 0.007921 0.032637
#
#
# Mechanical properties :
#
#
# Convention : Reuss Voigt Hill
#
# Bulk Modulus (GPa) = 67.64003 71.44447 69.54225
# Shear Modulus (GPa) = 31.72305 35.55370 33.63837
#
# Velocity S-wave (km/s) = 3.87418 4.10143 3.98942
# Velocity P-wave (km/s) = 7.21216 7.49879 7.35687
#
# Compressibility (1/GPa) = 0.01478414
#
# Stress axis : x y z
#
# Youngs Moduli (GPa) = 97.24713 83.76384 90.15095
#
# Poissons Ratio (x) = 0.29322 0.26853
# Poissons Ratio (y) = 0.34042 0.25114
# Poissons Ratio (z) = 0.28966 0.23334
#
# Static dielectric constant tensor:
#      x y z
#    x 4.050330 -0.028540 -0.006830 
#    y -0.028540 3.883600 0.081540 
#    z -0.006830 0.081540 3.911960 
# 
# 
# High freq. dielectric constant tensor:
#      x y z
#    x 1.837280 0.000920 0.000070 
#    y 0.000920 1.831280 -0.005510 
#    z 0.000070 -0.005510 1.826540 
# 
# From -- ./inp_files/186145.got.cif
#   From: 2010.06.25/outbox.cif.g09.slc.cpg/sg2_94_cif.got.tgz:186145.got - 2010.06.27 13:26:56.
