data_PCOD8006117
_publ_section_title
;
Structure prediction by ZEFSAII (Michael W. Deem and Ramdas Pophale) SiO2 
 PCOD8006117
Probable space group: P -1
;
_chemical_formula_sum "Si O2"
_cell_formula_units_Z 16
_cell_length_a 21.324333
_cell_length_b 9.010121
_cell_length_c 8.710492
_cell_angle_alpha 78.377551
_cell_angle_beta 127.158064
_cell_angle_gamma 58.757683
_cell_volume 747.223331
_symmetry_space_group_name_H-M "P -1"
_symmetry_group_IT_number 2
_symmetry_cell_setting 'triclinic'
loop_
_space_group_symop_operation_xyz
x,y,z
-x,-y,-z
loop_
_atom_site_type_symbol
_atom_site_label
_atom_site_fract_x
_atom_site_fract_y
_atom_site_fract_z
Si Si1 0.211389 0.919654 0.234403
Si Si2 0.760349 0.250307 0.154797
Si Si3 0.805051 0.462000 0.351250
Si Si4 0.479120 0.647279 0.799944
Si Si5 0.738739 0.464423 0.763339
Si Si6 0.955179 0.742652 0.380799
Si Si7 0.499749 0.038810 0.169040
Si Si8 0.952011 0.240026 0.921438
O O1 0.336955 0.831827 0.469178
O O2 0.266017 0.661513 0.345616
O O3 0.143497 0.079769 0.944765
O O4 0.091954 0.120956 0.148867
O O5 0.810531 0.269799 0.372596
O O6 0.865958 0.943346 0.352633
O O7 0.607758 0.425042 0.920513
O O8 0.756545 0.370849 0.978865
O O9 0.845580 0.453002 0.583632
O O10 0.907486 0.374253 0.398418
O O11 0.650347 0.760004 0.025366
O O12 0.463529 0.842893 0.791760
O O13 0.500000 0.500000 0.000000
O O14 0.869608 0.367956 0.934490
O O15 0.600700 0.779436 0.476741
O O16 0.000000 0.500000 0.500000
O O17 0.500000 0.000000 0.000000
O O18 0.000000 0.000000 0.000000
#
# Coordination Sequence:
#
# PCOD8006117 Si02
#       8
#     2   2   2   2   2   2   2   2
#     4   9  21  40  60  89 127 164 207 253 320 379
#     4  10  24  41  63  95 122 170 212 258 316 370
#     4  10  21  39  61  90 126 160 216 255 303 381
#     4  11  25  42  62  91 133 165 209 264 319 377
#     4  10  20  39  65  94 122 164 215 261 311 369
#     4  10  22  39  63  93 130 166 201 260 321 374
#     4  11  22  38  67  93 122 167 219 259 311 370
#     4   9  18  35  64  84 118 167 202 254 305 368
#
# _framework density 21.412606
#
# number of rings (size 3 to 8) (size 9 to 14) (size 15 to 20)
#    0.000    2.000    1.250    1.875    5.250    8.000 
#    0.000    0.625    0.000    0.000    0.000    0.000 
#    0.000    0.000    0.000    0.000    0.000    0.000 
#
# Total GULP energy -198300.199926 kJ/mol
# GULP energy per Si atom -12393.762495 kJ/mol
# Density = 2.136387 g / cm^3
# Si number density = 21.412606 Si / 1000 Ang^3
#
#
#
# Elastic Constant Matrix: (Units=GPa)
#
#
# Indices 1 2 3 4 5 6 
#
# 1 112.3899 42.5373 53.2666 -9.6448 32.7839 -12.1043
# 2 42.5373 105.3760 48.5558 -23.5855 14.6825 4.6602
# 3 53.2666 48.5558 95.7309 -20.0037 38.5271 8.2438
# 4 -9.6448 -23.5855 -20.0037 36.7383 5.5998 -1.9723
# 5 32.7839 14.6825 38.5271 5.5998 50.0739 -6.8852
# 6 -12.1043 4.6602 8.2438 -1.9723 -6.8852 37.0175
#
#
#
# Elastic Compliance Matrix: (Units=1/GPa)
#
#
# Indices 1 2 3 4 5 6 
#
# 1 0.014255 -0.003053 -0.005681 -0.000514 -0.003228 0.005683
# 2 -0.003053 0.013958 -0.004141 0.005788 0.000242 -0.001480
# 3 -0.005681 -0.004141 0.026535 0.012546 -0.018257 -0.009973
# 4 -0.000514 0.005788 0.012546 0.039840 -0.016096 -0.004562
# 5 -0.003228 0.000242 -0.018257 -0.016096 0.039153 0.009405
# 6 0.005683 -0.001480 -0.009973 -0.004562 0.009405 0.032786
#
#
# Mechanical properties :
#
#
# Convention : Reuss Voigt Hill
#
# Bulk Modulus (GPa) = 34.48532 66.91291 50.69912
# Shear Modulus (GPa) = 24.75936 36.04174 30.40055
#
# Velocity S-wave (km/s) = 3.40413 4.10714 3.77204
# Velocity P-wave (km/s) = 5.62058 7.33543 6.53450
#
# Compressibility (1/GPa) = 0.02899784
#
# Stress axis : x y z
#
# Youngs Moduli (GPa) = 70.14996 71.64482 37.68581
#
# Poissons Ratio (x) = 0.21875 0.21409
# Poissons Ratio (y) = 0.21419 0.15605
# Poissons Ratio (z) = 0.39851 0.29668
#
# Static dielectric constant tensor:
#      x y z
#    x 3.278870 -1.081170 0.493440 
#    y -1.081170 2.216910 -0.103010 
#    z 0.493440 -0.103010 4.097130 
# 
# 
# High freq. dielectric constant tensor:
#      x y z
#    x 1.839680 -0.012680 0.014220 
#    y -0.012680 1.822220 -0.013830 
#    z 0.014220 -0.013830 1.848850 
# 
# From -- ./inp_files/278569.got.cif
#   From: 2010.06.25/outbox.cif.g09.slc.cpg/sg2_140_cif.got.tgz:278569.got - 2010.06.27 13:26:56.
