data_PCOD8006936
_publ_section_title
;
Structure prediction by ZEFSAII (Michael W. Deem and Ramdas Pophale) SiO2 
 PCOD8006936
Probable space group: P -1
;
_chemical_formula_sum "Si O2"
_cell_formula_units_Z 16
_cell_length_a 12.550187
_cell_length_b 9.475977
_cell_length_c 16.432270
_cell_angle_alpha 76.044019
_cell_angle_beta 49.688215
_cell_angle_gamma 37.945391
_cell_volume 750.517666
_symmetry_space_group_name_H-M "P -1"
_symmetry_group_IT_number 2
_symmetry_cell_setting 'triclinic'
loop_
_space_group_symop_operation_xyz
x,y,z
-x,-y,-z
loop_
_atom_site_type_symbol
_atom_site_label
_atom_site_fract_x
_atom_site_fract_y
_atom_site_fract_z
Si Si1 0.617738 0.952306 0.211056
Si Si2 0.323535 0.417398 0.754215
Si Si3 0.899313 0.834679 0.781156
Si Si4 0.080258 0.764022 0.981821
Si Si5 0.797663 0.623129 0.517027
Si Si6 0.164902 0.395496 0.241173
Si Si7 0.084761 0.081473 0.418273
Si Si8 0.428031 0.405983 0.015100
O O1 0.779864 0.656020 0.169504
O O2 0.504359 0.081778 0.341244
O O3 0.377241 0.157203 0.237099
O O4 0.811048 0.910050 0.096947
O O5 0.226915 0.612537 0.844714
O O6 0.200040 0.580528 0.706289
O O7 0.646906 0.121192 0.634446
O O8 0.822546 0.734071 0.819086
O O9 0.871294 0.953864 0.696106
O O10 0.700859 0.071998 0.915943
O O11 0.286177 0.535577 0.980925
O O12 0.000000 0.000000 0.000000
O O13 0.000000 0.500000 0.500000
O O14 0.866654 0.649088 0.395235
O O15 0.848223 0.405600 0.510626
O O16 0.228090 0.500833 0.163237
O O17 0.000000 0.000000 0.500000
O O18 0.500000 0.500000 0.000000
#
# Coordination Sequence:
#
# PCOD8006936 Si02
#       8
#     2   2   2   2   2   2   2   2
#     4  11  21  41  70  95 132 175 219 271 328 393
#     4  12  23  44  68  97 130 175 225 268 326 392
#     4  11  23  43  66  96 129 172 226 265 325 394
#     4  12  26  42  64  99 132 170 221 275 334 393
#     4   9  19  40  66  93 127 173 214 259 332 389
#     4  10  20  40  65  94 127 170 216 269 321 387
#     4  11  24  43  69  95 136 175 216 273 331 386
#     4  12  24  42  62  95 134 169 215 279 333 385
#
# _framework density 21.318619000000002
#
# number of rings (size 3 to 8) (size 9 to 14) (size 15 to 20)
#    0.000    1.000    5.000    3.750    1.750    2.500 
#    0.000    5.625    0.000    0.000    0.000    0.000 
#    0.000    0.000    0.000    0.000    0.000    0.000 
#
# Total GULP energy -198380.121864 kJ/mol
# GULP energy per Si atom -12398.757616 kJ/mol
# Density = 2.127010 g / cm^3
# Si number density = 21.318619 Si / 1000 Ang^3
#
#
#
# Elastic Constant Matrix: (Units=GPa)
#
#
# Indices 1 2 3 4 5 6 
#
# 1 100.2448 39.4840 30.6410 -3.7930 8.4744 7.4135
# 2 39.4840 90.9638 21.2890 -15.0003 -3.1379 3.3547
# 3 30.6410 21.2890 55.4312 -6.0321 5.1933 11.4291
# 4 -3.7930 -15.0003 -6.0321 35.7402 7.2762 -6.9173
# 5 8.4744 -3.1379 5.1933 7.2762 30.8210 6.4645
# 6 7.4135 3.3547 11.4291 -6.9173 6.4645 56.7925
#
#
#
# Elastic Compliance Matrix: (Units=1/GPa)
#
#
# Indices 1 2 3 4 5 6 
#
# 1 0.013870 -0.004985 -0.005529 -0.000947 -0.003132 -0.000162
# 2 -0.004985 0.014630 -0.002662 0.004886 0.002011 0.000688
# 3 -0.005529 -0.002662 0.023252 0.002093 -0.002478 -0.003263
# 4 -0.000947 0.004886 0.002093 0.032805 -0.008252 0.004349
# 5 -0.003132 0.002011 -0.002478 -0.008252 0.036801 -0.004405
# 6 -0.000162 0.000688 -0.003263 0.004349 -0.004405 0.019276
#
#
# Mechanical properties :
#
#
# Convention : Reuss Voigt Hill
#
# Bulk Modulus (GPa) = 39.36908 47.71864 43.54386
# Shear Modulus (GPa) = 28.49814 35.01913 31.75863
#
# Velocity S-wave (km/s) = 3.66016 4.05736 3.86387
# Velocity P-wave (km/s) = 6.03071 6.66196 6.35418
#
# Compressibility (1/GPa) = 0.02540064
#
# Stress axis : x y z
#
# Youngs Moduli (GPa) = 72.09945 68.35419 43.00773
#
# Poissons Ratio (x) = 0.34072 0.23777
# Poissons Ratio (y) = 0.35939 0.11449
# Poissons Ratio (z) = 0.39861 0.18196
#
# Static dielectric constant tensor:
#      x y z
#    x 3.975970 -0.134600 0.034200 
#    y -0.134600 3.427560 -0.209200 
#    z 0.034200 -0.209200 4.078920 
# 
# 
# High freq. dielectric constant tensor:
#      x y z
#    x 1.846220 0.000590 0.007300 
#    y 0.000590 1.831900 0.001580 
#    z 0.007300 0.001580 1.827970 
# 
# From -- ./inp_files/428903.got.cif
#   From: 2010.06.25/outbox.cif.g09.slc.cpg/sg2_215_cif.got.tgz:428903.got - 2010.06.27 13:26:56.
