data_PCOD8006475
_publ_section_title
;
Structure prediction by ZEFSAII (Michael W. Deem and Ramdas Pophale) SiO2 
 PCOD8006475
Probable space group: P -1
;
_chemical_formula_sum "Si O2"
_cell_formula_units_Z 12
_cell_length_a 7.506125
_cell_length_b 8.351969
_cell_length_c 10.191989
_cell_angle_alpha 89.427221
_cell_angle_beta 105.627938
_cell_angle_gamma 124.252348
_cell_volume 500.491670
_symmetry_space_group_name_H-M "P -1"
_symmetry_group_IT_number 2
_symmetry_cell_setting 'triclinic'
loop_
_space_group_symop_operation_xyz
x,y,z
-x,-y,-z
loop_
_atom_site_type_symbol
_atom_site_label
_atom_site_fract_x
_atom_site_fract_y
_atom_site_fract_z
Si Si1 0.689332 0.029756 0.633131
Si Si2 0.200759 0.606529 0.933633
Si Si3 0.748970 0.690965 0.946760
Si Si4 0.285073 0.965888 0.067948
Si Si5 0.084427 0.451353 0.643472
Si Si6 0.430671 0.375713 0.356429
O O1 0.621573 0.037128 0.769790
O O2 0.933867 0.219080 0.639292
O O3 0.500000 0.000000 0.500000
O O4 0.702066 0.846760 0.618817
O O5 0.079254 0.562249 0.768995
O O6 0.337820 0.503568 0.978171
O O7 0.348439 0.846929 0.982600
O O8 0.000000 0.500000 0.000000
O O9 0.725157 0.623862 0.788488
O O10 0.626510 0.806073 0.950239
O O11 0.014441 0.845587 0.028109
O O12 0.342367 0.536057 0.679535
O O13 0.000000 0.500000 0.500000
O O14 0.500000 0.500000 0.500000
#
# Coordination Sequence:
#
# PCOD8006475 Si02
#       6
#     2   2   2   2   2   2
#     4  11  22  43  69  97 141 177 226 287 339 411
#     4  10  20  39  73  94 133 186 221 281 354 399
#     4   9  19  38  63  95 136 171 227 283 329 411
#     4   9  19  37  67  97 128 183 222 280 342 400
#     4  12  25  44  70 106 137 180 236 279 347 429
#     4  11  27  42  69 103 139 183 226 289 355 401
#
# _framework density 23.976421999999999
#
# number of rings (size 3 to 8) (size 9 to 14) (size 15 to 20)
#    0.000    1.667    5.000    0.000    7.000    1.333 
#    0.000    5.000    0.000    0.000    0.000    0.000 
#    0.000    0.000    0.000    0.000    0.000    0.000 
#
# Total GULP energy -148685.072970 kJ/mol
# GULP energy per Si atom -12390.422747 kJ/mol
# Density = 2.392185 g / cm^3
# Si number density = 23.976422 Si / 1000 Ang^3
#
#
#
# Elastic Constant Matrix: (Units=GPa)
#
#
# Indices 1 2 3 4 5 6 
#
# 1 61.3993 32.8669 27.6578 2.1946 -3.4277 -28.3888
# 2 32.8669 227.3818 69.9909 -1.2602 -6.8563 -16.7941
# 3 27.6578 69.9909 226.6455 13.5495 0.4193 -28.0550
# 4 2.1946 -1.2602 13.5495 43.0830 -9.3579 -2.0251
# 5 -3.4277 -6.8563 0.4193 -9.3579 35.6971 4.4524
# 6 -28.3888 -16.7941 -28.0550 -2.0251 4.4524 39.2145
#
#
#
# Elastic Compliance Matrix: (Units=1/GPa)
#
#
# Indices 1 2 3 4 5 6 
#
# 1 0.025733 -0.002377 -0.000210 -0.000560 -0.000309 0.017467
# 2 -0.002377 0.005179 -0.001443 0.000938 0.001106 -0.000613
# 3 -0.000210 -0.001443 0.005383 -0.001846 -0.001234 0.003126
# 4 -0.000560 0.000938 -0.001846 0.025304 0.006881 -0.000799
# 5 -0.000309 0.001106 -0.001234 0.006881 0.030481 -0.003738
# 6 0.017467 -0.000613 0.003126 -0.000799 -0.003738 0.040503
#
#
# Mechanical properties :
#
#
# Convention : Reuss Voigt Hill
#
# Bulk Modulus (GPa) = 35.41831 86.27309 60.84570
# Shear Modulus (GPa) = 33.32116 49.25966 41.29041
#
# Velocity S-wave (km/s) = 3.73198 4.53758 4.15435
# Velocity P-wave (km/s) = 5.77706 7.96953 6.96017
#
# Compressibility (1/GPa) = 0.02823398
#
# Stress axis : x y z
#
# Youngs Moduli (GPa) = 38.86116 193.08628 185.76904
#
# Poissons Ratio (x) = 0.45902 0.03899
# Poissons Ratio (y) = 0.09238 0.26810
# Poissons Ratio (z) = 0.00816 0.27866
#
# Static dielectric constant tensor:
#      x y z
#    x 4.115340 -0.341470 0.446010 
#    y -0.341470 5.287610 -0.223300 
#    z 0.446010 -0.223300 4.371890 
# 
# 
# High freq. dielectric constant tensor:
#      x y z
#    x 1.936560 0.011430 0.008280 
#    y 0.011430 1.990790 0.005530 
#    z 0.008280 0.005530 1.968200 
# 
# From -- ./inp_files/158230.got.cif
#   From: 2010.06.25/outbox.cif.g09.slc.cpg/sg2_80_cif.got.tgz:158230.got - 2010.06.27 13:26:56.
