data_PCOD8006444
_publ_section_title
;
Structure prediction by ZEFSAII (Michael W. Deem and Ramdas Pophale) SiO2 
 PCOD8006444
Probable space group: P -1
;
_chemical_formula_sum "Si O2"
_cell_formula_units_Z 16
_cell_length_a 19.035221
_cell_length_b 15.764239
_cell_length_c 10.985823
_cell_angle_alpha 41.796516
_cell_angle_beta 127.621486
_cell_angle_gamma 160.063706
_cell_volume 687.345998
_symmetry_space_group_name_H-M "P -1"
_symmetry_group_IT_number 2
_symmetry_cell_setting 'triclinic'
loop_
_space_group_symop_operation_xyz
x,y,z
-x,-y,-z
loop_
_atom_site_type_symbol
_atom_site_label
_atom_site_fract_x
_atom_site_fract_y
_atom_site_fract_z
Si Si1 0.364518 0.872443 0.826105
Si Si2 0.254767 0.216771 0.508564
Si Si3 0.565047 0.282585 0.806307
Si Si4 0.543317 0.844455 0.595882
Si Si5 0.267862 0.042870 0.102916
Si Si6 0.960513 0.800915 0.182482
Si Si7 0.876408 0.187031 0.070176
Si Si8 0.671789 0.759043 0.711180
O O1 0.561024 0.201684 0.759873
O O2 0.371188 0.920090 0.640538
O O3 0.399961 0.767258 0.990110
O O4 0.110956 0.568881 0.928847
O O5 0.500000 0.500000 0.500000
O O6 0.240033 0.350481 0.376401
O O7 0.231503 0.148412 0.416824
O O8 0.087154 0.914029 0.741613
O O9 0.314968 0.009854 0.835484
O O10 0.699991 0.022675 0.688589
O O11 0.544318 0.726835 0.626612
O O12 0.300566 0.567055 0.682100
O O13 0.054907 0.853067 0.107647
O O14 0.502327 0.429007 0.935302
O O15 0.215907 0.915075 0.054596
O O16 0.102639 0.933611 0.302191
O O17 0.000000 0.000000 0.000000
#
# Coordination Sequence:
#
# PCOD8006444 Si02
#       8
#     2   2   2   2   2   2   2   2
#     4  11  26  42  65  93 131 174 207 253 322 385
#     4  10  20  39  70  95 122 165 207 269 319 358
#     4  10  23  44  65  92 130 163 217 262 309 382
#     4  11  23  41  62  93 133 170 208 261 311 377
#     4  11  22  38  64  96 127 161 215 260 312 376
#     4  11  21  35  62  94 126 166 207 259 320 361
#     4  11  24  43  68  94 129 168 208 264 321 372
#     4  11  20  38  66  98 125 159 213 267 314 373
#
# _framework density 23.277944000000002
#
# number of rings (size 3 to 8) (size 9 to 14) (size 15 to 20)
#    0.000    1.250    5.000    2.625    0.000    7.000 
#    0.000    1.250    0.000    0.000    0.000    0.000 
#    0.000    0.000    0.000    0.000    0.000    0.000 
#
# Total GULP energy -198307.208576 kJ/mol
# GULP energy per Si atom -12394.200536 kJ/mol
# Density = 2.322496 g / cm^3
# Si number density = 23.277944 Si / 1000 Ang^3
#
#
#
# Elastic Constant Matrix: (Units=GPa)
#
#
# Indices 1 2 3 4 5 6 
#
# 1 55.1853 17.4152 17.8308 6.9203 -0.8990 -5.4632
# 2 17.4152 51.9379 26.1876 3.0477 -0.2124 5.7199
# 3 17.8308 26.1876 153.3922 16.7893 3.1946 -1.4658
# 4 6.9203 3.0477 16.7893 37.7944 6.2005 -2.6093
# 5 -0.8990 -0.2124 3.1946 6.2005 28.0888 2.6360
# 6 -5.4632 5.7199 -1.4658 -2.6093 2.6360 38.4511
#
#
#
# Elastic Compliance Matrix: (Units=1/GPa)
#
#
# Indices 1 2 3 4 5 6 
#
# 1 0.021363 -0.006914 -0.000979 -0.002825 0.001013 0.003765
# 2 -0.006914 0.023757 -0.003355 0.000406 0.000688 -0.004664
# 3 -0.000979 -0.003355 0.007524 -0.002804 -0.000339 0.000480
# 4 -0.002825 0.000406 -0.002804 0.029372 -0.006427 0.001865
# 5 0.001013 0.000688 -0.000339 -0.006427 0.037375 -0.002970
# 6 0.003765 -0.004664 0.000480 0.001865 -0.002970 0.027584
#
#
# Mechanical properties :
#
#
# Convention : Reuss Voigt Hill
#
# Bulk Modulus (GPa) = 33.17102 42.59809 37.88455
# Shear Modulus (GPa) = 27.85190 34.13899 30.99545
#
# Velocity S-wave (km/s) = 3.46279 3.83375 3.65298
# Velocity P-wave (km/s) = 5.50171 6.15925 5.83974
#
# Compressibility (1/GPa) = 0.03014680
#
# Stress axis : x y z
#
# Youngs Moduli (GPa) = 46.81090 42.09350 132.90093
#
# Poissons Ratio (x) = 0.29105 0.13007
# Poissons Ratio (y) = 0.32366 0.44594
# Poissons Ratio (z) = 0.04581 0.14124
#
# Static dielectric constant tensor:
#      x y z
#    x 4.235020 0.321760 0.302780 
#    y 0.321760 4.803550 -0.221620 
#    z 0.302780 -0.221620 4.625920 
# 
# 
# High freq. dielectric constant tensor:
#      x y z
#    x 1.906050 0.008580 0.001270 
#    y 0.008580 1.920970 0.010340 
#    z 0.001270 0.010340 1.923390 
# 
# From -- ./inp_files/472196.got.cif
#   From: 2010.06.25/outbox.cif.g09.slc.cpg/sg2_237_cif.got.tgz:472196.got - 2010.06.27 13:26:56.
