data_PCOD8006852
_publ_section_title
;
Structure prediction by ZEFSAII (Michael W. Deem and Ramdas Pophale) SiO2 
 PCOD8006852
Probable space group: P -1
;
_chemical_formula_sum "Si O2"
_cell_formula_units_Z 16
_cell_length_a 23.083272
_cell_length_b 13.521201
_cell_length_c 9.357522
_cell_angle_alpha 32.929402
_cell_angle_beta 44.092944
_cell_angle_gamma 27.511776
_cell_volume 729.381764
_symmetry_space_group_name_H-M "P -1"
_symmetry_group_IT_number 2
_symmetry_cell_setting 'triclinic'
loop_
_space_group_symop_operation_xyz
x,y,z
-x,-y,-z
loop_
_atom_site_type_symbol
_atom_site_label
_atom_site_fract_x
_atom_site_fract_y
_atom_site_fract_z
Si Si1 0.219592 0.150705 0.715220
Si Si2 0.370453 0.847437 0.093305
Si Si3 0.616161 0.246056 0.347486
Si Si4 0.954433 0.227625 0.693522
Si Si5 0.817153 0.366708 0.277626
Si Si6 0.224230 0.861005 0.576803
Si Si7 0.591633 0.982880 0.938739
Si Si8 0.901348 0.029410 0.800632
O O1 0.136390 0.468055 0.446565
O O2 0.328869 0.951613 0.645220
O O3 0.280230 0.074908 0.855515
O O4 0.139768 0.095873 0.909641
O O5 0.477249 0.549725 0.187900
O O6 0.284637 0.892228 0.311808
O O7 0.448866 0.878803 0.999497
O O8 0.711116 0.238833 0.259178
O O9 0.599981 0.139592 0.634682
O O10 0.881104 0.233986 0.694053
O O11 0.073778 0.142641 0.520102
O O12 0.000000 0.000000 0.000000
O O13 0.763616 0.365244 0.228703
O O14 0.818337 0.208838 0.589634
O O15 0.727796 0.676933 0.100605
O O16 0.953356 0.231377 0.181427
O O17 0.500000 0.000000 0.000000
#
# Coordination Sequence:
#
# PCOD8006852 Si02
#       8
#     2   2   2   2   2   2   2   2
#     4  12  26  44  70  96 140 184 212 276 349 397
#     4  11  23  45  66  97 129 176 233 271 326 403
#     4  11  25  42  65  97 132 179 226 272 333 398
#     4  11  26  43  66 104 138 171 223 277 338 408
#     4  10  20  40  65 102 129 167 222 280 319 396
#     4  10  21  41  72  91 134 168 220 282 321 390
#     4  11  23  40  70  95 128 171 227 278 334 380
#     4  10  23  41  67  97 138 171 218 270 335 393
#
# _framework density 21.936387
#
# number of rings (size 3 to 8) (size 9 to 14) (size 15 to 20)
#    0.000    1.250    1.250    4.875    7.000    1.500 
#    2.250    0.625    0.000    0.000    0.000    0.000 
#    0.000    0.000    0.000    0.000    0.000    0.000 
#
# Total GULP energy -198287.687212 kJ/mol
# GULP energy per Si atom -12392.980451 kJ/mol
# Density = 2.188646 g / cm^3
# Si number density = 21.936387 Si / 1000 Ang^3
#
#
#
# Elastic Constant Matrix: (Units=GPa)
#
#
# Indices 1 2 3 4 5 6 
#
# 1 109.8484 36.4117 23.4748 2.0423 -0.8016 1.8694
# 2 36.4117 156.6891 71.7702 -11.0429 -1.7045 17.5785
# 3 23.4748 71.7702 109.2647 -10.7293 1.9833 -3.5037
# 4 2.0423 -11.0429 -10.7293 34.9177 6.2831 0.9306
# 5 -0.8016 -1.7045 1.9833 6.2831 27.2194 -0.3226
# 6 1.8694 17.5785 -3.5037 0.9306 -0.3226 29.0652
#
#
#
# Elastic Compliance Matrix: (Units=1/GPa)
#
#
# Indices 1 2 3 4 5 6 
#
# 1 0.010017 -0.002062 -0.000954 -0.001658 0.000625 0.000548
# 2 -0.002062 0.010932 -0.006833 0.001552 0.000676 -0.007345
# 3 -0.000954 -0.006833 0.014314 0.002499 -0.002007 0.005817
# 4 -0.001658 0.001552 0.002499 0.031368 -0.007394 -0.001617
# 5 0.000625 0.000676 -0.002007 -0.007394 0.038652 -0.000025
# 6 0.000548 -0.007345 0.005817 -0.001617 -0.000025 0.039565
#
#
# Mechanical properties :
#
#
# Convention : Reuss Voigt Hill
#
# Bulk Modulus (GPa) = 64.25096 71.01282 67.63189
# Shear Modulus (GPa) = 29.45796 34.51684 31.98740
#
# Velocity S-wave (km/s) = 3.66851 3.97104 3.82277
# Velocity P-wave (km/s) = 6.87730 7.31218 7.09807
#
# Compressibility (1/GPa) = 0.01556397
#
# Stress axis : x y z
#
# Youngs Moduli (GPa) = 99.83023 91.47665 69.86411
#
# Poissons Ratio (x) = 0.18866 0.06665
# Poissons Ratio (y) = 0.20588 0.47737
# Poissons Ratio (z) = 0.09524 0.62504
#
# Static dielectric constant tensor:
#      x y z
#    x 4.450760 0.367190 -0.122610 
#    y 0.367190 4.114310 -0.111370 
#    z -0.122610 -0.111370 3.757250 
# 
# 
# High freq. dielectric constant tensor:
#      x y z
#    x 1.884680 0.005160 -0.000570 
#    y 0.005160 1.862440 -0.005670 
#    z -0.000570 -0.005670 1.842620 
# 
# From -- ./inp_files/345843.got.cif
#   From: 2010.06.25/outbox.cif.g09.slc.cpg/sg2_173_cif.got.tgz:345843.got - 2010.06.27 13:26:56.
