data_PCOD8006265
_publ_section_title
;
Structure prediction by ZEFSAII (Michael W. Deem and Ramdas Pophale) SiO2 
 PCOD8006265
Probable space group: P -1
;
_chemical_formula_sum "Si O2"
_cell_formula_units_Z 16
_cell_length_a 8.706862
_cell_length_b 8.183112
_cell_length_c 16.442473
_cell_angle_alpha 68.472317
_cell_angle_beta 95.666784
_cell_angle_gamma 48.259761
_cell_volume 706.921070
_symmetry_space_group_name_H-M "P -1"
_symmetry_group_IT_number 2
_symmetry_cell_setting 'triclinic'
loop_
_space_group_symop_operation_xyz
x,y,z
-x,-y,-z
loop_
_atom_site_type_symbol
_atom_site_label
_atom_site_fract_x
_atom_site_fract_y
_atom_site_fract_z
Si Si1 0.341110 0.604575 0.201764
Si Si2 0.771059 0.942681 0.535298
Si Si3 0.718010 0.578657 0.618156
Si Si4 0.629073 0.542060 0.949294
Si Si5 0.552450 0.952473 0.208161
Si Si6 0.175472 0.616418 0.732851
Si Si7 0.067991 0.172932 0.145519
Si Si8 0.129351 0.228358 0.599236
O O1 0.306497 0.468846 0.283159
O O2 0.282459 0.601751 0.107293
O O3 0.612950 0.428717 0.251917
O O4 0.161250 0.906886 0.167234
O O5 0.765888 0.744338 0.597978
O O6 0.792147 0.962199 0.435847
O O7 0.990459 0.837811 0.613234
O O8 0.514248 0.252731 0.482314
O O9 0.941819 0.293265 0.637372
O O10 0.444747 0.863359 0.872440
O O11 0.500000 0.500000 0.000000
O O12 0.859601 0.415414 0.030865
O O13 0.722076 0.669074 0.222140
O O14 0.644590 0.900336 0.314418
O O15 0.281280 0.126313 0.166782
O O16 0.039581 0.750168 0.785180
O O17 0.000000 0.500000 0.500000
#
# Coordination Sequence:
#
# PCOD8006265 Si02
#       8
#     2   2   2   2   2   2   2   2
#     4  11  26  47  69 100 139 179 231 284 352 408
#     4  10  22  39  68 100 140 178 234 275 332 412
#     4  10  22  38  68 100 129 184 226 278 332 402
#     4  12  26  49  72 101 135 183 229 291 347 403
#     4  11  25  44  74 101 136 180 233 279 341 414
#     4  11  24  45  67 103 142 179 224 288 342 405
#     4  11  27  47  69  99 139 181 228 288 344 408
#     4  10  20  39  67 104 132 174 227 274 330 400
#
# _framework density 22.63336
#
# number of rings (size 3 to 8) (size 9 to 14) (size 15 to 20)
#    0.000    1.250    3.750    1.500    8.750    2.000 
#    2.250    1.250    0.000    0.000    0.000    0.000 
#    0.000    0.000    0.000    0.000    0.000    0.000 
#
# Total GULP energy -198360.963547 kJ/mol
# GULP energy per Si atom -12397.560222 kJ/mol
# Density = 2.258185 g / cm^3
# Si number density = 22.633360 Si / 1000 Ang^3
#
#
#
# Elastic Constant Matrix: (Units=GPa)
#
#
# Indices 1 2 3 4 5 6 
#
# 1 86.7232 37.1460 57.5205 8.2512 0.4079 -19.1638
# 2 37.1460 98.9214 36.5857 20.9042 -0.4340 -18.2224
# 3 57.5205 36.5857 152.4417 13.6172 21.5918 -12.6685
# 4 8.2512 20.9042 13.6172 37.3062 -6.9485 1.7111
# 5 0.4079 -0.4340 21.5918 -6.9485 52.1744 1.1546
# 6 -19.1638 -18.2224 -12.6685 1.7111 1.1546 24.3947
#
#
#
# Elastic Compliance Matrix: (Units=1/GPa)
#
#
# Indices 1 2 3 4 5 6 
#
# 1 0.018820 -0.003101 -0.005827 -0.000359 0.001983 0.009373
# 2 -0.003101 0.014878 -0.000859 -0.007880 -0.000741 0.008819
# 3 -0.005827 -0.000859 0.009849 -0.002657 -0.004398 0.000290
# 4 -0.000359 -0.007880 -0.002657 0.033811 0.005766 -0.010192
# 5 0.001983 -0.000741 -0.004398 0.005766 0.021793 -0.002715
# 6 0.009373 0.008819 0.000290 -0.010192 -0.002715 0.055938
#
#
# Mechanical properties :
#
#
# Convention : Reuss Voigt Hill
#
# Bulk Modulus (GPa) = 41.71288 66.73230 54.22259
# Shear Modulus (GPa) = 27.37422 36.56398 31.96910
#
# Velocity S-wave (km/s) = 3.48151 4.02368 3.76237
# Velocity P-wave (km/s) = 5.88481 7.15085 6.54850
#
# Compressibility (1/GPa) = 0.02397341
#
# Stress axis : x y z
#
# Youngs Moduli (GPa) = 53.13459 67.21530 101.53174
#
# Poissons Ratio (x) = 0.20842 0.59163
# Poissons Ratio (y) = 0.16476 0.08719
# Poissons Ratio (z) = 0.30962 0.05772
#
# Static dielectric constant tensor:
#      x y z
#    x 4.310130 -0.569550 0.121380 
#    y -0.569550 4.750310 0.013780 
#    z 0.121380 0.013780 4.271050 
# 
# 
# High freq. dielectric constant tensor:
#      x y z
#    x 1.885920 -0.017400 0.007270 
#    y -0.017400 1.894990 -0.007570 
#    z 0.007270 -0.007570 1.907960 
# 
# From -- ./inp_files/557123.got.cif
#   From: 2010.06.25/outbox.cif.g09.slc.cpg/sg2_279_cif.got.tgz:557123.got - 2010.06.27 13:26:56.
