data_PCOD8006288
_publ_section_title
;
Structure prediction by ZEFSAII (Michael W. Deem and Ramdas Pophale) SiO2 
 PCOD8006288
Probable space group: P -1
;
_chemical_formula_sum "Si O2"
_cell_formula_units_Z 16
_cell_length_a 8.241266
_cell_length_b 13.327038
_cell_length_c 16.175638
_cell_angle_alpha 149.740770
_cell_angle_beta 130.693527
_cell_angle_gamma 60.257449
_cell_volume 668.244190
_symmetry_space_group_name_H-M "P -1"
_symmetry_group_IT_number 2
_symmetry_cell_setting 'triclinic'
loop_
_space_group_symop_operation_xyz
x,y,z
-x,-y,-z
loop_
_atom_site_type_symbol
_atom_site_label
_atom_site_fract_x
_atom_site_fract_y
_atom_site_fract_z
Si Si1 0.091408 0.641550 0.452722
Si Si2 0.849937 0.331652 0.779139
Si Si3 0.139946 0.775134 0.859870
Si Si4 0.567814 0.413465 0.597984
Si Si5 0.808935 0.702463 0.255909
Si Si6 0.654452 0.243122 0.819053
Si Si7 0.630399 0.221155 0.213605
Si Si8 0.205248 0.042410 0.214433
O O1 0.306004 0.683627 0.499272
O O2 0.158913 0.772039 0.651233
O O3 0.031049 0.403387 0.283626
O O4 0.899718 0.713323 0.387849
O O5 0.708685 0.442290 0.748810
O O6 0.686717 0.208975 0.706341
O O7 0.004537 0.203217 0.683995
O O8 0.000000 0.500000 0.000000
O O9 0.296631 0.683169 0.784106
O O10 0.032677 0.926672 0.872320
O O11 0.287036 0.908678 0.072750
O O12 0.524866 0.626775 0.699058
O O13 0.346574 0.260153 0.431450
O O14 0.598732 0.813115 0.273093
O O15 0.743203 0.470021 0.040230
O O16 0.795394 0.089961 0.797460
O O17 0.500000 0.000000 0.000000
#
# Coordination Sequence:
#
# PCOD8006288 Si02
#       8
#     2   2   2   2   2   2   2   2
#     4  11  22  45  69  95 135 171 216 274 334 393
#     4   9  21  39  63  94 128 176 221 271 325 386
#     4  11  25  41  69  98 132 171 218 273 329 400
#     4  11  25  43  67  94 137 173 215 277 333 393
#     4   9  20  38  66  98 128 173 220 273 328 385
#     4  10  20  39  67  92 134 175 219 269 329 391
#     4  12  27  41  65 100 132 172 224 273 331 394
#     4  11  24  42  67  98 134 176 217 265 340 396
#
# _framework density 23.943342999999999
#
# number of rings (size 3 to 8) (size 9 to 14) (size 15 to 20)
#    0.000    1.500    2.500    1.500    5.250    1.500 
#    0.000    5.000    0.000    0.000    0.000    0.000 
#    0.000    0.000    0.000    0.000    0.000    0.000 
#
# Total GULP energy -198267.093134 kJ/mol
# GULP energy per Si atom -12391.693321 kJ/mol
# Density = 2.388885 g / cm^3
# Si number density = 23.943343 Si / 1000 Ang^3
#
#
#
# Elastic Constant Matrix: (Units=GPa)
#
#
# Indices 1 2 3 4 5 6 
#
# 1 93.1283 24.7822 13.7638 -6.8055 5.4841 18.5660
# 2 24.7822 105.3548 24.1679 -15.7701 0.1009 10.6626
# 3 13.7638 24.1679 111.2773 -18.7386 -7.6722 5.6473
# 4 -6.8055 -15.7701 -18.7386 38.4627 3.1114 -4.1858
# 5 5.4841 0.1009 -7.6722 3.1114 27.8107 -6.5288
# 6 18.5660 10.6626 5.6473 -4.1858 -6.5288 31.2428
#
#
#
# Elastic Compliance Matrix: (Units=1/GPa)
#
#
# Indices 1 2 3 4 5 6 
#
# 1 0.013347 -0.002002 -0.001052 0.000550 -0.004854 -0.007999
# 2 -0.002002 0.011015 -0.001556 0.003256 -0.000919 -0.002044
# 3 -0.001052 -0.001556 0.010297 0.004017 0.002698 0.000397
# 4 0.000550 0.003256 0.004017 0.029703 -0.002008 0.001396
# 5 -0.004854 -0.000919 0.002698 -0.002008 0.040444 0.010893
# 6 -0.007999 -0.002044 0.000397 0.001396 0.010893 0.039850
#
#
# Mechanical properties :
#
#
# Convention : Reuss Voigt Hill
#
# Bulk Modulus (GPa) = 39.31004 48.35425 43.83214
# Shear Modulus (GPa) = 30.79690 35.97301 33.38496
#
# Velocity S-wave (km/s) = 3.59031 3.88031 3.73813
# Velocity P-wave (km/s) = 5.80006 6.34940 6.08094
#
# Compressibility (1/GPa) = 0.02543879
#
# Stress axis : x y z
#
# Youngs Moduli (GPa) = 74.92496 90.78865 97.11567
#
# Poissons Ratio (x) = 0.18172 0.10218
# Poissons Ratio (y) = 0.14997 0.15111
# Poissons Ratio (z) = 0.07883 0.14127
#
# Static dielectric constant tensor:
#      x y z
#    x 4.767570 0.344770 -0.068020 
#    y 0.344770 4.454320 -0.327770 
#    z -0.068020 -0.327770 4.200900 
# 
# 
# High freq. dielectric constant tensor:
#      x y z
#    x 1.950310 0.013120 -0.004260 
#    y 0.013120 1.940340 -0.021050 
#    z -0.004260 -0.021050 1.951330 
# 
# From -- ./inp_files/501051.got.cif
#   From: 2010.06.25/outbox.cif.g09.slc.cpg/sg2_251_cif.got.tgz:501051.got - 2010.06.27 13:26:56.
