data_PCOD8006357
_publ_section_title
;
Structure prediction by ZEFSAII (Michael W. Deem and Ramdas Pophale) SiO2 
 PCOD8006357
Probable space group: P -1
;
_chemical_formula_sum "Si O2"
_cell_formula_units_Z 16
_cell_length_a 24.755064
_cell_length_b 5.386228
_cell_length_c 6.481448
_cell_angle_alpha 83.449184
_cell_angle_beta 77.776296
_cell_angle_gamma 52.417298
_cell_volume 669.212811
_symmetry_space_group_name_H-M "P -1"
_symmetry_group_IT_number 2
_symmetry_cell_setting 'triclinic'
loop_
_space_group_symop_operation_xyz
x,y,z
-x,-y,-z
loop_
_atom_site_type_symbol
_atom_site_label
_atom_site_fract_x
_atom_site_fract_y
_atom_site_fract_z
Si Si1 0.596083 0.681918 0.104100
Si Si2 0.999965 0.732522 0.639141
Si Si3 0.337547 0.375246 0.552771
Si Si4 0.540331 0.167321 0.770352
Si Si5 0.858288 0.148530 0.945094
Si Si6 0.141358 0.373595 0.791702
Si Si7 0.229829 0.399289 0.392634
Si Si8 0.646649 0.236689 0.758192
O O1 0.646737 0.692077 0.213614
O O2 0.539820 0.640529 0.258193
O O3 0.650859 0.398452 0.938568
O O4 0.548798 0.010729 0.997973
O O5 0.000000 0.500000 0.500000
O O6 0.064105 0.538794 0.760115
O O7 0.935522 0.889449 0.829654
O O8 0.000000 0.000000 0.500000
O O9 0.263875 0.458004 0.549498
O O10 0.331504 0.683265 0.475763
O O11 0.405129 0.081793 0.414678
O O12 0.565683 0.378437 0.781328
O O13 0.814641 0.312372 0.754928
O O14 0.854432 0.402002 0.074503
O O15 0.832787 0.958834 0.093601
O O16 0.184837 0.309919 0.552412
O O17 0.295265 0.132663 0.225869
#
# Coordination Sequence:
#
# PCOD8006357 Si02
#       8
#     2   2   2   2   2   2   2   2
#     4  10  20  39  68  92 131 175 235 291 370 431
#     4  12  24  48  83 113 159 189 242 319 367 422
#     4  10  23  40  63  95 136 180 234 294 362 435
#     4   9  20  39  61  98 130 173 227 300 362 438
#     4  12  28  49  79 111 151 200 251 303 364 448
#     4  12  28  48  80 113 147 206 247 300 377 436
#     4  11  28  48  66 100 152 186 252 296 365 436
#     4  10  23  40  62  94 134 179 233 295 358 436
#
# _framework density 23.90869
#
# number of rings (size 3 to 8) (size 9 to 14) (size 15 to 20)
#    0.000    1.250    1.250    3.000    3.500    6.500 
#    0.000    0.000    0.000    0.000    0.000    0.000 
#    0.000    0.000    0.000    0.000    0.000    0.000 
#
# Total GULP energy -198230.530409 kJ/mol
# GULP energy per Si atom -12389.408151 kJ/mol
# Density = 2.385427 g / cm^3
# Si number density = 23.908690 Si / 1000 Ang^3
#
#
#
# Elastic Constant Matrix: (Units=GPa)
#
#
# Indices 1 2 3 4 5 6 
#
# 1 123.8164 51.7474 48.1236 -19.1517 18.9036 -0.8165
# 2 51.7474 92.9820 41.4046 -12.9218 8.6566 11.4262
# 3 48.1236 41.4046 98.6469 -18.6257 17.1086 1.9535
# 4 -19.1517 -12.9218 -18.6257 30.6160 5.0302 1.7736
# 5 18.9036 8.6566 17.1086 5.0302 51.2258 -3.6180
# 6 -0.8165 11.4262 1.9535 1.7736 -3.6180 46.4542
#
#
#
# Elastic Compliance Matrix: (Units=1/GPa)
#
#
# Indices 1 2 3 4 5 6 
#
# 1 0.012333 -0.004932 -0.002548 0.004550 -0.003235 0.001111
# 2 -0.004932 0.015930 -0.003929 0.001470 0.000021 -0.003894
# 3 -0.002548 -0.003929 0.014973 0.006539 -0.004058 -0.000274
# 4 0.004550 0.001470 0.006539 0.041650 -0.008399 -0.002801
# 5 -0.003235 0.000021 -0.004058 -0.008399 0.023049 0.002224
# 6 0.001111 -0.003894 -0.000274 -0.002801 0.002224 0.022796
#
#
# Mechanical properties :
#
#
# Convention : Reuss Voigt Hill
#
# Bulk Modulus (GPa) = 48.97718 66.44406 57.71062
# Shear Modulus (GPa) = 31.18047 37.27052 34.22549
#
# Velocity S-wave (km/s) = 3.61522 3.95253 3.78763
# Velocity P-wave (km/s) = 6.16084 6.97719 6.58168
#
# Compressibility (1/GPa) = 0.02041767
#
# Stress axis : x y z
#
# Youngs Moduli (GPa) = 81.08123 62.77384 66.78496
#
# Poissons Ratio (x) = 0.30961 0.17019
# Poissons Ratio (y) = 0.39991 0.26241
# Poissons Ratio (z) = 0.20662 0.24665
#
# Static dielectric constant tensor:
#      x y z
#    x 4.705260 0.066560 -0.125390 
#    y 0.066560 4.456030 0.032240 
#    z -0.125390 0.032240 4.293060 
# 
# 
# High freq. dielectric constant tensor:
#      x y z
#    x 1.965640 0.000240 -0.005680 
#    y 0.000240 1.943000 0.004380 
#    z -0.005680 0.004380 1.950400 
# 
# From -- ./inp_files/11034.got.cif
#   From: 2010.06.25/outbox.cif.g09.slc.cpg/sg2_6_cif.got.tgz:11034.got - 2010.06.27 13:26:56.
