data_PCOD8006621
_publ_section_title
;
Structure prediction by ZEFSAII (Michael W. Deem and Ramdas Pophale) SiO2 
 PCOD8006621
Probable space group: P -1
;
_chemical_formula_sum "Si O2"
_cell_formula_units_Z 16
_cell_length_a 5.080715
_cell_length_b 8.820144
_cell_length_c 13.162689
_cell_angle_alpha 86.056006
_cell_angle_beta 95.473199
_cell_angle_gamma 89.033952
_cell_volume 585.612153
_symmetry_space_group_name_H-M "P -1"
_symmetry_group_IT_number 2
_symmetry_cell_setting 'triclinic'
loop_
_space_group_symop_operation_xyz
x,y,z
-x,-y,-z
loop_
_atom_site_type_symbol
_atom_site_label
_atom_site_fract_x
_atom_site_fract_y
_atom_site_fract_z
Si Si1 0.276972 0.386185 0.606684
Si Si2 0.887199 0.691577 0.885993
Si Si3 0.640231 0.140135 0.197378
Si Si4 0.026707 0.354058 0.873531
Si Si5 0.962758 0.874344 0.625611
Si Si6 0.489294 0.795588 0.211879
Si Si7 0.558546 0.661987 0.592757
Si Si8 0.838830 0.191305 0.573876
O O1 0.501976 0.253804 0.663270
O O2 0.367571 0.547019 0.652160
O O3 0.267372 0.429154 0.483358
O O4 0.986193 0.329918 0.632495
O O5 0.590433 0.743128 0.844620
O O6 0.945749 0.529521 0.841789
O O7 0.096993 0.819915 0.858399
O O8 0.889573 0.672100 0.007129
O O9 0.738179 0.157820 0.318636
O O10 0.558242 0.967926 0.181263
O O11 0.791065 0.240617 0.844427
O O12 0.282287 0.317656 0.816237
O O13 0.756221 0.751916 0.671834
O O14 0.941467 0.855071 0.504485
O O15 0.844706 0.039326 0.651720
O O16 0.417131 0.777737 0.503559
#
# Coordination Sequence:
#
# PCOD8006621 Si02
#       8
#     2   2   2   2   2   2   2   2
#     4  10  23  40  60  99 133 182 231 291 347 413
#     4  11  27  51  77 105 144 184 240 292 366 437
#     4  12  26  44  75 112 146 188 238 301 350 437
#     4  11  27  51  76 107 142 189 230 300 365 437
#     4  10  23  38  60  98 130 184 234 287 348 407
#     4  12  26  45  75 110 150 184 238 297 365 425
#     4  10  22  39  64  90 135 189 235 286 346 417
#     4  10  20  40  62  88 137 181 231 289 346 416
#
# _framework density 27.321839000000001
#
# number of rings (size 3 to 8) (size 9 to 14) (size 15 to 20)
#    0.000    1.250    1.250    3.000    5.250    7.000 
#    0.000    0.000    0.000    0.000    0.000    0.000 
#    0.000    0.000    0.000    0.000    0.000    0.000 
#
# Total GULP energy -198304.831598 kJ/mol
# GULP energy per Si atom -12394.051975 kJ/mol
# Density = 2.725965 g / cm^3
# Si number density = 27.321839 Si / 1000 Ang^3
#
#
#
# Elastic Constant Matrix: (Units=GPa)
#
#
# Indices 1 2 3 4 5 6 
#
# 1 123.9763 48.5423 17.7157 1.8589 35.2006 21.2973
# 2 48.5423 176.0574 33.3171 -5.6865 19.1102 35.2233
# 3 17.7157 33.3171 71.6805 -8.7880 18.7345 -1.2149
# 4 1.8589 -5.6865 -8.7880 32.0220 -0.5557 10.0263
# 5 35.2006 19.1102 18.7345 -0.5557 40.2261 -1.4499
# 6 21.2973 35.2233 -1.2149 10.0263 -1.4499 46.1012
#
#
#
# Elastic Compliance Matrix: (Units=1/GPa)
#
#
# Indices 1 2 3 4 5 6 
#
# 1 0.012410 -0.001262 0.000262 0.000579 -0.010562 -0.005220
# 2 -0.001262 0.008080 -0.002798 0.002685 -0.001622 -0.006299
# 3 0.000262 -0.002798 0.017479 0.003710 -0.006937 0.001452
# 4 0.000579 0.002685 0.003710 0.035797 -0.003380 -0.010112
# 5 -0.010562 -0.001622 -0.006937 -0.003380 0.038341 0.007876
# 6 -0.005220 -0.006299 0.001452 -0.010112 0.007876 0.031401
#
#
# Mechanical properties :
#
#
# Convention : Reuss Voigt Hill
#
# Bulk Modulus (GPa) = 32.92193 63.42937 48.17565
# Shear Modulus (GPa) = 31.01220 41.81246 36.41233
#
# Velocity S-wave (km/s) = 3.37273 3.91624 3.65460
# Velocity P-wave (km/s) = 5.21948 6.61175 5.95643
#
# Compressibility (1/GPa) = 0.03037489
#
# Stress axis : x y z
#
# Youngs Moduli (GPa) = 80.58336 123.75743 57.21183
#
# Poissons Ratio (x) = 0.15614 -0.01502
# Poissons Ratio (y) = 0.10167 0.16006
# Poissons Ratio (z) = -0.02115 0.34624
#
# Static dielectric constant tensor:
#      x y z
#    x 5.214980 0.183160 -0.309400 
#    y 0.183160 5.364860 0.151990 
#    z -0.309400 0.151990 5.426720 
# 
# 
# High freq. dielectric constant tensor:
#      x y z
#    x 2.123570 0.008750 0.004910 
#    y 0.008750 2.114900 -0.005130 
#    z 0.004910 -0.005130 2.093940 
# 
# From -- ./inp_files/480458.got.cif
#   From: 2010.06.25/outbox.cif.g09.slc.cpg/sg2_241_cif.got.tgz:480458.got - 2010.06.27 13:26:56.
