data_PCOD8006257
_publ_section_title
;
Structure prediction by ZEFSAII (Michael W. Deem and Ramdas Pophale) SiO2 
 PCOD8006257
Probable space group: P -1
;
_chemical_formula_sum "Si O2"
_cell_formula_units_Z 12
_cell_length_a 9.841416
_cell_length_b 14.850138
_cell_length_c 14.583870
_cell_angle_alpha 153.103367
_cell_angle_beta 149.794931
_cell_angle_gamma 39.013620
_cell_volume 484.901591
_symmetry_space_group_name_H-M "P -1"
_symmetry_group_IT_number 2
_symmetry_cell_setting 'triclinic'
loop_
_space_group_symop_operation_xyz
x,y,z
-x,-y,-z
loop_
_atom_site_type_symbol
_atom_site_label
_atom_site_fract_x
_atom_site_fract_y
_atom_site_fract_z
Si Si1 0.948848 0.185833 0.748589
Si Si2 0.346106 0.106920 0.387669
Si Si3 0.982645 0.759837 0.851517
Si Si4 0.896736 0.260747 0.588114
Si Si5 0.231883 0.383667 0.731990
Si Si6 0.365613 0.193421 0.142430
O O1 0.657920 0.143849 0.583664
O O2 0.924108 0.323257 0.767712
O O3 0.103113 0.979132 0.628852
O O4 0.142412 0.298370 0.037911
O O5 0.274796 0.179370 0.514962
O O6 0.157968 0.232742 0.322332
O O7 0.269940 0.874168 0.122742
O O8 0.015559 0.527957 0.685288
O O9 0.790238 0.871048 0.914907
O O10 0.610461 0.336538 0.444999
O O11 0.141986 0.338843 0.742212
O O12 0.500000 0.500000 0.000000
O O13 0.500000 0.000000 0.000000
#
# Coordination Sequence:
#
# PCOD8006257 Si02
#       6
#     2   2   2   2   2   2
#     4  10  20  40  70  97 131 177 227 273 336 400
#     4  11  23  45  71  99 136 183 226 279 339 402
#     4  11  24  43  70 100 139 179 227 282 337 403
#     4  10  22  41  64  99 135 171 224 282 331 401
#     4  12  26  45  67 101 137 179 230 278 340 406
#     4  10  20  39  67 100 131 176 224 273 340 395
#
# _framework density 24.747288999999999
#
# number of rings (size 3 to 8) (size 9 to 14) (size 15 to 20)
#    0.000    1.333    1.667    4.500    0.000    2.667 
#    6.000    1.667    0.000    0.000    0.000    0.000 
#    0.000    0.000    0.000    0.000    0.000    0.000 
#
# Total GULP energy -148786.780397 kJ/mol
# GULP energy per Si atom -12398.898366 kJ/mol
# Density = 2.469096 g / cm^3
# Si number density = 24.747289 Si / 1000 Ang^3
#
#
#
# Elastic Constant Matrix: (Units=GPa)
#
#
# Indices 1 2 3 4 5 6 
#
# 1 160.7814 23.8889 51.5021 -25.3391 21.7584 13.2391
# 2 23.8889 57.2734 26.4888 -17.8257 0.4163 7.5582
# 3 51.5021 26.4888 133.3172 -51.2045 5.9234 9.6155
# 4 -25.3391 -17.8257 -51.2045 40.0566 -6.0948 -3.3814
# 5 21.7584 0.4163 5.9234 -6.0948 32.1076 -2.0123
# 6 13.2391 7.5582 9.6155 -3.3814 -2.0123 41.7601
#
#
#
# Elastic Compliance Matrix: (Units=1/GPa)
#
#
# Indices 1 2 3 4 5 6 
#
# 1 0.008142 -0.001918 -0.002178 0.000573 -0.005103 -0.001932
# 2 -0.001918 0.021191 -0.000363 0.007924 0.002447 -0.002384
# 3 -0.002178 -0.000363 0.015521 0.018510 0.002055 -0.001220
# 4 0.000573 0.007924 0.018510 0.053343 0.006141 -0.001263
# 5 -0.005103 0.002447 0.002055 0.006141 0.035541 0.002912
# 6 -0.001932 -0.002384 -0.001220 -0.001263 0.002912 0.025309
#
#
# Mechanical properties :
#
#
# Convention : Reuss Voigt Hill
#
# Bulk Modulus (GPa) = 27.82716 61.68131 44.75424
# Shear Modulus (GPa) = 27.78630 39.41768 33.60199
#
# Velocity S-wave (km/s) = 3.35446 3.99533 3.68884
# Velocity P-wave (km/s) = 5.12563 6.80163 6.02222
#
# Compressibility (1/GPa) = 0.03593611
#
# Stress axis : x y z
#
# Youngs Moduli (GPa) = 122.81335 47.18935 64.43068
#
# Poissons Ratio (x) = 0.09053 0.14034
# Poissons Ratio (y) = 0.23561 0.02336
# Poissons Ratio (z) = 0.26750 0.01711
#
# Static dielectric constant tensor:
#      x y z
#    x 4.603300 0.207700 -0.302800 
#    y 0.207700 4.857700 -0.488790 
#    z -0.302800 -0.488790 4.698050 
# 
# 
# High freq. dielectric constant tensor:
#      x y z
#    x 1.991910 0.006540 -0.003970 
#    y 0.006540 1.989370 -0.020780 
#    z -0.003970 -0.020780 1.982510 
# 
# From -- ./inp_files/174668.got.cif
#   From: 2010.06.25/outbox.cif.g09.slc.cpg/sg2_88_cif.got.tgz:174668.got - 2010.06.27 13:26:56.
