data_PCOD8006944
_publ_section_title
;
Structure prediction by ZEFSAII (Michael W. Deem and Ramdas Pophale) SiO2 
 PCOD8006944
Probable space group: P -1
;
_chemical_formula_sum "Si O2"
_cell_formula_units_Z 12
_cell_length_a 5.016395
_cell_length_b 19.802833
_cell_length_c 5.454967
_cell_angle_alpha 99.866833
_cell_angle_beta 89.781777
_cell_angle_gamma 55.828785
_cell_volume 438.367884
_symmetry_space_group_name_H-M "P -1"
_symmetry_group_IT_number 2
_symmetry_cell_setting 'triclinic'
loop_
_space_group_symop_operation_xyz
x,y,z
-x,-y,-z
loop_
_atom_site_type_symbol
_atom_site_label
_atom_site_fract_x
_atom_site_fract_y
_atom_site_fract_z
Si Si1 0.777467 0.512643 0.283756
Si Si2 0.148517 0.254006 0.650333
Si Si3 0.116323 0.059393 0.038258
Si Si4 0.539203 0.665073 0.077442
Si Si5 0.207979 0.096365 0.560407
Si Si6 0.796256 0.367244 0.328480
O O1 0.789880 0.565801 0.091241
O O2 0.869636 0.418569 0.162101
O O3 0.403251 0.568837 0.408604
O O4 0.000000 0.500000 0.500000
O O5 0.287398 0.285701 0.874905
O O6 0.349467 0.153354 0.589114
O O7 0.775636 0.285729 0.717790
O O8 0.134741 0.290631 0.401309
O O9 0.999212 0.116076 0.825314
O O10 0.995338 0.115021 0.323933
O O11 0.500000 0.000000 0.000000
O O12 0.000000 0.000000 0.000000
O O13 0.409875 0.665015 0.807316
O O14 0.500000 0.000000 0.500000
#
# Coordination Sequence:
#
# PCOD8006944 Si02
#       6
#     2   2   2   2   2   2
#     4  10  20  40  65  94 132 173 234 276 341 418
#     4  11  26  43  64  99 138 175 233 285 349 422
#     4  10  22  42  71 101 133 174 230 289 348 417
#     4  11  25  42  66  98 134 182 225 283 356 408
#     4  10  24  47  72 106 141 188 239 295 356 427
#     4  10  23  41  63  96 134 179 223 288 341 418
#
# _framework density 27.374269000000002
#
# number of rings (size 3 to 8) (size 9 to 14) (size 15 to 20)
#    0.000    1.667    1.667    1.000    4.667    6.000 
#    0.000    0.000    0.000    0.000    0.000    0.000 
#    0.000    0.000    0.000    0.000    0.000    0.000 
#
# Total GULP energy -148708.787724 kJ/mol
# GULP energy per Si atom -12392.398977 kJ/mol
# Density = 2.731196 g / cm^3
# Si number density = 27.374269 Si / 1000 Ang^3
#
#
#
# Elastic Constant Matrix: (Units=GPa)
#
#
# Indices 1 2 3 4 5 6 
#
# 1 97.3435 47.9578 24.4682 5.3233 33.0568 35.8409
# 2 47.9578 180.2819 53.2531 13.7021 18.5156 44.4214
# 3 24.4682 53.2531 177.4242 -11.0836 35.6981 33.2130
# 4 5.3233 13.7021 -11.0836 47.6899 14.3274 4.8611
# 5 33.0568 18.5156 35.6981 14.3274 45.1471 8.9236
# 6 35.8409 44.4214 33.2130 4.8611 8.9236 51.4410
#
#
#
# Elastic Compliance Matrix: (Units=1/GPa)
#
#
# Indices 1 2 3 4 5 6 
#
# 1 0.020058 -0.002186 0.003731 0.005312 -0.016010 -0.012221
# 2 -0.002186 0.007649 -0.001646 -0.002315 0.001295 -0.004026
# 3 0.003731 -0.001646 0.009056 0.005725 -0.009878 -0.005853
# 4 0.005312 -0.002315 0.005725 0.027462 -0.015120 -0.005370
# 5 -0.016010 0.001295 -0.009878 -0.015120 0.043929 0.010222
# 6 -0.012221 -0.004026 -0.005853 -0.005370 0.010222 0.033944
#
#
# Mechanical properties :
#
#
# Convention : Reuss Voigt Hill
#
# Bulk Modulus (GPa) = 27.35136 78.48976 52.92056
# Shear Modulus (GPa) = 32.36473 50.81365 41.58919
#
# Velocity S-wave (km/s) = 3.44220 4.31310 3.90202
# Velocity P-wave (km/s) = 5.08051 7.31703 6.29883
#
# Compressibility (1/GPa) = 0.03656126
#
# Stress axis : x y z
#
# Youngs Moduli (GPa) = 49.85508 130.72799 110.41826
#
# Poissons Ratio (x) = 0.28577 -0.41194
# Poissons Ratio (y) = 0.10898 0.18177
# Poissons Ratio (z) = -0.18600 0.21520
#
# Static dielectric constant tensor:
#      x y z
#    x 4.739770 -0.138030 1.001690 
#    y -0.138030 5.677210 -1.490720 
#    z 1.001690 -1.490720 10.016490 
# 
# 
# High freq. dielectric constant tensor:
#      x y z
#    x 2.092340 0.014080 -0.002370 
#    y 0.014080 2.105840 -0.004460 
#    z -0.002370 -0.004460 2.112640 
# 
# From -- ./inp_files/4695.got.cif
#   From: 2010.06.25/outbox.cif.g09.slc.cpg/sg2_3_cif.got.tgz:4695.got - 2010.06.27 13:26:56.
