data_PCOD8006313
_publ_section_title
;
Structure prediction by ZEFSAII (Michael W. Deem and Ramdas Pophale) SiO2 
 PCOD8006313
Probable space group: P -1
;
_chemical_formula_sum "Si O2"
_cell_formula_units_Z 16
_cell_length_a 14.035912
_cell_length_b 9.610540
_cell_length_c 8.719064
_cell_angle_alpha 130.604381
_cell_angle_beta 106.999437
_cell_angle_gamma 101.710757
_cell_volume 717.831770
_symmetry_space_group_name_H-M "P -1"
_symmetry_group_IT_number 2
_symmetry_cell_setting 'triclinic'
loop_
_space_group_symop_operation_xyz
x,y,z
-x,-y,-z
loop_
_atom_site_type_symbol
_atom_site_label
_atom_site_fract_x
_atom_site_fract_y
_atom_site_fract_z
Si Si1 0.111176 0.678336 0.869153
Si Si2 0.787973 0.597677 0.248041
Si Si3 0.416375 0.459347 0.289035
Si Si4 0.545780 0.290362 0.075091
Si Si5 0.054356 0.995044 0.183133
Si Si6 0.383567 0.800187 0.628559
Si Si7 0.854857 0.289764 0.435102
Si Si8 0.168314 0.142329 0.847165
O O1 0.157711 0.543773 0.880591
O O2 0.179811 0.758726 0.796216
O O3 0.970098 0.529893 0.674345
O O4 0.131916 0.885465 0.124843
O O5 0.654387 0.429571 0.114549
O O6 0.787781 0.734097 0.203929
O O7 0.861005 0.758612 0.538953
O O8 0.500000 0.500000 0.500000
O O9 0.475337 0.413835 0.140122
O O10 0.405045 0.668088 0.411945
O O11 0.280552 0.250791 0.095138
O O12 0.581258 0.254429 0.233077
O O13 0.459079 0.050618 0.792179
O O14 0.942933 0.850859 0.140108
O O15 0.000000 0.000000 0.000000
O O16 0.246441 0.717982 0.516600
O O17 0.879033 0.110615 0.381883
#
# Coordination Sequence:
#
# PCOD8006313 Si02
#       8
#     2   2   2   2   2   2   2   2
#     4  11  23  40  69  98 131 178 225 271 327 408
#     4  12  27  45  64 101 145 174 215 281 344 399
#     4  10  23  40  68  98 126 172 229 273 320 398
#     4  10  22  39  65  92 132 173 218 275 334 382
#     4  12  25  43  73 101 132 178 231 274 324 404
#     4  10  20  39  67  96 124 172 227 279 314 393
#     4  11  20  41  69  97 132 175 224 273 335 392
#     4  12  25  45  68 100 141 174 216 283 348 389
#
# _framework density 22.289345000000001
#
# number of rings (size 3 to 8) (size 9 to 14) (size 15 to 20)
#    0.000    1.000    5.000    1.875    3.500    2.000 
#    2.250    0.625    0.000    0.000    0.000    0.000 
#    0.000    0.000    0.000    0.000    0.000    0.000 
#
# Total GULP energy -198378.816532 kJ/mol
# GULP energy per Si atom -12398.676033 kJ/mol
# Density = 2.223861 g / cm^3
# Si number density = 22.289345 Si / 1000 Ang^3
#
#
#
# Elastic Constant Matrix: (Units=GPa)
#
#
# Indices 1 2 3 4 5 6 
#
# 1 146.8500 30.5461 50.4579 25.4422 -17.1912 -1.6543
# 2 30.5461 97.8266 23.3322 16.6479 -6.7866 6.2334
# 3 50.4579 23.3322 73.5848 24.1004 -13.0802 0.1254
# 4 25.4422 16.6479 24.1004 25.7605 -8.2129 0.9710
# 5 -17.1912 -6.7866 -13.0802 -8.2129 39.8754 17.0807
# 6 -1.6543 6.2334 0.1254 0.9710 17.0807 37.7998
#
#
#
# Elastic Compliance Matrix: (Units=1/GPa)
#
#
# Indices 1 2 3 4 5 6 
#
# 1 0.009471 -0.001095 -0.004611 -0.003821 0.001605 -0.000017
# 2 -0.001095 0.011941 -0.001157 -0.005091 0.001164 -0.002408
# 3 -0.004611 -0.001157 0.022425 -0.014864 0.002459 -0.000815
# 4 -0.003821 -0.005091 -0.014864 0.062239 0.007199 -0.004130
# 5 0.001605 0.001164 0.002459 0.007199 0.035207 -0.016224
# 6 -0.000017 -0.002408 -0.000815 -0.004130 -0.016224 0.034291
#
#
# Mechanical properties :
#
#
# Convention : Reuss Voigt Hill
#
# Bulk Modulus (GPa) = 33.21004 58.54818 45.87911
# Shear Modulus (GPa) = 25.08322 34.94882 30.01602
#
# Velocity S-wave (km/s) = 3.35826 3.96404 3.67366
# Velocity P-wave (km/s) = 5.47440 6.87575 6.21470
#
# Compressibility (1/GPa) = 0.03011138
#
# Stress axis : x y z
#
# Youngs Moduli (GPa) = 105.58169 83.74804 44.59356
#
# Poissons Ratio (x) = 0.09172 0.20561
# Poissons Ratio (y) = 0.11563 0.05159
# Poissons Ratio (z) = 0.48681 0.09688
#
# Static dielectric constant tensor:
#      x y z
#    x 4.415930 -0.150250 -0.217330 
#    y -0.150250 3.716460 0.339410 
#    z -0.217330 0.339410 4.170370 
# 
# 
# High freq. dielectric constant tensor:
#      x y z
#    x 1.896980 -0.008960 -0.004030 
#    y -0.008960 1.850160 0.028240 
#    z -0.004030 0.028240 1.868770 
# 
# From -- ./inp_files/299782.got.cif
#   From: 2010.06.25/outbox.cif.g09.slc.cpg/sg2_150_cif.got.tgz:299782.got - 2010.06.27 13:26:56.
