data_PCOD8006222
_publ_section_title
;
Structure prediction by ZEFSAII (Michael W. Deem and Ramdas Pophale) SiO2 
 PCOD8006222
Probable space group: P -1
;
_chemical_formula_sum "Si O2"
_cell_formula_units_Z 16
_cell_length_a 10.015242
_cell_length_b 17.821962
_cell_length_c 11.622027
_cell_angle_alpha 130.371253
_cell_angle_beta 50.524933
_cell_angle_gamma 150.703520
_cell_volume 759.256566
_symmetry_space_group_name_H-M "P -1"
_symmetry_group_IT_number 2
_symmetry_cell_setting 'triclinic'
loop_
_space_group_symop_operation_xyz
x,y,z
-x,-y,-z
loop_
_atom_site_type_symbol
_atom_site_label
_atom_site_fract_x
_atom_site_fract_y
_atom_site_fract_z
Si Si1 0.940030 0.096945 0.918979
Si Si2 0.850390 0.139600 0.550957
Si Si3 0.795401 0.874829 0.588059
Si Si4 0.582227 0.158225 0.900668
Si Si5 0.530228 0.304623 0.889171
Si Si6 0.324218 0.791703 0.449957
Si Si7 0.799270 0.338974 0.382037
Si Si8 0.013745 0.343499 0.039682
O O1 0.209917 0.183499 0.924893
O O2 0.823931 0.961285 0.764297
O O3 0.014909 0.225595 0.928355
O O4 0.705769 0.012092 0.059351
O O5 0.721256 0.131481 0.727279
O O6 0.910982 0.251112 0.533245
O O7 0.126107 0.201407 0.492235
O O8 0.633257 0.971121 0.438022
O O9 0.479424 0.729378 0.573518
O O10 0.000000 0.000000 0.500000
O O11 0.546109 0.240377 0.926712
O O12 0.778347 0.276086 0.015569
O O13 0.672181 0.316822 0.711860
O O14 0.694691 0.481189 0.991954
O O15 0.274172 0.776231 0.597766
O O16 0.000000 0.500000 0.500000
O O17 0.954232 0.355889 0.211258
#
# Coordination Sequence:
#
# PCOD8006222 Si02
#       8
#     2   2   2   2   2   2   2   2
#     4  12  24  42  67 102 129 170 225 274 316 388
#     4  10  21  40  69  96 126 166 221 269 322 382
#     4  12  23  41  70  98 131 168 226 272 317 392
#     4  11  24  43  70  95 132 173 220 271 331 388
#     4  11  23  44  66  94 135 176 216 266 337 392
#     4  10  20  39  66  94 125 172 214 267 321 387
#     4  12  24  43  67  94 135 172 215 270 336 388
#     4  12  25  42  64  96 137 175 215 269 336 394
#
# _framework density 21.073246000000001
#
# number of rings (size 3 to 8) (size 9 to 14) (size 15 to 20)
#    0.000    0.750    5.000    3.000    0.000    0.000 
#    4.500    0.625    0.000    0.000    0.000    0.000 
#    0.000    0.000    0.000    0.000    0.000    0.000 
#
# Total GULP energy -198387.866615 kJ/mol
# GULP energy per Si atom -12399.241663 kJ/mol
# Density = 2.102528 g / cm^3
# Si number density = 21.073246 Si / 1000 Ang^3
#
#
#
# Elastic Constant Matrix: (Units=GPa)
#
#
# Indices 1 2 3 4 5 6 
#
# 1 151.8212 54.2953 55.3644 2.1687 -0.1672 15.6963
# 2 54.2953 101.5258 32.1922 16.6978 -6.7306 10.7654
# 3 55.3644 32.1922 88.8895 4.0515 -0.8802 5.7692
# 4 2.1687 16.6978 4.0515 19.9427 0.4684 3.4809
# 5 -0.1672 -6.7306 -0.8802 0.4684 31.6913 -0.6262
# 6 15.6963 10.7654 5.7692 3.4809 -0.6262 35.1805
#
#
#
# Elastic Compliance Matrix: (Units=1/GPa)
#
#
# Indices 1 2 3 4 5 6 
#
# 1 0.010093 -0.004333 -0.004728 0.004009 -0.001113 -0.002819
# 2 -0.004333 0.015088 -0.002131 -0.011609 0.003272 -0.001128
# 3 -0.004728 -0.002131 0.014978 -0.000811 -0.000042 0.000385
# 4 0.004009 -0.011609 -0.000811 0.060396 -0.003441 -0.004140
# 5 -0.001113 0.003272 -0.000042 -0.003441 0.032301 0.000418
# 6 -0.002819 -0.001128 0.000385 -0.004140 0.000418 0.030381
#
#
# Mechanical properties :
#
#
# Convention : Reuss Voigt Hill
#
# Bulk Modulus (GPa) = 56.25631 69.54892 62.90262
# Shear Modulus (GPa) = 26.10303 30.72187 28.41245
#
# Velocity S-wave (km/s) = 3.52331 3.82234 3.67586
# Velocity P-wave (km/s) = 6.58067 7.24951 6.92317
#
# Compressibility (1/GPa) = 0.01777578
#
# Stress axis : x y z
#
# Youngs Moduli (GPa) = 99.07462 66.27586 66.76375
#
# Poissons Ratio (x) = 0.28717 0.31567
# Poissons Ratio (y) = 0.42928 0.14227
# Poissons Ratio (z) = 0.46845 0.14123
#
# Static dielectric constant tensor:
#      x y z
#    x 5.501940 -1.104600 0.171160 
#    y -1.104600 4.545560 -0.007250 
#    z 0.171160 -0.007250 3.832300 
# 
# 
# High freq. dielectric constant tensor:
#      x y z
#    x 1.844060 -0.000750 0.009470 
#    y -0.000750 1.814190 0.009240 
#    z 0.009470 0.009240 1.824740 
# 
# From -- ./inp_files/208333.got.cif
#   From: 2010.06.25/outbox.cif.g09.slc.cpg/sg2_105_cif.got.tgz:208333.got - 2010.06.27 13:26:56.
