data_PCOD8006364
_publ_section_title
;
Structure prediction by ZEFSAII (Michael W. Deem and Ramdas Pophale) SiO2 
 PCOD8006364
Probable space group: P -1
;
_chemical_formula_sum "Si O2"
_cell_formula_units_Z 16
_cell_length_a 15.827026
_cell_length_b 15.319560
_cell_length_c 9.569891
_cell_angle_alpha 36.005087
_cell_angle_beta 37.965879
_cell_angle_gamma 36.945809
_cell_volume 750.895736
_symmetry_space_group_name_H-M "P -1"
_symmetry_group_IT_number 2
_symmetry_cell_setting 'triclinic'
loop_
_space_group_symop_operation_xyz
x,y,z
-x,-y,-z
loop_
_atom_site_type_symbol
_atom_site_label
_atom_site_fract_x
_atom_site_fract_y
_atom_site_fract_z
Si Si1 0.373562 0.408635 0.890794
Si Si2 0.728094 0.531749 0.352970
Si Si3 0.851795 0.755607 0.995416
Si Si4 0.076709 0.825589 0.434242
Si Si5 0.170379 0.840235 0.742276
Si Si6 0.945286 0.432617 0.788518
Si Si7 0.455738 0.594429 0.790616
Si Si8 0.315749 0.883351 0.213365
O O1 0.333179 0.506353 0.666258
O O2 0.431052 0.488909 0.833668
O O3 0.506688 0.225925 0.919482
O O4 0.211668 0.415947 0.143478
O O5 0.838900 0.356006 0.510301
O O6 0.594498 0.630500 0.510905
O O7 0.810799 0.651058 0.066716
O O8 0.986931 0.803128 0.714025
O O9 0.702850 0.929244 0.993928
O O10 0.912570 0.630433 0.208331
O O11 0.202384 0.885340 0.236133
O O12 0.950698 0.968950 0.314600
O O13 0.300964 0.767530 0.787258
O O14 0.266709 0.821538 0.498451
O O15 0.082902 0.726488 0.002448
O O16 0.000000 0.500000 0.500000
O O17 0.500000 0.500000 0.000000
#
# Coordination Sequence:
#
# PCOD8006364 Si02
#       8
#     2   2   2   2   2   2   2   2
#     4  11  23  42  68  96 125 176 227 261 327 393
#     4  12  23  39  68  99 133 164 226 281 316 386
#     4  11  23  37  62 102 137 164 214 278 340 370
#     4  11  19  39  67  99 125 167 222 277 313 385
#     4  10  20  39  68  94 125 172 220 262 326 383
#     4  11  23  39  63  94 136 175 208 264 336 397
#     4  11  24  41  64  96 131 174 215 268 334 400
#     4  11  19  41  71  97 126 167 225 279 313 387
#
# _framework density 21.307884999999999
#
# number of rings (size 3 to 8) (size 9 to 14) (size 15 to 20)
#    0.000    1.000    6.250    2.250    3.500    0.500 
#    0.000    1.250    5.500    0.000    0.000    0.000 
#    0.000    0.000    0.000    0.000    0.000    0.000 
#
# Total GULP energy -198236.922217 kJ/mol
# GULP energy per Si atom -12389.807639 kJ/mol
# Density = 2.125939 g / cm^3
# Si number density = 21.307885 Si / 1000 Ang^3
#
#
#
# Elastic Constant Matrix: (Units=GPa)
#
#
# Indices 1 2 3 4 5 6 
#
# 1 83.5691 61.9985 46.2239 -13.9931 12.7610 -21.2584
# 2 61.9985 142.6180 37.4060 -19.8449 -10.5393 -32.2521
# 3 46.2239 37.4060 96.3246 -0.3505 11.4921 -7.7024
# 4 -13.9931 -19.8449 -0.3505 31.3527 0.8415 -1.7659
# 5 12.7610 -10.5393 11.4921 0.8415 22.4878 -8.3153
# 6 -21.2584 -32.2521 -7.7024 -1.7659 -8.3153 36.5765
#
#
#
# Elastic Compliance Matrix: (Units=1/GPa)
#
#
# Indices 1 2 3 4 5 6 
#
# 1 0.027211 -0.009543 -0.007270 0.006588 -0.015456 0.002673
# 2 -0.009543 0.018024 -0.003715 0.007373 0.020911 0.014675
# 3 -0.007270 -0.003715 0.015719 -0.005563 -0.007740 -0.006219
# 4 0.006588 0.007373 -0.005563 0.039986 0.005638 0.012372
# 5 -0.015456 0.020911 -0.007740 0.005638 0.076183 0.025418
# 6 0.002673 0.014675 -0.006219 0.012372 0.025418 0.046900
#
#
# Mechanical properties :
#
#
# Convention : Reuss Voigt Hill
#
# Bulk Modulus (GPa) = 50.25553 68.19652 59.22603
# Shear Modulus (GPa) = 18.40194 29.87561 24.13877
#
# Velocity S-wave (km/s) = 2.94193 3.74851 3.36944
# Velocity P-wave (km/s) = 5.93098 7.12811 6.55692
#
# Compressibility (1/GPa) = 0.01989831
#
# Stress axis : x y z
#
# Youngs Moduli (GPa) = 36.75047 55.48035 63.61853
#
# Poissons Ratio (x) = 0.52945 0.46251
# Poissons Ratio (y) = 0.35071 0.23632
# Poissons Ratio (z) = 0.26718 0.20609
#
# Static dielectric constant tensor:
#      x y z
#    x 3.787730 -0.511140 -0.109470 
#    y -0.511140 4.300500 0.040160 
#    z -0.109470 0.040160 3.558140 
# 
# 
# High freq. dielectric constant tensor:
#      x y z
#    x 1.819920 -0.033180 -0.013210 
#    y -0.033180 1.846470 -0.002170 
#    z -0.013210 -0.002170 1.806790 
# 
# From -- ./inp_files/314467.got.cif
#   From: 2010.06.25/outbox.cif.g09.slc.cpg/sg2_158_cif.got.tgz:314467.got - 2010.06.27 13:26:56.
