data_PCOD8006205
_publ_section_title
;
Structure prediction by ZEFSAII (Michael W. Deem and Ramdas Pophale) SiO2 
 PCOD8006205
Probable space group: P -1
;
_chemical_formula_sum "Si O2"
_cell_formula_units_Z 16
_cell_length_a 16.480202
_cell_length_b 9.228120
_cell_length_c 6.829834
_cell_angle_alpha 103.887250
_cell_angle_beta 130.473911
_cell_angle_gamma 88.788353
_cell_volume 754.179488
_symmetry_space_group_name_H-M "P -1"
_symmetry_group_IT_number 2
_symmetry_cell_setting 'triclinic'
loop_
_space_group_symop_operation_xyz
x,y,z
-x,-y,-z
loop_
_atom_site_type_symbol
_atom_site_label
_atom_site_fract_x
_atom_site_fract_y
_atom_site_fract_z
Si Si1 0.160308 0.374313 0.644470
Si Si2 0.553680 0.228286 0.510167
Si Si3 0.633334 0.772991 0.030531
Si Si4 0.746246 0.978451 0.957702
Si Si5 0.556207 0.900853 0.337296
Si Si6 0.055692 0.155243 0.735865
Si Si7 0.793232 0.304687 0.998062
Si Si8 0.991857 0.338477 0.033841
O O1 0.280588 0.334019 0.818100
O O2 0.082743 0.287077 0.660776
O O3 0.171929 0.552069 0.762088
O O4 0.099653 0.337580 0.331624
O O5 0.536017 0.202111 0.707856
O O6 0.678461 0.311209 0.709898
O O7 0.526046 0.065275 0.299627
O O8 0.463517 0.314159 0.294935
O O9 0.573100 0.808916 0.142491
O O10 0.696277 0.926654 0.075246
O O11 0.835830 0.880219 0.009315
O O12 0.788375 0.159338 0.085167
O O13 0.665270 0.936830 0.641408
O O14 0.984262 0.209374 0.813244
O O15 0.000000 0.000000 0.500000
O O16 0.881675 0.296989 0.968467
O O17 0.000000 0.500000 0.000000
#
# Coordination Sequence:
#
# PCOD8006205 Si02
#       8
#     2   2   2   2   2   2   2   2
#     4  11  25  44  65  92 132 170 210 269 328 377
#     4   9  20  36  60  94 127 161 211 263 319 369
#     4  10  20  39  66  92 126 167 210 262 318 380
#     4   9  21  37  62  94 130 159 214 264 315 372
#     4   9  17  37  60  92 127 164 207 263 313 379
#     4  11  24  42  67  98 124 167 218 273 319 380
#     4  11  23  43  64  93 135 172 210 269 318 385
#     4  12  26  45  68  92 129 175 216 262 329 389
#
# _framework density 21.215109999999999
#
# number of rings (size 3 to 8) (size 9 to 14) (size 15 to 20)
#    0.000    1.750    1.250    3.000    1.750    6.500 
#    2.250    0.625    0.000    0.000    0.000    0.000 
#    0.000    0.000    0.000    0.000    0.000    0.000 
#
# Total GULP energy -198354.794594 kJ/mol
# GULP energy per Si atom -12397.174662 kJ/mol
# Density = 2.116682 g / cm^3
# Si number density = 21.215110 Si / 1000 Ang^3
#
#
#
# Elastic Constant Matrix: (Units=GPa)
#
#
# Indices 1 2 3 4 5 6 
#
# 1 129.9729 33.6134 47.4641 7.4995 -3.1374 -13.6084
# 2 33.6134 95.4887 42.6356 0.7666 -3.1220 0.8984
# 3 47.4641 42.6356 93.8819 -0.3643 1.4797 -8.9197
# 4 7.4995 0.7666 -0.3643 35.4448 -9.3783 1.6374
# 5 -3.1374 -3.1220 1.4797 -9.3783 35.3603 5.6969
# 6 -13.6084 0.8984 -8.9197 1.6374 5.6969 21.2830
#
#
#
# Elastic Compliance Matrix: (Units=1/GPa)
#
#
# Indices 1 2 3 4 5 6 
#
# 1 0.010295 -0.001988 -0.003783 -0.002605 -0.000675 0.005462
# 2 -0.001988 0.013880 -0.005806 0.000909 0.002336 -0.004985
# 3 -0.003783 -0.005806 0.015711 0.000264 -0.002239 0.004990
# 4 -0.002605 0.000909 0.000264 0.031490 0.009235 -0.006488
# 5 -0.000675 0.002336 -0.002239 0.009235 0.032732 -0.010941
# 6 0.005462 -0.004985 0.004990 -0.006488 -0.010941 0.056208
#
#
# Mechanical properties :
#
#
# Convention : Reuss Voigt Hill
#
# Bulk Modulus (GPa) = 59.75665 62.97441 61.36553
# Shear Modulus (GPa) = 26.44828 31.45964 28.95396
#
# Velocity S-wave (km/s) = 3.53465 3.85501 3.69830
# Velocity P-wave (km/s) = 6.69974 7.04010 6.87203
#
# Compressibility (1/GPa) = 0.01673454
#
# Stress axis : x y z
#
# Youngs Moduli (GPa) = 97.13132 72.04443 63.64876
#
# Poissons Ratio (x) = 0.14319 0.24078
# Poissons Ratio (y) = 0.19306 0.36953
# Poissons Ratio (z) = 0.36744 0.41827
#
# Static dielectric constant tensor:
#      x y z
#    x 2.466850 2.550140 -0.338280 
#    y 2.550140 -0.152750 0.595060 
#    z -0.338280 0.595060 3.661230 
# 
# 
# High freq. dielectric constant tensor:
#      x y z
#    x 1.842180 -0.008970 0.015800 
#    y -0.008970 1.821210 -0.017370 
#    z 0.015800 -0.017370 1.831460 
# 
# From -- ./inp_files/107304.got.cif
#   From: 2010.06.25/outbox.cif.g09.slc.cpg/sg2_54_cif.got.tgz:107304.got - 2010.06.27 13:26:56.
