data_PCOD8006874
_publ_section_title
;
Structure prediction by ZEFSAII (Michael W. Deem and Ramdas Pophale) SiO2 
 PCOD8006874
Probable space group: P -1
;
_chemical_formula_sum "Si O2"
_cell_formula_units_Z 16
_cell_length_a 8.907822
_cell_length_b 19.192175
_cell_length_c 17.364511
_cell_angle_alpha 158.103627
_cell_angle_beta 132.391268
_cell_angle_gamma 58.598402
_cell_volume 756.492521
_symmetry_space_group_name_H-M "P -1"
_symmetry_group_IT_number 2
_symmetry_cell_setting 'triclinic'
loop_
_space_group_symop_operation_xyz
x,y,z
-x,-y,-z
loop_
_atom_site_type_symbol
_atom_site_label
_atom_site_fract_x
_atom_site_fract_y
_atom_site_fract_z
Si Si1 0.267693 0.629494 0.088156
Si Si2 0.894577 0.410531 0.172947
Si Si3 0.598430 0.339491 0.394472
Si Si4 0.879476 0.814670 0.611166
Si Si5 0.357277 0.934650 0.159343
Si Si6 0.240190 0.211294 0.616946
Si Si7 0.662780 0.034650 0.993745
Si Si8 0.202249 0.958050 0.491056
O O1 0.529433 0.703735 0.262011
O O2 0.165897 0.725009 0.219109
O O3 0.212829 0.694883 0.051991
O O4 0.172550 0.385384 0.811789
O O5 0.794039 0.571732 0.332424
O O6 0.149444 0.533648 0.371108
O O7 0.842347 0.242876 0.049134
O O8 0.500000 0.500000 0.500000
O O9 0.481448 0.205451 0.291513
O O10 0.557876 0.174570 0.144330
O O11 0.929872 0.891617 0.617657
O O12 0.678828 0.860285 0.625033
O O13 0.093516 0.922296 0.847290
O O14 0.336203 0.896810 0.023000
O O15 0.593216 0.945316 0.281658
O O16 0.252841 0.058388 0.528080
O O17 0.000000 0.000000 0.500000
#
# Coordination Sequence:
#
# PCOD8006874 Si02
#       8
#     2   2   2   2   2   2   2   2
#     4  10  20  40  65  88 116 164 211 257 300 369
#     4  10  22  38  67  92 116 161 219 253 303 372
#     4  10  22  42  62  87 122 168 206 250 307 376
#     4  10  21  39  66  92 117 161 215 259 303 364
#     4  12  23  39  62  92 129 162 200 262 314 371
#     4  10  20  40  68  87 117 161 215 255 303 368
#     4  10  24  40  62  93 127 158 205 256 315 367
#     4  12  26  38  58  95 132 164 201 256 324 374
#
# _framework density 21.150241999999999
#
# number of rings (size 3 to 8) (size 9 to 14) (size 15 to 20)
#    0.000    1.500    2.500    2.250    0.000    8.500 
#    0.000    0.000    0.000    0.000    0.000    0.000 
#    0.000    0.000    0.000    0.000    0.000    0.000 
#
# Total GULP energy -198340.091708 kJ/mol
# GULP energy per Si atom -12396.255732 kJ/mol
# Density = 2.110210 g / cm^3
# Si number density = 21.150242 Si / 1000 Ang^3
#
#
#
# Elastic Constant Matrix: (Units=GPa)
#
#
# Indices 1 2 3 4 5 6 
#
# 1 80.3585 31.7105 39.0959 -2.4164 -12.3935 -15.2680
# 2 31.7105 126.6161 43.0057 -16.1630 -4.7247 3.5318
# 3 39.0959 43.0057 81.6349 -10.5749 -5.9203 0.5084
# 4 -2.4164 -16.1630 -10.5749 34.2701 -4.0955 -12.0175
# 5 -12.3935 -4.7247 -5.9203 -4.0955 30.8100 7.2900
# 6 -15.2680 3.5318 0.5084 -12.0175 7.2900 39.4280
#
#
#
# Elastic Compliance Matrix: (Units=1/GPa)
#
#
# Indices 1 2 3 4 5 6 
#
# 1 0.019031 -0.002087 -0.007612 0.001040 0.004313 0.007174
# 2 -0.002087 0.010208 -0.003908 0.003255 0.000594 -0.000790
# 3 -0.007612 -0.003908 0.018358 0.002610 0.000728 -0.002173
# 4 0.001040 0.003255 0.002610 0.035634 0.003731 0.010249
# 5 0.004313 0.000594 0.000728 0.003731 0.035837 -0.003881
# 6 0.007174 -0.000790 -0.002173 0.010249 -0.003881 0.032081
#
#
# Mechanical properties :
#
#
# Convention : Reuss Voigt Hill
#
# Bulk Modulus (GPa) = 49.06170 57.35931 53.21050
# Shear Modulus (GPa) = 27.00417 32.55478 29.77948
#
# Velocity S-wave (km/s) = 3.57708 3.92754 3.75640
# Velocity P-wave (km/s) = 6.34884 6.90986 6.63528
#
# Compressibility (1/GPa) = 0.02038250
#
# Stress axis : x y z
#
# Youngs Moduli (GPa) = 52.54700 97.96388 54.47159
#
# Poissons Ratio (x) = 0.20448 0.41461
# Poissons Ratio (y) = 0.10968 0.21289
# Poissons Ratio (z) = 0.39997 0.38287
#
# Static dielectric constant tensor:
#      x y z
#    x 3.713790 -0.256360 -0.117860 
#    y -0.256360 4.145230 0.062560 
#    z -0.117860 0.062560 3.872600 
# 
# 
# High freq. dielectric constant tensor:
#      x y z
#    x 1.803970 -0.014250 -0.017010 
#    y -0.014250 1.846420 -0.000700 
#    z -0.017010 -0.000700 1.828230 
# 
# From -- ./inp_files/398144.got.cif
#   From: 2010.06.25/outbox.cif.g09.slc.cpg/sg2_200_cif.got.tgz:398144.got - 2010.06.27 13:26:56.
