data_PCOD8006532
_publ_section_title
;
Structure prediction by ZEFSAII (Michael W. Deem and Ramdas Pophale) SiO2 
 PCOD8006532
Probable space group: P -1
;
_chemical_formula_sum "Si O2"
_cell_formula_units_Z 16
_cell_length_a 5.407218
_cell_length_b 16.348902
_cell_length_c 9.017364
_cell_angle_alpha 103.124891
_cell_angle_beta 73.871239
_cell_angle_gamma 124.458461
_cell_volume 628.948604
_symmetry_space_group_name_H-M "P -1"
_symmetry_group_IT_number 2
_symmetry_cell_setting 'triclinic'
loop_
_space_group_symop_operation_xyz
x,y,z
-x,-y,-z
loop_
_atom_site_type_symbol
_atom_site_label
_atom_site_fract_x
_atom_site_fract_y
_atom_site_fract_z
Si Si1 0.320262 0.336944 0.470015
Si Si2 0.787308 0.249039 0.731697
Si Si3 0.156479 0.847656 0.033927
Si Si4 0.301377 0.483813 0.343195
Si Si5 0.238298 0.036009 0.203482
Si Si6 0.487561 0.903725 0.522040
Si Si7 0.909324 0.812915 0.772470
Si Si8 0.976883 0.532479 0.179462
O O1 0.151869 0.383784 0.425866
O O2 0.642547 0.425748 0.519664
O O3 0.378747 0.271797 0.312733
O O4 0.103020 0.271459 0.615576
O O5 0.767091 0.211454 0.887705
O O6 0.505734 0.161557 0.643719
O O7 0.781043 0.348870 0.785467
O O8 0.063051 0.917166 0.162099
O O9 0.428042 0.914358 0.901159
O O10 0.891505 0.774368 0.929528
O O11 0.078549 0.473404 0.244845
O O12 0.634235 0.506857 0.247137
O O13 0.237646 0.057568 0.388992
O O14 0.064085 0.081647 0.172385
O O15 0.188608 0.828362 0.634725
O O16 0.500000 0.000000 0.500000
O O17 0.000000 0.500000 0.000000
#
# Coordination Sequence:
#
# PCOD8006532 Si02
#       8
#     2   2   2   2   2   2   2   2
#     4   9  22  42  65  94 125 170 216 270 329 393
#     4  10  22  41  62  94 126 165 215 274 321 391
#     4  10  21  40  58  87 129 162 213 266 319 384
#     4  10  23  46  70  96 135 176 216 273 334 400
#     4  10  21  38  61  85 122 173 210 256 328 378
#     4  10  20  40  60  87 126 164 211 267 315 382
#     4  10  22  38  62  89 122 166 219 257 321 390
#     4  11  25  44  71 101 138 172 220 273 339 394
#
# _framework density 25.439281999999999
#
# number of rings (size 3 to 8) (size 9 to 14) (size 15 to 20)
#    0.000    2.000    1.250    0.750    3.500    6.000 
#    6.750    0.000    0.000    0.000    0.000    0.000 
#    0.000    0.000    0.000    0.000    0.000    0.000 
#
# Total GULP energy -198223.439403 kJ/mol
# GULP energy per Si atom -12388.964963 kJ/mol
# Density = 2.538138 g / cm^3
# Si number density = 25.439282 Si / 1000 Ang^3
#
#
#
# Elastic Constant Matrix: (Units=GPa)
#
#
# Indices 1 2 3 4 5 6 
#
# 1 54.0797 -6.1902 33.2950 -6.0498 6.9525 -17.7358
# 2 -6.1902 80.1941 41.1181 1.6462 -1.4727 -8.4206
# 3 33.2950 41.1181 158.0771 5.3798 31.1254 -1.9217
# 4 -6.0498 1.6462 5.3798 43.7039 -10.6269 7.7594
# 5 6.9525 -1.4727 31.1254 -10.6269 29.8660 -4.5306
# 6 -17.7358 -8.4206 -1.9217 7.7594 -4.5306 26.9563
#
#
#
# Elastic Compliance Matrix: (Units=1/GPa)
#
#
# Indices 1 2 3 4 5 6 
#
# 1 0.035522 0.012159 -0.012602 0.003878 0.010939 0.026994
# 2 0.012159 0.020297 -0.010054 0.002365 0.011753 0.014918
# 3 -0.012602 -0.010054 0.014927 -0.005199 -0.016741 -0.011685
# 4 0.003878 0.002365 -0.005199 0.027893 0.014143 -0.002732
# 5 0.010939 0.011753 -0.016741 0.014143 0.056280 0.015063
# 6 0.026994 0.014918 -0.011685 -0.002732 0.015063 0.062003
#
#
# Mechanical properties :
#
#
# Convention : Reuss Voigt Hill
#
# Bulk Modulus (GPa) = 20.09964 47.64407 33.87185
# Shear Modulus (GPa) = 19.64636 35.04711 27.34673
#
# Velocity S-wave (km/s) = 2.78202 3.71573 3.28225
# Velocity P-wave (km/s) = 4.27056 6.09738 5.26383
#
# Compressibility (1/GPa) = 0.04975214
#
# Stress axis : x y z
#
# Youngs Moduli (GPa) = 28.15138 49.26835 66.99389
#
# Poissons Ratio (x) = -0.59907 0.84428
# Poissons Ratio (y) = -0.34230 0.67355
# Poissons Ratio (z) = 0.35477 0.49534
#
# Static dielectric constant tensor:
#      x y z
#    x 4.030610 0.093650 0.210180 
#    y 0.093650 4.732120 0.308020 
#    z 0.210180 0.308020 5.106720 
# 
# 
# High freq. dielectric constant tensor:
#      x y z
#    x 1.974740 -0.001880 0.013090 
#    y -0.001880 2.015150 0.005630 
#    z 0.013090 0.005630 2.041720 
# 
# From -- ./inp_files/48734.got.cif
#   From: 2010.06.25/outbox.cif.g09.slc.cpg/sg2_25_cif.got.tgz:48734.got - 2010.06.27 13:26:56.
