data_PCOD8006320
_publ_section_title
;
Structure prediction by ZEFSAII (Michael W. Deem and Ramdas Pophale) SiO2 
 PCOD8006320
Probable space group: P -1
;
_chemical_formula_sum "Si O2"
_cell_formula_units_Z 14
_cell_length_a 9.795372
_cell_length_b 10.025914
_cell_length_c 8.236584
_cell_angle_alpha 118.395659
_cell_angle_beta 103.100172
_cell_angle_gamma 58.530978
_cell_volume 606.664394
_symmetry_space_group_name_H-M "P -1"
_symmetry_group_IT_number 2
_symmetry_cell_setting 'triclinic'
loop_
_space_group_symop_operation_xyz
x,y,z
-x,-y,-z
loop_
_atom_site_type_symbol
_atom_site_label
_atom_site_fract_x
_atom_site_fract_y
_atom_site_fract_z
Si Si1 0.493896 0.770310 0.063417
Si Si2 0.217373 0.180150 0.731418
Si Si3 0.067922 0.565879 0.411751
Si Si4 0.980990 0.128640 0.242855
Si Si5 0.624526 0.491816 0.664557
Si Si6 0.737001 0.138587 0.650989
Si Si7 0.793676 0.951670 0.003713
O O1 0.650059 0.762450 0.176685
O O2 0.393393 0.770605 0.191506
O O3 0.532091 0.609123 0.862471
O O4 0.393448 0.949858 0.037793
O O5 0.066358 0.347523 0.712459
O O6 0.286080 0.006191 0.540578
O O7 0.167033 0.148124 0.876043
O O8 0.248291 0.439237 0.317168
O O9 0.000000 0.500000 0.500000
O O10 0.111313 0.708447 0.574793
O O11 0.847871 0.100838 0.098214
O O12 0.086892 0.957554 0.279859
O O13 0.093892 0.176053 0.182366
O O14 0.500000 0.500000 0.500000
O O15 0.726592 0.290057 0.622523
#
# Coordination Sequence:
#
# PCOD8006320 Si02
#       7
#     2   2   2   2   2   2   2
#     4  11  24  40  65 103 135 167 211 273 336 386
#     4  11  23  42  68  93 132 173 219 269 326 384
#     4  11  26  44  63  93 134 175 217 268 328 383
#     4   9  20  41  67  90 125 168 222 268 317 383
#     4  12  26  43  68  97 134 176 217 271 326 390
#     4  10  22  43  67  95 127 173 223 266 323 387
#     4  10  20  39  67  97 123 167 220 269 317 392
#
# _framework density 23.077010000000001
#
# number of rings (size 3 to 8) (size 9 to 14) (size 15 to 20)
#    0.000    1.429    0.000    4.714    4.000    2.857 
#   10.286    0.000    0.000    0.000    0.000    0.000 
#    0.000    0.000    0.000    0.000    0.000    0.000 
#
# Total GULP energy -173494.625765 kJ/mol
# GULP energy per Si atom -12392.473269 kJ/mol
# Density = 2.302449 g / cm^3
# Si number density = 23.077010 Si / 1000 Ang^3
#
#
#
# Elastic Constant Matrix: (Units=GPa)
#
#
# Indices 1 2 3 4 5 6 
#
# 1 88.5909 29.6207 5.4305 -13.3703 -6.6659 -5.5317
# 2 29.6207 83.9353 26.4462 -25.4084 -18.3073 -0.4388
# 3 5.4305 26.4462 83.1752 -9.6121 1.7779 -6.2897
# 4 -13.3703 -25.4084 -9.6121 38.8944 1.6401 -6.8847
# 5 -6.6659 -18.3073 1.7779 1.6401 36.1294 -11.4403
# 6 -5.5317 -0.4388 -6.2897 -6.8847 -11.4403 30.7451
#
#
#
# Elastic Compliance Matrix: (Units=1/GPa)
#
#
# Indices 1 2 3 4 5 6 
#
# 1 0.013274 -0.003706 0.000906 0.002968 0.001588 0.003776
# 2 -0.003706 0.020726 -0.004844 0.011552 0.011245 0.005409
# 3 0.000906 -0.004844 0.013853 0.001077 -0.002284 0.002319
# 4 0.002968 0.011552 0.001077 0.036350 0.008577 0.012251
# 5 0.001588 0.011245 -0.002284 0.008577 0.038534 0.016238
# 6 0.003776 0.005409 0.002319 0.012251 0.016238 0.042542
#
#
# Mechanical properties :
#
#
# Convention : Reuss Voigt Hill
#
# Bulk Modulus (GPa) = 30.70743 42.07737 36.39240
# Shear Modulus (GPa) = 26.12027 34.10071 30.11049
#
# Velocity S-wave (km/s) = 3.36798 3.84825 3.61610
# Velocity P-wave (km/s) = 5.33477 6.16590 5.76534
#
# Compressibility (1/GPa) = 0.03256541
#
# Stress axis : x y z
#
# Youngs Moduli (GPa) = 75.33263 48.24892 72.18855
#
# Poissons Ratio (x) = 0.17879 -0.06541
# Poissons Ratio (y) = 0.27915 0.34971
# Poissons Ratio (z) = -0.06826 0.23374
#
# Static dielectric constant tensor:
#      x y z
#    x 4.230190 -0.256760 -0.172690 
#    y -0.256760 4.069520 -0.023410 
#    z -0.172690 -0.023410 4.465350 
# 
# 
# High freq. dielectric constant tensor:
#      x y z
#    x 1.918380 -0.012140 -0.012120 
#    y -0.012140 1.898120 -0.008300 
#    z -0.012120 -0.008300 1.933260 
# 
# From -- ./inp_files/190201.got.cif
#   From: 2010.06.25/outbox.cif.g09.slc.cpg/sg2_96_cif.got.tgz:190201.got - 2010.06.27 13:26:56.
