data_PCOD8006867
_publ_section_title
;
Structure prediction by ZEFSAII (Michael W. Deem and Ramdas Pophale) SiO2 
 PCOD8006867
Probable space group: P -1
;
_chemical_formula_sum "Si O2"
_cell_formula_units_Z 16
_cell_length_a 14.625099
_cell_length_b 7.901108
_cell_length_c 14.460075
_cell_angle_alpha 115.108711
_cell_angle_beta 151.406884
_cell_angle_gamma 72.830642
_cell_volume 712.476740
_symmetry_space_group_name_H-M "P -1"
_symmetry_group_IT_number 2
_symmetry_cell_setting 'triclinic'
loop_
_space_group_symop_operation_xyz
x,y,z
-x,-y,-z
loop_
_atom_site_type_symbol
_atom_site_label
_atom_site_fract_x
_atom_site_fract_y
_atom_site_fract_z
Si Si1 0.945271 0.543700 0.138651
Si Si2 0.808815 0.546611 0.216660
Si Si3 0.906990 0.247683 0.344855
Si Si4 0.311747 0.063751 0.809093
Si Si5 0.109056 0.117219 0.334027
Si Si6 0.303064 0.862193 0.563486
Si Si7 0.882985 0.791277 0.834903
Si Si8 0.265822 0.187877 0.103147
O O1 0.837682 0.475346 0.122833
O O2 0.156298 0.664386 0.378337
O O3 0.974253 0.360967 0.062335
O O4 0.803238 0.647325 0.978047
O O5 0.739304 0.354848 0.173860
O O6 0.013784 0.639188 0.466505
O O7 0.672321 0.707826 0.130317
O O8 0.841613 0.028649 0.269008
O O9 0.079439 0.257737 0.424253
O O10 0.255288 0.970136 0.638397
O O11 0.500000 0.000000 0.000000
O O12 0.200074 0.229098 0.348868
O O13 0.263921 0.987306 0.469622
O O14 0.891813 0.002623 0.094362
O O15 0.525113 0.835763 0.754093
O O16 0.719124 0.754355 0.760877
O O17 0.000000 0.000000 0.000000
#
# Coordination Sequence:
#
# PCOD8006867 Si02
#       8
#     2   2   2   2   2   2   2   2
#     4  11  21  41  66  89 124 166 207 263 315 374
#     4  11  22  37  65  91 123 169 212 251 313 382
#     4  11  21  38  63  88 124 168 211 255 310 379
#     4  12  23  38  60  94 137 169 207 260 312 377
#     4  10  20  40  65  86 125 166 205 262 313 371
#     4  11  22  39  62  92 128 164 211 254 310 385
#     4  10  22  42  67  91 121 162 212 264 322 371
#     4  10  23  40  63  93 120 164 212 262 319 369
#
# _framework density 22.456873999999999
#
# number of rings (size 3 to 8) (size 9 to 14) (size 15 to 20)
#    0.000    1.250    3.750    3.750    0.000    1.500 
#    0.000    2.500    0.000    0.000    0.000    0.000 
#    0.000    0.000    0.000    0.000    0.000    0.000 
#
# Total GULP energy -198245.298477 kJ/mol
# GULP energy per Si atom -12390.331155 kJ/mol
# Density = 2.240576 g / cm^3
# Si number density = 22.456874 Si / 1000 Ang^3
#
#
#
# Elastic Constant Matrix: (Units=GPa)
#
#
# Indices 1 2 3 4 5 6 
#
# 1 112.5428 19.1959 16.3179 -10.9600 -23.5048 -3.3577
# 2 19.1959 121.5223 19.4079 -25.4939 -2.1782 -7.3043
# 3 16.3179 19.4079 66.3562 -21.2291 -0.1748 4.1201
# 4 -10.9600 -25.4939 -21.2291 31.1376 -2.5580 -14.0669
# 5 -23.5048 -2.1782 -0.1748 -2.5580 25.7872 -7.0639
# 6 -3.3577 -7.3043 4.1201 -14.0669 -7.0639 33.9427
#
#
#
# Elastic Compliance Matrix: (Units=1/GPa)
#
#
# Indices 1 2 3 4 5 6 
#
# 1 0.013476 0.001088 -0.000754 0.010692 0.016011 0.009422
# 2 0.001088 0.012081 0.000708 0.016108 0.006534 0.010657
# 3 -0.000754 0.000708 0.019991 0.016390 0.002493 0.004963
# 4 0.010692 0.016108 0.016390 0.082290 0.031195 0.043130
# 5 0.016011 0.006534 0.002493 0.031195 0.065021 0.029147
# 6 0.009422 0.010657 0.004963 0.043130 0.029147 0.056025
#
#
# Mechanical properties :
#
#
# Convention : Reuss Voigt Hill
#
# Bulk Modulus (GPa) = 20.99484 45.58497 33.28990
# Shear Modulus (GPa) = 19.03486 34.54014 26.78750
#
# Velocity S-wave (km/s) = 2.91455 3.92607 3.45750
# Velocity P-wave (km/s) = 4.54922 6.39492 5.54934
#
# Compressibility (1/GPa) = 0.04763076
#
# Stress axis : x y z
#
# Youngs Moduli (GPa) = 74.20839 82.77437 50.02323
#
# Poissons Ratio (x) = -0.09007 0.03774
# Poissons Ratio (y) = -0.08075 -0.03541
# Poissons Ratio (z) = 0.05598 -0.05860
#
# Static dielectric constant tensor:
#      x y z
#    x 4.736340 0.346070 -0.449730 
#    y 0.346070 4.443310 -0.083320 
#    z -0.449730 -0.083320 3.847620 
# 
# 
# High freq. dielectric constant tensor:
#      x y z
#    x 1.891460 0.002680 -0.035400 
#    y 0.002680 1.903180 -0.019000 
#    z -0.035400 -0.019000 1.847040 
# 
# From -- ./inp_files/445334.got.cif
#   From: 2010.06.25/outbox.cif.g09.slc.cpg/sg2_223_cif.got.tgz:445334.got - 2010.06.27 13:26:56.
