data_PCOD8006998
_publ_section_title
;
Structure prediction by ZEFSAII (Michael W. Deem and Ramdas Pophale) SiO2 
 PCOD8006998
Probable space group: P -1
;
_chemical_formula_sum "Si O2"
_cell_formula_units_Z 16
_cell_length_a 12.805740
_cell_length_b 12.104442
_cell_length_c 24.914282
_cell_angle_alpha 33.871058
_cell_angle_beta 21.511547
_cell_angle_gamma 33.120012
_cell_volume 748.158078
_symmetry_space_group_name_H-M "P -1"
_symmetry_group_IT_number 2
_symmetry_cell_setting 'triclinic'
loop_
_space_group_symop_operation_xyz
x,y,z
-x,-y,-z
loop_
_atom_site_type_symbol
_atom_site_label
_atom_site_fract_x
_atom_site_fract_y
_atom_site_fract_z
Si Si1 0.332494 0.566711 0.272654
Si Si2 0.391772 0.414282 0.968247
Si Si3 0.692573 0.183383 0.209206
Si Si4 0.650889 0.849983 0.238179
Si Si5 0.193707 0.601118 0.441439
Si Si6 0.193994 0.900576 0.027403
Si Si7 0.225783 0.584055 0.697909
Si Si8 0.778446 0.007101 0.522240
O O1 0.598600 0.337740 0.243547
O O2 0.272305 0.678929 0.313724
O O3 0.036767 0.526610 0.405797
O O4 0.445796 0.697360 0.120083
O O5 0.058285 0.400318 0.135097
O O6 0.379574 0.658931 0.872733
O O7 0.574235 0.312591 0.975140
O O8 0.489815 0.032227 0.367757
O O9 0.042799 0.046907 0.092064
O O10 0.706231 0.608055 0.298059
O O11 0.332075 0.951001 0.380090
O O12 0.928951 0.856296 0.139098
O O13 0.628004 0.980576 0.141717
O O14 0.488729 0.441462 0.390546
O O15 0.071369 0.801915 0.458074
O O16 0.150947 0.793555 0.614790
#
# Coordination Sequence:
#
# PCOD8006998 Si02
#       8
#     2   2   2   2   2   2   2   2
#     4   8  19  44  67  93 116 171 204 251 313 372
#     4  10  22  40  66  92 122 160 212 251 310 367
#     4   8  18  40  63  91 120 158 212 249 299 376
#     4  10  22  41  61  92 126 167 210 252 312 356
#     4  10  22  43  65  89 134 155 209 262 302 375
#     4  10  20  40  66  91 123 165 212 256 293 381
#     4  12  25  40  59  98 130 161 203 266 311 357
#     4  10  23  40  60  91 127 165 208 246 315 372
#
# _framework density 21.385853999999998
#
# number of rings (size 3 to 8) (size 9 to 14) (size 15 to 20)
#    0.750    1.500    1.250    0.375    5.250    1.500 
#    4.500    2.500    0.000    0.000    0.000    0.000 
#    0.000    0.000    0.000    0.000    0.000    0.000 
#
# Total GULP energy -198230.679574 kJ/mol
# GULP energy per Si atom -12389.417473 kJ/mol
# Density = 2.133718 g / cm^3
# Si number density = 21.385854 Si / 1000 Ang^3
#
#
#
# Elastic Constant Matrix: (Units=GPa)
#
#
# Indices 1 2 3 4 5 6 
#
# 1 29.2376 20.5056 22.3187 18.3701 5.3130 1.6683
# 2 20.5056 79.6530 35.4037 8.4524 -1.4532 -2.6280
# 3 22.3187 35.4037 122.1447 16.9819 15.1514 8.4097
# 4 18.3701 8.4524 16.9819 39.4400 6.3046 0.5370
# 5 5.3130 -1.4532 15.1514 6.3046 21.3735 8.1182
# 6 1.6683 -2.6280 8.4097 0.5370 8.1182 25.8702
#
#
#
# Elastic Compliance Matrix: (Units=1/GPa)
#
#
# Indices 1 2 3 4 5 6 
#
# 1 0.061133 -0.011789 -0.003657 -0.023410 -0.005885 -0.001618
# 2 -0.011789 0.017268 -0.004029 0.002635 0.005395 0.002077
# 3 -0.003657 -0.004029 0.011080 -0.001191 -0.006180 -0.001811
# 4 -0.023410 0.002635 -0.001191 0.037001 -0.005225 0.003036
# 5 -0.005885 0.005395 -0.006180 -0.005225 0.060606 -0.015973
# 6 -0.001618 0.002077 -0.001811 0.003036 -0.015973 0.044508
#
#
# Mechanical properties :
#
#
# Convention : Reuss Voigt Hill
#
# Bulk Modulus (GPa) = 19.79043 43.05462 31.42252
# Shear Modulus (GPa) = 17.39796 27.52388 22.46092
#
# Velocity S-wave (km/s) = 2.85533 3.59139 3.24430
# Velocity P-wave (km/s) = 4.48828 6.11338 5.36275
#
# Compressibility (1/GPa) = 0.05052948
#
# Stress axis : x y z
#
# Youngs Moduli (GPa) = 16.35785 57.91160 90.25148
#
# Poissons Ratio (x) = 0.68271 0.33007
# Poissons Ratio (y) = 0.19284 0.36366
# Poissons Ratio (z) = 0.05982 0.23335
#
# Static dielectric constant tensor:
#      x y z
#    x 3.425750 0.181200 0.195680 
#    y 0.181200 3.799040 0.298070 
#    z 0.195680 0.298070 4.134210 
# 
# 
# High freq. dielectric constant tensor:
#      x y z
#    x 1.797200 0.006900 0.007110 
#    y 0.006900 1.831360 0.017820 
#    z 0.007110 0.017820 1.858310 
# 
# From -- ./inp_files/619575.got.cif
#   From: 2010.06.25/outbox.cif.g09.slc.cpg/sg2_310_cif.got.tgz:619575.got - 2010.06.27 13:26:56.
