data_PCOD8006764
_publ_section_title
;
Structure prediction by ZEFSAII (Michael W. Deem and Ramdas Pophale) SiO2 
 PCOD8006764
Probable space group: P -1
;
_chemical_formula_sum "Si O2"
_cell_formula_units_Z 16
_cell_length_a 9.215924
_cell_length_b 8.958398
_cell_length_c 15.722724
_cell_angle_alpha 117.397330
_cell_angle_beta 37.705809
_cell_angle_gamma 118.983591
_cell_volume 687.285545
_symmetry_space_group_name_H-M "P -1"
_symmetry_group_IT_number 2
_symmetry_cell_setting 'triclinic'
loop_
_space_group_symop_operation_xyz
x,y,z
-x,-y,-z
loop_
_atom_site_type_symbol
_atom_site_label
_atom_site_fract_x
_atom_site_fract_y
_atom_site_fract_z
Si Si1 0.472294 0.495406 0.652929
Si Si2 0.502082 0.176208 0.185215
Si Si3 0.846745 0.741141 0.763211
Si Si4 0.790798 0.914732 0.008660
Si Si5 0.258393 0.041367 0.432204
Si Si6 0.381900 0.602475 0.150379
Si Si7 0.152130 0.366240 0.619776
Si Si8 0.368096 0.829705 0.468770
O O1 0.409752 0.617553 0.789166
O O2 0.268391 0.493781 0.674775
O O3 0.740507 0.565130 0.504795
O O4 0.463172 0.308571 0.648762
O O5 0.287453 0.144411 0.205929
O O6 0.446294 0.104818 0.287493
O O7 0.703046 0.069857 0.039166
O O8 0.698192 0.539474 0.774673
O O9 0.114934 0.746289 0.608394
O O10 0.880421 0.810497 0.862649
O O11 0.578360 0.781215 0.124778
O O12 0.000000 0.000000 0.000000
O O13 0.245116 0.189533 0.546856
O O14 0.320984 0.875840 0.405119
O O15 0.000000 0.000000 0.500000
O O16 0.138409 0.660822 0.247254
O O17 0.500000 0.500000 0.000000
O O18 0.500000 0.000000 0.500000
#
# Coordination Sequence:
#
# PCOD8006764 Si02
#       8
#     2   2   2   2   2   2   2   2
#     4  10  23  38  69 103 142 184 225 302 350 417
#     4  11  25  44  69 100 144 186 238 289 360 418
#     4  11  25  48  70 102 147 188 236 292 356 430
#     4  11  27  47  76 104 136 189 245 297 348 425
#     4  11  22  38  67 102 134 182 231 290 348 417
#     4  10  23  43  75  98 139 189 236 287 357 419
#     4  10  20  40  64 101 142 179 233 286 359 416
#     4  12  24  42  69 110 143 183 238 295 357 415
#
# _framework density 23.279990000000002
#
# number of rings (size 3 to 8) (size 9 to 14) (size 15 to 20)
#    0.000    1.250    3.750    1.125    5.250    2.500 
#    0.000    0.625    0.000    0.000    0.000    0.000 
#    0.000    0.000    0.000    0.000    0.000    0.000 
#
# Total GULP energy -198256.965648 kJ/mol
# GULP energy per Si atom -12391.060353 kJ/mol
# Density = 2.322700 g / cm^3
# Si number density = 23.279990 Si / 1000 Ang^3
#
#
#
# Elastic Constant Matrix: (Units=GPa)
#
#
# Indices 1 2 3 4 5 6 
#
# 1 102.6759 45.9596 21.7926 -5.3293 -5.2853 4.0146
# 2 45.9596 145.4297 28.1037 2.6242 -7.5708 -6.8014
# 3 21.7926 28.1037 55.2385 -8.6321 -7.4269 -3.4931
# 4 -5.3293 2.6242 -8.6321 34.1241 2.3714 -7.5114
# 5 -5.2853 -7.5708 -7.4269 2.3714 34.4640 1.0029
# 6 4.0146 -6.8014 -3.4931 -7.5114 1.0029 46.5379
#
#
#
# Elastic Compliance Matrix: (Units=1/GPa)
#
#
# Indices 1 2 3 4 5 6 
#
# 1 0.011969 -0.003284 -0.002933 0.001000 0.000459 -0.001581
# 2 -0.003284 0.008658 -0.003225 -0.001831 0.000800 0.000994
# 3 -0.002933 -0.003225 0.022375 0.005738 0.003201 0.002318
# 4 0.001000 -0.001831 0.005738 0.032322 -0.001391 0.005324
# 5 0.000459 0.000800 0.003201 -0.001391 0.030064 -0.000555
# 6 -0.001581 0.000994 0.002318 0.005324 -0.000555 0.022815
#
#
# Mechanical properties :
#
#
# Convention : Reuss Voigt Hill
#
# Bulk Modulus (GPa) = 41.46321 55.00622 48.23472
# Shear Modulus (GPa) = 32.23156 36.85775 34.54466
#
# Velocity S-wave (km/s) = 3.72495 3.98331 3.85629
# Velocity P-wave (km/s) = 6.02907 6.69590 6.37121
#
# Compressibility (1/GPa) = 0.02411776
#
# Stress axis : x y z
#
# Youngs Moduli (GPa) = 83.54752 115.49446 44.69238
#
# Poissons Ratio (x) = 0.37926 0.13110
# Poissons Ratio (y) = 0.27435 0.14415
# Poissons Ratio (z) = 0.24508 0.37251
#
# Static dielectric constant tensor:
#      x y z
#    x 3.879600 -0.015550 -0.140840 
#    y -0.015550 4.901770 0.185580 
#    z -0.140840 0.185580 3.905930 
# 
# 
# High freq. dielectric constant tensor:
#      x y z
#    x 1.914630 -0.002780 -0.002310 
#    y -0.002780 1.938870 0.017710 
#    z -0.002310 0.017710 1.902420 
# 
# From -- ./inp_files/447665.got.cif
#   From: 2010.06.25/outbox.cif.g09.slc.cpg/sg2_224_cif.got.tgz:447665.got - 2010.06.27 13:26:56.
