data_PCOD8006491
_publ_section_title
;
Structure prediction by ZEFSAII (Michael W. Deem and Ramdas Pophale) SiO2 
 PCOD8006491
Probable space group: P -1
;
_chemical_formula_sum "Si O2"
_cell_formula_units_Z 16
_cell_length_a 13.778804
_cell_length_b 10.431909
_cell_length_c 13.464418
_cell_angle_alpha 109.299733
_cell_angle_beta 137.977251
_cell_angle_gamma 102.216766
_cell_volume 844.053302
_symmetry_space_group_name_H-M "P -1"
_symmetry_group_IT_number 2
_symmetry_cell_setting 'triclinic'
loop_
_space_group_symop_operation_xyz
x,y,z
-x,-y,-z
loop_
_atom_site_type_symbol
_atom_site_label
_atom_site_fract_x
_atom_site_fract_y
_atom_site_fract_z
Si Si1 0.460288 0.648098 0.834129
Si Si2 0.260953 0.040705 0.706106
Si Si3 0.285961 0.038212 0.174378
Si Si4 0.715271 0.312067 0.647683
Si Si5 0.129191 0.190030 0.512868
Si Si6 0.043130 0.743008 0.078730
Si Si7 0.371641 0.817895 0.660343
Si Si8 0.856910 0.866273 0.066321
O O1 0.292249 0.421272 0.678497
O O2 0.347485 0.690808 0.696668
O O3 0.554573 0.779864 0.037675
O O4 0.645560 0.700062 0.926664
O O5 0.245628 0.133248 0.625442
O O6 0.318269 0.930465 0.685019
O O7 0.037823 0.875716 0.548703
O O8 0.470126 0.190220 0.434941
O O9 0.385934 0.017305 0.154046
O O10 0.097682 0.837343 0.035907
O O11 0.198948 0.118154 0.082173
O O12 0.757544 0.202335 0.712084
O O13 0.778102 0.329370 0.583575
O O14 0.842158 0.514512 0.850114
O O15 0.010901 0.077091 0.291423
O O16 0.978761 0.808787 0.129269
#
# Coordination Sequence:
#
# PCOD8006491 Si02
#       8
#     2   2   2   2   2   2   2   2
#     4  10  21  39  57  87 115 147 191 236 284 343
#     4  10  20  40  58  84 115 148 189 235 285 342
#     4   9  21  37  55  81 115 150 188 233 278 333
#     4   9  22  37  54  83 115 146 190 240 267 344
#     4  10  22  37  60  85 116 147 191 234 284 346
#     4  11  20  38  58  81 115 152 190 232 282 328
#     4   9  20  39  56  82 118 146 188 237 278 338
#     4  10  22  36  58  85 116 148 190 237 278 338
#
# _framework density 18.956150000000001
#
# number of rings (size 3 to 8) (size 9 to 14) (size 15 to 20)
#    0.750    1.500    0.000    2.250    1.750    2.000 
#    6.750    0.000    0.000    0.000    0.000    0.000 
#    0.000    0.000    0.000    0.000    0.000    0.000 
#
# Total GULP energy -198323.730096 kJ/mol
# GULP energy per Si atom -12395.233131 kJ/mol
# Density = 1.891300 g / cm^3
# Si number density = 18.956150 Si / 1000 Ang^3
#
#
#
# Elastic Constant Matrix: (Units=GPa)
#
#
# Indices 1 2 3 4 5 6 
#
# 1 61.4716 38.1676 13.8046 11.2493 -4.0165 -3.1879
# 2 38.1676 105.3085 37.7544 5.1769 0.4067 3.3633
# 3 13.8046 37.7544 69.4681 -0.1325 -4.3995 6.6428
# 4 11.2493 5.1769 -0.1325 28.9728 5.9658 -0.5004
# 5 -4.0165 0.4067 -4.3995 5.9658 18.0245 1.9116
# 6 -3.1879 3.3633 6.6428 -0.5004 1.9116 23.5027
#
#
#
# Elastic Compliance Matrix: (Units=1/GPa)
#
#
# Indices 1 2 3 4 5 6 
#
# 1 0.023898 -0.008321 -0.000065 -0.009427 0.008237 0.003580
# 2 -0.008321 0.014851 -0.006579 0.001382 -0.004144 -0.001028
# 3 -0.000065 -0.006579 0.018770 0.000138 0.005178 -0.004791
# 4 -0.009427 0.001382 0.000138 0.041194 -0.015801 0.000647
# 5 0.008237 -0.004144 0.005178 -0.015801 0.064468 -0.005333
# 6 0.003580 -0.001028 -0.004791 0.000647 -0.005333 0.044983
#
#
# Mechanical properties :
#
#
# Convention : Reuss Voigt Hill
#
# Bulk Modulus (GPa) = 36.24749 46.18904 41.21827
# Shear Modulus (GPa) = 20.21914 23.86812 22.04363
#
# Velocity S-wave (km/s) = 3.26947 3.55226 3.41379
# Velocity P-wave (km/s) = 5.78064 6.42214 6.10982
#
# Compressibility (1/GPa) = 0.02758812
#
# Stress axis : x y z
#
# Youngs Moduli (GPa) = 41.84522 67.33437 53.27607
#
# Poissons Ratio (x) = 0.56026 0.00349
# Poissons Ratio (y) = 0.34818 0.35052
# Poissons Ratio (z) = 0.00274 0.44302
#
# Static dielectric constant tensor:
#      x y z
#    x 3.284230 0.027490 -0.003840 
#    y 0.027490 3.516860 -0.297990 
#    z -0.003840 -0.297990 3.403440 
# 
# 
# High freq. dielectric constant tensor:
#      x y z
#    x 1.726010 0.001530 -0.003730 
#    y 0.001530 1.745630 -0.017900 
#    z -0.003730 -0.017900 1.732020 
# 
# From -- ./inp_files/528978.got.cif
#   From: 2010.06.25/outbox.cif.g09.slc.cpg/sg2_265_cif.got.tgz:528978.got - 2010.06.27 13:26:56.
