data_PCOD8006929
_publ_section_title
;
Structure prediction by ZEFSAII (Michael W. Deem and Ramdas Pophale) SiO2 
 PCOD8006929
Probable space group: P -1
;
_chemical_formula_sum "Si O2"
_cell_formula_units_Z 16
_cell_length_a 11.669225
_cell_length_b 9.774875
_cell_length_c 9.566709
_cell_angle_alpha 107.149346
_cell_angle_beta 129.187398
_cell_angle_gamma 75.175420
_cell_volume 804.617612
_symmetry_space_group_name_H-M "P -1"
_symmetry_group_IT_number 2
_symmetry_cell_setting 'triclinic'
loop_
_space_group_symop_operation_xyz
x,y,z
-x,-y,-z
loop_
_atom_site_type_symbol
_atom_site_label
_atom_site_fract_x
_atom_site_fract_y
_atom_site_fract_z
Si Si1 0.137700 0.844038 0.930077
Si Si2 0.450649 0.384299 0.318882
Si Si3 0.053825 0.866314 0.189592
Si Si4 0.373276 0.896134 0.519147
Si Si5 0.115029 0.399177 0.967383
Si Si6 0.877074 0.462946 0.290078
Si Si7 0.455147 0.853309 0.257203
Si Si8 0.574195 0.532734 0.208798
O O1 0.105990 0.706468 0.774707
O O2 0.100651 0.814595 0.054399
O O3 0.311623 0.867007 0.049203
O O4 0.033953 0.977104 0.830054
O O5 0.500000 0.500000 0.500000
O O6 0.512010 0.227199 0.367412
O O7 0.528078 0.412301 0.241795
O O8 0.272674 0.392266 0.166975
O O9 0.200093 0.871214 0.402727
O O10 0.945235 0.756955 0.137103
O O11 0.392578 0.910412 0.373610
O O12 0.419044 0.045593 0.667881
O O13 0.130895 0.455213 0.839327
O O14 0.000000 0.500000 0.000000
O O15 0.745696 0.516892 0.307975
O O16 0.000000 0.500000 0.500000
O O17 0.523686 0.690289 0.276042
O O18 0.500000 0.500000 0.000000
#
# Coordination Sequence:
#
# PCOD8006929 Si02
#       8
#     2   2   2   2   2   2   2   2
#     4  10  20  42  62  94 129 174 211 267 328 380
#     4  12  24  41  69  99 128 171 225 270 316 383
#     4  10  22  38  67  94 133 165 218 273 320 378
#     4  10  22  38  65 101 124 166 224 272 314 381
#     4  12  24  43  66  98 133 170 221 271 321 384
#     4  12  28  43  67  98 135 175 215 264 337 392
#     4  10  20  40  65  93 131 168 217 266 323 381
#     4  12  24  45  67  94 135 176 214 266 326 395
#
# _framework density 19.885223
#
# number of rings (size 3 to 8) (size 9 to 14) (size 15 to 20)
#    0.000    1.000    5.000    1.500    5.250    1.000 
#    0.000    2.500    0.000    0.000    0.000    0.000 
#    0.000    0.000    0.000    0.000    0.000    0.000 
#
# Total GULP energy -198361.657765 kJ/mol
# GULP energy per Si atom -12397.603610 kJ/mol
# Density = 1.983996 g / cm^3
# Si number density = 19.885223 Si / 1000 Ang^3
#
#
#
# Elastic Constant Matrix: (Units=GPa)
#
#
# Indices 1 2 3 4 5 6 
#
# 1 97.2092 24.5226 42.4903 0.1790 32.2039 2.9624
# 2 24.5226 100.8800 51.6596 8.1606 22.5952 4.5019
# 3 42.4903 51.6596 132.7657 7.5864 39.3185 4.6109
# 4 0.1790 8.1606 7.5864 37.0634 0.5452 6.6009
# 5 32.2039 22.5952 39.3185 0.5452 41.9142 -1.6779
# 6 2.9624 4.5019 4.6109 6.6009 -1.6779 34.5408
#
#
#
# Elastic Compliance Matrix: (Units=1/GPa)
#
#
# Indices 1 2 3 4 5 6 
#
# 1 0.014220 -0.000576 -0.001598 0.000793 -0.009187 -0.001529
# 2 -0.000576 0.012849 -0.003814 -0.001841 -0.002918 -0.000906
# 3 -0.001598 -0.003814 0.012013 -0.001296 -0.008013 -0.001111
# 4 0.000793 -0.001841 -0.001296 0.028533 0.001025 -0.005058
# 5 -0.009187 -0.002918 -0.008013 0.001025 0.040153 0.003993
# 6 -0.001529 -0.000906 -0.001111 -0.005058 0.003993 0.030509
#
#
# Mechanical properties :
#
#
# Convention : Reuss Voigt Hill
#
# Bulk Modulus (GPa) = 36.89413 63.13331 50.01372
# Shear Modulus (GPa) = 31.38921 36.84918 34.11919
#
# Velocity S-wave (km/s) = 3.97737 4.30943 4.14672
# Velocity P-wave (km/s) = 6.29972 7.52192 6.93779
#
# Compressibility (1/GPa) = 0.02710459
#
# Stress axis : x y z
#
# Youngs Moduli (GPa) = 70.32513 77.82627 83.24118
#
# Poissons Ratio (x) = 0.04486 0.13302
# Poissons Ratio (y) = 0.04054 0.31751
# Poissons Ratio (z) = 0.11238 0.29685
#
# Static dielectric constant tensor:
#      x y z
#    x 3.628610 0.146420 0.278820 
#    y 0.146420 3.744610 0.114370 
#    z 0.278820 0.114370 3.741280 
# 
# 
# High freq. dielectric constant tensor:
#      x y z
#    x 1.769740 0.000880 0.023760 
#    y 0.000880 1.786040 0.004390 
#    z 0.023760 0.004390 1.781460 
# 
# From -- ./inp_files/205286.got.cif
#   From: 2010.06.25/outbox.cif.g09.slc.cpg/sg2_103_cif.got.tgz:205286.got - 2010.06.27 13:26:56.
