data_PCOD8006340
_publ_section_title
;
Structure prediction by ZEFSAII (Michael W. Deem and Ramdas Pophale) SiO2 
 PCOD8006340
Probable space group: P -1
;
_chemical_formula_sum "Si O2"
_cell_formula_units_Z 12
_cell_length_a 14.387405
_cell_length_b 8.849220
_cell_length_c 7.839823
_cell_angle_alpha 34.003753
_cell_angle_beta 105.486105
_cell_angle_gamma 121.249541
_cell_volume 448.612980
_symmetry_space_group_name_H-M "P -1"
_symmetry_group_IT_number 2
_symmetry_cell_setting 'triclinic'
loop_
_space_group_symop_operation_xyz
x,y,z
-x,-y,-z
loop_
_atom_site_type_symbol
_atom_site_label
_atom_site_fract_x
_atom_site_fract_y
_atom_site_fract_z
Si Si1 0.786620 0.757534 0.938728
Si Si2 0.589392 0.256005 0.088072
Si Si3 0.461769 0.528825 0.641359
Si Si4 0.131768 0.605395 0.468530
Si Si5 0.251153 0.404836 0.475965
Si Si6 0.918607 0.123514 0.334308
O O1 0.658779 0.457602 0.102104
O O2 0.785245 0.002342 0.844582
O O3 0.845898 0.012818 0.574629
O O4 0.857326 0.604625 0.179869
O O5 0.478872 0.285207 0.989515
O O6 0.671215 0.379123 0.846689
O O7 0.543487 0.882075 0.435672
O O8 0.500000 0.500000 0.500000
O O9 0.330435 0.437800 0.646912
O O10 0.169884 0.524605 0.385265
O O11 0.000000 0.500000 0.500000
O O12 0.169345 0.033006 0.722764
O O13 0.000000 0.000000 0.500000
O O14 0.000000 0.500000 0.000000
#
# Coordination Sequence:
#
# PCOD8006340 Si02
#       6
#     2   2   2   2   2   2
#     4  11  25  45  66  94 136 177 219 278 337 394
#     4  10  22  43  70  98 129 169 222 279 333 394
#     4  10  20  39  68 101 129 165 219 282 333 387
#     4  12  26  45  65  95 138 183 222 273 333 397
#     4  10  24  42  68  98 131 175 224 272 330 398
#     4  11  24  42  66  94 126 173 228 274 323 388
#
# _framework density 26.749113999999999
#
# number of rings (size 3 to 8) (size 9 to 14) (size 15 to 20)
#    0.000    1.333    0.000    5.500    0.000   14.667 
#    0.000    7.500    0.000    0.000    0.000    0.000 
#    0.000    0.000    0.000    0.000    0.000    0.000 
#
# Total GULP energy -148777.818724 kJ/mol
# GULP energy per Si atom -12398.151560 kJ/mol
# Density = 2.668823 g / cm^3
# Si number density = 26.749114 Si / 1000 Ang^3
#
#
#
# Elastic Constant Matrix: (Units=GPa)
#
#
# Indices 1 2 3 4 5 6 
#
# 1 134.1986 30.8759 38.9880 -8.5155 18.9442 12.9856
# 2 30.8759 149.0743 64.2976 -23.5299 5.2762 19.2483
# 3 38.9880 64.2976 145.9475 -35.3597 20.0023 5.6379
# 4 -8.5155 -23.5299 -35.3597 47.5878 4.4391 10.4887
# 5 18.9442 5.2762 20.0023 4.4391 45.5716 -0.6971
# 6 12.9856 19.2483 5.6379 10.4887 -0.6971 30.1124
#
#
#
# Elastic Compliance Matrix: (Units=1/GPa)
#
#
# Indices 1 2 3 4 5 6 
#
# 1 0.008854 -0.000434 -0.001144 0.001715 -0.003356 -0.004001
# 2 -0.000434 0.009538 -0.002812 0.004066 -0.000190 -0.006804
# 3 -0.001144 -0.002812 0.010984 0.007568 -0.004796 -0.002513
# 4 0.001715 0.004066 0.007568 0.033351 -0.008007 -0.016557
# 5 -0.003356 -0.000190 -0.004796 -0.008007 0.026335 0.005865
# 6 -0.004001 -0.006804 -0.002513 -0.016557 0.005865 0.045657
#
#
# Mechanical properties :
#
#
# Convention : Reuss Voigt Hill
#
# Bulk Modulus (GPa) = 48.55500 77.50483 63.02991
# Shear Modulus (GPa) = 33.25275 44.32494 38.78884
#
# Velocity S-wave (km/s) = 3.52964 4.07512 3.81215
# Velocity P-wave (km/s) = 5.89937 7.15400 6.55676
#
# Compressibility (1/GPa) = 0.02059520
#
# Stress axis : x y z
#
# Youngs Moduli (GPa) = 112.94777 104.84546 91.04214
#
# Poissons Ratio (x) = 0.04554 0.10414
# Poissons Ratio (y) = 0.04906 0.25600
# Poissons Ratio (z) = 0.12919 0.29482
#
# Static dielectric constant tensor:
#      x y z
#    x 5.138470 0.233110 0.078220 
#    y 0.233110 5.154050 0.010970 
#    z 0.078220 0.010970 4.672950 
# 
# 
# High freq. dielectric constant tensor:
#      x y z
#    x 2.083210 -0.004930 -0.000550 
#    y -0.004930 2.094260 -0.004140 
#    z -0.000550 -0.004140 2.082120 
# 
# From -- ./inp_files/297219.got.cif
#   From: 2010.06.25/outbox.cif.g09.slc.cpg/sg2_149_cif.got.tgz:297219.got - 2010.06.27 13:26:56.
