data_PCOD8006800
_publ_section_title
;
Structure prediction by ZEFSAII (Michael W. Deem and Ramdas Pophale) SiO2 
 PCOD8006800
Probable space group: P -1
;
_chemical_formula_sum "Si O2"
_cell_formula_units_Z 16
_cell_length_a 12.483571
_cell_length_b 17.746868
_cell_length_c 9.399133
_cell_angle_alpha 57.282256
_cell_angle_beta 131.884291
_cell_angle_gamma 149.870565
_cell_volume 774.362234
_symmetry_space_group_name_H-M "P -1"
_symmetry_group_IT_number 2
_symmetry_cell_setting 'triclinic'
loop_
_space_group_symop_operation_xyz
x,y,z
-x,-y,-z
loop_
_atom_site_type_symbol
_atom_site_label
_atom_site_fract_x
_atom_site_fract_y
_atom_site_fract_z
Si Si1 0.327036 0.814561 0.669492
Si Si2 0.522940 0.104375 0.591849
Si Si3 0.769353 0.866290 0.735039
Si Si4 0.500371 0.395639 0.708580
Si Si5 0.235701 0.297988 0.307395
Si Si6 0.684575 0.842433 0.008314
Si Si7 0.757709 0.158904 0.011808
Si Si8 0.976986 0.580058 0.815900
O O1 0.317761 0.806169 0.499909
O O2 0.565433 0.881110 0.868356
O O3 0.083570 0.641764 0.686639
O O4 0.350821 0.930195 0.618487
O O5 0.353445 0.105544 0.463995
O O6 0.724375 0.198256 0.797228
O O7 0.685660 0.742273 0.687790
O O8 0.694938 0.810449 0.889161
O O9 0.057065 0.023324 0.824009
O O10 0.259047 0.284582 0.510764
O O11 0.584045 0.526642 0.734524
O O12 0.700633 0.472899 0.686608
O O13 0.480617 0.308575 0.895923
O O14 0.954767 0.178734 0.144752
O O15 0.847983 0.266498 0.104710
O O16 0.500000 0.000000 0.000000
O O17 0.000000 0.500000 0.000000
#
# Coordination Sequence:
#
# PCOD8006800 Si02
#       8
#     2   2   2   2   2   2   2   2
#     4  10  20  40  64  91 127 164 205 262 309 372
#     4  10  22  38  63  95 124 161 211 259 314 362
#     4  10  23  38  64  94 125 165 212 260 311 375
#     4  10  23  41  64  89 128 168 211 256 311 385
#     4  10  24  43  60  90 127 165 210 257 315 373
#     4  10  21  40  63  94 125 165 212 257 318 372
#     4  11  23  40  63  93 123 159 213 261 306 373
#     4  11  22  38  64  91 123 165 204 256 318 364
#
# _framework density 20.662164000000001
#
# number of rings (size 3 to 8) (size 9 to 14) (size 15 to 20)
#    0.000    1.750    2.500    0.750    3.500    3.000 
#    0.000    3.125    0.000    0.000    0.000    0.000 
#    0.000    0.000    0.000    0.000    0.000    0.000 
#
# Total GULP energy -198331.848449 kJ/mol
# GULP energy per Si atom -12395.740528 kJ/mol
# Density = 2.061514 g / cm^3
# Si number density = 20.662164 Si / 1000 Ang^3
#
#
#
# Elastic Constant Matrix: (Units=GPa)
#
#
# Indices 1 2 3 4 5 6 
#
# 1 111.2092 46.9629 47.0186 -5.4480 16.1545 -3.3242
# 2 46.9629 82.7704 45.7805 -19.0455 1.5585 16.6174
# 3 47.0186 45.7805 138.4102 -4.8326 10.4234 7.9192
# 4 -5.4480 -19.0455 -4.8326 39.8375 2.4780 -0.9609
# 5 16.1545 1.5585 10.4234 2.4780 31.6686 -4.5388
# 6 -3.3242 16.6174 7.9192 -0.9609 -4.5388 32.9387
#
#
#
# Elastic Compliance Matrix: (Units=1/GPa)
#
#
# Indices 1 2 3 4 5 6 
#
# 1 0.014206 -0.008324 -0.002047 -0.001829 -0.005254 0.005348
# 2 -0.008324 0.023361 -0.004108 0.009131 0.002147 -0.011076
# 3 -0.002047 -0.004108 0.009425 -0.001001 -0.001876 -0.000688
# 4 -0.001829 0.009131 -0.001001 0.029126 -0.002037 -0.003982
# 5 -0.005254 0.002147 -0.001876 -0.002037 0.035453 0.003664
# 6 0.005348 -0.011076 -0.000688 -0.003982 0.003664 0.037041
#
#
# Mechanical properties :
#
#
# Convention : Reuss Voigt Hill
#
# Bulk Modulus (GPa) = 55.45183 67.99042 61.72113
# Shear Modulus (GPa) = 27.23588 33.73081 30.48334
#
# Velocity S-wave (km/s) = 3.63458 4.04479 3.84516
# Velocity P-wave (km/s) = 6.67152 7.40209 7.04628
#
# Compressibility (1/GPa) = 0.01803367
#
# Stress axis : x y z
#
# Youngs Moduli (GPa) = 70.39315 42.80644 106.10304
#
# Poissons Ratio (x) = 0.35631 0.21718
# Poissons Ratio (y) = 0.58594 0.43591
# Poissons Ratio (z) = 0.14408 0.17587
#
# Static dielectric constant tensor:
#      x y z
#    x 3.832310 0.155770 0.105930 
#    y 0.155770 3.123930 -0.243990 
#    z 0.105930 -0.243990 3.973080 
# 
# 
# High freq. dielectric constant tensor:
#      x y z
#    x 1.810640 0.000250 0.008510 
#    y 0.000250 1.794870 -0.008980 
#    z 0.008510 -0.008980 1.821370 
# 
# From -- ./inp_files/279239.got.cif
#   From: 2010.06.25/outbox.cif.g09.slc.cpg/sg2_140_cif.got.tgz:279239.got - 2010.06.27 13:26:56.
