data_PCOD8006859
_publ_section_title
;
Structure prediction by ZEFSAII (Michael W. Deem and Ramdas Pophale) SiO2 
 PCOD8006859
Probable space group: P -1
;
_chemical_formula_sum "Si O2"
_cell_formula_units_Z 14
_cell_length_a 10.537121
_cell_length_b 14.731303
_cell_length_c 8.838131
_cell_angle_alpha 118.618111
_cell_angle_beta 41.686000
_cell_angle_gamma 130.879745
_cell_volume 689.707075
_symmetry_space_group_name_H-M "P -1"
_symmetry_group_IT_number 2
_symmetry_cell_setting 'triclinic'
loop_
_space_group_symop_operation_xyz
x,y,z
-x,-y,-z
loop_
_atom_site_type_symbol
_atom_site_label
_atom_site_fract_x
_atom_site_fract_y
_atom_site_fract_z
Si Si1 0.344379 0.170870 0.500930
Si Si2 0.614829 0.744694 0.799375
Si Si3 0.079521 0.016758 0.115873
Si Si4 0.464187 0.984221 0.838735
Si Si5 0.709049 0.241504 0.710251
Si Si6 0.222599 0.389581 0.289416
Si Si7 0.516325 0.661814 0.220960
O O1 0.311254 0.207719 0.394700
O O2 0.397787 0.283289 0.647285
O O3 0.532125 0.134345 0.308170
O O4 0.126728 0.049118 0.642766
O O5 0.782223 0.843903 0.850835
O O6 0.641639 0.629378 0.710676
O O7 0.363600 0.714600 0.037163
O O8 0.225614 0.955959 0.972604
O O9 0.000000 0.000000 0.000000
O O10 0.648201 0.104584 0.682583
O O11 0.500000 0.000000 0.000000
O O12 0.558597 0.251847 0.721736
O O13 0.964053 0.320448 0.502820
O O14 0.302233 0.529279 0.318436
O O15 0.283069 0.343697 0.045285
#
# Coordination Sequence:
#
# PCOD8006859 Si02
#       7
#     2   2   2   2   2   2   2
#     4  12  23  38  62  91 132 157 208 258 310 372
#     4  10  22  37  61  91 121 160 207 255 307 373
#     4  11  23  39  62  94 127 167 207 250 310 377
#     4  11  23  39  62  92 128 165 198 247 321 376
#     4  10  20  40  65  85 120 165 206 251 312 370
#     4  10  21  42  65  82 123 166 210 255 313 354
#     4  10  24  40  60  94 118 162 214 259 300 369
#
# _framework density 20.298473000000001
#
# number of rings (size 3 to 8) (size 9 to 14) (size 15 to 20)
#    0.000    1.429    2.857    4.286    2.000    5.143 
#    0.000    0.714    0.000    0.000    0.000    0.000 
#    0.000    0.000    0.000    0.000    0.000    0.000 
#
# Total GULP energy -173512.983745 kJ/mol
# GULP energy per Si atom -12393.784553 kJ/mol
# Density = 2.025227 g / cm^3
# Si number density = 20.298473 Si / 1000 Ang^3
#
#
#
# Elastic Constant Matrix: (Units=GPa)
#
#
# Indices 1 2 3 4 5 6 
#
# 1 119.7284 37.8852 49.2777 3.8721 16.4235 -8.1252
# 2 37.8852 80.7874 37.8325 9.5846 14.0380 -2.4174
# 3 49.2777 37.8325 119.3090 -10.5868 7.0493 9.3196
# 4 3.8721 9.5846 -10.5868 25.8434 -4.8806 -3.1178
# 5 16.4235 14.0380 7.0493 -4.8806 33.0749 -8.7050
# 6 -8.1252 -2.4174 9.3196 -3.1178 -8.7050 23.0964
#
#
#
# Elastic Compliance Matrix: (Units=1/GPa)
#
#
# Indices 1 2 3 4 5 6 
#
# 1 0.011766 -0.002408 -0.004477 -0.002813 -0.003200 0.004108
# 2 -0.002408 0.018377 -0.005231 -0.010066 -0.007209 -0.000889
# 3 -0.004477 -0.005231 0.012935 0.007435 0.001238 -0.005871
# 4 -0.002813 -0.010066 0.007435 0.049145 0.013049 0.006509
# 5 -0.003200 -0.007209 0.001238 0.013049 0.040388 0.014604
# 6 0.004108 -0.000889 -0.005871 0.006509 0.014604 0.053401
#
#
# Mechanical properties :
#
#
# Convention : Reuss Voigt Hill
#
# Bulk Modulus (GPa) = 53.06337 63.31284 58.18811
# Shear Modulus (GPa) = 23.09198 29.39155 26.24176
#
# Velocity S-wave (km/s) = 3.37652 3.80935 3.59945
# Velocity P-wave (km/s) = 6.43425 7.11385 6.78256
#
# Compressibility (1/GPa) = 0.01884539
#
# Stress axis : x y z
#
# Youngs Moduli (GPa) = 84.99295 54.41532 77.31180
#
# Poissons Ratio (x) = 0.13104 0.34615
# Poissons Ratio (y) = 0.20468 0.40438
# Poissons Ratio (z) = 0.38054 0.28462
#
# Static dielectric constant tensor:
#      x y z
#    x 3.674770 -0.366770 -0.022330 
#    y -0.366770 3.596430 -0.030570 
#    z -0.022330 -0.030570 3.951410 
# 
# 
# High freq. dielectric constant tensor:
#      x y z
#    x 1.788510 -0.031110 0.000820 
#    y -0.031110 1.778410 -0.008810 
#    z 0.000820 -0.008810 1.808730 
# 
# From -- ./inp_files/202911.got.cif
#   From: 2010.06.25/outbox.cif.g09.slc.cpg/sg2_102_cif.got.tgz:202911.got - 2010.06.27 13:26:56.
