data_PCOD8006574
_publ_section_title
;
Structure prediction by ZEFSAII (Michael W. Deem and Ramdas Pophale) SiO2 
 PCOD8006574
Probable space group: P -1
;
_chemical_formula_sum "Si O2"
_cell_formula_units_Z 16
_cell_length_a 21.390904
_cell_length_b 9.293762
_cell_length_c 21.788041
_cell_angle_alpha 37.667692
_cell_angle_beta 160.495462
_cell_angle_gamma 131.625792
_cell_volume 809.459811
_symmetry_space_group_name_H-M "P -1"
_symmetry_group_IT_number 2
_symmetry_cell_setting 'triclinic'
loop_
_space_group_symop_operation_xyz
x,y,z
-x,-y,-z
loop_
_atom_site_type_symbol
_atom_site_label
_atom_site_fract_x
_atom_site_fract_y
_atom_site_fract_z
Si Si1 0.153303 0.413032 0.114985
Si Si2 0.955278 0.768489 0.509049
Si Si3 0.139089 0.935470 0.930814
Si Si4 0.733707 0.731666 0.979902
Si Si5 0.806193 0.046236 0.157888
Si Si6 0.300103 0.885593 0.481173
Si Si7 0.668051 0.625265 0.376635
Si Si8 0.019146 0.525743 0.819608
O O1 0.312249 0.120977 0.372809
O O2 0.253947 0.623467 0.134063
O O3 0.042662 0.412339 0.948090
O O4 0.000000 0.500000 0.000000
O O5 0.764106 0.741395 0.374007
O O6 0.155629 0.508482 0.791523
O O7 0.901268 0.811646 0.372579
O O8 0.000000 0.000000 0.500000
O O9 0.159613 0.065864 0.841664
O O10 0.246782 0.018359 0.057683
O O11 0.899003 0.017288 0.693097
O O12 0.835108 0.687423 0.021226
O O13 0.497841 0.776940 0.744194
O O14 0.923026 0.231321 0.213125
O O15 0.567494 0.196217 0.898269
O O16 0.298468 0.665764 0.508664
O O17 0.782676 0.616173 0.550303
#
# Coordination Sequence:
#
# PCOD8006574 Si02
#       8
#     2   2   2   2   2   2   2   2
#     4   9  22  40  63  88 126 164 198 252 312 355
#     4  11  20  40  65  90 123 160 204 253 302 361
#     4  10  23  43  58  91 130 157 198 263 305 350
#     4  11  22  39  63  89 124 159 210 247 298 364
#     4  11  22  39  64  92 124 160 204 251 309 358
#     4  11  21  42  63  88 124 164 204 251 302 362
#     4  11  21  38  67  91 119 162 207 252 297 361
#     4  10  20  40  61  90 123 158 205 252 291 362
#
# _framework density 19.766269000000001
#
# number of rings (size 3 to 8) (size 9 to 14) (size 15 to 20)
#    0.000    1.500    6.250    0.375    0.000    5.000 
#    0.000    0.625    0.000    0.000    0.000    0.000 
#    0.000    0.000    0.000    0.000    0.000    0.000 
#
# Total GULP energy -198365.856351 kJ/mol
# GULP energy per Si atom -12397.866022 kJ/mol
# Density = 1.972128 g / cm^3
# Si number density = 19.766269 Si / 1000 Ang^3
#
#
#
# Elastic Constant Matrix: (Units=GPa)
#
#
# Indices 1 2 3 4 5 6 
#
# 1 114.6000 34.2369 41.5867 -3.5156 -27.6115 -9.1350
# 2 34.2369 110.8385 44.4930 4.7960 -8.3277 -8.1437
# 3 41.5867 44.4930 114.7689 -2.3841 -5.2634 11.0969
# 4 -3.5156 4.7960 -2.3841 18.3884 8.2221 -3.6945
# 5 -27.6115 -8.3277 -5.2634 8.2221 23.2198 3.2237
# 6 -9.1350 -8.1437 11.0969 -3.6945 3.2237 26.0913
#
#
#
# Elastic Compliance Matrix: (Units=1/GPa)
#
#
# Indices 1 2 3 4 5 6 
#
# 1 0.015227 -0.000912 -0.004861 -0.004527 0.017685 0.004288
# 2 -0.000912 0.011919 -0.004664 -0.004382 0.003076 0.004384
# 3 -0.004861 -0.004664 0.012888 0.002301 -0.004266 -0.007786
# 4 -0.004527 -0.004382 0.002301 0.071957 -0.033355 0.010379
# 5 0.017685 0.003076 -0.004266 -0.033355 0.076772 -0.005242
# 6 0.004288 0.004384 -0.007786 0.010379 -0.005242 0.046625
#
#
# Mechanical properties :
#
#
# Convention : Reuss Voigt Hill
#
# Bulk Modulus (GPa) = 52.19660 64.53781 58.36720
# Shear Modulus (GPa) = 19.03685 28.19930 23.61808
#
# Velocity S-wave (km/s) = 3.10675 3.78118 3.46044
# Velocity P-wave (km/s) = 6.27164 7.19614 6.74974
#
# Compressibility (1/GPa) = 0.01915834
#
# Stress axis : x y z
#
# Youngs Moduli (GPa) = 65.67471 83.89991 77.59299
#
# Poissons Ratio (x) = 0.07653 0.37720
# Poissons Ratio (y) = 0.05991 0.36189
# Poissons Ratio (z) = 0.31926 0.39131
#
# Static dielectric constant tensor:
#      x y z
#    x 3.815020 0.049340 -0.220320 
#    y 0.049340 3.931760 -0.182200 
#    z -0.220320 -0.182200 3.805420 
# 
# 
# High freq. dielectric constant tensor:
#      x y z
#    x 1.767280 -0.003920 -0.010440 
#    y -0.003920 1.778180 0.002580 
#    z -0.010440 0.002580 1.763210 
# 
# From -- ./inp_files/207544.got.cif
#   From: 2010.06.25/outbox.cif.g09.slc.cpg/sg2_104_cif.got.tgz:207544.got - 2010.06.27 13:26:56.
