data_PCOD8006228
_publ_section_title
;
Structure prediction by ZEFSAII (Michael W. Deem and Ramdas Pophale) SiO2 
 PCOD8006228
Probable space group: P -1
;
_chemical_formula_sum "Si O2"
_cell_formula_units_Z 16
_cell_length_a 15.121553
_cell_length_b 11.579034
_cell_length_c 9.190174
_cell_angle_alpha 52.242889
_cell_angle_beta 117.389960
_cell_angle_gamma 74.680690
_cell_volume 710.180090
_symmetry_space_group_name_H-M "P -1"
_symmetry_group_IT_number 2
_symmetry_cell_setting 'triclinic'
loop_
_space_group_symop_operation_xyz
x,y,z
-x,-y,-z
loop_
_atom_site_type_symbol
_atom_site_label
_atom_site_fract_x
_atom_site_fract_y
_atom_site_fract_z
Si Si1 0.770738 0.674145 0.727526
Si Si2 0.886053 0.677498 0.091440
Si Si3 0.792031 0.804575 0.342206
Si Si4 0.574754 0.339603 0.454105
Si Si5 0.105803 0.996723 0.168548
Si Si6 0.696674 0.218846 0.956140
Si Si7 0.932805 0.184745 0.185769
Si Si8 0.420560 0.982720 0.247386
O O1 0.789707 0.696992 0.557393
O O2 0.582288 0.889284 0.454524
O O3 0.858181 0.689982 0.886432
O O4 0.860519 0.416966 0.014327
O O5 0.049555 0.409947 0.466812
O O6 0.905673 0.824986 0.041305
O O7 0.734623 0.771444 0.980169
O O8 0.632524 0.967626 0.000514
O O9 0.804624 0.958462 0.289072
O O10 0.609994 0.274156 0.701313
O O11 0.419042 0.618782 0.117910
O O12 0.710993 0.259512 0.520965
O O13 0.543546 0.207691 0.487957
O O14 0.066075 0.052182 0.265625
O O15 0.000000 0.000000 0.000000
O O16 0.788646 0.260090 0.948150
O O17 0.000000 0.000000 0.500000
#
# Coordination Sequence:
#
# PCOD8006228 Si02
#       8
#     2   2   2   2   2   2   2   2
#     4  12  24  45  66  98 139 179 218 271 339 403
#     4  11  24  43  67  97 140 174 217 278 339 391
#     4  11  23  40  69 101 134 174 224 276 325 394
#     4   9  19  39  66  93 127 170 217 277 315 380
#     4  11  23  43  68  96 129 172 227 277 329 386
#     4  10  20  39  66  94 130 170 219 264 328 382
#     4  12  25  42  68  96 133 176 226 268 333 404
#     4  10  22  42  67  98 132 176 226 270 329 395
#
# _framework density 22.529496999999999
#
# number of rings (size 3 to 8) (size 9 to 14) (size 15 to 20)
#    0.000    1.250    3.750    2.250    1.750    0.000 
#    4.500    1.875    0.000    0.000    0.000    0.000 
#    0.000    0.000    0.000    0.000    0.000    0.000 
#
# Total GULP energy -198265.797491 kJ/mol
# GULP energy per Si atom -12391.612343 kJ/mol
# Density = 2.247822 g / cm^3
# Si number density = 22.529497 Si / 1000 Ang^3
#
#
#
# Elastic Constant Matrix: (Units=GPa)
#
#
# Indices 1 2 3 4 5 6 
#
# 1 95.6330 26.5496 29.1031 -23.3690 16.2542 -6.2269
# 2 26.5496 71.2521 28.1037 -23.7774 6.1532 3.9085
# 3 29.1031 28.1037 81.9134 -27.2320 4.1779 -1.2447
# 4 -23.3690 -23.7774 -27.2320 42.9629 -7.0395 8.3864
# 5 16.2542 6.1532 4.1779 -7.0395 35.8500 -7.3899
# 6 -6.2269 3.9085 -1.2447 8.3864 -7.3899 44.7174
#
#
#
# Elastic Compliance Matrix: (Units=1/GPa)
#
#
# Indices 1 2 3 4 5 6 
#
# 1 0.013622 -0.002531 -0.002561 0.003506 -0.004626 0.000625
# 2 -0.002531 0.019082 -0.003056 0.007811 -0.001008 -0.003737
# 3 -0.002561 -0.003056 0.016712 0.007867 0.001093 -0.000919
# 4 0.003506 0.007811 0.007867 0.036059 0.001910 -0.006423
# 5 -0.004626 -0.001008 0.001093 0.001910 0.031296 0.004288
# 6 0.000625 -0.003737 -0.000919 -0.006423 0.004288 0.024664
#
#
# Mechanical properties :
#
#
# Convention : Reuss Voigt Hill
#
# Bulk Modulus (GPa) = 30.19219 46.25682 38.22450
# Shear Modulus (GPa) = 29.62610 35.70887 32.66749
#
# Velocity S-wave (km/s) = 3.63022 3.98550 3.81200
# Velocity P-wave (km/s) = 5.56790 6.46183 6.03145
#
# Compressibility (1/GPa) = 0.03312114
#
# Stress axis : x y z
#
# Youngs Moduli (GPa) = 73.40995 52.40607 59.83713
#
# Poissons Ratio (x) = 0.13262 0.15322
# Poissons Ratio (y) = 0.18577 0.18287
# Poissons Ratio (z) = 0.18797 0.16016
#
# Static dielectric constant tensor:
#      x y z
#    x 4.244580 0.102170 0.300940 
#    y 0.102170 4.274190 -0.359470 
#    z 0.300940 -0.359470 4.041580 
# 
# 
# High freq. dielectric constant tensor:
#      x y z
#    x 1.884130 -0.004310 0.018410 
#    y -0.004310 1.893360 -0.017690 
#    z 0.018410 -0.017690 1.875570 
# 
# From -- ./inp_files/279414.got.cif
#   From: 2010.06.25/outbox.cif.g09.slc.cpg/sg2_140_cif.got.tgz:279414.got - 2010.06.27 13:26:56.
