data_PCOD8006413
_publ_section_title
;
Structure prediction by ZEFSAII (Michael W. Deem and Ramdas Pophale) SiO2 
 PCOD8006413
Probable space group: P -1
;
_chemical_formula_sum "Si O2"
_cell_formula_units_Z 16
_cell_length_a 9.540947
_cell_length_b 15.888919
_cell_length_c 15.502000
_cell_angle_alpha 38.476647
_cell_angle_beta 144.409589
_cell_angle_gamma 144.210000
_cell_volume 745.585127
_symmetry_space_group_name_H-M "P -1"
_symmetry_group_IT_number 2
_symmetry_cell_setting 'triclinic'
loop_
_space_group_symop_operation_xyz
x,y,z
-x,-y,-z
loop_
_atom_site_type_symbol
_atom_site_label
_atom_site_fract_x
_atom_site_fract_y
_atom_site_fract_z
Si Si1 0.789880 0.033291 0.317390
Si Si2 0.826573 0.347983 0.090712
Si Si3 0.833117 0.745824 0.960002
Si Si4 0.762959 0.980796 0.158437
Si Si5 0.271883 0.269171 0.790922
Si Si6 0.213136 0.583935 0.797202
Si Si7 0.137058 0.505700 0.472972
Si Si8 0.204793 0.822768 0.243492
O O1 0.896657 0.213740 0.205262
O O2 0.761743 0.940367 0.290121
O O3 0.500510 0.975279 0.270166
O O4 0.000000 0.000000 0.500000
O O5 0.908771 0.379268 0.207678
O O6 0.504550 0.297427 0.954824
O O7 0.000000 0.500000 0.000000
O O8 0.526905 0.717571 0.840973
O O9 0.963824 0.859092 0.853760
O O10 0.819778 0.583313 0.067477
O O11 0.022116 0.833243 0.066359
O O12 0.738106 0.841076 0.201287
O O13 0.500000 0.000000 0.000000
O O14 0.339266 0.433149 0.648275
O O15 0.968976 0.196150 0.741557
O O16 0.070083 0.590568 0.631207
O O17 0.281947 0.685491 0.375617
O O18 0.000000 0.500000 0.500000
#
# Coordination Sequence:
#
# PCOD8006413 Si02
#       8
#     2   2   2   2   2   2   2   2
#     4  12  29  46  66  99 143 180 224 286 349 401
#     4  12  26  43  68  99 140 177 232 278 344 406
#     4  10  20  39  69  93 132 167 224 278 330 400
#     4  12  24  43  64  94 133 178 224 275 340 403
#     4  11  24  42  71  99 131 182 233 278 338 413
#     4  10  22  39  67 101 126 174 227 278 334 399
#     4   9  22  41  66 100 135 172 222 284 343 396
#     4  10  21  45  70  97 134 181 227 282 338 407
#
# _framework density 21.459655000000001
#
# number of rings (size 3 to 8) (size 9 to 14) (size 15 to 20)
#    0.000    1.250    3.750    0.750    7.000    3.000 
#    0.000    2.500    0.000    0.000    0.000    0.000 
#    0.000    0.000    0.000    0.000    0.000    0.000 
#
# Total GULP energy -198344.020992 kJ/mol
# GULP energy per Si atom -12396.501312 kJ/mol
# Density = 2.141081 g / cm^3
# Si number density = 21.459655 Si / 1000 Ang^3
#
#
#
# Elastic Constant Matrix: (Units=GPa)
#
#
# Indices 1 2 3 4 5 6 
#
# 1 121.1739 45.8752 38.4228 4.5734 -6.9999 -16.2490
# 2 45.8752 84.3868 37.9734 1.5790 1.9482 -1.3031
# 3 38.4228 37.9734 130.3192 3.3629 -3.1726 -13.9032
# 4 4.5734 1.5790 3.3629 34.7794 -10.1949 -7.4311
# 5 -6.9999 1.9482 -3.1726 -10.1949 32.7814 2.2142
# 6 -16.2490 -1.3031 -13.9032 -7.4311 2.2142 40.6035
#
#
#
# Elastic Compliance Matrix: (Units=1/GPa)
#
#
# Indices 1 2 3 4 5 6 
#
# 1 0.011451 -0.005666 -0.001257 0.000453 0.002537 0.003915
# 2 -0.005666 0.016544 -0.003506 -0.001088 -0.002669 -0.002991
# 3 -0.001257 -0.003506 0.009354 0.000185 0.000728 0.002581
# 4 0.000453 -0.001088 0.000185 0.032875 0.010020 0.005680
# 5 0.002537 -0.002669 0.000728 0.010020 0.034315 0.001141
# 6 0.003915 -0.002991 0.002581 0.005680 0.001141 0.027960
#
#
# Mechanical properties :
#
#
# Convention : Reuss Voigt Hill
#
# Bulk Modulus (GPa) = 60.64251 64.49140 62.56696
# Shear Modulus (GPa) = 31.47540 35.87344 33.67442
#
# Velocity S-wave (km/s) = 3.83394 4.09304 3.96561
# Velocity P-wave (km/s) = 6.92235 7.24258 7.08428
#
# Compressibility (1/GPa) = 0.01649008
#
# Stress axis : x y z
#
# Youngs Moduli (GPa) = 87.33127 60.44582 106.90371
#
# Poissons Ratio (x) = 0.34246 0.13443
# Poissons Ratio (y) = 0.49479 0.37482
# Poissons Ratio (z) = 0.10982 0.21193
#
# Static dielectric constant tensor:
#      x y z
#    x 3.749880 0.070520 -0.087750 
#    y 0.070520 3.866130 -0.076460 
#    z -0.087750 -0.076460 3.950480 
# 
# 
# High freq. dielectric constant tensor:
#      x y z
#    x 1.842330 -0.005660 -0.009180 
#    y -0.005660 1.840620 -0.006810 
#    z -0.009180 -0.006810 1.840550 
# 
# From -- ./inp_files/279977.got.cif
#   From: 2010.06.25/outbox.cif.g09.slc.cpg/sg2_140_cif.got.tgz:279977.got - 2010.06.27 13:26:56.
