data_PCOD8006902
_publ_section_title
;
Structure prediction by ZEFSAII (Michael W. Deem and Ramdas Pophale) SiO2 
 PCOD8006902
Probable space group: P -1
;
_chemical_formula_sum "Si O2"
_cell_formula_units_Z 16
_cell_length_a 14.564715
_cell_length_b 12.423028
_cell_length_c 8.174836
_cell_angle_alpha 75.986577
_cell_angle_beta 39.620652
_cell_angle_gamma 55.966644
_cell_volume 730.004638
_symmetry_space_group_name_H-M "P -1"
_symmetry_group_IT_number 2
_symmetry_cell_setting 'triclinic'
loop_
_space_group_symop_operation_xyz
x,y,z
-x,-y,-z
loop_
_atom_site_type_symbol
_atom_site_label
_atom_site_fract_x
_atom_site_fract_y
_atom_site_fract_z
Si Si1 0.365537 0.323135 0.949596
Si Si2 0.139859 0.776138 0.494848
Si Si3 0.786291 0.681079 0.353213
Si Si4 0.507481 0.527984 0.168772
Si Si5 0.510877 0.897427 0.890823
Si Si6 0.793460 0.062690 0.907643
Si Si7 0.960039 0.630059 0.793328
Si Si8 0.472196 0.706232 0.602657
O O1 0.327220 0.462960 0.026395
O O2 0.491567 0.287380 0.636004
O O3 0.484873 0.214649 0.967236
O O4 0.198255 0.322139 0.136622
O O5 0.309978 0.676441 0.418913
O O6 0.191107 0.827330 0.249504
O O7 0.068759 0.687869 0.564846
O O8 0.982045 0.918101 0.749863
O O9 0.690647 0.816800 0.555050
O O10 0.634735 0.667334 0.508740
O O11 0.927186 0.536824 0.307245
O O12 0.882958 0.692300 0.059263
O O13 0.549288 0.412642 0.282854
O O14 0.500000 0.500000 0.000000
O O15 0.327540 0.973707 0.008295
O O16 0.500000 0.000000 0.000000
O O17 0.702367 0.138556 0.174920
#
# Coordination Sequence:
#
# PCOD8006902 Si02
#       8
#     2   2   2   2   2   2   2   2
#     4  11  24  38  62  95 122 155 206 260 293 368
#     4  11  21  38  68  87 120 160 206 245 307 363
#     4   9  20  39  63  87 122 162 203 252 302 368
#     4  12  21  41  65  89 120 168 201 245 310 364
#     4  11  22  40  60  88 126 166 206 249 306 364
#     4  10  22  40  63  89 119 165 205 247 301 373
#     4  10  21  39  62  93 121 155 204 257 308 349
#     4  10  20  40  65  91 121 158 208 249 307 360
#
# _framework density 21.917669
#
# number of rings (size 3 to 8) (size 9 to 14) (size 15 to 20)
#    0.000    1.500    3.750    1.875    0.000    1.500 
#    2.250    4.375    0.000    0.000    0.000    0.000 
#    0.000    0.000    0.000    0.000    0.000    0.000 
#
# Total GULP energy -198241.832389 kJ/mol
# GULP energy per Si atom -12390.114524 kJ/mol
# Density = 2.186778 g / cm^3
# Si number density = 21.917669 Si / 1000 Ang^3
#
#
#
# Elastic Constant Matrix: (Units=GPa)
#
#
# Indices 1 2 3 4 5 6 
#
# 1 67.0131 11.5518 25.0705 6.0368 3.9375 18.3687
# 2 11.5518 46.0760 19.3734 11.7429 -7.8924 12.4548
# 3 25.0705 19.3734 71.9389 15.0130 8.1815 8.6683
# 4 6.0368 11.7429 15.0130 34.5699 7.3421 -8.5793
# 5 3.9375 -7.8924 8.1815 7.3421 28.7403 -1.0461
# 6 18.3687 12.4548 8.6683 -8.5793 -1.0461 40.4791
#
#
#
# Elastic Compliance Matrix: (Units=1/GPa)
#
#
# Indices 1 2 3 4 5 6 
#
# 1 0.019441 0.000300 -0.005072 -0.003284 -0.000609 -0.008540
# 2 0.000300 0.033726 -0.006298 -0.014783 0.014356 -0.011926
# 3 -0.005072 -0.006298 0.018976 -0.004292 -0.005372 -0.000873
# 4 -0.003284 -0.014783 -0.004292 0.043012 -0.012803 0.015743
# 5 -0.000609 0.014356 -0.005372 -0.012803 0.043453 -0.004581
# 6 -0.008540 -0.011926 -0.000873 0.015743 -0.004581 0.035654
#
#
# Mechanical properties :
#
#
# Convention : Reuss Voigt Hill
#
# Bulk Modulus (GPa) = 19.99895 33.00217 26.50056
# Shear Modulus (GPa) = 21.45281 29.36000 25.40641
#
# Velocity S-wave (km/s) = 3.13196 3.66397 3.40836
# Velocity P-wave (km/s) = 4.71416 5.74366 5.25418
#
# Compressibility (1/GPa) = 0.05000262
#
# Stress axis : x y z
#
# Youngs Moduli (GPa) = 51.43832 29.65035 52.69819
#
# Poissons Ratio (x) = -0.00888 0.26729
# Poissons Ratio (y) = -0.01541 0.33187
# Poissons Ratio (z) = 0.26090 0.18673
#
# Static dielectric constant tensor:
#      x y z
#    x 3.863220 0.120860 0.070450 
#    y 0.120860 4.066610 0.282920 
#    z 0.070450 0.282920 4.590200 
# 
# 
# High freq. dielectric constant tensor:
#      x y z
#    x 1.844260 0.005520 -0.003300 
#    y 0.005520 1.863840 0.001890 
#    z -0.003300 0.001890 1.866950 
# 
# From -- ./inp_files/305054.got.cif
#   From: 2010.06.25/outbox.cif.g09.slc.cpg/sg2_153_cif.got.tgz:305054.got - 2010.06.27 13:26:56.
