data_PCOD8006630
_publ_section_title
;
Structure prediction by ZEFSAII (Michael W. Deem and Ramdas Pophale) SiO2 
 PCOD8006630
Probable space group: P -1
;
_chemical_formula_sum "Si O2"
_cell_formula_units_Z 14
_cell_length_a 11.138013
_cell_length_b 17.657641
_cell_length_c 9.636052
_cell_angle_alpha 139.878409
_cell_angle_beta 50.441102
_cell_angle_gamma 152.120976
_cell_volume 566.244964
_symmetry_space_group_name_H-M "P -1"
_symmetry_group_IT_number 2
_symmetry_cell_setting 'triclinic'
loop_
_space_group_symop_operation_xyz
x,y,z
-x,-y,-z
loop_
_atom_site_type_symbol
_atom_site_label
_atom_site_fract_x
_atom_site_fract_y
_atom_site_fract_z
Si Si1 0.933420 0.104849 0.764916
Si Si2 0.479204 0.132444 0.497343
Si Si3 0.506471 0.613896 0.250863
Si Si4 0.760488 0.218072 0.169228
Si Si5 0.857659 0.091379 0.315319
Si Si6 0.228634 0.514493 0.580246
Si Si7 0.730083 0.854099 0.822843
O O1 0.192574 0.193496 0.653626
O O2 0.770641 0.034397 0.649809
O O3 0.768854 0.926844 0.741985
O O4 0.992054 0.266480 0.028561
O O5 0.571015 0.322342 0.696667
O O6 0.719665 0.206247 0.351288
O O7 0.395615 0.046469 0.592852
O O8 0.332214 0.498218 0.352970
O O9 0.500000 0.500000 0.000000
O O10 0.820530 0.380454 0.282801
O O11 0.500000 0.000000 0.000000
O O12 0.967490 0.290414 0.504344
O O13 0.074960 0.135196 0.277938
O O14 0.760455 0.978281 0.083890
O O15 0.430903 0.630638 0.723810
#
# Coordination Sequence:
#
# PCOD8006630 Si02
#       7
#     2   2   2   2   2   2   2
#     4  11  19  40  69  87 118 171 208 252 311 367
#     4  10  20  40  62  90 122 162 208 257 304 365
#     4  11  21  35  64  96 120 155 216 258 297 371
#     4   9  19  39  71  87 118 169 216 249 306 373
#     4  11  24  37  60  98 129 161 203 264 316 368
#     4  11  22  41  64  93 126 168 206 257 314 378
#     4  11  21  38  63  88 131 164 203 254 324 361
#
# _framework density 24.724284000000001
#
# number of rings (size 3 to 8) (size 9 to 14) (size 15 to 20)
#    0.000    1.429    5.714    2.571    2.000    0.000 
#    0.000   10.000    3.143    0.000    0.000    0.000 
#    0.000    0.000    0.000    0.000    0.000    0.000 
#
# Total GULP energy -173517.213315 kJ/mol
# GULP energy per Si atom -12394.086665 kJ/mol
# Density = 2.466801 g / cm^3
# Si number density = 24.724284 Si / 1000 Ang^3
#
#
#
# Elastic Constant Matrix: (Units=GPa)
#
#
# Indices 1 2 3 4 5 6 
#
# 1 51.2699 5.3921 18.3459 -3.2378 -10.0919 -4.4318
# 2 5.3921 84.1122 31.3973 -7.7641 -4.3901 -28.1226
# 3 18.3459 31.3973 129.6393 2.2597 -16.2494 -15.8704
# 4 -3.2378 -7.7641 2.2597 44.6916 3.1168 -8.0133
# 5 -10.0919 -4.3901 -16.2494 3.1168 41.8703 2.9886
# 6 -4.4318 -28.1226 -15.8704 -8.0133 2.9886 18.5657
#
#
#
# Elastic Compliance Matrix: (Units=1/GPa)
#
#
# Indices 1 2 3 4 5 6 
#
# 1 0.021708 0.002694 -0.002314 0.003350 0.003788 0.008121
# 2 0.002694 0.032109 -0.001964 0.015812 -0.001829 0.054721
# 3 -0.002314 -0.001964 0.009320 -0.000479 0.002617 0.003812
# 4 0.003350 0.015812 -0.000479 0.032562 -0.002919 0.038865
# 5 0.003788 -0.001829 0.002617 -0.002919 0.026202 -0.005107
# 6 0.008121 0.054721 0.003812 0.038865 -0.005107 0.159546
#
#
# Mechanical properties :
#
#
# Convention : Reuss Voigt Hill
#
# Bulk Modulus (GPa) = 16.67486 41.69910 29.18698
# Shear Modulus (GPa) = 16.41481 35.01794 25.71638
#
# Velocity S-wave (km/s) = 2.57945 3.76751 3.22860
# Velocity P-wave (km/s) = 3.95353 5.98563 5.07238
#
# Compressibility (1/GPa) = 0.05997052
#
# Stress axis : x y z
#
# Youngs Moduli (GPa) = 46.06508 31.14397 107.29895
#
# Poissons Ratio (x) = -0.08392 0.24829
# Poissons Ratio (y) = -0.12412 0.21070
# Poissons Ratio (z) = 0.10660 0.06116
#
# Static dielectric constant tensor:
#      x y z
#    x 4.739820 0.589450 -0.421970 
#    y 0.589450 5.137230 -0.328050 
#    z -0.421970 -0.328050 5.103220 
# 
# 
# High freq. dielectric constant tensor:
#      x y z
#    x 1.978300 0.013220 -0.009500 
#    y 0.013220 1.970920 0.007110 
#    z -0.009500 0.007110 2.010410 
# 
# From -- ./inp_files/186035.got.cif
#   From: 2010.06.25/outbox.cif.g09.slc.cpg/sg2_94_cif.got.tgz:186035.got - 2010.06.27 13:26:56.
