data_PCOD8006870
_publ_section_title
;
Structure prediction by ZEFSAII (Michael W. Deem and Ramdas Pophale) SiO2 
 PCOD8006870
Probable space group: P -1
;
_chemical_formula_sum "Si O2"
_cell_formula_units_Z 14
_cell_length_a 23.450121
_cell_length_b 8.102963
_cell_length_c 23.146667
_cell_angle_alpha 47.915062
_cell_angle_beta 12.552459
_cell_angle_gamma 48.927295
_cell_volume 709.301871
_symmetry_space_group_name_H-M "P -1"
_symmetry_group_IT_number 2
_symmetry_cell_setting 'triclinic'
loop_
_space_group_symop_operation_xyz
x,y,z
-x,-y,-z
loop_
_atom_site_type_symbol
_atom_site_label
_atom_site_fract_x
_atom_site_fract_y
_atom_site_fract_z
Si Si1 0.502025 0.911723 0.083295
Si Si2 0.470292 0.600874 0.838547
Si Si3 0.245557 0.376262 0.757731
Si Si4 0.355865 0.863163 0.776423
Si Si5 0.869035 0.790853 0.209157
Si Si6 0.019441 0.425854 0.591464
Si Si7 0.998781 0.157683 0.558853
O O1 0.506153 0.649492 0.147752
O O2 0.253802 0.003465 0.341659
O O3 0.500000 0.000000 0.000000
O O4 0.755540 0.999519 0.844137
O O5 0.451490 0.764324 0.765148
O O6 0.727307 0.663455 0.604832
O O7 0.228084 0.638373 0.111379
O O8 0.500000 0.500000 0.500000
O O9 0.206021 0.389455 0.723642
O O10 0.264510 0.117748 0.817943
O O11 0.000000 0.500000 0.000000
O O12 0.600215 0.856972 0.492020
O O13 0.106226 0.716032 0.035636
O O14 0.000000 0.000000 0.000000
O O15 0.025436 0.692651 0.511028
O O16 0.008071 0.313453 0.567712
#
# Coordination Sequence:
#
# PCOD8006870 Si02
#       7
#     2   2   2   2   2   2   2
#     4  12  21  38  60  88 113 155 209 253 287 347
#     4  12  24  39  61  87 123 159 198 251 306 348
#     4  11  21  38  65  94 114 151 198 240 281 349
#     4  11  23  41  60  91 124 160 194 241 304 358
#     4  10  20  40  65  87 121 158 197 234 285 365
#     4  11  22  39  59  85 117 161 197 251 308 355
#     4  11  22  38  60  85 114 153 213 256 293 350
#
# _framework density 19.737717
#
# number of rings (size 3 to 8) (size 9 to 14) (size 15 to 20)
#    0.000    0.857    2.857    7.286    0.000    2.286 
#    0.000    8.571    0.000    0.000    0.000    0.000 
#    0.000    0.000    0.000    0.000    0.000    0.000 
#
# Total GULP energy -173586.398917 kJ/mol
# GULP energy per Si atom -12399.028494 kJ/mol
# Density = 1.969279 g / cm^3
# Si number density = 19.737717 Si / 1000 Ang^3
#
#
#
# Elastic Constant Matrix: (Units=GPa)
#
#
# Indices 1 2 3 4 5 6 
#
# 1 116.6584 54.0197 60.1295 5.5222 -13.1804 -2.9384
# 2 54.0197 94.8327 50.6012 12.5189 3.0755 0.4733
# 3 60.1295 50.6012 179.0887 27.6955 -8.5764 11.9483
# 4 5.5222 12.5189 27.6955 26.3502 11.6662 -1.2306
# 5 -13.1804 3.0755 -8.5764 11.6662 51.3072 1.3727
# 6 -2.9384 0.4733 11.9483 -1.2306 1.3727 33.1775
#
#
#
# Elastic Compliance Matrix: (Units=1/GPa)
#
#
# Indices 1 2 3 4 5 6 
#
# 1 0.013368 -0.006385 -0.003082 0.002388 0.002695 0.002362
# 2 -0.006385 0.015681 -0.001892 -0.003168 -0.002173 -0.000135
# 3 -0.003082 -0.001892 0.009039 -0.009516 0.003103 -0.003983
# 4 0.002388 -0.003168 -0.009516 0.055233 -0.013514 0.006291
# 5 0.002695 -0.002173 0.003103 -0.013514 0.023967 -0.002341
# 6 0.002362 -0.000135 -0.003983 0.006291 -0.002341 0.032117
#
#
# Mechanical properties :
#
#
# Convention : Reuss Voigt Hill
#
# Bulk Modulus (GPa) = 65.06205 80.00895 72.53550
# Shear Modulus (GPa) = 28.20924 37.22226 32.71575
#
# Velocity S-wave (km/s) = 3.78458 4.34734 4.07569
# Velocity P-wave (km/s) = 7.22027 8.11315 7.67970
#
# Compressibility (1/GPa) = 0.01536994
#
# Stress axis : x y z
#
# Youngs Moduli (GPa) = 74.80392 63.77257 110.63012
#
# Poissons Ratio (x) = 0.40718 0.34100
# Poissons Ratio (y) = 0.47761 0.20931
# Poissons Ratio (z) = 0.23057 0.12066
#
# Static dielectric constant tensor:
#      x y z
#    x 3.890130 0.080400 -0.377680 
#    y 0.080400 3.586620 0.097950 
#    z -0.377680 0.097950 3.915650 
# 
# 
# High freq. dielectric constant tensor:
#      x y z
#    x 1.773850 0.014060 -0.011870 
#    y 0.014060 1.751850 0.010160 
#    z -0.011870 0.010160 1.795340 
# 
# From -- ./inp_files/125335.got.cif
#   From: 2010.06.25/outbox.cif.g09.slc.cpg/sg2_63_cif.got.tgz:125335.got - 2010.06.27 13:26:56.
