data_PCOD8006629
_publ_section_title
;
Structure prediction by ZEFSAII (Michael W. Deem and Ramdas Pophale) SiO2 
 PCOD8006629
Probable space group: P -1
;
_chemical_formula_sum "Si O2"
_cell_formula_units_Z 16
_cell_length_a 9.042937
_cell_length_b 18.613102
_cell_length_c 19.427071
_cell_angle_alpha 153.580682
_cell_angle_beta 36.984153
_cell_angle_gamma 148.709967
_cell_volume 747.651744
_symmetry_space_group_name_H-M "P -1"
_symmetry_group_IT_number 2
_symmetry_cell_setting 'triclinic'
loop_
_space_group_symop_operation_xyz
x,y,z
-x,-y,-z
loop_
_atom_site_type_symbol
_atom_site_label
_atom_site_fract_x
_atom_site_fract_y
_atom_site_fract_z
Si Si1 0.027875 0.674537 0.225297
Si Si2 0.892073 0.116078 0.878281
Si Si3 0.641714 0.001536 0.254472
Si Si4 0.344573 0.405065 0.570044
Si Si5 0.115504 0.249438 0.383888
Si Si6 0.615764 0.144974 0.238475
Si Si7 0.871310 0.719769 0.931306
Si Si8 0.755115 0.605591 0.125337
O O1 0.844041 0.633094 0.326024
O O2 0.842717 0.677485 0.232514
O O3 0.319769 0.877554 0.297351
O O4 0.096047 0.510224 0.051133
O O5 0.129682 0.217747 0.817324
O O6 0.902037 0.940824 0.752273
O O7 0.576093 0.039334 0.897248
O O8 0.964929 0.257219 0.037026
O O9 0.639919 0.074359 0.242563
O O10 0.822754 0.183542 0.393347
O O11 0.791036 0.878834 0.087823
O O12 0.146489 0.367280 0.543018
O O13 0.608713 0.621693 0.656881
O O14 0.467002 0.266601 0.404598
O O15 0.929702 0.270888 0.197061
O O16 0.587255 0.513829 0.857356
#
# Coordination Sequence:
#
# PCOD8006629 Si02
#       8
#     2   2   2   2   2   2   2   2
#     4  10  22  40  62  89 122 157 191 251 297 347
#     4  10  20  40  62  90 120 155 200 245 293 352
#     4  10  21  40  61  89 121 154 202 244 295 344
#     4  10  23  42  61  85 123 159 197 240 300 354
#     4   9  22  42  60  88 120 158 199 243 294 355
#     4  11  22  38  61  91 121 158 198 241 295 359
#     4  10  22  37  61  92 122 154 194 250 296 343
#     4  10  21  39  63  91 118 153 203 242 299 346
#
# _framework density 21.400338000000001
#
# number of rings (size 3 to 8) (size 9 to 14) (size 15 to 20)
#    0.000    2.000    1.250    1.125    1.750    6.500 
#    0.000    0.000    0.000    0.000    0.000    0.000 
#    0.000    0.000    0.000    0.000    0.000    0.000 
#
# Total GULP energy -198391.000829 kJ/mol
# GULP energy per Si atom -12399.437552 kJ/mol
# Density = 2.135163 g / cm^3
# Si number density = 21.400338 Si / 1000 Ang^3
#
#
#
# Elastic Constant Matrix: (Units=GPa)
#
#
# Indices 1 2 3 4 5 6 
#
# 1 142.0647 83.6438 36.8764 5.1431 31.2076 -0.2315
# 2 83.6438 205.2814 56.2316 -11.5090 24.9259 -1.1840
# 3 36.8764 56.2316 47.1830 -13.2127 22.9315 8.7224
# 4 5.1431 -11.5090 -13.2127 39.4929 -3.3521 11.7205
# 5 31.2076 24.9259 22.9315 -3.3521 33.6080 6.1872
# 6 -0.2315 -1.1840 8.7224 11.7205 6.1872 39.8918
#
#
#
# Elastic Compliance Matrix: (Units=1/GPa)
#
#
# Indices 1 2 3 4 5 6 
#
# 1 0.011656 -0.002990 -0.004480 -0.005542 -0.006772 0.003637
# 2 -0.002990 0.008336 -0.009455 -0.000754 0.002579 0.002119
# 3 -0.004480 -0.009455 0.054061 0.018327 -0.021269 -0.014213
# 4 -0.005542 -0.000754 0.018327 0.036258 -0.000488 -0.014639
# 5 -0.006772 0.002579 -0.021269 -0.000488 0.049107 -0.002785
# 6 0.003637 0.002119 -0.014213 -0.014639 -0.002785 0.032993
#
#
# Mechanical properties :
#
#
# Convention : Reuss Voigt Hill
#
# Bulk Modulus (GPa) = 24.87350 83.11475 53.99413
# Shear Modulus (GPa) = 20.86276 37.11703 28.98990
#
# Velocity S-wave (km/s) = 3.12569 4.16915 3.68455
# Velocity P-wave (km/s) = 4.96737 7.88023 6.58684
#
# Compressibility (1/GPa) = 0.04020343
#
# Stress axis : x y z
#
# Youngs Moduli (GPa) = 85.78910 119.95870 18.49772
#
# Poissons Ratio (x) = 0.35865 0.08288
# Poissons Ratio (y) = 0.25649 0.17489
# Poissons Ratio (z) = 0.38437 1.13419
#
# Static dielectric constant tensor:
#      x y z
#    x 4.451900 0.240580 0.500500 
#    y 0.240580 4.140420 0.369040 
#    z 0.500500 0.369040 3.723200 
# 
# 
# High freq. dielectric constant tensor:
#      x y z
#    x 1.854280 -0.003690 0.019260 
#    y -0.003690 1.857480 0.013110 
#    z 0.019260 0.013110 1.809010 
# 
# From -- ./inp_files/188550.got.cif
#   From: 2010.06.25/outbox.cif.g09.slc.cpg/sg2_95_cif.got.tgz:188550.got - 2010.06.27 13:26:56.
