data_PCOD8006464
_publ_section_title
;
Structure prediction by ZEFSAII (Michael W. Deem and Ramdas Pophale) SiO2 
 PCOD8006464
Probable space group: P -1
;
_chemical_formula_sum "Si O2"
_cell_formula_units_Z 16
_cell_length_a 15.401086
_cell_length_b 12.348422
_cell_length_c 15.424087
_cell_angle_alpha 60.678510
_cell_angle_beta 149.781207
_cell_angle_gamma 141.798960
_cell_volume 724.640171
_symmetry_space_group_name_H-M "P -1"
_symmetry_group_IT_number 2
_symmetry_cell_setting 'triclinic'
loop_
_space_group_symop_operation_xyz
x,y,z
-x,-y,-z
loop_
_atom_site_type_symbol
_atom_site_label
_atom_site_fract_x
_atom_site_fract_y
_atom_site_fract_z
Si Si1 0.634966 0.205289 0.071412
Si Si2 0.811281 0.511521 0.836239
Si Si3 0.718247 0.840480 0.612083
Si Si4 0.518168 0.152840 0.344644
Si Si5 0.254347 0.984408 0.997322
Si Si6 0.316349 0.519613 0.547450
Si Si7 0.898600 0.186491 0.733010
Si Si8 0.579299 0.432294 0.852722
O O1 0.998776 0.400226 0.301062
O O2 0.504566 0.245912 0.888290
O O3 0.500000 0.000000 0.000000
O O4 0.521057 0.153143 0.091158
O O5 0.480391 0.286023 0.597224
O O6 0.774733 0.539807 0.891069
O O7 0.011209 0.729514 0.868777
O O8 0.000000 0.500000 0.000000
O O9 0.535785 0.654176 0.600188
O O10 0.055114 0.989998 0.825111
O O11 0.789858 0.021603 0.633680
O O12 0.517546 0.300410 0.304386
O O13 0.846101 0.288472 0.601166
O O14 0.281712 0.937557 0.284536
O O15 0.438331 0.074756 0.208676
O O16 0.294504 0.359925 0.618853
O O17 0.247465 0.397564 0.984121
#
# Coordination Sequence:
#
# PCOD8006464 Si02
#       8
#     2   2   2   2   2   2   2   2
#     4  12  29  48  65  98 148 184 223 285 354 410
#     4  12  24  41  71 103 134 177 238 285 338 402
#     4  11  23  41  72 106 135 176 234 291 331 408
#     4  10  20  39  72 103 136 177 228 287 342 401
#     4  12  24  44  67 102 139 177 230 290 341 398
#     4  11  23  45  74  97 140 183 229 278 351 408
#     4  10  20  40  70 107 135 174 232 285 341 405
#     4  12  24  46  72 100 135 189 232 276 345 417
#
# _framework density 22.079923999999998
#
# number of rings (size 3 to 8) (size 9 to 14) (size 15 to 20)
#    0.000    0.750    3.750    4.125    3.500    3.000 
#    4.500    1.250    0.000    0.000    0.000    0.000 
#    0.000    0.000    0.000    0.000    0.000    0.000 
#
# Total GULP energy -198279.361128 kJ/mol
# GULP energy per Si atom -12392.460071 kJ/mol
# Density = 2.202967 g / cm^3
# Si number density = 22.079924 Si / 1000 Ang^3
#
#
#
# Elastic Constant Matrix: (Units=GPa)
#
#
# Indices 1 2 3 4 5 6 
#
# 1 92.5912 27.6954 42.2942 -9.7006 1.2089 -6.4642
# 2 27.6954 105.1889 28.4832 -27.2339 0.8321 -19.5511
# 3 42.2942 28.4832 89.9805 -18.8897 -0.4630 -9.8905
# 4 -9.7006 -27.2339 -18.8897 40.0812 -10.8344 4.0548
# 5 1.2089 0.8321 -0.4630 -10.8344 35.5714 5.1983
# 6 -6.4642 -19.5511 -9.8905 4.0548 5.1983 27.5185
#
#
#
# Elastic Compliance Matrix: (Units=1/GPa)
#
#
# Indices 1 2 3 4 5 6 
#
# 1 0.014232 -0.002459 -0.006235 -0.001377 -0.000886 -0.000275
# 2 -0.002459 0.013816 -0.000700 0.007982 0.001071 0.007608
# 3 -0.006235 -0.000700 0.015741 0.005662 0.001789 0.002523
# 4 -0.001377 0.007982 0.005662 0.035608 0.010764 0.000103
# 5 -0.000886 0.001071 0.001789 0.010764 0.032370 -0.006505
# 6 -0.000275 0.007608 0.002523 0.000103 -0.006505 0.043801
#
#
# Mechanical properties :
#
#
# Convention : Reuss Voigt Hill
#
# Bulk Modulus (GPa) = 39.99903 53.85623 46.92763
# Shear Modulus (GPa) = 27.36886 33.25340 30.31113
#
# Velocity S-wave (km/s) = 3.52452 3.88499 3.70914
# Velocity P-wave (km/s) = 5.89219 6.67598 6.29629
#
# Compressibility (1/GPa) = 0.02500061
#
# Stress axis : x y z
#
# Youngs Moduli (GPa) = 70.26456 72.37946 63.52863
#
# Poissons Ratio (x) = 0.17801 0.39609
# Poissons Ratio (y) = 0.17281 0.04447
# Poissons Ratio (z) = 0.43809 0.05066
#
# Static dielectric constant tensor:
#      x y z
#    x 3.540860 -0.361550 -0.109780 
#    y -0.361550 4.193610 0.086810 
#    z -0.109780 0.086810 4.281290 
# 
# 
# High freq. dielectric constant tensor:
#      x y z
#    x 1.866450 -0.028200 -0.007300 
#    y -0.028200 1.860910 -0.012620 
#    z -0.007300 -0.012620 1.873460 
# 
# From -- ./inp_files/206253.got.cif
#   From: 2010.06.25/outbox.cif.g09.slc.cpg/sg2_104_cif.got.tgz:206253.got - 2010.06.27 13:26:56.
