data_PCOD8006525
_publ_section_title
;
Structure prediction by ZEFSAII (Michael W. Deem and Ramdas Pophale) SiO2 
 PCOD8006525
Probable space group: P -1
;
_chemical_formula_sum "Si O2"
_cell_formula_units_Z 14
_cell_length_a 17.313718
_cell_length_b 9.739795
_cell_length_c 20.896379
_cell_angle_alpha 145.162750
_cell_angle_beta 19.089593
_cell_angle_gamma 145.915428
_cell_volume 631.731786
_symmetry_space_group_name_H-M "P -1"
_symmetry_group_IT_number 2
_symmetry_cell_setting 'triclinic'
loop_
_space_group_symop_operation_xyz
x,y,z
-x,-y,-z
loop_
_atom_site_type_symbol
_atom_site_label
_atom_site_fract_x
_atom_site_fract_y
_atom_site_fract_z
Si Si1 0.410622 0.425831 0.839695
Si Si2 0.730488 0.351710 0.212001
Si Si3 0.335391 0.159551 0.118370
Si Si4 0.535917 0.102182 0.399731
Si Si5 0.622685 0.560003 0.587023
Si Si6 0.010610 0.105123 0.813326
Si Si7 0.850794 0.218979 0.775886
O O1 0.616857 0.557871 0.782692
O O2 0.346159 0.127640 0.780148
O O3 0.503515 0.537056 0.740627
O O4 0.165172 0.512344 0.079546
O O5 0.542858 0.340861 0.295903
O O6 0.900987 0.635737 0.197606
O O7 0.583247 0.254428 0.354446
O O8 0.903596 0.173164 0.990535
O O9 0.149922 0.970123 0.238452
O O10 0.603446 0.101366 0.881516
O O11 0.202737 0.116115 0.137273
O O12 0.646723 0.289428 0.442348
O O13 0.241923 0.995798 0.601161
O O14 0.899276 0.745163 0.445901
#
# Coordination Sequence:
#
# PCOD8006525 Si02
#       7
#     2   2   2   2   2   2   2
#     4  10  23  38  57  90 119 152 186 235 301 335
#     4  10  22  37  65  87 110 154 196 237 289 329
#     4   9  19  40  58  84 120 150 190 243 281 337
#     4  11  23  38  58  89 119 152 189 238 291 343
#     4  11  21  38  63  87 111 153 200 236 282 341
#     4  10  20  40  60  84 117 150 197 240 275 345
#     4   9  20  37  57  85 118 144 194 240 277 339
#
# _framework density 22.161304000000001
#
# number of rings (size 3 to 8) (size 9 to 14) (size 15 to 20)
#    0.857    1.143    0.000    4.714    0.000    5.143 
#    2.571    0.714    0.000    0.000    0.000    0.000 
#    0.000    0.000    0.000    0.000    0.000    0.000 
#
# Total GULP energy -173499.505428 kJ/mol
# GULP energy per Si atom -12392.821816 kJ/mol
# Density = 2.211086 g / cm^3
# Si number density = 22.161304 Si / 1000 Ang^3
#
#
#
# Elastic Constant Matrix: (Units=GPa)
#
#
# Indices 1 2 3 4 5 6 
#
# 1 52.4818 -3.3417 0.4505 -20.2065 5.3740 15.7768
# 2 -3.3417 35.6147 -1.5167 1.5680 -5.8378 2.4428
# 3 0.4505 -1.5167 64.7401 -18.5159 1.7559 -2.5536
# 4 -20.2065 1.5680 -18.5159 36.4421 5.5177 -4.2120
# 5 5.3740 -5.8378 1.7559 5.5177 21.1820 -2.7280
# 6 15.7768 2.4428 -2.5536 -4.2120 -2.7280 24.6498
#
#
#
# Elastic Compliance Matrix: (Units=1/GPa)
#
#
# Indices 1 2 3 4 5 6 
#
# 1 0.036190 0.001056 0.006184 0.023534 -0.018189 -0.020619
# 2 0.001056 0.029839 -0.000373 -0.002502 0.008228 -0.003188
# 3 0.006184 -0.000373 0.019736 0.014529 -0.007116 -0.000181
# 4 0.023534 -0.002502 0.014529 0.050478 -0.021930 -0.007111
# 5 -0.018189 0.008228 -0.007116 -0.021930 0.062097 0.013214
# 6 -0.020619 -0.003188 -0.000181 -0.007111 0.013214 0.054310
#
#
# Mechanical properties :
#
#
# Convention : Reuss Voigt Hill
#
# Bulk Modulus (GPa) = 10.05038 16.00230 13.02634
# Shear Modulus (GPa) = 18.37677 26.93776 22.65726
#
# Velocity S-wave (km/s) = 2.88276 3.49023 3.20094
# Velocity P-wave (km/s) = 3.95289 4.84549 4.42177
#
# Compressibility (1/GPa) = 0.09949876
#
# Stress axis : x y z
#
# Youngs Moduli (GPa) = 27.63158 33.51313 50.66938
#
# Poissons Ratio (x) = -0.03538 -0.31333
# Poissons Ratio (y) = -0.02917 0.01889
# Poissons Ratio (z) = -0.17087 0.01250
#
# Static dielectric constant tensor:
#      x y z
#    x 3.675190 0.296100 0.096850 
#    y 0.296100 3.698660 0.001490 
#    z 0.096850 0.001490 4.022960 
# 
# 
# High freq. dielectric constant tensor:
#      x y z
#    x 1.850600 0.025220 0.008790 
#    y 0.025220 1.848750 -0.003980 
#    z 0.008790 -0.003980 1.879200 
# 
# From -- ./inp_files/599612.got.cif
#   From: 2010.06.25/outbox.cif.g09.slc.cpg/sg2_300_cif.got.tgz:599612.got - 2010.06.27 13:26:56.
