data_PCOD8006190
_publ_section_title
;
Structure prediction by ZEFSAII (Michael W. Deem and Ramdas Pophale) SiO2 
 PCOD8006190
Probable space group: P -1
;
_chemical_formula_sum "Si O2"
_cell_formula_units_Z 14
_cell_length_a 8.806070
_cell_length_b 23.394123
_cell_length_c 8.560319
_cell_angle_alpha 139.699499
_cell_angle_beta 74.182523
_cell_angle_gamma 135.819176
_cell_volume 630.727261
_symmetry_space_group_name_H-M "P -1"
_symmetry_group_IT_number 2
_symmetry_cell_setting 'triclinic'
loop_
_space_group_symop_operation_xyz
x,y,z
-x,-y,-z
loop_
_atom_site_type_symbol
_atom_site_label
_atom_site_fract_x
_atom_site_fract_y
_atom_site_fract_z
Si Si1 0.117187 0.117505 0.082397
Si Si2 0.615732 0.481039 0.044405
Si Si3 0.758383 0.766763 0.122544
Si Si4 0.149570 0.696210 0.819428
Si Si5 0.078737 0.269797 0.263989
Si Si6 0.741745 0.437700 0.634912
Si Si7 0.688976 0.908322 0.292843
O O1 0.942198 0.126625 0.107314
O O2 0.415880 0.293271 0.404296
O O3 0.117439 0.055055 0.804641
O O4 0.000000 0.000000 0.000000
O O5 0.795644 0.601345 0.385134
O O6 0.500000 0.500000 0.000000
O O7 0.348960 0.315163 0.852088
O O8 0.795044 0.493886 0.916160
O O9 0.609350 0.794442 0.200581
O O10 0.693961 0.671908 0.795316
O O11 0.095603 0.921543 0.347064
O O12 0.150254 0.611526 0.528702
O O13 0.137788 0.776659 0.880352
O O14 0.889901 0.571766 0.750018
O O15 0.423176 0.830139 0.126925
#
# Coordination Sequence:
#
# PCOD8006190 Si02
#       7
#     2   2   2   2   2   2   2
#     4  10  20  39  66  90 124 163 214 262 309 370
#     4  12  23  37  65 100 123 162 217 269 305 364
#     4  10  22  41  69  91 122 167 220 257 308 377
#     4  10  23  42  64  94 132 167 207 255 325 382
#     4  11  24  38  66  96 126 168 209 264 316 373
#     4  10  22  40  65  92 130 173 198 263 315 370
#     4   9  21  41  66  91 120 174 210 253 317 379
#
# _framework density 22.196598000000002
#
# number of rings (size 3 to 8) (size 9 to 14) (size 15 to 20)
#    0.000    1.714    1.429    2.143    8.000    1.143 
#    0.000    2.857    0.000    0.000    0.000    0.000 
#    0.000    0.000    0.000    0.000    0.000    0.000 
#
# Total GULP energy -173436.452486 kJ/mol
# GULP energy per Si atom -12388.318035 kJ/mol
# Density = 2.214608 g / cm^3
# Si number density = 22.196598 Si / 1000 Ang^3
#
#
#
# Elastic Constant Matrix: (Units=GPa)
#
#
# Indices 1 2 3 4 5 6 
#
# 1 153.6680 62.8716 42.0029 17.8419 6.7808 -41.0830
# 2 62.8716 137.4777 56.1510 -3.5147 -11.7586 -24.2263
# 3 42.0029 56.1510 92.2336 -6.9056 5.7925 -4.5946
# 4 17.8419 -3.5147 -6.9056 34.7164 3.3994 -12.4260
# 5 6.7808 -11.7586 5.7925 3.3994 31.5163 -0.9090
# 6 -41.0830 -24.2263 -4.5946 -12.4260 -0.9090 39.9425
#
#
#
# Elastic Compliance Matrix: (Units=1/GPa)
#
#
# Indices 1 2 3 4 5 6 
#
# 1 0.011205 -0.002587 -0.003225 -0.003417 -0.002170 0.008473
# 2 -0.002587 0.012609 -0.006445 0.002562 0.006319 0.005186
# 3 -0.003225 -0.006445 0.016584 0.003230 -0.005235 -0.004433
# 4 -0.003417 0.002562 0.003230 0.035009 -0.002412 0.009247
# 5 -0.002170 0.006319 -0.005235 -0.002412 0.035807 0.001063
# 6 0.008473 0.005186 -0.004433 0.009247 0.001063 0.039287
#
#
# Mechanical properties :
#
#
# Convention : Reuss Voigt Hill
#
# Bulk Modulus (GPa) = 62.95614 78.38115 70.66865
# Shear Modulus (GPa) = 27.72985 36.05863 31.89424
#
# Velocity S-wave (km/s) = 3.53836 4.03490 3.79476
# Velocity P-wave (km/s) = 6.71698 7.55619 7.14891
#
# Compressibility (1/GPa) = 0.01588407
#
# Stress axis : x y z
#
# Youngs Moduli (GPa) = 89.24378 79.30674 60.29809
#
# Poissons Ratio (x) = 0.20516 0.19449
# Poissons Ratio (y) = 0.23087 0.38862
# Poissons Ratio (z) = 0.28785 0.51113
#
# Static dielectric constant tensor:
#      x y z
#    x 4.376670 -0.832160 -0.109440 
#    y -0.832160 5.013250 -0.571550 
#    z -0.109440 -0.571550 4.261840 
# 
# 
# High freq. dielectric constant tensor:
#      x y z
#    x 1.865240 -0.026900 -0.015100 
#    y -0.026900 1.860000 -0.020180 
#    z -0.015100 -0.020180 1.879300 
# 
# From -- ./inp_files/190650.got.cif
#   From: 2010.06.25/outbox.cif.g09.slc.cpg/sg2_96_cif.got.tgz:190650.got - 2010.06.27 13:26:56.
