data_PCOD8006850
_publ_section_title
;
Structure prediction by ZEFSAII (Michael W. Deem and Ramdas Pophale) SiO2 
 PCOD8006850
Probable space group: P -1
;
_chemical_formula_sum "Si O2"
_cell_formula_units_Z 16
_cell_length_a 9.370036
_cell_length_b 13.499284
_cell_length_c 11.455205
_cell_angle_alpha 33.287652
_cell_angle_beta 73.792670
_cell_angle_gamma 87.922229
_cell_volume 708.252310
_symmetry_space_group_name_H-M "P -1"
_symmetry_group_IT_number 2
_symmetry_cell_setting 'triclinic'
loop_
_space_group_symop_operation_xyz
x,y,z
-x,-y,-z
loop_
_atom_site_type_symbol
_atom_site_label
_atom_site_fract_x
_atom_site_fract_y
_atom_site_fract_z
Si Si1 0.660501 0.513725 0.010629
Si Si2 0.180590 0.498060 0.467812
Si Si3 0.223166 0.793844 0.345135
Si Si4 0.182308 0.096692 0.890125
Si Si5 0.253402 0.964817 0.761665
Si Si6 0.610942 0.136282 0.525227
Si Si7 0.125621 0.521919 0.210967
Si Si8 0.821498 0.936417 0.560656
O O1 0.791948 0.496752 0.908320
O O2 0.731428 0.724975 0.846295
O O3 0.500000 0.500000 0.000000
O O4 0.625128 0.352350 0.276529
O O5 0.283792 0.687641 0.332383
O O6 0.211880 0.319101 0.696925
O O7 0.231176 0.499224 0.319659
O O8 0.000000 0.500000 0.500000
O O9 0.358209 0.863006 0.344629
O O10 0.054630 0.641160 0.585317
O O11 0.216586 0.992013 0.099144
O O12 0.270168 0.070967 0.777926
O O13 0.000000 0.000000 0.000000
O O14 0.436263 0.980994 0.680517
O O15 0.194049 0.077008 0.564242
O O16 0.128005 0.741604 0.006991
O O17 0.745221 0.087251 0.473364
O O18 0.000000 0.000000 0.500000
#
# Coordination Sequence:
#
# PCOD8006850 Si02
#       8
#     2   2   2   2   2   2   2   2
#     4  12  25  45  72  99 140 188 229 279 355 420
#     4  10  20  40  65 101 132 172 224 289 340 396
#     4  11  25  43  67 103 136 181 231 289 342 406
#     4  12  22  41  73 101 138 180 239 283 343 415
#     4  12  25  46  73  98 142 188 223 289 354 409
#     4  12  28  48  67 103 150 183 228 289 352 417
#     4  11  21  42  72  98 132 177 232 284 340 399
#     4  12  27  45  73 109 135 182 240 286 346 415
#
# _framework density 22.590820000000001
#
# number of rings (size 3 to 8) (size 9 to 14) (size 15 to 20)
#    0.000    0.500    6.250    3.375    3.500    2.500 
#    0.000    0.625    0.000    0.000    0.000    0.000 
#    0.000    0.000    0.000    0.000    0.000    0.000 
#
# Total GULP energy -198348.053895 kJ/mol
# GULP energy per Si atom -12396.753368 kJ/mol
# Density = 2.253940 g / cm^3
# Si number density = 22.590820 Si / 1000 Ang^3
#
#
#
# Elastic Constant Matrix: (Units=GPa)
#
#
# Indices 1 2 3 4 5 6 
#
# 1 119.0815 29.1655 42.5679 0.8965 13.7325 14.2193
# 2 29.1655 60.5604 22.4693 -1.4696 15.7725 12.1607
# 3 42.5679 22.4693 132.7153 -18.0342 34.6870 7.9913
# 4 0.8965 -1.4696 -18.0342 44.5325 -2.5201 7.8975
# 5 13.7325 15.7725 34.6870 -2.5201 40.5330 1.9542
# 6 14.2193 12.1607 7.9913 7.8975 1.9542 36.8013
#
#
#
# Elastic Compliance Matrix: (Units=1/GPa)
#
#
# Indices 1 2 3 4 5 6 
#
# 1 0.010545 -0.003734 -0.002880 -0.001128 0.000371 -0.001993
# 2 -0.003734 0.021195 -0.000195 0.001297 -0.006473 -0.005453
# 3 -0.002880 -0.000195 0.011392 0.004517 -0.008329 -0.001824
# 4 -0.001128 0.001297 0.004517 0.025349 -0.002108 -0.006301
# 5 0.000371 -0.006473 -0.008329 -0.002108 0.033942 0.002454
# 6 -0.001993 -0.005453 -0.001824 -0.006301 0.002454 0.031363
#
#
# Mechanical properties :
#
#
# Convention : Reuss Voigt Hill
#
# Bulk Modulus (GPa) = 33.88091 55.64029 44.76060
# Shear Modulus (GPa) = 31.79802 38.91698 35.35750
#
# Velocity S-wave (km/s) = 3.75582 4.15503 3.96046
# Velocity P-wave (km/s) = 5.81708 6.90667 6.38516
#
# Compressibility (1/GPa) = 0.02951514
#
# Stress axis : x y z
#
# Youngs Moduli (GPa) = 94.82785 47.18094 87.77895
#
# Poissons Ratio (x) = 0.17616 0.25285
# Poissons Ratio (y) = 0.35406 0.01708
# Poissons Ratio (z) = 0.27315 0.00918
#
# Static dielectric constant tensor:
#      x y z
#    x 3.815070 0.062070 0.095420 
#    y 0.062070 4.144100 0.101850 
#    z 0.095420 0.101850 4.252750 
# 
# 
# High freq. dielectric constant tensor:
#      x y z
#    x 1.870680 -0.003280 0.012280 
#    y -0.003280 1.892600 -0.003080 
#    z 0.012280 -0.003080 1.905340 
# 
# From -- ./inp_files/398146.got.cif
#   From: 2010.06.25/outbox.cif.g09.slc.cpg/sg2_200_cif.got.tgz:398146.got - 2010.06.27 13:26:56.
