data_PCOD8006604
_publ_section_title
;
Structure prediction by ZEFSAII (Michael W. Deem and Ramdas Pophale) SiO2 
 PCOD8006604
Probable space group: P -1
;
_chemical_formula_sum "Si O2"
_cell_formula_units_Z 16
_cell_length_a 8.529653
_cell_length_b 20.079202
_cell_length_c 6.848222
_cell_angle_alpha 130.951727
_cell_angle_beta 78.456698
_cell_angle_gamma 78.643764
_cell_volume 777.962775
_symmetry_space_group_name_H-M "P -1"
_symmetry_group_IT_number 2
_symmetry_cell_setting 'triclinic'
loop_
_space_group_symop_operation_xyz
x,y,z
-x,-y,-z
loop_
_atom_site_type_symbol
_atom_site_label
_atom_site_fract_x
_atom_site_fract_y
_atom_site_fract_z
Si Si1 0.924154 0.102515 0.607416
Si Si2 0.188473 0.370474 0.324518
Si Si3 0.796950 0.892122 0.714730
Si Si4 0.450537 0.799084 0.991859
Si Si5 0.010509 0.681814 0.398739
Si Si6 0.503925 0.979022 0.234406
Si Si7 0.795735 0.278946 0.229162
Si Si8 0.128015 0.581954 0.779578
O O1 0.710678 0.143393 0.700649
O O2 0.030131 0.092119 0.358785
O O3 0.949123 0.182216 0.896788
O O4 0.000000 0.000000 0.500000
O O5 0.078945 0.370739 0.546070
O O6 0.229095 0.464402 0.505442
O O7 0.074128 0.375484 0.170604
O O8 0.372055 0.271551 0.072567
O O9 0.855996 0.778493 0.527229
O O10 0.654942 0.926022 0.638675
O O11 0.695760 0.959234 0.056103
O O12 0.478904 0.880295 0.013648
O O13 0.386604 0.734764 0.740404
O O14 0.142152 0.711093 0.550296
O O15 0.124775 0.608429 0.058922
O O16 0.500000 0.000000 0.500000
O O17 0.760865 0.374011 0.288456
#
# Coordination Sequence:
#
# PCOD8006604 Si02
#       8
#     2   2   2   2   2   2   2   2
#     4  10  20  40  62  84 130 167 209 255 317 385
#     4  10  22  39  63  92 127 165 207 276 315 380
#     4  11  22  39  62  91 121 172 212 250 322 381
#     4  10  21  41  61  93 130 163 206 273 318 365
#     4  11  20  37  64  90 121 166 215 259 317 391
#     4  11  25  39  63  95 130 167 213 268 313 378
#     4   9  22  38  60  88 126 167 206 263 319 373
#     4  10  21  40  64  91 122 168 218 251 333 391
#
# _framework density 20.566537
#
# number of rings (size 3 to 8) (size 9 to 14) (size 15 to 20)
#    0.750    1.000    3.750    0.375    3.500    0.500 
#    0.000   13.750    0.000    0.000    0.000    0.000 
#    0.000    0.000    0.000    0.000    0.000    0.000 
#
# Total GULP energy -198315.136151 kJ/mol
# GULP energy per Si atom -12394.696009 kJ/mol
# Density = 2.051973 g / cm^3
# Si number density = 20.566537 Si / 1000 Ang^3
#
#
#
# Elastic Constant Matrix: (Units=GPa)
#
#
# Indices 1 2 3 4 5 6 
#
# 1 67.7719 21.7578 25.1769 -5.8795 1.1648 3.4015
# 2 21.7578 106.7336 22.7396 0.4913 11.0219 10.5897
# 3 25.1769 22.7396 76.8134 -24.4898 1.9433 -0.9475
# 4 -5.8795 0.4913 -24.4898 33.5076 3.0396 -0.8532
# 5 1.1648 11.0219 1.9433 3.0396 33.9706 9.1649
# 6 3.4015 10.5897 -0.9475 -0.8532 9.1649 30.8802
#
#
#
# Elastic Compliance Matrix: (Units=1/GPa)
#
#
# Indices 1 2 3 4 5 6 
#
# 1 0.017494 -0.002357 -0.005389 -0.000965 0.000993 -0.001605
# 2 -0.002357 0.011136 -0.003455 -0.002978 -0.002236 -0.003084
# 3 -0.005389 -0.003455 0.020476 0.014345 -0.002071 0.003418
# 4 -0.000965 -0.002978 0.014345 0.040719 -0.004556 0.004045
# 5 0.000993 -0.002236 -0.002071 -0.004556 0.033186 -0.009381
# 6 -0.001605 -0.003084 0.003418 0.004045 -0.009381 0.036618
#
#
# Mechanical properties :
#
#
# Convention : Reuss Voigt Hill
#
# Bulk Modulus (GPa) = 37.44720 43.40751 40.42735
# Shear Modulus (GPa) = 26.18735 31.78134 28.98434
#
# Velocity S-wave (km/s) = 3.57220 3.93529 3.75813
# Velocity P-wave (km/s) = 5.93814 6.46532 6.20733
#
# Compressibility (1/GPa) = 0.02670427
#
# Stress axis : x y z
#
# Youngs Moduli (GPa) = 57.16343 89.79664 48.83817
#
# Poissons Ratio (x) = 0.21163 0.26318
# Poissons Ratio (y) = 0.13472 0.16874
# Poissons Ratio (z) = 0.30805 0.31026
#
# Static dielectric constant tensor:
#      x y z
#    x 3.666070 0.231480 -0.063180 
#    y 0.231480 3.907920 0.054960 
#    z -0.063180 0.054960 3.538430 
# 
# 
# High freq. dielectric constant tensor:
#      x y z
#    x 1.788720 0.012860 -0.004070 
#    y 0.012860 1.817850 0.007050 
#    z -0.004070 0.007050 1.783050 
# 
# From -- ./inp_files/51964.got.cif
#   From: 2010.06.25/outbox.cif.g09.slc.cpg/sg2_26_cif.got.tgz:51964.got - 2010.06.27 13:26:56.
