data_PCOD8006784
_publ_section_title
;
Structure prediction by ZEFSAII (Michael W. Deem and Ramdas Pophale) SiO2 
 PCOD8006784
Probable space group: P -1
;
_chemical_formula_sum "Si O2"
_cell_formula_units_Z 14
_cell_length_a 10.626348
_cell_length_b 7.674522
_cell_length_c 16.754325
_cell_angle_alpha 65.724240
_cell_angle_beta 30.666066
_cell_angle_gamma 85.018190
_cell_volume 520.264317
_symmetry_space_group_name_H-M "P -1"
_symmetry_group_IT_number 2
_symmetry_cell_setting 'triclinic'
loop_
_space_group_symop_operation_xyz
x,y,z
-x,-y,-z
loop_
_atom_site_type_symbol
_atom_site_label
_atom_site_fract_x
_atom_site_fract_y
_atom_site_fract_z
Si Si1 0.471993 0.758759 0.693715
Si Si2 0.787217 0.738432 0.032992
Si Si3 0.906901 0.038135 0.628038
Si Si4 0.081031 0.425096 0.707522
Si Si5 0.619577 0.022773 0.149155
Si Si6 0.608605 0.829650 0.432332
Si Si7 0.519624 0.235801 0.958082
O O1 0.218499 0.483719 0.894411
O O2 0.434826 0.920407 0.743623
O O3 0.485430 0.855833 0.579529
O O4 0.781442 0.774035 0.534028
O O5 0.570947 0.685168 0.085589
O O6 0.714282 0.841854 0.129907
O O7 0.136269 0.918621 0.788472
O O8 0.681352 0.111939 0.716790
O O9 0.000000 0.000000 0.500000
O O10 0.713568 0.809717 0.834768
O O11 0.327543 0.689351 0.551125
O O12 0.249112 0.315806 0.599919
O O13 0.867074 0.432645 0.756557
O O14 0.876343 0.268009 0.923095
O O15 0.500000 0.000000 0.000000
#
# Coordination Sequence:
#
# PCOD8006784 Si02
#       7
#     2   2   2   2   2   2   2
#     4  11  22  38  65  96 124 166 213 253 319 377
#     4  11  22  39  68  95 122 169 212 255 317 375
#     4   9  17  33  57  86 125 155 198 260 303 359
#     4   9  19  37  65  88 123 176 199 253 332 355
#     4   9  20  39  59  91 135 155 204 273 300 371
#     4  10  20  40  64  88 129 168 205 262 311 372
#     4  11  16  36  66  85 126 168 200 260 318 363
#
# _framework density 26.909400999999999
#
# number of rings (size 3 to 8) (size 9 to 14) (size 15 to 20)
#    0.000    2.000    5.714    0.000    0.000    1.143 
#    0.000   16.429    3.143    0.000    0.000    0.000 
#    0.000    0.000    0.000    0.000    0.000    0.000 
#
# Total GULP energy -173534.241933 kJ/mol
# GULP energy per Si atom -12395.302995 kJ/mol
# Density = 2.684815 g / cm^3
# Si number density = 26.909401 Si / 1000 Ang^3
#
#
#
# Elastic Constant Matrix: (Units=GPa)
#
#
# Indices 1 2 3 4 5 6 
#
# 1 127.4846 55.9742 71.0793 -5.0142 -10.9941 19.2566
# 2 55.9742 102.7073 75.0397 14.1176 -1.3216 15.6113
# 3 71.0793 75.0397 133.3556 4.0898 -11.0963 11.8252
# 4 -5.0142 14.1176 4.0898 46.4245 5.0308 3.5416
# 5 -10.9941 -1.3216 -11.0963 5.0308 47.8848 -3.6037
# 6 19.2566 15.6113 11.8252 3.5416 -3.6037 37.3868
#
#
#
# Elastic Compliance Matrix: (Units=1/GPa)
#
#
# Indices 1 2 3 4 5 6 
#
# 1 0.012634 -0.003446 -0.004449 0.002969 0.001175 -0.003829
# 2 -0.003446 0.019042 -0.008610 -0.004948 -0.001980 -0.003175
# 3 -0.004449 -0.008610 0.014761 0.000492 0.002214 0.001384
# 4 0.002969 -0.004948 0.000492 0.023694 -0.001985 -0.002055
# 5 0.001175 -0.001980 0.002214 -0.001985 0.021958 0.001826
# 6 -0.003829 -0.003175 0.001384 -0.002055 0.001826 0.029978
#
#
# Mechanical properties :
#
#
# Convention : Reuss Voigt Hill
#
# Bulk Modulus (GPa) = 74.47012 85.30377 79.88695
# Shear Modulus (GPa) = 31.33772 37.10285 34.22029
#
# Velocity S-wave (km/s) = 3.41627 3.71726 3.56994
# Velocity P-wave (km/s) = 6.57995 7.08471 6.83699
#
# Compressibility (1/GPa) = 0.01342820
#
# Stress axis : x y z
#
# Youngs Moduli (GPa) = 79.15155 52.51509 67.74614
#
# Poissons Ratio (x) = 0.18097 0.30138
# Poissons Ratio (y) = 0.27277 0.58328
# Poissons Ratio (z) = 0.35211 0.45214
#
# Static dielectric constant tensor:
#      x y z
#    x 5.239650 0.158670 -0.586300 
#    y 0.158670 4.525550 0.490160 
#    z -0.586300 0.490160 5.650910 
# 
# 
# High freq. dielectric constant tensor:
#      x y z
#    x 2.095040 0.004320 -0.016680 
#    y 0.004320 2.062470 0.028820 
#    z -0.016680 0.028820 2.100200 
# 
# From -- ./inp_files/565859.got.cif
#   From: 2010.06.25/outbox.cif.g09.slc.cpg/sg2_283_cif.got.tgz:565859.got - 2010.06.27 13:26:56.
