data_PCOD8006871
_publ_section_title
;
Structure prediction by ZEFSAII (Michael W. Deem and Ramdas Pophale) SiO2 
 PCOD8006871
Probable space group: P -1
;
_chemical_formula_sum "Si O2"
_cell_formula_units_Z 14
_cell_length_a 8.662674
_cell_length_b 9.268269
_cell_length_c 12.046442
_cell_angle_alpha 62.253298
_cell_angle_beta 110.831744
_cell_angle_gamma 132.539539
_cell_volume 629.450591
_symmetry_space_group_name_H-M "P -1"
_symmetry_group_IT_number 2
_symmetry_cell_setting 'triclinic'
loop_
_space_group_symop_operation_xyz
x,y,z
-x,-y,-z
loop_
_atom_site_type_symbol
_atom_site_label
_atom_site_fract_x
_atom_site_fract_y
_atom_site_fract_z
Si Si1 0.796995 0.776043 0.990448
Si Si2 0.321269 0.878832 0.589603
Si Si3 0.455629 0.618108 0.791064
Si Si4 0.324474 0.460378 0.300319
Si Si5 0.333142 0.092085 0.737376
Si Si6 0.990723 0.311319 0.099154
Si Si7 0.086979 0.195480 0.526182
O O1 0.621409 0.770139 0.877235
O O2 0.867955 0.680531 0.960486
O O3 0.690197 0.622333 0.122878
O O4 0.000000 0.000000 0.000000
O O5 0.314747 0.690192 0.702168
O O6 0.099205 0.787423 0.504820
O O7 0.500000 0.000000 0.500000
O O8 0.366382 0.029938 0.648136
O O9 0.570693 0.628954 0.704232
O O10 0.447935 0.706504 0.232155
O O11 0.287045 0.398411 0.442503
O O12 0.091990 0.348352 0.232765
O O13 0.180754 0.161376 0.670560
O O14 0.241578 0.908604 0.870276
O O15 0.000000 0.500000 0.000000
O O16 0.000000 0.000000 0.500000
#
# Coordination Sequence:
#
# PCOD8006871 Si02
#       7
#     2   2   2   2   2   2   2
#     4  10  22  39  64  89 122 163 204 249 308 362
#     4  11  23  40  65  92 128 158 202 261 309 360
#     4  10  22  41  61  92 126 159 200 259 306 353
#     4  11  22  41  67  90 124 165 205 251 307 374
#     4  11  23  41  66  93 121 166 210 247 306 376
#     4  11  23  39  65  89 126 164 206 255 302 359
#     4  10  20  40  65  87 123 164 199 249 312 365
#
# _framework density 22.241620000000001
#
# number of rings (size 3 to 8) (size 9 to 14) (size 15 to 20)
#    0.000    1.429    2.857    3.857    2.000    1.714 
#    0.000    1.429    0.000    0.000    0.000    0.000 
#    0.000    0.000    0.000    0.000    0.000    0.000 
#
# Total GULP energy -173525.555633 kJ/mol
# GULP energy per Si atom -12394.682545 kJ/mol
# Density = 2.219100 g / cm^3
# Si number density = 22.241620 Si / 1000 Ang^3
#
#
#
# Elastic Constant Matrix: (Units=GPa)
#
#
# Indices 1 2 3 4 5 6 
#
# 1 109.7005 22.3096 47.4950 -13.1469 6.1580 4.0575
# 2 22.3096 104.5673 22.7039 -22.4279 12.9300 19.9865
# 3 47.4950 22.7039 87.4110 -30.8893 4.1672 0.0633
# 4 -13.1469 -22.4279 -30.8893 33.9821 -2.8358 -6.4204
# 5 6.1580 12.9300 4.1672 -2.8358 32.5033 -12.0087
# 6 4.0575 19.9865 0.0633 -6.4204 -12.0087 29.0162
#
#
#
# Elastic Compliance Matrix: (Units=1/GPa)
#
#
# Indices 1 2 3 4 5 6 
#
# 1 0.012423 -0.000898 -0.007620 -0.003449 -0.002372 -0.002847
# 2 -0.000898 0.014822 -0.001044 0.005187 -0.009964 -0.013057
# 3 -0.007620 -0.001044 0.022060 0.018015 0.003207 0.007050
# 4 -0.003449 0.005187 0.018015 0.050078 0.004234 0.009703
# 5 -0.002372 -0.009964 0.003207 0.004234 0.045024 0.026758
# 6 -0.002847 -0.013057 0.007050 0.009703 0.026758 0.057062
#
#
# Mechanical properties :
#
#
# Convention : Reuss Voigt Hill
#
# Bulk Modulus (GPa) = 33.13582 54.07729 43.60656
# Shear Modulus (GPa) = 21.67757 33.04501 27.36129
#
# Velocity S-wave (km/s) = 3.12531 3.85870 3.51120
# Velocity P-wave (km/s) = 5.28714 6.64974 6.00720
#
# Compressibility (1/GPa) = 0.03017882
#
# Stress axis : x y z
#
# Youngs Moduli (GPa) = 80.49762 67.46745 45.33096
#
# Poissons Ratio (x) = 0.06061 0.34544
# Poissons Ratio (y) = 0.07231 0.04733
# Poissons Ratio (z) = 0.61343 0.07045
#
# Static dielectric constant tensor:
#      x y z
#    x 4.174620 0.181100 0.051150 
#    y 0.181100 3.858950 0.134830 
#    z 0.051150 0.134830 4.462940 
# 
# 
# High freq. dielectric constant tensor:
#      x y z
#    x 1.875710 0.011430 -0.005150 
#    y 0.011430 1.866300 -0.014890 
#    z -0.005150 -0.014890 1.876510 
# 
# From -- ./inp_files/202844.got.cif
#   From: 2010.06.25/outbox.cif.g09.slc.cpg/sg2_102_cif.got.tgz:202844.got - 2010.06.27 13:26:56.
