data_PCOD8006736
_publ_section_title
;
Structure prediction by ZEFSAII (Michael W. Deem and Ramdas Pophale) SiO2 
 PCOD8006736
Probable space group: P -1
;
_chemical_formula_sum "Si O2"
_cell_formula_units_Z 16
_cell_length_a 8.788348
_cell_length_b 8.801224
_cell_length_c 23.649299
_cell_angle_alpha 150.645553
_cell_angle_beta 58.193698
_cell_angle_gamma 112.296291
_cell_volume 747.878257
_symmetry_space_group_name_H-M "P -1"
_symmetry_group_IT_number 2
_symmetry_cell_setting 'triclinic'
loop_
_space_group_symop_operation_xyz
x,y,z
-x,-y,-z
loop_
_atom_site_type_symbol
_atom_site_label
_atom_site_fract_x
_atom_site_fract_y
_atom_site_fract_z
Si Si1 0.091487 0.737321 0.596971
Si Si2 0.571391 0.752701 0.246092
Si Si3 0.275723 0.842880 0.916547
Si Si4 0.253861 0.719922 0.673766
Si Si5 0.509834 0.660906 0.967225
Si Si6 0.528165 0.153282 0.483998
Si Si7 0.072657 0.016802 0.907811
Si Si8 0.811922 0.348343 0.894757
O O1 0.179901 0.565691 0.582155
O O2 0.256311 0.840114 0.562728
O O3 0.000000 0.500000 0.500000
O O4 0.940809 0.038825 0.743256
O O5 0.715051 0.503429 0.172918
O O6 0.459061 0.562568 0.166320
O O7 0.667604 0.976497 0.261813
O O8 0.453261 0.953613 0.383887
O O9 0.245528 0.845331 0.855725
O O10 0.105121 0.062251 0.052548
O O11 0.453144 0.992758 0.943467
O O12 0.407103 0.498461 0.609322
O O13 0.084604 0.857528 0.792227
O O14 0.660449 0.490539 0.925399
O O15 0.301413 0.721781 0.050273
O O16 0.500000 0.000000 0.500000
O O17 0.069097 0.392912 0.027137
#
# Coordination Sequence:
#
# PCOD8006736 Si02
#       8
#     2   2   2   2   2   2   2   2
#     4  11  26  43  68 100 133 172 224 278 318 395
#     4  11  21  39  66  92 128 169 222 266 315 405
#     4  10  22  36  61  97 135 161 215 267 340 369
#     4  11  24  42  72  94 129 179 228 259 333 395
#     4  10  22  38  63 100 131 174 206 278 324 396
#     4  11  26  47  69  94 128 183 221 270 333 393
#     4  10  20  40  63  93 128 174 212 276 313 401
#     4  10  22  39  66  94 133 172 217 260 343 375
#
# _framework density 21.393854999999999
#
# number of rings (size 3 to 8) (size 9 to 14) (size 15 to 20)
#    0.000    1.500    1.250    4.125    5.250    4.000 
#    2.250    0.625    0.000    0.000    0.000    0.000 
#    0.000    0.000    0.000    0.000    0.000    0.000 
#
# Total GULP energy -198251.917998 kJ/mol
# GULP energy per Si atom -12390.744875 kJ/mol
# Density = 2.134516 g / cm^3
# Si number density = 21.393855 Si / 1000 Ang^3
#
#
#
# Elastic Constant Matrix: (Units=GPa)
#
#
# Indices 1 2 3 4 5 6 
#
# 1 61.1976 42.8990 35.2956 -0.0372 7.6085 10.0849
# 2 42.8990 137.3759 52.7055 -4.7144 3.7694 -3.0876
# 3 35.2956 52.7055 110.4743 -8.3545 6.1881 0.5307
# 4 -0.0372 -4.7144 -8.3545 42.6115 -8.5258 -4.8255
# 5 7.6085 3.7694 6.1881 -8.5258 39.8350 -1.5945
# 6 10.0849 -3.0876 0.5307 -4.8255 -1.5945 27.9441
#
#
#
# Elastic Compliance Matrix: (Units=1/GPa)
#
#
# Indices 1 2 3 4 5 6 
#
# 1 0.026356 -0.006440 -0.005321 -0.003967 -0.004891 -0.011087
# 2 -0.006440 0.010519 -0.002948 0.001235 0.001110 0.003819
# 3 -0.005321 -0.002948 0.012325 0.002271 -0.000063 0.001749
# 4 -0.003967 0.001235 0.002271 0.025988 0.006105 0.006361
# 5 -0.004891 0.001110 -0.000063 0.006105 0.027430 0.004508
# 6 -0.011087 0.003819 0.001749 0.006361 0.004508 0.041531
#
#
# Mechanical properties :
#
#
# Convention : Reuss Voigt Hill
#
# Bulk Modulus (GPa) = 50.54958 63.42756 56.98857
# Shear Modulus (GPa) = 27.75273 33.95463 30.85368
#
# Velocity S-wave (km/s) = 3.60561 3.98819 3.80172
# Velocity P-wave (km/s) = 6.40416 7.13579 6.77985
#
# Compressibility (1/GPa) = 0.01978256
#
# Stress axis : x y z
#
# Youngs Moduli (GPa) = 37.94132 95.06420 81.13410
#
# Poissons Ratio (x) = 0.61223 0.43171
# Poissons Ratio (y) = 0.24435 0.23919
# Poissons Ratio (z) = 0.20188 0.28026
#
# Static dielectric constant tensor:
#      x y z
#    x 3.904580 -0.125070 0.066060 
#    y -0.125070 4.058860 -0.092190 
#    z 0.066060 -0.092190 3.891200 
# 
# 
# High freq. dielectric constant tensor:
#      x y z
#    x 1.830330 -0.013880 0.003090 
#    y -0.013880 1.848700 -0.007120 
#    z 0.003090 -0.007120 1.837650 
# 
# From -- ./inp_files/333259.got.cif
#   From: 2010.06.25/outbox.cif.g09.slc.cpg/sg2_167_cif.got.tgz:333259.got - 2010.06.27 13:26:56.
