data_PCOD8006428
_publ_section_title
;
Structure prediction by ZEFSAII (Michael W. Deem and Ramdas Pophale) SiO2 
 PCOD8006428
Probable space group: P -1
;
_chemical_formula_sum "Si O2"
_cell_formula_units_Z 14
_cell_length_a 15.178554
_cell_length_b 11.620980
_cell_length_c 5.372341
_cell_angle_alpha 68.106835
_cell_angle_beta 99.236841
_cell_angle_gamma 47.815388
_cell_volume 522.374017
_symmetry_space_group_name_H-M "P -1"
_symmetry_group_IT_number 2
_symmetry_cell_setting 'triclinic'
loop_
_space_group_symop_operation_xyz
x,y,z
-x,-y,-z
loop_
_atom_site_type_symbol
_atom_site_label
_atom_site_fract_x
_atom_site_fract_y
_atom_site_fract_z
Si Si1 0.119839 0.287992 0.368539
Si Si2 0.634281 0.658708 0.892694
Si Si3 0.273233 0.346412 0.567624
Si Si4 0.670788 0.130359 0.402615
Si Si5 0.670190 0.278032 0.775270
Si Si6 0.965069 0.216751 0.450598
Si Si7 0.088070 0.792939 0.066325
O O1 0.205766 0.282814 0.601744
O O2 0.033467 0.275379 0.487122
O O3 0.237223 0.099571 0.378537
O O4 0.000000 0.500000 0.000000
O O5 0.621301 0.756615 0.058685
O O6 0.788627 0.413116 0.171923
O O7 0.631274 0.744645 0.570668
O O8 0.504514 0.701453 0.796430
O O9 0.138058 0.595524 0.313447
O O10 0.720534 0.148899 0.655303
O O11 0.708869 0.158018 0.138128
O O12 0.500000 0.500000 0.500000
O O13 0.756616 0.310637 0.807871
O O14 0.006396 0.075800 0.816815
O O15 0.022109 0.092398 0.316480
#
# Coordination Sequence:
#
# PCOD8006428 Si02
#       7
#     2   2   2   2   2   2   2
#     4  12  26  50  72 106 156 196 237 303 362 437
#     4  10  20  41  65 100 138 176 244 290 343 426
#     4  10  22  40  71 101 137 189 234 290 365 421
#     4  12  28  45  74 117 141 191 251 294 367 442
#     4  12  24  48  77 106 149 189 239 314 366 425
#     4  10  21  40  68 100 137 189 235 284 363 425
#     4  10  20  39  69  99 131 185 240 281 359 421
#
# _framework density 26.800718
#
# number of rings (size 3 to 8) (size 9 to 14) (size 15 to 20)
#    0.000    1.143    2.857    5.571    0.000    6.857 
#    0.000    4.286    0.000    0.000    0.000    0.000 
#    0.000    0.000    0.000    0.000    0.000    0.000 
#
# Total GULP energy -173640.281359 kJ/mol
# GULP energy per Si atom -12402.877240 kJ/mol
# Density = 2.673972 g / cm^3
# Si number density = 26.800718 Si / 1000 Ang^3
#
#
#
# Elastic Constant Matrix: (Units=GPa)
#
#
# Indices 1 2 3 4 5 6 
#
# 1 146.4940 36.2288 51.0901 38.7610 -19.6578 16.5028
# 2 36.2288 117.3917 58.6251 30.2727 -12.8960 10.6204
# 3 51.0901 58.6251 135.0917 45.1988 -13.2965 2.9471
# 4 38.7610 30.2727 45.1988 76.3169 -5.7401 1.9996
# 5 -19.6578 -12.8960 -13.2965 -5.7401 29.6704 15.4949
# 6 16.5028 10.6204 2.9471 1.9996 15.4949 41.2855
#
#
#
# Elastic Compliance Matrix: (Units=1/GPa)
#
#
# Indices 1 2 3 4 5 6 
#
# 1 0.010406 0.000298 -0.001829 -0.003413 0.009455 -0.007489
# 2 0.000298 0.012030 -0.003977 -0.001993 0.005894 -0.005045
# 3 -0.001829 -0.003977 0.011268 -0.004122 0.000886 0.000817
# 4 -0.003413 -0.001993 -0.004122 0.017800 -0.002754 0.002343
# 5 0.009455 0.005894 0.000886 -0.002754 0.056122 -0.026288
# 6 -0.007489 -0.005045 0.000817 0.002343 -0.026288 0.038207
#
#
# Mechanical properties :
#
#
# Convention : Reuss Voigt Hill
#
# Bulk Modulus (GPa) = 44.07287 76.76281 60.41784
# Shear Modulus (GPa) = 30.41160 46.32348 38.36754
#
# Velocity S-wave (km/s) = 3.37223 4.16196 3.78774
# Velocity P-wave (km/s) = 5.62521 7.19723 6.45922
#
# Compressibility (1/GPa) = 0.02268969
#
# Stress axis : x y z
#
# Youngs Moduli (GPa) = 96.10188 83.12453 88.74487
#
# Poissons Ratio (x) = -0.02479 0.16231
# Poissons Ratio (y) = -0.02866 0.35289
# Poissons Ratio (z) = 0.17576 0.33055
#
# Static dielectric constant tensor:
#      x y z
#    x 5.611220 1.113300 -0.229150 
#    y 1.113300 8.070970 0.494130 
#    z -0.229150 0.494130 5.356020 
# 
# 
# High freq. dielectric constant tensor:
#      x y z
#    x 2.092030 0.002100 0.003090 
#    y 0.002100 2.100810 0.012870 
#    z 0.003090 0.012870 2.081760 
# 
# From -- ./inp_files/94415.got.cif
#   From: 2010.06.25/outbox.cif.g09.slc.cpg/sg2_48_cif.got.tgz:94415.got - 2010.06.27 13:26:56.
