data_PCOD8006129
_publ_section_title
;
Structure prediction by ZEFSAII (Michael W. Deem and Ramdas Pophale) SiO2 
 PCOD8006129
Probable space group: P -1
;
_chemical_formula_sum "Si O2"
_cell_formula_units_Z 16
_cell_length_a 16.524876
_cell_length_b 10.590873
_cell_length_c 8.902287
_cell_angle_alpha 65.100117
_cell_angle_beta 66.281764
_cell_angle_gamma 31.531511
_cell_volume 735.956498
_symmetry_space_group_name_H-M "P -1"
_symmetry_group_IT_number 2
_symmetry_cell_setting 'triclinic'
loop_
_space_group_symop_operation_xyz
x,y,z
-x,-y,-z
loop_
_atom_site_type_symbol
_atom_site_label
_atom_site_fract_x
_atom_site_fract_y
_atom_site_fract_z
Si Si1 0.951346 0.823664 0.672726
Si Si2 0.783290 0.579325 0.115121
Si Si3 0.920171 0.161401 0.650762
Si Si4 0.152609 0.785813 0.892363
Si Si5 0.486699 0.385358 0.904929
Si Si6 0.689463 0.942026 0.780773
Si Si7 0.479243 0.135041 0.583628
Si Si8 0.594598 0.544322 0.756345
O O1 0.820270 0.888464 0.679975
O O2 0.042740 0.636399 0.837737
O O3 0.078757 0.694037 0.513649
O O4 0.883781 0.066792 0.631780
O O5 0.785577 0.450445 0.059315
O O6 0.659296 0.725220 0.269475
O O7 0.751914 0.754169 0.950915
O O8 0.768832 0.367079 0.768279
O O9 0.091151 0.927925 0.711144
O O10 0.306259 0.670514 0.885874
O O11 0.000000 0.000000 0.000000
O O12 0.594509 0.379736 0.806183
O O13 0.534057 0.212590 0.830868
O O14 0.513512 0.284850 0.102807
O O15 0.637510 0.939788 0.663159
O O16 0.453483 0.316674 0.430672
O O17 0.500000 0.000000 0.500000
#
# Coordination Sequence:
#
# PCOD8006129 Si02
#       8
#     2   2   2   2   2   2   2   2
#     4  10  22  41  66 100 130 176 221 281 337 402
#     4  11  24  44  70  98 133 185 226 275 343 410
#     4  10  20  39  65  94 136 167 219 274 342 397
#     4  11  23  39  68 100 133 176 224 277 341 409
#     4  11  24  41  69 105 133 175 229 286 338 407
#     4  12  25  43  70 101 136 181 236 278 335 412
#     4  12  27  44  66  99 140 184 228 283 342 402
#     4  11  23  42  66  98 138 175 222 286 341 399
#
# _framework density 21.740414999999999
#
# number of rings (size 3 to 8) (size 9 to 14) (size 15 to 20)
#    0.000    1.000    5.000    1.500    3.500    0.500 
#    0.000    1.875    0.000    0.000    0.000    0.000 
#    0.000    0.000    0.000    0.000    0.000    0.000 
#
# Total GULP energy -198235.689290 kJ/mol
# GULP energy per Si atom -12389.730581 kJ/mol
# Density = 2.169093 g / cm^3
# Si number density = 21.740415 Si / 1000 Ang^3
#
#
#
# Elastic Constant Matrix: (Units=GPa)
#
#
# Indices 1 2 3 4 5 6 
#
# 1 111.5922 45.7547 60.8684 4.9983 4.2384 -13.3544
# 2 45.7547 88.5256 45.3331 4.0044 -7.9830 -7.8340
# 3 60.8684 45.3331 134.1125 -4.0646 -19.0995 -1.4910
# 4 4.9983 4.0044 -4.0646 38.2933 0.9175 8.0546
# 5 4.2384 -7.9830 -19.0995 0.9175 32.1660 4.9599
# 6 -13.3544 -7.8340 -1.4910 8.0546 4.9599 40.2061
#
#
#
# Elastic Compliance Matrix: (Units=1/GPa)
#
#
# Indices 1 2 3 4 5 6 
#
# 1 0.015688 -0.004755 -0.006688 -0.003263 -0.008001 0.005677
# 2 -0.004755 0.015610 -0.002770 -0.001656 0.002694 0.001359
# 3 -0.006688 -0.002770 0.012651 0.003136 0.008223 -0.003935
# 4 -0.003263 -0.001656 0.003136 0.028524 0.002189 -0.007274
# 5 -0.008001 0.002694 0.008223 0.002189 0.038718 -0.007043
# 6 0.005677 0.001359 -0.003935 -0.007274 -0.007043 0.029202
#
#
# Mechanical properties :
#
#
# Convention : Reuss Voigt Hill
#
# Bulk Modulus (GPa) = 64.42157 70.90475 67.66316
# Shear Modulus (GPa) = 28.73659 34.28470 31.51065
#
# Velocity S-wave (km/s) = 3.63961 3.97546 3.81123
# Velocity P-wave (km/s) = 6.88178 7.33194 7.11042
#
# Compressibility (1/GPa) = 0.01552275
#
# Stress axis : x y z
#
# Youngs Moduli (GPa) = 63.74133 64.05970 79.04758
#
# Poissons Ratio (x) = 0.30461 0.52869
# Poissons Ratio (y) = 0.30310 0.21896
# Poissons Ratio (z) = 0.42632 0.17744
#
# Static dielectric constant tensor:
#      x y z
#    x 3.900680 -0.213110 0.150280 
#    y -0.213110 3.897460 -0.021030 
#    z 0.150280 -0.021030 4.171760 
# 
# 
# High freq. dielectric constant tensor:
#      x y z
#    x 1.845840 -0.016550 0.002610 
#    y -0.016550 1.847240 0.001750 
#    z 0.002610 0.001750 1.866890 
# 
# From -- ./inp_files/331688.got.cif
#   From: 2010.06.25/outbox.cif.g09.slc.cpg/sg2_166_cif.got.tgz:331688.got - 2010.06.27 13:26:56.
