data_PCOD8006058
_publ_section_title
;
Structure prediction by ZEFSAII (Michael W. Deem and Ramdas Pophale) SiO2 
 PCOD8006058
Probable space group: P -1
;
_chemical_formula_sum "Si O2"
_cell_formula_units_Z 16
_cell_length_a 10.179782
_cell_length_b 27.376076
_cell_length_c 12.391440
_cell_angle_alpha 27.439328
_cell_angle_beta 140.434345
_cell_angle_gamma 151.754486
_cell_volume 752.138508
_symmetry_space_group_name_H-M "P -1"
_symmetry_group_IT_number 2
_symmetry_cell_setting 'triclinic'
loop_
_space_group_symop_operation_xyz
x,y,z
-x,-y,-z
loop_
_atom_site_type_symbol
_atom_site_label
_atom_site_fract_x
_atom_site_fract_y
_atom_site_fract_z
Si Si1 0.563222 0.691145 0.205253
Si Si2 0.987627 0.996151 0.371745
Si Si3 0.093203 0.263308 0.854713
Si Si4 0.503951 0.116201 0.324342
Si Si5 0.022316 0.591430 0.628320
Si Si6 0.094652 0.341846 0.365950
Si Si7 0.598936 0.531045 0.166143
Si Si8 0.475822 0.328464 0.322119
O O1 0.627545 0.661833 0.185826
O O2 0.261027 0.548440 0.332746
O O3 0.787659 0.725239 0.368674
O O4 0.558359 0.817182 0.939243
O O5 0.730292 0.841698 0.462758
O O6 0.000000 0.000000 0.500000
O O7 0.275059 0.048396 0.406287
O O8 0.940113 0.101229 0.101258
O O9 0.891118 0.265054 0.649947
O O10 0.156218 0.357245 0.814882
O O11 0.807168 0.226427 0.350246
O O12 0.500000 0.000000 0.500000
O O13 0.967029 0.584534 0.733586
O O14 0.275212 0.603236 0.738319
O O15 0.307934 0.456950 0.185584
O O16 0.583732 0.403743 0.361480
O O17 0.678240 0.628235 0.920586
#
# Coordination Sequence:
#
# PCOD8006058 Si02
#       8
#     2   2   2   2   2   2   2   2
#     4  10  21  40  66  98 121 152 213 270 305 359
#     4  11  22  41  59  85 125 170 201 249 305 375
#     4  10  20  39  65  85 126 157 204 262 306 357
#     4  11  25  41  63  92 127 166 208 252 313 376
#     4  11  21  39  65  97 114 156 217 258 306 370
#     4  11  21  40  70  91 119 162 210 263 312 358
#     4  11  21  40  61  90 124 161 199 264 313 356
#     4  11  25  36  60  92 128 162 207 248 316 378
#
# _framework density 21.272676000000001
#
# number of rings (size 3 to 8) (size 9 to 14) (size 15 to 20)
#    0.000    1.250    3.750    3.000    1.750    3.500 
#    0.000    2.500    0.000    0.000    0.000    0.000 
#    0.000    0.000    0.000    0.000    0.000    0.000 
#
# Total GULP energy -198271.147453 kJ/mol
# GULP energy per Si atom -12391.946716 kJ/mol
# Density = 2.122426 g / cm^3
# Si number density = 21.272676 Si / 1000 Ang^3
#
#
#
# Elastic Constant Matrix: (Units=GPa)
#
#
# Indices 1 2 3 4 5 6 
#
# 1 83.3288 21.4976 24.5301 -16.6954 2.3424 -11.7442
# 2 21.4976 74.8721 19.7858 -10.9017 4.4599 -3.7649
# 3 24.5301 19.7858 97.2023 -10.6197 -5.6228 -7.9006
# 4 -16.6954 -10.9017 -10.6197 30.9410 -0.7109 4.1000
# 5 2.3424 4.4599 -5.6228 -0.7109 28.0743 -7.3145
# 6 -11.7442 -3.7649 -7.9006 4.1000 -7.3145 32.7984
#
#
#
# Elastic Compliance Matrix: (Units=1/GPa)
#
#
# Indices 1 2 3 4 5 6 
#
# 1 0.015089 -0.002659 -0.002326 0.005905 -0.000173 0.003761
# 2 -0.002659 0.015328 -0.002324 0.003207 -0.002800 -0.000778
# 3 -0.002326 -0.002324 0.011945 0.001796 0.003616 0.002360
# 4 0.005905 0.003207 0.001796 0.037488 -0.000164 -0.001808
# 5 -0.000173 -0.002800 0.003616 -0.000164 0.039210 0.009252
# 6 0.003761 -0.000778 0.002360 -0.001808 0.009252 0.034604
#
#
# Mechanical properties :
#
#
# Convention : Reuss Voigt Hill
#
# Bulk Modulus (GPa) = 36.04211 43.00336 39.52274
# Shear Modulus (GPa) = 28.16422 31.00205 29.58313
#
# Velocity S-wave (km/s) = 3.64258 3.82169 3.73321
# Velocity P-wave (km/s) = 5.88820 6.30340 6.09933
#
# Compressibility (1/GPa) = 0.02774532
#
# Stress axis : x y z
#
# Youngs Moduli (GPa) = 66.27271 65.23894 83.71659
#
# Poissons Ratio (x) = 0.17345 0.19472
# Poissons Ratio (y) = 0.17620 0.19455
# Poissons Ratio (z) = 0.15415 0.15161
#
# Static dielectric constant tensor:
#      x y z
#    x 3.940650 0.015070 0.030670 
#    y 0.015070 3.417670 -0.070150 
#    z 0.030670 -0.070150 4.064840 
# 
# 
# High freq. dielectric constant tensor:
#      x y z
#    x 1.835620 -0.000710 -0.004750 
#    y -0.000710 1.813800 -0.005150 
#    z -0.004750 -0.005150 1.841340 
# 
# From -- ./inp_files/225955.got.cif
#   From: 2010.06.25/outbox.cif.g09.slc.cpg/sg2_113_cif.got.tgz:225955.got - 2010.06.27 13:26:56.
