data_PCOD8006164
_publ_section_title
;
Structure prediction by ZEFSAII (Michael W. Deem and Ramdas Pophale) SiO2 
 PCOD8006164
Probable space group: P -1
;
_chemical_formula_sum "Si O2"
_cell_formula_units_Z 16
_cell_length_a 23.539335
_cell_length_b 8.392294
_cell_length_c 20.810382
_cell_angle_alpha 137.736838
_cell_angle_beta 21.331653
_cell_angle_gamma 147.831243
_cell_volume 770.916207
_symmetry_space_group_name_H-M "P -1"
_symmetry_group_IT_number 2
_symmetry_cell_setting 'triclinic'
loop_
_space_group_symop_operation_xyz
x,y,z
-x,-y,-z
loop_
_atom_site_type_symbol
_atom_site_label
_atom_site_fract_x
_atom_site_fract_y
_atom_site_fract_z
Si Si1 0.341481 0.141291 0.573384
Si Si2 0.431464 0.421263 0.817134
Si Si3 0.962467 0.263351 0.840405
Si Si4 0.952755 0.773424 0.786029
Si Si5 0.117325 0.454743 0.477270
Si Si6 0.528548 0.923567 0.228175
Si Si7 0.697350 0.038749 0.297803
Si Si8 0.886941 0.831876 0.470306
O O1 0.500000 0.500000 0.500000
O O2 0.457634 0.020788 0.390650
O O3 0.275888 0.069674 0.695352
O O4 0.132078 0.978173 0.708915
O O5 0.441917 0.301111 0.838243
O O6 0.666922 0.719997 0.643985
O O7 0.328483 0.174030 0.794862
O O8 0.267569 0.470181 0.018804
O O9 0.117713 0.605655 0.808589
O O10 0.023084 0.264044 0.703981
O O11 0.963863 0.018991 0.804366
O O12 0.746201 0.193036 0.047232
O O13 0.983389 0.563447 0.650078
O O14 0.355808 0.752164 0.302822
O O15 0.118225 0.325185 0.506425
O O16 0.032745 0.201704 0.435357
O O17 0.500000 0.000000 0.500000
#
# Coordination Sequence:
#
# PCOD8006164 Si02
#       8
#     2   2   2   2   2   2   2   2
#     4  11  23  39  56  83 121 156 190 241 289 331
#     4  10  21  37  60  85 115 159 194 235 285 354
#     4  11  22  36  61  87 113 159 196 231 287 359
#     4  10  23  38  55  88 122 145 196 245 291 333
#     4   9  20  42  61  84 117 150 192 255 287 337
#     4   9  20  38  57  82 119 150 195 235 291 343
#     4  12  21  38  61  83 119 158 198 229 281 356
#     4  10  20  39  66  82 110 161 199 230 299 347
#
# _framework density 20.754527
#
# number of rings (size 3 to 8) (size 9 to 14) (size 15 to 20)
#    0.000    1.750    2.500    2.250    1.750    3.000 
#    2.250    0.000    0.000    0.000    0.000    0.000 
#    0.000    0.000    0.000    0.000    0.000    0.000 
#
# Total GULP energy -198278.352099 kJ/mol
# GULP energy per Si atom -12392.397006 kJ/mol
# Density = 2.070729 g / cm^3
# Si number density = 20.754527 Si / 1000 Ang^3
#
#
#
# Elastic Constant Matrix: (Units=GPa)
#
#
# Indices 1 2 3 4 5 6 
#
# 1 46.5362 17.0492 19.4504 -1.8231 -3.9307 10.2505
# 2 17.0492 95.8750 32.4587 -12.5569 -12.8032 19.4531
# 3 19.4504 32.4587 151.7993 -19.1147 -17.3264 16.2934
# 4 -1.8231 -12.5569 -19.1147 26.4855 -1.8830 -4.3759
# 5 -3.9307 -12.8032 -17.3264 -1.8830 21.5381 -0.3262
# 6 10.2505 19.4531 16.2934 -4.3759 -0.3262 33.8837
#
#
#
# Elastic Compliance Matrix: (Units=1/GPa)
#
#
# Indices 1 2 3 4 5 6 
#
# 1 0.024503 -0.002743 -0.002159 -0.001944 0.000858 -0.005042
# 2 -0.002743 0.014147 -0.000350 0.005797 0.008039 -0.006298
# 3 -0.002159 -0.000350 0.008768 0.006093 0.006946 -0.002509
# 4 -0.001944 0.005797 0.006093 0.045678 0.011991 0.000345
# 5 0.000858 0.008039 0.006946 0.011991 0.057908 -0.006109
# 6 -0.005042 -0.006298 -0.002509 0.000345 -0.006109 0.035846
#
#
# Mechanical properties :
#
#
# Convention : Reuss Voigt Hill
#
# Bulk Modulus (GPa) = 27.08966 48.01411 37.55189
# Shear Modulus (GPa) = 23.84817 31.39828 27.62323
#
# Velocity S-wave (km/s) = 3.39345 3.89374 3.65218
# Velocity P-wave (km/s) = 5.33243 6.58783 5.99309
#
# Compressibility (1/GPa) = 0.03691445
#
# Stress axis : x y z
#
# Youngs Moduli (GPa) = 40.81140 70.68561 114.04498
#
# Poissons Ratio (x) = 0.19392 0.24618
# Poissons Ratio (y) = 0.11196 0.03992
# Poissons Ratio (z) = 0.08810 0.02474
#
# Static dielectric constant tensor:
#      x y z
#    x 3.289800 0.107510 -0.270290 
#    y 0.107510 3.828590 -0.200070 
#    z -0.270290 -0.200070 4.293950 
# 
# 
# High freq. dielectric constant tensor:
#      x y z
#    x 1.797610 0.010600 -0.011780 
#    y 0.010600 1.805760 -0.008470 
#    z -0.011780 -0.008470 1.826520 
# 
# From -- ./inp_files/177372.got.cif
#   From: 2010.06.25/outbox.cif.g09.slc.cpg/sg2_89_cif.got.tgz:177372.got - 2010.06.27 13:26:56.
