data_PCOD8006528
_publ_section_title
;
Structure prediction by ZEFSAII (Michael W. Deem and Ramdas Pophale) SiO2 
 PCOD8006528
Probable space group: P -1
;
_chemical_formula_sum "Si O2"
_cell_formula_units_Z 14
_cell_length_a 13.559713
_cell_length_b 13.840577
_cell_length_c 12.979977
_cell_angle_alpha 37.708485
_cell_angle_beta 30.530309
_cell_angle_gamma 32.046535
_cell_volume 639.563792
_symmetry_space_group_name_H-M "P -1"
_symmetry_group_IT_number 2
_symmetry_cell_setting 'triclinic'
loop_
_space_group_symop_operation_xyz
x,y,z
-x,-y,-z
loop_
_atom_site_type_symbol
_atom_site_label
_atom_site_fract_x
_atom_site_fract_y
_atom_site_fract_z
Si Si1 0.587276 0.129959 0.190879
Si Si2 0.679932 0.438778 0.602607
Si Si3 0.320357 0.352618 0.069505
Si Si4 0.444173 0.831050 0.579212
Si Si5 0.946137 0.049537 0.766948
Si Si6 0.876984 0.555318 0.175250
Si Si7 0.612689 0.975903 0.027851
O O1 0.382130 0.327968 0.156665
O O2 0.617654 0.176099 0.240318
O O3 0.538628 0.965083 0.368409
O O4 0.822799 0.055742 0.979511
O O5 0.633741 0.622068 0.549939
O O6 0.897531 0.255727 0.613547
O O7 0.743161 0.452408 0.413984
O O8 0.460625 0.419748 0.819429
O O9 0.058372 0.497087 0.154944
O O10 0.407482 0.138032 0.143234
O O11 0.215924 0.902571 0.656109
O O12 0.837014 0.993276 0.818054
O O13 0.689392 0.773041 0.171535
O O14 0.000000 0.500000 0.000000
O O15 0.500000 0.000000 0.000000
#
# Coordination Sequence:
#
# PCOD8006528 Si02
#       7
#     2   2   2   2   2   2   2
#     4   9  21  38  65  91 126 161 197 250 297 365
#     4  10  23  38  60  90 120 156 204 250 293 364
#     4  10  22  42  58  89 127 152 199 255 299 354
#     4  11  20  40  64  92 123 163 202 242 306 357
#     4  10  22  40  62  89 129 159 200 249 302 357
#     4  12  23  39  64  83 116 163 202 248 309 354
#     4  10  20  40  60  86 115 159 199 247 301 351
#
# _framework density 21.88992
#
# number of rings (size 3 to 8) (size 9 to 14) (size 15 to 20)
#    0.000    2.000    1.429    3.857    0.000    2.857 
#    0.000   12.143    0.000    0.000    0.000    0.000 
#    0.000    0.000    0.000    0.000    0.000    0.000 
#
# Total GULP energy -173466.618964 kJ/mol
# GULP energy per Si atom -12390.472783 kJ/mol
# Density = 2.184010 g / cm^3
# Si number density = 21.889920 Si / 1000 Ang^3
#
#
#
# Elastic Constant Matrix: (Units=GPa)
#
#
# Indices 1 2 3 4 5 6 
#
# 1 105.4130 44.3284 32.5808 -9.7206 2.9440 -12.6317
# 2 44.3284 89.5950 47.3945 -13.6642 9.7995 -20.5436
# 3 32.5808 47.3945 119.0414 -17.8791 27.9294 2.3258
# 4 -9.7206 -13.6642 -17.8791 22.0969 -3.7661 6.8874
# 5 2.9440 9.7995 27.9294 -3.7661 25.8451 4.1331
# 6 -12.6317 -20.5436 2.3258 6.8874 4.1331 37.3917
#
#
#
# Elastic Compliance Matrix: (Units=1/GPa)
#
#
# Indices 1 2 3 4 5 6 
#
# 1 0.012299 -0.004992 -0.001833 0.000916 0.002432 0.001089
# 2 -0.004992 0.019256 -0.005809 0.001901 -0.001630 0.009084
# 3 -0.001833 -0.005809 0.015297 0.007369 -0.012284 -0.004762
# 4 0.000916 0.001901 0.007369 0.055906 0.000877 -0.009499
# 5 0.002432 -0.001630 -0.012284 0.000877 0.053293 -0.005362
# 6 0.001089 0.009084 -0.004762 -0.009499 -0.005362 0.034741
#
#
# Mechanical properties :
#
#
# Convention : Reuss Voigt Hill
#
# Bulk Modulus (GPa) = 46.33448 62.51740 54.42594
# Shear Modulus (GPa) = 22.39580 29.71645 26.05613
#
# Velocity S-wave (km/s) = 3.20208 3.68848 3.45385
# Velocity P-wave (km/s) = 5.90627 6.83826 6.38928
#
# Compressibility (1/GPa) = 0.02158220
#
# Stress axis : x y z
#
# Youngs Moduli (GPa) = 81.30472 51.93257 65.37301
#
# Poissons Ratio (x) = 0.25927 0.11983
# Poissons Ratio (y) = 0.40591 0.37978
# Poissons Ratio (z) = 0.14903 0.30170
#
# Static dielectric constant tensor:
#      x y z
#    x 4.648910 0.009360 0.412590 
#    y 0.009360 4.017890 -0.169520 
#    z 0.412590 -0.169520 4.177650 
# 
# 
# High freq. dielectric constant tensor:
#      x y z
#    x 1.847360 -0.017790 0.011440 
#    y -0.017790 1.858560 -0.013180 
#    z 0.011440 -0.013180 1.870610 
# 
# From -- ./inp_files/534041.got.cif
#   From: 2010.06.25/outbox.cif.g09.slc.cpg/sg2_268_cif.got.tgz:534041.got - 2010.06.27 13:26:56.
