data_PCOD8006470
_publ_section_title
;
Structure prediction by ZEFSAII (Michael W. Deem and Ramdas Pophale) SiO2 
 PCOD8006470
Probable space group: P -1
;
_chemical_formula_sum "Si O2"
_cell_formula_units_Z 16
_cell_length_a 16.159593
_cell_length_b 8.023340
_cell_length_c 9.027125
_cell_angle_alpha 77.553112
_cell_angle_beta 106.634433
_cell_angle_gamma 141.301631
_cell_volume 701.075015
_symmetry_space_group_name_H-M "P -1"
_symmetry_group_IT_number 2
_symmetry_cell_setting 'triclinic'
loop_
_space_group_symop_operation_xyz
x,y,z
-x,-y,-z
loop_
_atom_site_type_symbol
_atom_site_label
_atom_site_fract_x
_atom_site_fract_y
_atom_site_fract_z
Si Si1 0.193655 0.071165 0.238751
Si Si2 0.445100 0.999045 0.271378
Si Si3 0.919925 0.212509 0.068835
Si Si4 0.995990 0.010607 0.319122
Si Si5 0.524629 0.336243 0.730276
Si Si6 0.323455 0.954103 0.938977
Si Si7 0.739085 0.407023 0.258017
Si Si8 0.697103 0.060857 0.520494
O O1 0.353677 0.347613 0.258107
O O2 0.189376 0.878499 0.350685
O O3 0.121420 0.098235 0.300482
O O4 0.124429 0.963777 0.063877
O O5 0.600875 0.285438 0.265551
O O6 0.419376 0.761948 0.271673
O O7 0.400973 0.976656 0.418346
O O8 0.349351 0.964672 0.123129
O O9 0.006098 0.220011 0.221244
O O10 0.793144 0.081632 0.125924
O O11 0.000000 0.500000 0.000000
O O12 0.854893 0.722175 0.243371
O O13 0.000000 0.000000 0.500000
O O14 0.459875 0.229035 0.880834
O O15 0.404110 0.208864 0.580447
O O16 0.279482 0.707195 0.890496
O O17 0.779484 0.317923 0.410538
#
# Coordination Sequence:
#
# PCOD8006470 Si02
#       8
#     2   2   2   2   2   2   2   2
#     4  12  27  45  71  99 144 182 233 285 348 408
#     4  10  20  39  73 102 135 181 223 281 350 409
#     4  12  29  50  71  99 141 186 237 284 345 417
#     4  12  32  46  72 100 135 188 235 293 341 413
#     4  10  23  39  69 104 145 170 230 281 349 403
#     4  10  22  43  72 102 134 181 225 283 347 412
#     4  10  23  44  69  99 145 170 234 276 348 406
#     4  10  22  42  70 104 136 185 216 293 340 415
#
# _framework density 22.822092999999999
#
# number of rings (size 3 to 8) (size 9 to 14) (size 15 to 20)
#    0.000    1.500    1.250    4.500   14.000    2.000 
#    0.000    0.000    0.000    0.000    0.000    0.000 
#    0.000    0.000    0.000    0.000    0.000    0.000 
#
# Total GULP energy -198419.185803 kJ/mol
# GULP energy per Si atom -12401.199113 kJ/mol
# Density = 2.277015 g / cm^3
# Si number density = 22.822093 Si / 1000 Ang^3
#
#
#
# Elastic Constant Matrix: (Units=GPa)
#
#
# Indices 1 2 3 4 5 6 
#
# 1 96.2528 13.0312 16.2882 -9.1850 10.7666 -1.8140
# 2 13.0312 87.6895 22.6315 -13.1477 -5.3943 -0.4031
# 3 16.2882 22.6315 113.1287 -3.3692 7.1761 -7.9634
# 4 -9.1850 -13.1477 -3.3692 22.0758 -5.2595 4.2925
# 5 10.7666 -5.3943 7.1761 -5.2595 44.6631 -0.8789
# 6 -1.8140 -0.4031 -7.9634 4.2925 -0.8789 15.8772
#
#
#
# Elastic Compliance Matrix: (Units=1/GPa)
#
#
# Indices 1 2 3 4 5 6 
#
# 1 0.011303 -0.000986 -0.001213 0.003474 -0.002248 -0.000405
# 2 -0.000986 0.013785 -0.002801 0.008819 0.003325 -0.003368
# 3 -0.001213 -0.002801 0.009997 -0.002100 -0.001796 0.005273
# 4 0.003474 0.008819 -0.002100 0.056287 0.006893 -0.015268
# 5 -0.002248 0.003325 -0.001796 0.006893 0.024402 -0.001586
# 6 -0.000405 -0.003368 0.005273 -0.015268 -0.001586 0.069536
#
#
# Mechanical properties :
#
#
# Convention : Reuss Voigt Hill
#
# Bulk Modulus (GPa) = 39.86373 44.55254 42.20813
# Shear Modulus (GPa) = 24.54936 32.86456 28.70696
#
# Velocity S-wave (km/s) = 3.28332 3.79889 3.55048
# Velocity P-wave (km/s) = 5.64612 6.22946 5.94495
#
# Compressibility (1/GPa) = 0.02508546
#
# Stress axis : x y z
#
# Youngs Moduli (GPa) = 88.46957 72.54462 100.03041
#
# Poissons Ratio (x) = 0.07153 0.12130
# Poissons Ratio (y) = 0.08724 0.28018
# Poissons Ratio (z) = 0.10728 0.20320
#
# Static dielectric constant tensor:
#      x y z
#    x 4.007720 0.028790 0.005950 
#    y 0.028790 3.880390 0.007110 
#    z 0.005950 0.007110 4.205690 
# 
# 
# High freq. dielectric constant tensor:
#      x y z
#    x 1.902850 0.004090 -0.002400 
#    y 0.004090 1.881730 0.000120 
#    z -0.002400 0.000120 1.916140 
# 
# From -- ./inp_files/328742.got.cif
#   From: 2010.06.25/outbox.cif.g09.slc.cpg/sg2_165_cif.got.tgz:328742.got - 2010.06.27 13:26:56.
