data_PCOD8006226
_publ_section_title
;
Structure prediction by ZEFSAII (Michael W. Deem and Ramdas Pophale) SiO2 
 PCOD8006226
Probable space group: P -1
;
_chemical_formula_sum "Si O2"
_cell_formula_units_Z 16
_cell_length_a 9.338199
_cell_length_b 27.343156
_cell_length_c 21.493138
_cell_angle_alpha 161.533176
_cell_angle_beta 27.347543
_cell_angle_gamma 142.292444
_cell_volume 747.184513
_symmetry_space_group_name_H-M "P -1"
_symmetry_group_IT_number 2
_symmetry_cell_setting 'triclinic'
loop_
_space_group_symop_operation_xyz
x,y,z
-x,-y,-z
loop_
_atom_site_type_symbol
_atom_site_label
_atom_site_fract_x
_atom_site_fract_y
_atom_site_fract_z
Si Si1 0.433579 0.536945 0.886115
Si Si2 0.841120 0.864164 0.230440
Si Si3 0.227136 0.321554 0.173701
Si Si4 0.791917 0.178816 0.087552
Si Si5 0.240172 0.952521 0.291543
Si Si6 0.783416 0.833629 0.643660
Si Si7 0.316840 0.232541 0.528952
Si Si8 0.516580 0.617122 0.080474
O O1 0.533041 0.654830 0.943141
O O2 0.538580 0.348655 0.593279
O O3 0.634120 0.520750 0.854088
O O4 0.049038 0.630685 0.161582
O O5 0.758272 0.720121 0.124671
O O6 0.024221 0.941833 0.301987
O O7 0.500000 0.000000 0.500000
O O8 0.099108 0.783833 0.977612
O O9 0.000000 0.500000 0.500000
O O10 0.010928 0.221412 0.107183
O O11 0.450842 0.215570 0.016085
O O12 0.393826 0.265967 0.363285
O O13 0.819764 0.988475 0.852913
O O14 0.380037 0.098714 0.398564
O O15 0.000000 0.000000 0.500000
O O16 0.582586 0.866760 0.695146
O O17 0.143417 0.736746 0.362546
O O18 0.500000 0.500000 0.000000
#
# Coordination Sequence:
#
# PCOD8006226 Si02
#       8
#     2   2   2   2   2   2   2   2
#     4  10  21  40  63  93 136 178 216 282 350 397
#     4  12  22  44  73 102 132 176 236 289 336 408
#     4  12  26  45  65 100 143 187 224 283 354 413
#     4  11  22  43  71  91 132 183 225 275 347 406
#     4  12  25  41  71 106 132 180 243 282 333 419
#     4  10  22  41  68  97 128 180 230 281 343 400
#     4  10  20  39  66  94 128 171 230 282 337 401
#     4  11  24  39  64 101 133 173 230 284 339 406
#
# _framework density 21.413719
#
# number of rings (size 3 to 8) (size 9 to 14) (size 15 to 20)
#    0.000    1.000    5.000    2.250    1.750    2.000 
#    2.250    3.750    0.000    0.000    0.000    0.000 
#    0.000    0.000    0.000    0.000    0.000    0.000 
#
# Total GULP energy -198235.018475 kJ/mol
# GULP energy per Si atom -12389.688655 kJ/mol
# Density = 2.136498 g / cm^3
# Si number density = 21.413719 Si / 1000 Ang^3
#
#
#
# Elastic Constant Matrix: (Units=GPa)
#
#
# Indices 1 2 3 4 5 6 
#
# 1 107.6386 33.6549 35.7210 15.5740 14.5075 7.7178
# 2 33.6549 153.3675 24.5917 14.1494 5.3770 -0.2792
# 3 35.7210 24.5917 64.9389 11.8757 12.7292 8.3884
# 4 15.5740 14.1494 11.8757 41.4284 -6.4222 3.7234
# 5 14.5075 5.3770 12.7292 -6.4222 28.0618 4.1954
# 6 7.7178 -0.2792 8.3884 3.7234 4.1954 38.0228
#
#
#
# Elastic Compliance Matrix: (Units=1/GPa)
#
#
# Indices 1 2 3 4 5 6 
#
# 1 0.012505 -0.001507 -0.004638 -0.003540 -0.004785 -0.000651
# 2 -0.001507 0.007281 -0.001692 -0.001572 -0.000346 0.000925
# 3 -0.004638 -0.001692 0.021275 -0.004741 -0.007646 -0.002456
# 4 -0.003540 -0.001572 -0.004741 0.029337 0.011351 -0.002372
# 5 -0.004785 -0.000346 -0.007646 0.011351 0.044749 -0.003394
# 6 -0.000651 0.000925 -0.002456 -0.002372 -0.003394 0.027588
#
#
# Mechanical properties :
#
#
# Convention : Reuss Voigt Hill
#
# Bulk Modulus (GPa) = 39.39413 57.09782 48.24598
# Shear Modulus (GPa) = 29.96312 36.96775 33.46544
#
# Velocity S-wave (km/s) = 3.74471 4.15945 3.95752
# Velocity P-wave (km/s) = 6.09375 7.05621 6.59257
#
# Compressibility (1/GPa) = 0.02538449
#
# Stress axis : x y z
#
# Youngs Moduli (GPa) = 79.97075 137.33940 47.00452
#
# Poissons Ratio (x) = 0.20699 0.21802
# Poissons Ratio (y) = 0.12053 0.07955
# Poissons Ratio (z) = 0.37093 0.23243
#
# Static dielectric constant tensor:
#      x y z
#    x 4.056260 0.012360 0.462370 
#    y 0.012360 4.331050 -0.200920 
#    z 0.462370 -0.200920 3.893350 
# 
# 
# High freq. dielectric constant tensor:
#      x y z
#    x 1.831950 0.003420 0.031330 
#    y 0.003420 1.865530 -0.004430 
#    z 0.031330 -0.004430 1.817500 
# 
# From -- ./inp_files/305639.got.cif
#   From: 2010.06.25/outbox.cif.g09.slc.cpg/sg2_153_cif.got.tgz:305639.got - 2010.06.27 13:26:56.
