data_PCOD8006291
_publ_section_title
;
Structure prediction by ZEFSAII (Michael W. Deem and Ramdas Pophale) SiO2 
 PCOD8006291
Probable space group: P -1
;
_chemical_formula_sum "Si O2"
_cell_formula_units_Z 16
_cell_length_a 21.102849
_cell_length_b 6.059942
_cell_length_c 18.991343
_cell_angle_alpha 112.593185
_cell_angle_beta 160.299394
_cell_angle_gamma 68.450100
_cell_volume 755.756970
_symmetry_space_group_name_H-M "P -1"
_symmetry_group_IT_number 2
_symmetry_cell_setting 'triclinic'
loop_
_space_group_symop_operation_xyz
x,y,z
-x,-y,-z
loop_
_atom_site_type_symbol
_atom_site_label
_atom_site_fract_x
_atom_site_fract_y
_atom_site_fract_z
Si Si1 0.285556 0.556743 0.577478
Si Si2 0.636645 0.661118 0.577869
Si Si3 0.191386 0.371028 0.599661
Si Si4 0.672078 0.711135 0.780014
Si Si5 0.889709 0.152926 0.345265
Si Si6 0.896780 0.278282 0.732562
Si Si7 0.500761 0.002640 0.085181
Si Si8 0.374743 0.087731 0.542159
O O1 0.160107 0.453040 0.496759
O O2 0.150324 0.675051 0.392584
O O3 0.425189 0.749176 0.778276
O O4 0.409543 0.343342 0.646024
O O5 0.679544 0.770233 0.712191
O O6 0.430902 0.540583 0.346350
O O7 0.800918 0.470593 0.707784
O O8 0.643901 0.879483 0.557488
O O9 0.191775 0.599527 0.678573
O O10 0.024205 0.196270 0.425022
O O11 0.386455 0.225356 0.794112
O O12 0.552742 0.914185 0.722160
O O13 0.880201 0.707104 0.027617
O O14 0.000000 0.000000 0.500000
O O15 0.713752 0.008165 0.114215
O O16 0.817845 0.020686 0.641471
O O17 0.500000 0.000000 0.000000
#
# Coordination Sequence:
#
# PCOD8006291 Si02
#       8
#     2   2   2   2   2   2   2   2
#     4  11  24  43  61  87 130 172 209 258 325 379
#     4   9  20  38  64  99 126 163 212 266 311 368
#     4  11  23  42  67  92 124 158 207 264 323 386
#     4  10  20  39  67  93 128 166 213 262 311 367
#     4  11  23  41  66  99 121 149 206 269 319 384
#     4  10  22  41  61  90 133 168 211 258 313 382
#     4  12  23  43  70  91 124 163 208 270 323 378
#     4  10  22  40  60  90 131 167 213 260 312 385
#
# _framework density 21.170826999999999
#
# number of rings (size 3 to 8) (size 9 to 14) (size 15 to 20)
#    0.000    1.500    2.500    1.875    0.000    2.500 
#    0.000   23.750    0.000    0.000    0.000    0.000 
#    0.000    0.000    0.000    0.000    0.000    0.000 
#
# Total GULP energy -198442.875032 kJ/mol
# GULP energy per Si atom -12402.679690 kJ/mol
# Density = 2.112264 g / cm^3
# Si number density = 21.170827 Si / 1000 Ang^3
#
#
#
# Elastic Constant Matrix: (Units=GPa)
#
#
# Indices 1 2 3 4 5 6 
#
# 1 124.0197 32.4318 69.6738 4.5665 -6.3905 35.0866
# 2 32.4318 96.4320 58.2233 0.9641 -1.8413 13.5266
# 3 69.6738 58.2233 170.4450 6.5670 13.9980 11.4763
# 4 4.5665 0.9641 6.5670 21.9085 -3.6139 -1.8235
# 5 -6.3905 -1.8413 13.9980 -3.6139 33.7275 1.4262
# 6 35.0866 13.5266 11.4763 -1.8235 1.4262 43.9514
#
#
#
# Elastic Compliance Matrix: (Units=1/GPa)
#
#
# Indices 1 2 3 4 5 6 
#
# 1 0.014450 0.000110 -0.005641 -0.001297 0.005383 -0.010325
# 2 0.000110 0.013720 -0.004810 0.001053 0.003011 -0.003109
# 3 -0.005641 -0.004810 0.010165 -0.002355 -0.005947 0.003425
# 4 -0.001297 0.001053 -0.002355 0.047787 0.005778 0.003122
# 5 0.005383 0.003011 -0.005947 0.005778 0.034113 -0.004538
# 6 -0.010325 -0.003109 0.003425 0.003122 -0.004538 0.031334
#
#
# Mechanical properties :
#
#
# Convention : Reuss Voigt Hill
#
# Bulk Modulus (GPa) = 56.65030 79.06160 67.85595
# Shear Modulus (GPa) = 28.06843 35.28866 31.67855
#
# Velocity S-wave (km/s) = 3.64511 4.08714 3.87244
# Velocity P-wave (km/s) = 6.67327 7.72649 7.21911
#
# Compressibility (1/GPa) = 0.01765216
#
# Stress axis : x y z
#
# Youngs Moduli (GPa) = 69.20519 72.88459 98.37829
#
# Poissons Ratio (x) = -0.00805 0.55499
# Poissons Ratio (y) = -0.00764 0.47324
# Poissons Ratio (z) = 0.39041 0.35061
#
# Static dielectric constant tensor:
#      x y z
#    x 4.133140 0.141230 0.044550 
#    y 0.141230 3.977980 0.045000 
#    z 0.044550 0.045000 3.765960 
# 
# 
# High freq. dielectric constant tensor:
#      x y z
#    x 1.841960 0.007530 0.005180 
#    y 0.007530 1.840700 -0.001720 
#    z 0.005180 -0.001720 1.809440 
# 
# From -- ./inp_files/48019.got.cif
#   From: 2010.06.25/outbox.cif.g09.slc.cpg/sg2_25_cif.got.tgz:48019.got - 2010.06.27 13:26:56.
