data_PCOD8006468
_publ_section_title
;
Structure prediction by ZEFSAII (Michael W. Deem and Ramdas Pophale) SiO2 
 PCOD8006468
Probable space group: P -1
;
_chemical_formula_sum "Si O2"
_cell_formula_units_Z 16
_cell_length_a 11.612924
_cell_length_b 9.414564
_cell_length_c 18.218516
_cell_angle_alpha 131.577905
_cell_angle_beta 30.044308
_cell_angle_gamma 114.834027
_cell_volume 679.586750
_symmetry_space_group_name_H-M "P -1"
_symmetry_group_IT_number 2
_symmetry_cell_setting 'triclinic'
loop_
_space_group_symop_operation_xyz
x,y,z
-x,-y,-z
loop_
_atom_site_type_symbol
_atom_site_label
_atom_site_fract_x
_atom_site_fract_y
_atom_site_fract_z
Si Si1 0.442162 0.138687 0.483688
Si Si2 0.851172 0.708920 0.698161
Si Si3 0.420402 0.327919 0.900784
Si Si4 0.140760 0.563796 0.273730
Si Si5 0.558809 0.858389 0.680229
Si Si6 0.701184 0.203357 0.500103
Si Si7 0.934954 0.419592 0.934390
Si Si8 0.567177 0.299960 0.164234
O O1 0.505210 0.185376 0.382458
O O2 0.663371 0.136117 0.414744
O O3 0.179149 0.318348 0.715028
O O4 0.409672 0.920168 0.426612
O O5 0.829678 0.646147 0.772481
O O6 0.582097 0.809982 0.838953
O O7 0.000000 0.500000 0.500000
O O8 0.001122 0.858388 0.668632
O O9 0.689532 0.338777 0.744049
O O10 0.471348 0.101875 0.824885
O O11 0.243909 0.505181 0.114891
O O12 0.272377 0.382360 0.924638
O O13 0.854831 0.734686 0.491000
O O14 0.397804 0.786357 0.801516
O O15 0.561056 0.449458 0.673956
O O16 0.828538 0.247389 0.958218
O O17 0.000000 0.500000 0.000000
#
# Coordination Sequence:
#
# PCOD8006468 Si02
#       8
#     2   2   2   2   2   2   2   2
#     4  11  25  42  71 101 132 187 233 277 343 417
#     4  10  20  39  72  95 132 177 224 288 339 402
#     4  11  26  43  68 102 142 178 234 285 338 418
#     4  11  22  44  68 101 139 182 227 288 348 401
#     4  12  25  43  70 103 138 183 226 284 353 403
#     4  10  22  43  67  97 130 178 238 272 336 413
#     4  12  24  46  69  97 142 183 229 284 336 416
#     4  11  23  44  68 102 137 177 227 287 347 402
#
# _framework density 23.54372
#
# number of rings (size 3 to 8) (size 9 to 14) (size 15 to 20)
#    0.000    1.000    6.250    1.125    3.500    2.500 
#    2.250    1.875    0.000    0.000    0.000    0.000 
#    0.000    0.000    0.000    0.000    0.000    0.000 
#
# Total GULP energy -198365.095740 kJ/mol
# GULP energy per Si atom -12397.818484 kJ/mol
# Density = 2.349013 g / cm^3
# Si number density = 23.543720 Si / 1000 Ang^3
#
#
#
# Elastic Constant Matrix: (Units=GPa)
#
#
# Indices 1 2 3 4 5 6 
#
# 1 142.4404 44.0606 12.8966 -12.9705 -6.3527 -1.2264
# 2 44.0606 106.2228 17.3821 -7.6257 2.5904 -3.3659
# 3 12.8966 17.3821 37.3103 -4.1833 -0.6735 -1.8754
# 4 -12.9705 -7.6257 -4.1833 37.2766 1.5683 0.6617
# 5 -6.3527 2.5904 -0.6735 1.5683 22.4273 -8.2100
# 6 -1.2264 -3.3659 -1.8754 0.6617 -8.2100 52.6204
#
#
#
# Elastic Compliance Matrix: (Units=1/GPa)
#
#
# Indices 1 2 3 4 5 6 
#
# 1 0.008427 -0.003222 -0.001118 0.002027 0.002711 0.000348
# 2 -0.003222 0.011565 -0.004213 0.000870 -0.002388 0.000131
# 3 -0.001118 -0.004213 0.029443 0.001984 0.001254 0.000925
# 4 0.002027 0.000870 0.001984 0.028007 -0.001581 -0.000425
# 5 0.002711 -0.002388 0.001254 -0.001581 0.048544 0.007549
# 6 0.000348 0.000131 0.000925 -0.000425 0.007549 0.020237
#
#
# Mechanical properties :
#
#
# Convention : Reuss Voigt Hill
#
# Bulk Modulus (GPa) = 30.93238 48.29468 39.61353
# Shear Modulus (GPa) = 28.71837 36.57379 32.64608
#
# Velocity S-wave (km/s) = 3.49634 3.94565 3.72777
# Velocity P-wave (km/s) = 5.42826 6.42766 5.94898
#
# Compressibility (1/GPa) = 0.03232858
#
# Stress axis : x y z
#
# Youngs Moduli (GPa) = 118.66796 86.46837 33.96385
#
# Poissons Ratio (x) = 0.27860 0.03797
# Poissons Ratio (y) = 0.38235 0.14309
# Poissons Ratio (z) = 0.13267 0.36430
#
# Static dielectric constant tensor:
#      x y z
#    x 6.367010 -0.253100 -0.392380 
#    y -0.253100 4.585940 -0.073660 
#    z -0.392380 -0.073660 5.199800 
# 
# 
# High freq. dielectric constant tensor:
#      x y z
#    x 1.942530 -0.000100 0.006840 
#    y -0.000100 1.922490 -0.007120 
#    z 0.006840 -0.007120 1.930620 
# 
# From -- ./inp_files/566886.got.cif
#   From: 2010.06.25/outbox.cif.g09.slc.cpg/sg2_284_cif.got.tgz:566886.got - 2010.06.27 13:26:56.
