data_PCOD8006382
_publ_section_title
;
Structure prediction by ZEFSAII (Michael W. Deem and Ramdas Pophale) SiO2 
 PCOD8006382
Probable space group: P -1
;
_chemical_formula_sum "Si O2"
_cell_formula_units_Z 16
_cell_length_a 19.537066
_cell_length_b 8.054606
_cell_length_c 11.125976
_cell_angle_alpha 74.773981
_cell_angle_beta 49.475366
_cell_angle_gamma 38.662720
_cell_volume 712.501428
_symmetry_space_group_name_H-M "P -1"
_symmetry_group_IT_number 2
_symmetry_cell_setting 'triclinic'
loop_
_space_group_symop_operation_xyz
x,y,z
-x,-y,-z
loop_
_atom_site_type_symbol
_atom_site_label
_atom_site_fract_x
_atom_site_fract_y
_atom_site_fract_z
Si Si1 0.917674 0.349977 0.358666
Si Si2 0.415054 0.065862 0.269970
Si Si3 0.527856 0.773845 0.450620
Si Si4 0.565649 0.132458 0.959625
Si Si5 0.743941 0.983888 0.146774
Si Si6 0.974342 0.643626 0.156228
Si Si7 0.894244 0.124038 0.211577
Si Si8 0.266978 0.831996 0.117959
O O1 0.754663 0.568013 0.576598
O O2 0.904520 0.570797 0.292161
O O3 0.928563 0.202222 0.263617
O O4 0.080577 0.068560 0.306381
O O5 0.483474 0.852566 0.345920
O O6 0.381819 0.989265 0.213078
O O7 0.550375 0.988303 0.087956
O O8 0.707767 0.421743 0.329513
O O9 0.500000 0.000000 0.500000
O O10 0.415764 0.815237 0.638682
O O11 0.705501 0.030356 0.872791
O O12 0.387785 0.500635 0.097022
O O13 0.875610 0.858819 0.109093
O O14 0.834476 0.678576 0.034511
O O15 0.698486 0.198354 0.058009
O O16 0.945335 0.846329 0.245270
O O17 0.000000 0.000000 0.000000
#
# Coordination Sequence:
#
# PCOD8006382 Si02
#       8
#     2   2   2   2   2   2   2   2
#     4  11  24  46  68  99 140 175 222 287 330 409
#     4  11  24  45  68  97 136 175 230 281 331 398
#     4  12  22  38  66 101 137 172 214 281 342 409
#     4  10  25  46  67  93 128 184 234 278 327 390
#     4  10  20  39  68  97 137 170 213 281 345 402
#     4  10  21  41  63 103 141 175 210 271 355 415
#     4  12  25  38  64 105 140 180 218 264 357 417
#     4  10  23  45  71  93 132 178 225 281 336 395
#
# _framework density 22.456097
#
# number of rings (size 3 to 8) (size 9 to 14) (size 15 to 20)
#    0.000    1.250    2.500    3.750    3.500    3.500 
#    6.750    0.000    0.000    0.000    0.000    0.000 
#    0.000    0.000    0.000    0.000    0.000    0.000 
#
# Total GULP energy -198372.720630 kJ/mol
# GULP energy per Si atom -12398.295039 kJ/mol
# Density = 2.240499 g / cm^3
# Si number density = 22.456097 Si / 1000 Ang^3
#
#
#
# Elastic Constant Matrix: (Units=GPa)
#
#
# Indices 1 2 3 4 5 6 
#
# 1 106.4088 12.9120 37.0871 10.3214 5.1967 4.9513
# 2 12.9120 45.3637 6.2645 10.1976 -5.1030 4.8958
# 3 37.0871 6.2645 107.8071 18.3243 -3.5583 -1.9525
# 4 10.3214 10.1976 18.3243 39.0521 -5.4910 -1.0343
# 5 5.1967 -5.1030 -3.5583 -5.4910 31.2424 11.5948
# 6 4.9513 4.8958 -1.9525 -1.0343 11.5948 43.9654
#
#
#
# Elastic Compliance Matrix: (Units=1/GPa)
#
#
# Indices 1 2 3 4 5 6 
#
# 1 0.011248 -0.002750 -0.003648 -0.000940 -0.002745 -0.000421
# 2 -0.002750 0.024971 0.000514 -0.005422 0.005096 -0.003920
# 3 -0.003648 0.000514 0.011275 -0.004301 0.001041 0.000479
# 4 -0.000940 -0.005422 -0.004301 0.029851 0.003962 0.000176
# 5 -0.002745 0.005096 0.001041 0.003962 0.037861 -0.010104
# 6 -0.000421 -0.003920 0.000479 0.000176 -0.010104 0.025919
#
#
# Mechanical properties :
#
#
# Convention : Reuss Voigt Hill
#
# Bulk Modulus (GPa) = 27.99097 41.34521 34.66809
# Shear Modulus (GPa) = 30.33945 36.40637 33.37291
#
# Velocity S-wave (km/s) = 3.67966 4.03081 3.85923
# Velocity P-wave (km/s) = 5.52675 6.33362 5.94390
#
# Compressibility (1/GPa) = 0.03572581
#
# Stress axis : x y z
#
# Youngs Moduli (GPa) = 88.90769 40.04657 88.69098
#
# Poissons Ratio (x) = 0.11011 0.32354
# Poissons Ratio (y) = 0.24447 -0.04556
# Poissons Ratio (z) = 0.32433 -0.02057
#
# Static dielectric constant tensor:
#      x y z
#    x 4.256470 -0.028830 -0.085840 
#    y -0.028830 4.190230 0.381830 
#    z -0.085840 0.381830 4.399720 
# 
# 
# High freq. dielectric constant tensor:
#      x y z
#    x 1.889640 0.002300 -0.005610 
#    y 0.002300 1.877930 0.011230 
#    z -0.005610 0.011230 1.882420 
# 
# From -- ./inp_files/469984.got.cif
#   From: 2010.06.25/outbox.cif.g09.slc.cpg/sg2_235_cif.got.tgz:469984.got - 2010.06.27 13:26:56.
