data_PCOD8006946
_publ_section_title
;
Structure prediction by ZEFSAII (Michael W. Deem and Ramdas Pophale) SiO2 
 PCOD8006946
Probable space group: P -1
;
_chemical_formula_sum "Si O2"
_cell_formula_units_Z 16
_cell_length_a 10.809320
_cell_length_b 9.904772
_cell_length_c 15.580061
_cell_angle_alpha 152.950893
_cell_angle_beta 94.723049
_cell_angle_gamma 78.754355
_cell_volume 728.223702
_symmetry_space_group_name_H-M "P -1"
_symmetry_group_IT_number 2
_symmetry_cell_setting 'triclinic'
loop_
_space_group_symop_operation_xyz
x,y,z
-x,-y,-z
loop_
_atom_site_type_symbol
_atom_site_label
_atom_site_fract_x
_atom_site_fract_y
_atom_site_fract_z
Si Si1 0.846352 0.121692 0.049819
Si Si2 0.375799 0.211086 0.881912
Si Si3 0.349277 0.883733 0.222963
Si Si4 0.359854 0.208972 0.083578
Si Si5 0.760205 0.805611 0.452470
Si Si6 0.725186 0.132627 0.465132
Si Si7 0.108946 0.121450 0.250773
Si Si8 0.018511 0.774190 0.533580
O O1 0.781485 0.447735 0.273353
O O2 0.763058 0.894447 0.947550
O O3 0.835547 0.169089 0.972640
O O4 0.000000 0.000000 0.000000
O O5 0.529195 0.127573 0.834828
O O6 0.330550 0.957583 0.679095
O O7 0.316020 0.553861 0.035391
O O8 0.343425 0.210401 0.980359
O O9 0.360511 0.995637 0.385091
O O10 0.231429 0.154181 0.331206
O O11 0.352656 0.539395 0.313669
O O12 0.500000 0.000000 0.000000
O O13 0.891696 0.893619 0.535300
O O14 0.725130 0.875311 0.390779
O O15 0.871608 0.125921 0.452828
O O16 0.052594 0.408622 0.346722
O O17 0.002950 0.071496 0.284518
#
# Coordination Sequence:
#
# PCOD8006946 Si02
#       8
#     2   2   2   2   2   2   2   2
#     4  12  24  43  69 104 137 188 231 287 349 422
#     4  11  26  45  71 101 138 183 233 285 352 417
#     4  10  23  46  67  99 140 180 231 290 342 423
#     4  12  28  48  69 106 149 176 235 300 349 414
#     4  11  23  44  72  97 138 189 229 282 355 414
#     4  12  25  45  71 104 136 186 230 289 351 414
#     4  10  20  40  65  94 136 178 221 282 350 402
#     4  10  22  40  66  98 138 175 230 292 339 411
#
# _framework density 21.971270000000001
#
# number of rings (size 3 to 8) (size 9 to 14) (size 15 to 20)
#    0.000    1.000    3.750    1.875    3.500    2.000 
#    0.000    3.125    0.000    0.000    0.000    0.000 
#    0.000    0.000    0.000    0.000    0.000    0.000 
#
# Total GULP energy -198236.405595 kJ/mol
# GULP energy per Si atom -12389.775350 kJ/mol
# Density = 2.192126 g / cm^3
# Si number density = 21.971270 Si / 1000 Ang^3
#
#
#
# Elastic Constant Matrix: (Units=GPa)
#
#
# Indices 1 2 3 4 5 6 
#
# 1 74.8081 30.9679 31.8927 -4.4926 -11.5880 2.0349
# 2 30.9679 88.3487 38.5583 -25.1067 -3.6388 2.7186
# 3 31.8927 38.5583 141.0166 -22.4891 -2.7406 6.2031
# 4 -4.4926 -25.1067 -22.4891 43.2554 -1.1760 -5.6747
# 5 -11.5880 -3.6388 -2.7406 -1.1760 33.6094 -6.1739
# 6 2.0349 2.7186 6.2031 -5.6747 -6.1739 26.5368
#
#
#
# Elastic Compliance Matrix: (Units=1/GPa)
#
#
# Indices 1 2 3 4 5 6 
#
# 1 0.017444 -0.005431 -0.002794 -0.002582 0.005206 0.000531
# 2 -0.005431 0.016354 -0.002003 0.008019 0.000193 0.000969
# 3 -0.002794 -0.002003 0.008780 0.002947 -0.000570 -0.001135
# 4 -0.002582 0.008019 0.002947 0.029834 0.002291 0.005600
# 5 0.005206 0.000193 -0.000570 0.002291 0.033053 0.007894
# 6 0.000531 0.000969 -0.001135 0.005600 0.007894 0.040843
#
#
# Mechanical properties :
#
#
# Convention : Reuss Voigt Hill
#
# Bulk Modulus (GPa) = 45.20584 56.33458 50.77021
# Shear Modulus (GPa) = 28.71297 34.19731 31.45514
#
# Velocity S-wave (km/s) = 3.61895 3.94947 3.78782
# Velocity P-wave (km/s) = 6.17106 6.81862 6.50291
#
# Compressibility (1/GPa) = 0.02212103
#
# Stress axis : x y z
#
# Youngs Moduli (GPa) = 57.32727 61.14878 113.89514
#
# Poissons Ratio (x) = 0.33207 0.31824
# Poissons Ratio (y) = 0.31132 0.22818
# Poissons Ratio (z) = 0.16018 0.12251
#
# Static dielectric constant tensor:
#      x y z
#    x 3.813290 0.017530 -0.170620 
#    y 0.017530 4.165780 -0.475280 
#    z -0.170620 -0.475280 4.390880 
# 
# 
# High freq. dielectric constant tensor:
#      x y z
#    x 1.854820 0.000390 -0.022940 
#    y 0.000390 1.869800 -0.022420 
#    z -0.022940 -0.022420 1.875130 
# 
# From -- ./inp_files/516467.got.cif
#   From: 2010.06.25/outbox.cif.g09.slc.cpg/sg2_259_cif.got.tgz:516467.got - 2010.06.27 13:26:56.
