data_PCOD8006070
_publ_section_title
;
Structure prediction by ZEFSAII (Michael W. Deem and Ramdas Pophale) SiO2 
 PCOD8006070
Probable space group: P -1
;
_chemical_formula_sum "Si O2"
_cell_formula_units_Z 16
_cell_length_a 8.856510
_cell_length_b 13.130681
_cell_length_c 9.787800
_cell_angle_alpha 127.556683
_cell_angle_beta 61.709797
_cell_angle_gamma 106.658036
_cell_volume 794.561549
_symmetry_space_group_name_H-M "P -1"
_symmetry_group_IT_number 2
_symmetry_cell_setting 'triclinic'
loop_
_space_group_symop_operation_xyz
x,y,z
-x,-y,-z
loop_
_atom_site_type_symbol
_atom_site_label
_atom_site_fract_x
_atom_site_fract_y
_atom_site_fract_z
Si Si1 0.400217 0.376571 0.989253
Si Si2 0.944561 0.595948 0.717930
Si Si3 0.417204 0.888304 0.609630
Si Si4 0.617418 0.140791 0.708860
Si Si5 0.735539 0.714286 0.307214
Si Si6 0.133955 0.533297 0.855356
Si Si7 0.104722 0.808524 0.162707
Si Si8 0.090433 0.873157 0.914640
O O1 0.538410 0.275453 0.902493
O O2 0.291314 0.314114 0.863281
O O3 0.500000 0.500000 0.000000
O O4 0.261930 0.412874 0.193421
O O5 0.000000 0.500000 0.500000
O O6 0.036900 0.533028 0.755220
O O7 0.994890 0.744993 0.798327
O O8 0.334236 0.854579 0.469514
O O9 0.585024 0.803783 0.501886
O O10 0.283141 0.864063 0.767605
O O11 0.471135 0.036116 0.709887
O O12 0.784814 0.114018 0.708490
O O13 0.726053 0.581984 0.292350
O O14 0.919106 0.785468 0.293086
O O15 0.204801 0.675182 0.974318
O O16 0.000000 0.500000 0.000000
O O17 0.089341 0.886601 0.091045
O O18 0.000000 0.000000 0.000000
#
# Coordination Sequence:
#
# PCOD8006070 Si02
#       8
#     2   2   2   2   2   2   2   2
#     4  11  21  37  65  91 123 164 206 256 322 372
#     4  11  24  40  60 100 128 161 213 264 315 381
#     4  10  24  41  63  93 128 158 215 268 309 367
#     4  10  23  40  65  92 123 162 220 263 304 378
#     4  10  20  39  65  89 122 164 211 258 307 374
#     4   9  17  37  63  83 121 165 204 249 307 374
#     4  10  21  40  65  89 121 170 212 250 319 385
#     4  11  24  45  66  86 133 178 201 258 332 379
#
# _framework density 20.136890999999999
#
# number of rings (size 3 to 8) (size 9 to 14) (size 15 to 20)
#    0.000    1.750    3.750    1.500    8.750    1.000 
#    4.500    1.250    0.000    0.000    0.000    0.000 
#    0.000    0.000    0.000    0.000    0.000    0.000 
#
# Total GULP energy -198346.808683 kJ/mol
# GULP energy per Si atom -12396.675543 kJ/mol
# Density = 2.009106 g / cm^3
# Si number density = 20.136891 Si / 1000 Ang^3
#
#
#
# Elastic Constant Matrix: (Units=GPa)
#
#
# Indices 1 2 3 4 5 6 
#
# 1 106.4816 42.5831 46.2617 1.5042 -0.7811 -0.9955
# 2 42.5831 120.4718 42.8824 6.1127 -14.0744 -14.8730
# 3 46.2617 42.8824 93.6735 5.7116 -16.0786 0.2501
# 4 1.5042 6.1127 5.7116 26.5703 0.4448 -6.4256
# 5 -0.7811 -14.0744 -16.0786 0.4448 39.6262 -1.6811
# 6 -0.9955 -14.8730 0.2501 -6.4256 -1.6811 39.8059
#
#
#
# Elastic Compliance Matrix: (Units=1/GPa)
#
#
# Indices 1 2 3 4 5 6 
#
# 1 0.013036 -0.003130 -0.005613 0.001055 -0.003177 -0.000772
# 2 -0.003130 0.011427 -0.003149 -0.000807 0.002907 0.004204
# 3 -0.005613 -0.003149 0.015963 -0.002878 0.005210 -0.001662
# 4 0.001055 -0.000807 -0.002878 0.039886 -0.001622 0.006113
# 5 -0.003177 0.002907 0.005210 -0.001622 0.028419 0.001912
# 6 -0.000772 0.004204 -0.001662 0.006113 0.001912 0.027751
#
#
# Mechanical properties :
#
#
# Convention : Reuss Voigt Hill
#
# Bulk Modulus (GPa) = 60.08253 64.89792 62.49023
# Shear Modulus (GPa) = 30.15450 33.79380 31.97415
#
# Velocity S-wave (km/s) = 3.87392 4.10103 3.98909
# Velocity P-wave (km/s) = 7.06481 7.39750 7.23307
#
# Compressibility (1/GPa) = 0.01664377
#
# Stress axis : x y z
#
# Youngs Moduli (GPa) = 76.71047 87.50974 62.64557
#
# Poissons Ratio (x) = 0.27390 0.35161
# Poissons Ratio (y) = 0.24010 0.19724
# Poissons Ratio (z) = 0.43055 0.27553
#
# Static dielectric constant tensor:
#      x y z
#    x 3.958150 -0.493440 -0.130570 
#    y -0.493440 4.257610 0.218030 
#    z -0.130570 0.218030 3.605210 
# 
# 
# High freq. dielectric constant tensor:
#      x y z
#    x 1.785000 -0.007000 -0.005710 
#    y -0.007000 1.793850 0.012520 
#    z -0.005710 0.012520 1.771920 
# 
# From -- ./inp_files/189801.got.cif
#   From: 2010.06.25/outbox.cif.g09.slc.cpg/sg2_95_cif.got.tgz:189801.got - 2010.06.27 13:26:56.
