data_PCOD8006969
_publ_section_title
;
Structure prediction by ZEFSAII (Michael W. Deem and Ramdas Pophale) SiO2 
 PCOD8006969
Probable space group: P -1
;
_chemical_formula_sum "Si O2"
_cell_formula_units_Z 16
_cell_length_a 11.084284
_cell_length_b 8.524708
_cell_length_c 17.412736
_cell_angle_alpha 30.597415
_cell_angle_beta 69.743631
_cell_angle_gamma 64.592666
_cell_volume 755.524148
_symmetry_space_group_name_H-M "P -1"
_symmetry_group_IT_number 2
_symmetry_cell_setting 'triclinic'
loop_
_space_group_symop_operation_xyz
x,y,z
-x,-y,-z
loop_
_atom_site_type_symbol
_atom_site_label
_atom_site_fract_x
_atom_site_fract_y
_atom_site_fract_z
Si Si1 0.945602 0.795038 0.537406
Si Si2 0.277433 0.252113 0.942566
Si Si3 0.172427 0.620845 0.437087
Si Si4 0.491014 0.931046 0.918989
Si Si5 0.731370 0.066000 0.353275
Si Si6 0.560905 0.666042 0.742549
Si Si7 0.171748 0.720888 0.221156
Si Si8 0.586038 0.156997 0.650221
O O1 0.928038 0.464747 0.718977
O O2 0.040281 0.716764 0.476215
O O3 0.797785 0.975571 0.460800
O O4 0.000000 0.000000 0.500000
O O5 0.218327 0.628930 0.815532
O O6 0.363505 0.205817 0.864234
O O7 0.374520 0.062119 0.068479
O O8 0.157830 0.074711 0.039260
O O9 0.131588 0.748671 0.307221
O O10 0.272520 0.810166 0.367156
O O11 0.230125 0.232617 0.588546
O O12 0.508258 0.008390 0.794086
O O13 0.467139 0.582759 0.083417
O O14 0.570154 0.180343 0.345044
O O15 0.674452 0.489093 0.732832
O O16 0.610473 0.930158 0.666560
O O17 0.500000 0.500000 0.500000
#
# Coordination Sequence:
#
# PCOD8006969 Si02
#       8
#     2   2   2   2   2   2   2   2
#     4  11  25  44  61  81 121 165 201 252 302 354
#     4   9  18  36  63  90 115 162 198 249 297 352
#     4  11  23  40  58  87 122 161 201 244 298 359
#     4   9  19  35  57  87 132 158 193 241 306 358
#     4  10  21  39  61  88 123 150 208 241 300 357
#     4  10  21  37  60  94 121 159 192 251 310 347
#     4  10  20  40  66  85 119 160 201 241 304 363
#     4  12  22  35  58  94 126 156 204 244 294 358
#
# _framework density 21.177351000000002
#
# number of rings (size 3 to 8) (size 9 to 14) (size 15 to 20)
#    0.000    1.750    2.500    3.375    0.000    5.000 
#    0.000    3.125    0.000    0.000    0.000    0.000 
#    0.000    0.000    0.000    0.000    0.000    0.000 
#
# Total GULP energy -198297.785294 kJ/mol
# GULP energy per Si atom -12393.611581 kJ/mol
# Density = 2.112915 g / cm^3
# Si number density = 21.177351 Si / 1000 Ang^3
#
#
#
# Elastic Constant Matrix: (Units=GPa)
#
#
# Indices 1 2 3 4 5 6 
#
# 1 82.1015 22.8748 33.1950 -6.2742 -24.5622 24.3562
# 2 22.8748 85.1177 33.9612 -7.2838 -10.2667 13.0771
# 3 33.1950 33.9612 101.5900 -9.6609 -30.1046 7.0593
# 4 -6.2742 -7.2838 -9.6609 35.6273 8.9939 -12.8189
# 5 -24.5622 -10.2667 -30.1046 8.9939 36.6727 -9.6404
# 6 24.3562 13.0771 7.0593 -12.8189 -9.6404 31.1832
#
#
#
# Elastic Compliance Matrix: (Units=1/GPa)
#
#
# Indices 1 2 3 4 5 6 
#
# 1 0.019928 -0.001421 -0.003193 -0.004554 0.007846 -0.013693
# 2 -0.001421 0.014429 -0.004589 0.000377 -0.001912 -0.004338
# 3 -0.003193 -0.004589 0.015181 0.001854 0.009843 0.004787
# 4 -0.004554 0.000377 0.001854 0.034917 -0.005910 0.015506
# 5 0.007846 -0.001912 0.009843 -0.005910 0.042333 0.003103
# 6 -0.013693 -0.004338 0.004787 0.015506 0.003103 0.050834
#
#
# Mechanical properties :
#
#
# Convention : Reuss Voigt Hill
#
# Bulk Modulus (GPa) = 32.12029 49.87457 40.99743
# Shear Modulus (GPa) = 24.22407 32.61520 28.41964
#
# Velocity S-wave (km/s) = 3.38578 3.92867 3.66728
# Velocity P-wave (km/s) = 5.52131 6.64690 6.11008
#
# Compressibility (1/GPa) = 0.03113297
#
# Stress axis : x y z
#
# Youngs Moduli (GPa) = 50.17943 69.30318 65.87098
#
# Poissons Ratio (x) = 0.09849 0.21035
# Poissons Ratio (y) = 0.07131 0.30225
# Poissons Ratio (z) = 0.16024 0.31800
#
# Static dielectric constant tensor:
#      x y z
#    x 4.030040 0.277340 -0.622450 
#    y 0.277340 3.813620 -0.362430 
#    z -0.622450 -0.362430 4.164020 
# 
# 
# High freq. dielectric constant tensor:
#      x y z
#    x 1.811580 0.009140 -0.036010 
#    y 0.009140 1.822600 -0.015020 
#    z -0.036010 -0.015020 1.835850 
# 
# From -- ./inp_files/565629.got.cif
#   From: 2010.06.25/outbox.cif.g09.slc.cpg/sg2_283_cif.got.tgz:565629.got - 2010.06.27 13:26:56.
