data_PCOD8006167
_publ_section_title
;
Structure prediction by ZEFSAII (Michael W. Deem and Ramdas Pophale) SiO2 
 PCOD8006167
Probable space group: P -1
;
_chemical_formula_sum "Si O2"
_cell_formula_units_Z 16
_cell_length_a 19.434994
_cell_length_b 9.011729
_cell_length_c 14.551414
_cell_angle_alpha 116.464796
_cell_angle_beta 19.783922
_cell_angle_gamma 118.319265
_cell_volume 759.383401
_symmetry_space_group_name_H-M "P -1"
_symmetry_group_IT_number 2
_symmetry_cell_setting 'triclinic'
loop_
_space_group_symop_operation_xyz
x,y,z
-x,-y,-z
loop_
_atom_site_type_symbol
_atom_site_label
_atom_site_fract_x
_atom_site_fract_y
_atom_site_fract_z
Si Si1 0.388941 0.420311 0.915054
Si Si2 0.332108 0.603811 0.206103
Si Si3 0.064260 0.438225 0.184582
Si Si4 0.282438 0.400359 0.578149
Si Si5 0.130393 0.856004 0.779677
Si Si6 0.500123 0.119765 0.807205
Si Si7 0.174368 0.720909 0.880074
Si Si8 0.352242 0.766895 0.854896
O O1 0.615235 0.506108 0.616768
O O2 0.395925 0.254813 0.919839
O O3 0.299669 0.562395 0.127230
O O4 0.236443 0.365619 0.006832
O O5 0.419471 0.801671 0.173017
O O6 0.126918 0.545845 0.506345
O O7 0.500000 0.500000 0.000000
O O8 0.007850 0.314916 0.134693
O O9 0.154571 0.626926 0.090032
O O10 0.223227 0.532626 0.762201
O O11 0.435170 0.296200 0.408081
O O12 0.066156 0.279619 0.790385
O O13 0.310183 0.926681 0.502244
O O14 0.229176 0.814608 0.740568
O O15 0.000000 0.000000 0.000000
O O16 0.347098 0.941229 0.965276
O O17 0.328200 0.813159 0.790526
#
# Coordination Sequence:
#
# PCOD8006167 Si02
#       8
#     2   2   2   2   2   2   2   2
#     4  10  20  39  66  87 118 161 209 252 307 363
#     4   9  20  39  68  85 118 159 200 255 311 366
#     4  10  22  40  63  91 122 156 209 247 306 374
#     4  10  21  39  59  92 119 165 209 252 295 376
#     4  11  23  39  61  91 125 164 208 255 299 364
#     4  10  22  40  57  92 123 154 206 257 307 355
#     4  11  22  37  63  83 129 167 206 241 318 354
#     4  11  24  38  62  91 129 159 207 253 306 367
#
# _framework density 21.069724999999998
#
# number of rings (size 3 to 8) (size 9 to 14) (size 15 to 20)
#    0.000    1.750    1.250    3.000    5.250    3.500 
#    0.000    5.000    0.000    0.000    0.000    0.000 
#    0.000    0.000    0.000    0.000    0.000    0.000 
#
# Total GULP energy -198347.339552 kJ/mol
# GULP energy per Si atom -12396.708722 kJ/mol
# Density = 2.102177 g / cm^3
# Si number density = 21.069725 Si / 1000 Ang^3
#
#
#
# Elastic Constant Matrix: (Units=GPa)
#
#
# Indices 1 2 3 4 5 6 
#
# 1 91.6920 39.3690 11.6798 9.4288 -3.7540 6.5840
# 2 39.3690 123.9417 31.4282 -0.6483 2.3875 20.7926
# 3 11.6798 31.4282 84.9587 7.5796 6.8948 9.9234
# 4 9.4288 -0.6483 7.5796 24.3011 -0.1011 0.0124
# 5 -3.7540 2.3875 6.8948 -0.1011 23.2557 5.7453
# 6 6.5840 20.7926 9.9234 0.0124 5.7453 25.9712
#
#
#
# Elastic Compliance Matrix: (Units=1/GPa)
#
#
# Indices 1 2 3 4 5 6 
#
# 1 0.013430 -0.004257 0.000055 -0.005330 0.002718 -0.000617
# 2 -0.004257 0.011395 -0.003138 0.002942 0.000822 -0.007028
# 3 0.000055 -0.003138 0.013825 -0.004430 -0.003279 -0.002057
# 4 -0.005330 0.002942 -0.004430 0.044679 0.000191 0.000625
# 5 0.002718 0.000822 -0.003279 0.000191 0.046915 -0.010473
# 6 -0.000617 -0.007028 -0.002057 0.000625 -0.010473 0.047389
#
#
# Mechanical properties :
#
#
# Convention : Reuss Voigt Hill
#
# Bulk Modulus (GPa) = 41.71742 51.72737 46.72240
# Shear Modulus (GPa) = 24.96212 29.24664 27.10438
#
# Velocity S-wave (km/s) = 3.44574 3.72975 3.59055
# Velocity P-wave (km/s) = 5.97273 6.56901 6.27795
#
# Compressibility (1/GPa) = 0.02397080
#
# Stress axis : x y z
#
# Youngs Moduli (GPa) = 74.45786 87.75959 72.33132
#
# Poissons Ratio (x) = 0.37358 -0.00400
# Poissons Ratio (y) = 0.31696 0.22700
# Poissons Ratio (z) = -0.00412 0.27541
#
# Static dielectric constant tensor:
#      x y z
#    x 0.659200 -0.794700 -5.855860 
#    y -0.794700 3.519050 -1.808940 
#    z -5.855860 -1.808940 -6.311620 
# 
# 
# High freq. dielectric constant tensor:
#      x y z
#    x 1.829370 0.007450 -0.007490 
#    y 0.007450 1.813500 0.003670 
#    z -0.007490 0.003670 1.821770 
# 
# From -- ./inp_files/306944.got.cif
#   From: 2010.06.25/outbox.cif.g09.slc.cpg/sg2_154_cif.got.tgz:306944.got - 2010.06.27 13:26:56.
