data_PCOD8006554
_publ_section_title
;
Structure prediction by ZEFSAII (Michael W. Deem and Ramdas Pophale) SiO2 
 PCOD8006554
Probable space group: P -1
;
_chemical_formula_sum "Si O2"
_cell_formula_units_Z 16
_cell_length_a 6.287682
_cell_length_b 11.605795
_cell_length_c 14.918050
_cell_angle_alpha 90.147900
_cell_angle_beta 59.274391
_cell_angle_gamma 120.266779
_cell_volume 759.101382
_symmetry_space_group_name_H-M "P -1"
_symmetry_group_IT_number 2
_symmetry_cell_setting 'triclinic'
loop_
_space_group_symop_operation_xyz
x,y,z
-x,-y,-z
loop_
_atom_site_type_symbol
_atom_site_label
_atom_site_fract_x
_atom_site_fract_y
_atom_site_fract_z
Si Si1 0.855786 0.666485 0.743705
Si Si2 0.315523 0.067315 0.822037
Si Si3 0.206279 0.723286 0.412055
Si Si4 0.413429 0.849145 0.740430
Si Si5 0.227155 0.232144 0.423152
Si Si6 0.316632 0.649038 0.920788
Si Si7 0.805806 0.430273 0.411945
Si Si8 0.615317 0.902038 0.988855
O O1 0.794852 0.705515 0.662664
O O2 0.560687 0.610597 0.868124
O O3 0.144674 0.804439 0.729066
O O4 0.930098 0.552627 0.709004
O O5 0.488127 0.192994 0.712528
O O6 0.464881 0.980111 0.784433
O O7 0.381222 0.131405 0.907466
O O8 0.956530 0.977252 0.876215
O O9 0.281935 0.677765 0.487142
O O10 0.087566 0.823160 0.456209
O O11 0.929582 0.585559 0.419460
O O12 0.706584 0.884145 0.617751
O O13 0.317606 0.721948 0.828982
O O14 0.504772 0.364397 0.418436
O O15 0.384731 0.752748 0.989015
O O16 0.000000 0.500000 0.000000
O O17 0.500000 0.000000 0.000000
#
# Coordination Sequence:
#
# PCOD8006554 Si02
#       8
#     2   2   2   2   2   2   2   2
#     4   9  19  37  59  85 122 155 196 257 309 359
#     4  11  24  40  64  87 124 172 206 252 318 370
#     4  10  21  37  61  92 121 164 207 249 310 376
#     4  10  20  40  61  86 124 160 197 261 309 364
#     4   9  19  36  62  88 122 157 197 254 308 363
#     4  11  23  39  65  92 118 164 213 259 313 368
#     4   9  19  38  59  89 129 157 200 260 306 366
#     4  11  24  44  62  89 130 162 210 264 308 369
#
# _framework density 21.077556000000001
#
# number of rings (size 3 to 8) (size 9 to 14) (size 15 to 20)
#    0.000    2.000    2.500    0.375    0.000    6.000 
#    0.000    5.625    0.000    0.000    0.000    0.000 
#    0.000    0.000    0.000    0.000    0.000    0.000 
#
# Total GULP energy -198273.249488 kJ/mol
# GULP energy per Si atom -12392.078093 kJ/mol
# Density = 2.102958 g / cm^3
# Si number density = 21.077556 Si / 1000 Ang^3
#
#
#
# Elastic Constant Matrix: (Units=GPa)
#
#
# Indices 1 2 3 4 5 6 
#
# 1 86.5883 34.1967 36.1473 9.7035 -9.0348 9.4370
# 2 34.1967 86.2176 50.7188 14.9009 -0.4641 5.1184
# 3 36.1473 50.7188 118.4043 9.2511 -20.9620 -3.9242
# 4 9.7035 14.9009 9.2511 29.8821 -1.3267 2.0600
# 5 -9.0348 -0.4641 -20.9620 -1.3267 35.0609 12.6927
# 6 9.4370 5.1184 -3.9242 2.0600 12.6927 33.9355
#
#
#
# Elastic Compliance Matrix: (Units=1/GPa)
#
#
# Indices 1 2 3 4 5 6 
#
# 1 0.015356 -0.004198 -0.002138 -0.001652 0.004547 -0.005485
# 2 -0.004198 0.018422 -0.007087 -0.005855 -0.005257 -0.000109
# 3 -0.002138 -0.007087 0.013396 0.000366 0.007198 0.000498
# 4 -0.001652 -0.005855 0.000366 0.036983 0.001650 -0.001477
# 5 0.004547 -0.005257 0.007198 0.001650 0.039204 -0.014402
# 6 -0.005485 -0.000109 0.000498 -0.001477 -0.014402 0.036543
#
#
# Mechanical properties :
#
#
# Convention : Reuss Voigt Hill
#
# Bulk Modulus (GPa) = 49.18671 59.25951 54.22311
# Shear Modulus (GPa) = 25.83629 31.11886 28.47758
#
# Velocity S-wave (km/s) = 3.50490 3.84656 3.67970
# Velocity P-wave (km/s) = 6.30602 6.92128 6.62080
#
# Compressibility (1/GPa) = 0.02033070
#
# Stress axis : x y z
#
# Youngs Moduli (GPa) = 65.11923 54.28153 74.64867
#
# Poissons Ratio (x) = 0.22786 0.15959
# Poissons Ratio (y) = 0.27335 0.52900
# Poissons Ratio (z) = 0.13921 0.38467
#
# Static dielectric constant tensor:
#      x y z
#    x 4.038860 -0.094990 -0.318310 
#    y -0.094990 3.677090 0.614010 
#    z -0.318310 0.614010 4.116930 
# 
# 
# High freq. dielectric constant tensor:
#      x y z
#    x 1.837060 0.003690 -0.009780 
#    y 0.003690 1.808840 0.038920 
#    z -0.009780 0.038920 1.827820 
# 
# From -- ./inp_files/77090.got.cif
#   From: 2010.06.25/outbox.cif.g09.slc.cpg/sg2_39_cif.got.tgz:77090.got - 2010.06.27 13:26:56.
