data_PCOD8006923
_publ_section_title
;
Structure prediction by ZEFSAII (Michael W. Deem and Ramdas Pophale) SiO2 
 PCOD8006923
Probable space group: P -1
;
_chemical_formula_sum "Si O2"
_cell_formula_units_Z 16
_cell_length_a 9.324963
_cell_length_b 11.707526
_cell_length_c 12.298550
_cell_angle_alpha 74.158998
_cell_angle_beta 34.750927
_cell_angle_gamma 77.003693
_cell_volume 736.264431
_symmetry_space_group_name_H-M "P -1"
_symmetry_group_IT_number 2
_symmetry_cell_setting 'triclinic'
loop_
_space_group_symop_operation_xyz
x,y,z
-x,-y,-z
loop_
_atom_site_type_symbol
_atom_site_label
_atom_site_fract_x
_atom_site_fract_y
_atom_site_fract_z
Si Si1 0.156520 0.732114 0.026567
Si Si2 0.338717 0.582325 0.503642
Si Si3 0.674156 0.614698 0.751342
Si Si4 0.305509 0.963283 0.991663
Si Si5 0.869252 0.958899 0.702296
Si Si6 0.127311 0.290750 0.180904
Si Si7 0.987671 0.591441 0.368332
Si Si8 0.283549 0.234485 0.870319
O O1 0.000151 0.681883 0.238403
O O2 0.979827 0.733131 0.031240
O O3 0.394071 0.645671 0.874454
O O4 0.223102 0.868120 0.977646
O O5 0.500000 0.500000 0.500000
O O6 0.231718 0.508140 0.487292
O O7 0.483318 0.702812 0.350568
O O8 0.095005 0.615082 0.718175
O O9 0.695458 0.683092 0.833686
O O10 0.886889 0.660461 0.520552
O O11 0.739983 0.474145 0.767052
O O12 0.581503 0.927186 0.866525
O O13 0.314261 0.092349 0.895012
O O14 0.126610 0.956767 0.213895
O O15 0.002421 0.837492 0.687477
O O16 0.000000 0.000000 0.500000
O O17 0.291357 0.292124 0.969733
#
# Coordination Sequence:
#
# PCOD8006923 Si02
#       8
#     2   2   2   2   2   2   2   2
#     4  12  23  40  68  94 132 165 209 262 322 376
#     4  11  23  43  63  91 127 168 214 255 316 377
#     4  10  23  43  63  94 127 166 216 260 317 370
#     4  10  23  40  62  97 127 163 211 257 322 375
#     4  10  20  40  65  93 123 167 212 259 310 375
#     4  10  23  41  65  94 122 168 213 260 319 372
#     4  10  24  42  65  94 126 170 216 264 309 374
#     4  11  25  42  64  94 132 167 207 266 315 385
#
# _framework density 21.731323
#
# number of rings (size 3 to 8) (size 9 to 14) (size 15 to 20)
#    0.000    1.500    2.500    1.500    3.500    5.500 
#    0.000    0.000    0.000    6.000    0.000    0.000 
#    0.000    0.000    0.000    0.000    0.000    0.000 
#
# Total GULP energy -198274.447234 kJ/mol
# GULP energy per Si atom -12392.152952 kJ/mol
# Density = 2.168186 g / cm^3
# Si number density = 21.731323 Si / 1000 Ang^3
#
#
#
# Elastic Constant Matrix: (Units=GPa)
#
#
# Indices 1 2 3 4 5 6 
#
# 1 77.7707 28.7582 13.2111 8.7982 -2.1147 -7.7165
# 2 28.7582 76.7113 29.7507 -4.9811 -0.1632 -8.3697
# 3 13.2111 29.7507 71.9898 -4.2338 13.1256 0.1030
# 4 8.7982 -4.9811 -4.2338 32.5700 -5.5188 1.5877
# 5 -2.1147 -0.1632 13.1256 -5.5188 38.1747 0.4388
# 6 -7.7165 -8.3697 0.1030 1.5877 0.4388 35.5795
#
#
#
# Elastic Compliance Matrix: (Units=1/GPa)
#
#
# Indices 1 2 3 4 5 6 
#
# 1 0.015985 -0.005708 -0.000964 -0.005365 0.000390 0.002361
# 2 -0.005708 0.018384 -0.006809 0.003770 0.002615 0.002906
# 3 -0.000964 -0.006809 0.018047 0.000606 -0.006179 -0.001814
# 4 -0.005365 0.003770 0.000606 0.033642 0.004395 -0.001834
# 5 0.000390 0.002615 -0.006179 0.004395 0.028986 0.000164
# 6 0.002361 0.002906 -0.001814 -0.001834 0.000164 0.029387
#
#
# Mechanical properties :
#
#
# Convention : Reuss Voigt Hill
#
# Bulk Modulus (GPa) = 39.29009 41.10131 40.19570
# Shear Modulus (GPa) = 27.79653 31.58163 29.68908
#
# Velocity S-wave (km/s) = 3.58033 3.81632 3.70021
# Velocity P-wave (km/s) = 5.93387 6.19464 6.06566
#
# Compressibility (1/GPa) = 0.02545171
#
# Stress axis : x y z
#
# Youngs Moduli (GPa) = 62.55891 54.39477 55.41196
#
# Poissons Ratio (x) = 0.31051 0.05344
# Poissons Ratio (y) = 0.35712 0.37731
# Poissons Ratio (z) = 0.06033 0.37038
#
# Static dielectric constant tensor:
#      x y z
#    x 3.962530 -0.038960 0.150520 
#    y -0.038960 4.057060 0.207290 
#    z 0.150520 0.207290 3.915410 
# 
# 
# High freq. dielectric constant tensor:
#      x y z
#    x 1.851650 -0.011520 0.009840 
#    y -0.011520 1.857110 0.012250 
#    z 0.009840 0.012250 1.848630 
# 
# From -- ./inp_files/389909.got.cif
#   From: 2010.06.25/outbox.cif.g09.slc.cpg/sg2_195_cif.got.tgz:389909.got - 2010.06.27 13:26:56.
