data_PCOD8006566
_publ_section_title
;
Structure prediction by ZEFSAII (Michael W. Deem and Ramdas Pophale) SiO2 
 PCOD8006566
Probable space group: P -1
;
_chemical_formula_sum "Si O2"
_cell_formula_units_Z 16
_cell_length_a 28.317941
_cell_length_b 5.184304
_cell_length_c 6.109543
_cell_angle_alpha 76.565452
_cell_angle_beta 120.513272
_cell_angle_gamma 117.866667
_cell_volume 683.098672
_symmetry_space_group_name_H-M "P -1"
_symmetry_group_IT_number 2
_symmetry_cell_setting 'triclinic'
loop_
_space_group_symop_operation_xyz
x,y,z
-x,-y,-z
loop_
_atom_site_type_symbol
_atom_site_label
_atom_site_fract_x
_atom_site_fract_y
_atom_site_fract_z
Si Si1 0.191186 0.271897 0.546469
Si Si2 0.024060 0.363372 0.772986
Si Si3 0.714413 0.675758 0.906597
Si Si4 0.521573 0.723563 0.811179
Si Si5 0.118552 0.398442 0.698098
Si Si6 0.423676 0.629262 0.252279
Si Si7 0.913526 0.227039 0.783237
Si Si8 0.231235 0.680591 0.181268
O O1 0.250534 0.257522 0.790340
O O2 0.144643 0.211319 0.652469
O O3 0.153486 0.035022 0.319726
O O4 0.211997 0.578630 0.407146
O O5 0.065856 0.211918 0.789844
O O6 0.000000 0.500000 0.500000
O O7 0.968057 0.144830 0.834069
O O8 0.070760 0.636600 0.967846
O O9 0.737275 0.508950 0.817906
O O10 0.722326 0.982857 0.761414
O O11 0.645461 0.478370 0.829535
O O12 0.462008 0.696924 0.550438
O O13 0.566575 0.627497 0.798798
O O14 0.556616 0.064699 0.897108
O O15 0.500000 0.500000 0.000000
O O16 0.086922 0.530958 0.431643
O O17 0.173616 0.649700 0.906748
#
# Coordination Sequence:
#
# PCOD8006566 Si02
#       8
#     2   2   2   2   2   2   2   2
#     4  11  25  39  66  91 125 171 217 270 335 397
#     4   9  20  36  64  88 121 159 209 268 336 405
#     4  11  25  44  63  99 133 176 221 275 321 387
#     4  10  21  39  67  99 133 181 216 269 322 374
#     4  10  21  40  59  89 123 162 212 270 332 400
#     4  10  22  40  64  96 139 172 224 268 318 382
#     4  10  20  40  61  89 123 160 209 270 336 404
#     4  11  25  40  66  93 129 174 221 268 332 387
#
# _framework density 23.422678000000001
#
# number of rings (size 3 to 8) (size 9 to 14) (size 15 to 20)
#    0.000    1.750    1.250    1.875    3.500    3.500 
#    0.000    8.750    0.000    0.000    0.000    0.000 
#    0.000    0.000    0.000    0.000    0.000    0.000 
#
# Total GULP energy -198285.430086 kJ/mol
# GULP energy per Si atom -12392.839380 kJ/mol
# Density = 2.336937 g / cm^3
# Si number density = 23.422678 Si / 1000 Ang^3
#
#
#
# Elastic Constant Matrix: (Units=GPa)
#
#
# Indices 1 2 3 4 5 6 
#
# 1 116.5993 38.0363 55.4571 15.4830 10.0161 15.8576
# 2 38.0363 128.8992 35.9248 -2.9524 3.1926 9.1387
# 3 55.4571 35.9248 78.8244 -2.6965 -8.7385 9.1718
# 4 15.4830 -2.9524 -2.6965 22.6351 5.2261 -0.2936
# 5 10.0161 3.1926 -8.7385 5.2261 24.6038 -5.7697
# 6 15.8576 9.1387 9.1718 -0.2936 -5.7697 32.4289
#
#
#
# Elastic Compliance Matrix: (Units=1/GPa)
#
#
# Indices 1 2 3 4 5 6 
#
# 1 0.019170 -0.001301 -0.013755 -0.012335 -0.011611 -0.007295
# 2 -0.001301 0.009309 -0.003376 0.002310 -0.002719 -0.001495
# 3 -0.013755 -0.003376 0.025390 0.008824 0.013896 0.003049
# 4 -0.012335 0.002310 0.008824 0.054723 -0.003105 0.002828
# 5 -0.011611 -0.002719 0.013896 -0.003105 0.054161 0.012122
# 6 -0.007295 -0.001495 0.003049 0.002828 0.012122 0.036145
#
#
# Mechanical properties :
#
#
# Convention : Reuss Voigt Hill
#
# Bulk Modulus (GPa) = 58.80238 64.79546 61.79892
# Shear Modulus (GPa) = 20.70995 28.92720 24.81857
#
# Velocity S-wave (km/s) = 2.97675 3.51808 3.25867
# Velocity P-wave (km/s) = 6.08063 6.65027 6.37182
#
# Compressibility (1/GPa) = 0.01700611
#
# Stress axis : x y z
#
# Youngs Moduli (GPa) = 52.16394 107.42302 39.38621
#
# Poissons Ratio (x) = 0.13977 0.54174
# Poissons Ratio (y) = 0.06787 0.13295
# Poissons Ratio (z) = 0.71750 0.36262
#
# Static dielectric constant tensor:
#      x y z
#    x 4.536540 -0.030330 -0.031150 
#    y -0.030330 4.111760 0.041080 
#    z -0.031150 0.041080 4.281380 
# 
# 
# High freq. dielectric constant tensor:
#      x y z
#    x 1.930440 0.002370 -0.000610 
#    y 0.002370 1.914500 -0.004890 
#    z -0.000610 -0.004890 1.931050 
# 
# From -- ./inp_files/125548.got.cif
#   From: 2010.06.25/outbox.cif.g09.slc.cpg/sg2_63_cif.got.tgz:125548.got - 2010.06.27 13:26:56.
