data_PCOD8006352
_publ_section_title
;
Structure prediction by ZEFSAII (Michael W. Deem and Ramdas Pophale) SiO2 
 PCOD8006352
Probable space group: P -1
;
_chemical_formula_sum "Si O2"
_cell_formula_units_Z 14
_cell_length_a 21.287498
_cell_length_b 9.020291
_cell_length_c 8.688923
_cell_angle_alpha 108.469334
_cell_angle_beta 149.551505
_cell_angle_gamma 59.816110
_cell_volume 704.484000
_symmetry_space_group_name_H-M "P -1"
_symmetry_group_IT_number 2
_symmetry_cell_setting 'triclinic'
loop_
_space_group_symop_operation_xyz
x,y,z
-x,-y,-z
loop_
_atom_site_type_symbol
_atom_site_label
_atom_site_fract_x
_atom_site_fract_y
_atom_site_fract_z
Si Si1 0.146197 0.373059 0.846386
Si Si2 0.658193 0.875182 0.240161
Si Si3 0.333786 0.757498 0.153543
Si Si4 0.103976 0.318949 0.077419
Si Si5 0.795382 0.981699 0.304067
Si Si6 0.624736 0.622667 0.853427
Si Si7 0.947390 0.996996 0.217552
O O1 0.000000 0.500000 0.500000
O O2 0.193861 0.172705 0.834223
O O3 0.140982 0.386101 0.022004
O O4 0.260922 0.431245 0.057941
O O5 0.754910 0.797419 0.567565
O O6 0.716521 0.985636 0.297554
O O7 0.667898 0.709834 0.111621
O O8 0.500000 0.000000 0.000000
O O9 0.471977 0.762455 0.510527
O O10 0.371148 0.555339 0.135718
O O11 0.293814 0.841944 0.927117
O O12 0.216918 0.853953 0.073805
O O13 0.030478 0.196821 0.846157
O O14 0.000000 0.500000 0.000000
O O15 0.951948 0.958127 0.666075
O O16 0.000000 0.000000 0.500000
#
# Coordination Sequence:
#
# PCOD8006352 Si02
#       7
#     2   2   2   2   2   2   2
#     4  11  22  40  66  94 123 172 223 264 317 390
#     4  11  26  42  62  96 141 169 209 273 339 384
#     4  10  20  39  68  95 118 169 230 263 307 375
#     4  12  25  40  64  99 135 166 210 276 336 373
#     4  10  22  39  70  89 122 176 221 257 318 390
#     4  10  23  39  67  92 129 168 226 263 312 397
#     4  10  20  39  68  89 124 165 219 264 306 385
#
# _framework density 19.872700999999999
#
# number of rings (size 3 to 8) (size 9 to 14) (size 15 to 20)
#    0.000    1.429    2.857    3.429    8.000    1.714 
#    0.000    3.571    0.000    0.000    0.000    0.000 
#    0.000    0.000    0.000    0.000    0.000    0.000 
#
# Total GULP energy -173589.698492 kJ/mol
# GULP energy per Si atom -12399.264178 kJ/mol
# Density = 1.982747 g / cm^3
# Si number density = 19.872701 Si / 1000 Ang^3
#
#
#
# Elastic Constant Matrix: (Units=GPa)
#
#
# Indices 1 2 3 4 5 6 
#
# 1 153.6473 37.7024 72.6342 -12.6774 6.6782 2.8492
# 2 37.7024 80.0911 35.7439 -2.0810 -0.0578 -3.5587
# 3 72.6342 35.7439 143.5183 -14.2466 9.3336 8.1323
# 4 -12.6774 -2.0810 -14.2466 39.8064 -0.8246 -1.1975
# 5 6.6782 -0.0578 9.3336 -0.8246 40.6343 -3.1749
# 6 2.8492 -3.5587 8.1323 -1.1975 -3.1749 29.9105
#
#
#
# Elastic Compliance Matrix: (Units=1/GPa)
#
#
# Indices 1 2 3 4 5 6 
#
# 1 0.009058 -0.002557 -0.003761 0.001388 -0.000612 -0.000154
# 2 -0.002557 0.015040 -0.002790 -0.000913 0.001290 0.002892
# 3 -0.003761 -0.002790 0.010060 0.002133 -0.001874 -0.002822
# 4 0.001388 -0.000913 0.002133 0.026282 -0.000169 0.000214
# 5 -0.000612 0.001290 -0.001874 -0.000169 0.025406 0.003411
# 6 -0.000154 0.002892 -0.002822 0.000214 0.003411 0.034930
#
#
# Mechanical properties :
#
#
# Convention : Reuss Voigt Hill
#
# Bulk Modulus (GPa) = 62.72864 74.37973 68.55419
# Shear Modulus (GPa) = 34.64879 37.48198 36.06538
#
# Velocity S-wave (km/s) = 4.18010 4.34764 4.26469
# Velocity P-wave (km/s) = 7.41157 7.91909 7.66953
#
# Compressibility (1/GPa) = 0.01594168
#
# Stress axis : x y z
#
# Youngs Moduli (GPa) = 110.40357 66.48803 99.40662
#
# Poissons Ratio (x) = 0.16998 0.37388
# Poissons Ratio (y) = 0.28225 0.27738
# Poissons Ratio (z) = 0.41524 0.18553
#
# Static dielectric constant tensor:
#      x y z
#    x 3.955030 0.412380 0.589250 
#    y 0.412380 3.759520 -0.058670 
#    z 0.589250 -0.058670 3.733660 
# 
# 
# High freq. dielectric constant tensor:
#      x y z
#    x 1.771090 0.005420 0.013360 
#    y 0.005420 1.778700 -0.000980 
#    z 0.013360 -0.000980 1.784540 
# 
# From -- ./inp_files/184111.got.cif
#   From: 2010.06.25/outbox.cif.g09.slc.cpg/sg2_93_cif.got.tgz:184111.got - 2010.06.27 13:26:56.
