data_PCOD8006065
_publ_section_title
;
Structure prediction by ZEFSAII (Michael W. Deem and Ramdas Pophale) SiO2 
 PCOD8006065
Probable space group: P -1
;
_chemical_formula_sum "Si O2"
_cell_formula_units_Z 16
_cell_length_a 14.591649
_cell_length_b 8.391518
_cell_length_c 11.548684
_cell_angle_alpha 38.020322
_cell_angle_beta 107.571964
_cell_angle_gamma 111.447563
_cell_volume 810.445840
_symmetry_space_group_name_H-M "P -1"
_symmetry_group_IT_number 2
_symmetry_cell_setting 'triclinic'
loop_
_space_group_symop_operation_xyz
x,y,z
-x,-y,-z
loop_
_atom_site_type_symbol
_atom_site_label
_atom_site_fract_x
_atom_site_fract_y
_atom_site_fract_z
Si Si1 0.695854 0.196558 0.056352
Si Si2 0.762260 0.386526 0.727720
Si Si3 0.750597 0.959744 0.787316
Si Si4 0.966609 0.708814 0.705956
Si Si5 0.393262 0.812986 0.552518
Si Si6 0.398200 0.407946 0.583666
Si Si7 0.609395 0.473319 0.057216
Si Si8 0.885870 0.568177 0.997251
O O1 0.634612 0.387584 0.986914
O O2 0.807868 0.294500 0.090456
O O3 0.633031 0.902951 0.223827
O O4 0.703276 0.230726 0.901997
O O5 0.861652 0.587885 0.681770
O O6 0.689058 0.549914 0.554165
O O7 0.795329 0.200745 0.749977
O O8 0.693589 0.046664 0.604199
O O9 0.669172 0.765782 0.942790
O O10 0.835319 0.805716 0.878594
O O11 0.047440 0.525005 0.822080
O O12 0.956206 0.709492 0.840228
O O13 0.000000 0.000000 0.500000
O O14 0.403922 0.573384 0.609478
O O15 0.362072 0.717004 0.725188
O O16 0.500000 0.000000 0.500000
O O17 0.500000 0.500000 0.500000
O O18 0.500000 0.500000 0.000000
#
# Coordination Sequence:
#
# PCOD8006065 Si02
#       8
#     2   2   2   2   2   2   2   2
#     4  10  22  39  58  85 120 153 200 247 295 353
#     4  10  23  40  60  87 121 157 195 253 299 353
#     4  10  22  40  57  86 122 154 201 244 297 355
#     4  10  20  39  65  89 117 151 197 244 303 363
#     4  11  22  37  55  79 117 158 202 247 287 343
#     4  11  24  36  57  86 118 162 203 243 295 348
#     4  11  22  35  60  82 112 163 203 244 291 345
#     4   9  21  38  62  90 116 156 194 246 301 359
#
# _framework density 19.742218999999999
#
# number of rings (size 3 to 8) (size 9 to 14) (size 15 to 20)
#    0.000    1.750    1.250    2.250    3.500    7.000 
#    0.000    0.625    0.000    0.000    0.000    0.000 
#    0.000    0.000    0.000    0.000    0.000    0.000 
#
# Total GULP energy -198244.972914 kJ/mol
# GULP energy per Si atom -12390.310807 kJ/mol
# Density = 1.969728 g / cm^3
# Si number density = 19.742219 Si / 1000 Ang^3
#
#
#
# Elastic Constant Matrix: (Units=GPa)
#
#
# Indices 1 2 3 4 5 6 
#
# 1 111.1117 34.3897 57.0342 -0.1515 10.5264 1.6343
# 2 34.3897 76.9327 47.8547 2.7989 6.0067 4.3883
# 3 57.0342 47.8547 134.6946 -1.8918 -1.2364 6.2466
# 4 -0.1515 2.7989 -1.8918 32.1654 6.2256 -2.5677
# 5 10.5264 6.0067 -1.2364 6.2256 40.8780 -7.2330
# 6 1.6343 4.3883 6.2466 -2.5677 -7.2330 24.2172
#
#
#
# Elastic Compliance Matrix: (Units=1/GPa)
#
#
# Indices 1 2 3 4 5 6 
#
# 1 0.012301 -0.002607 -0.004298 0.000610 -0.003023 -0.000087
# 2 -0.002607 0.017734 -0.005121 -0.001617 -0.002299 -0.002575
# 3 -0.004298 -0.005121 0.011137 0.000628 0.001921 -0.001014
# 4 0.000610 -0.001617 0.000628 0.032303 -0.004432 0.002191
# 5 -0.003023 -0.002299 0.001921 -0.004432 0.027716 0.007933
# 6 -0.000087 -0.002575 -0.001014 0.002191 0.007933 0.044629
#
#
# Mechanical properties :
#
#
# Convention : Reuss Voigt Hill
#
# Bulk Modulus (GPa) = 58.40738 66.81069 62.60903
# Shear Modulus (GPa) = 28.47719 31.68282 30.08001
#
# Velocity S-wave (km/s) = 3.80208 4.01037 3.90762
# Velocity P-wave (km/s) = 6.99455 7.44037 7.22090
#
# Compressibility (1/GPa) = 0.01712112
#
# Stress axis : x y z
#
# Youngs Moduli (GPa) = 81.29214 56.38745 89.79009
#
# Poissons Ratio (x) = 0.14698 0.38590
# Poissons Ratio (y) = 0.21190 0.45985
# Poissons Ratio (z) = 0.34938 0.28878
#
# Static dielectric constant tensor:
#      x y z
#    x 3.694120 0.050960 -0.040590 
#    y 0.050960 3.655140 0.120650 
#    z -0.040590 0.120650 3.879690 
# 
# 
# High freq. dielectric constant tensor:
#      x y z
#    x 1.777400 0.006540 0.000980 
#    y 0.006540 1.765220 -0.002340 
#    z 0.000980 -0.002340 1.780060 
# 
# From -- ./inp_files/49365.got.cif
#   From: 2010.06.25/outbox.cif.g09.slc.cpg/sg2_25_cif.got.tgz:49365.got - 2010.06.27 13:26:56.
