data_PCOD8006351
_publ_section_title
;
Structure prediction by ZEFSAII (Michael W. Deem and Ramdas Pophale) SiO2 
 PCOD8006351
Probable space group: P -1
;
_chemical_formula_sum "Si O2"
_cell_formula_units_Z 16
_cell_length_a 16.199045
_cell_length_b 29.419273
_cell_length_c 19.155197
_cell_angle_alpha 18.356974
_cell_angle_beta 18.301036
_cell_angle_gamma 16.990227
_cell_volume 748.745377
_symmetry_space_group_name_H-M "P -1"
_symmetry_group_IT_number 2
_symmetry_cell_setting 'triclinic'
loop_
_space_group_symop_operation_xyz
x,y,z
-x,-y,-z
loop_
_atom_site_type_symbol
_atom_site_label
_atom_site_fract_x
_atom_site_fract_y
_atom_site_fract_z
Si Si1 0.082511 0.934354 0.106755
Si Si2 0.730937 0.765219 0.640980
Si Si3 0.836540 0.202083 0.022878
Si Si4 0.141605 0.197803 0.064282
Si Si5 0.686312 0.602935 0.058331
Si Si6 0.587621 0.583448 0.634809
Si Si7 0.253023 0.155133 0.876397
Si Si8 0.689039 0.541616 0.456371
O O1 0.426133 0.755942 0.094939
O O2 0.788547 0.917893 0.390581
O O3 0.079395 0.081457 0.941593
O O4 0.000000 0.000000 0.000000
O O5 0.461726 0.810960 0.732808
O O6 0.047075 0.629509 0.544850
O O7 0.692775 0.684770 0.859865
O O8 0.715535 0.403326 0.833314
O O9 0.029262 0.120435 0.059380
O O10 0.795811 0.294504 0.235681
O O11 0.377355 0.004818 0.185990
O O12 0.104342 0.195441 0.014175
O O13 0.314188 0.293941 0.807982
O O14 0.630233 0.449839 0.313888
O O15 0.000000 0.500000 0.000000
O O16 0.729009 0.689097 0.398607
O O17 0.740131 0.527237 0.518409
#
# Coordination Sequence:
#
# PCOD8006351 Si02
#       8
#     2   2   2   2   2   2   2   2
#     4  11  24  43  64  95 133 169 213 265 318 383
#     4  11  22  43  65  91 131 170 210 264 319 376
#     4  12  22  41  64  94 125 167 211 263 318 375
#     4  10  21  44  63  89 131 164 207 264 322 379
#     4  11  24  41  65  97 126 170 217 263 319 381
#     4  11  21  43  67  89 126 167 209 261 323 379
#     4  10  25  40  63  97 123 162 214 265 316 383
#     4  10  20  39  68  88 125 168 211 257 320 382
#
# _framework density 21.36908
#
# number of rings (size 3 to 8) (size 9 to 14) (size 15 to 20)
#    0.000    1.250    3.750    1.875    0.000    5.500 
#    4.500    0.000    0.000    0.000    0.000    0.000 
#    0.000    0.000    0.000    0.000    0.000    0.000 
#
# Total GULP energy -198220.014166 kJ/mol
# GULP energy per Si atom -12388.750885 kJ/mol
# Density = 2.132044 g / cm^3
# Si number density = 21.369080 Si / 1000 Ang^3
#
#
#
# Elastic Constant Matrix: (Units=GPa)
#
#
# Indices 1 2 3 4 5 6 
#
# 1 103.7535 34.0299 47.4284 0.4627 -27.0380 -11.3771
# 2 34.0299 74.3746 30.8896 1.0013 -9.9186 -6.1495
# 3 47.4284 30.8896 109.1582 -1.0285 -16.0602 -2.0279
# 4 0.4627 1.0013 -1.0285 33.8315 4.5869 -4.4467
# 5 -27.0380 -9.9186 -16.0602 4.5869 27.8715 5.6497
# 6 -11.3771 -6.1495 -2.0279 -4.4467 5.6497 27.5631
#
#
#
# Elastic Compliance Matrix: (Units=1/GPa)
#
#
# Indices 1 2 3 4 5 6 
#
# 1 0.016143 -0.003851 -0.004189 -0.001414 0.011520 0.002907
# 2 -0.003851 0.016618 -0.002977 -0.000310 0.000145 0.001819
# 3 -0.004189 -0.002977 0.012120 -0.000054 0.002270 -0.001975
# 4 -0.001414 -0.000310 -0.000054 0.031452 -0.007913 0.006039
# 5 0.011520 0.000145 0.002270 -0.007913 0.051094 -0.006795
# 6 0.002907 0.001819 -0.001975 0.006039 -0.006795 0.040108
#
#
# Mechanical properties :
#
#
# Convention : Reuss Voigt Hill
#
# Bulk Modulus (GPa) = 43.76830 56.88690 50.32760
# Shear Modulus (GPa) = 25.35700 29.51578 27.43639
#
# Velocity S-wave (km/s) = 3.44847 3.72053 3.58708
# Velocity P-wave (km/s) = 6.03179 6.71829 6.38427
#
# Compressibility (1/GPa) = 0.02284759
#
# Stress axis : x y z
#
# Youngs Moduli (GPa) = 61.94574 60.17644 82.50617
#
# Poissons Ratio (x) = 0.23173 0.34560
# Poissons Ratio (y) = 0.23855 0.24563
# Poissons Ratio (z) = 0.25948 0.17915
#
# Static dielectric constant tensor:
#      x y z
#    x 3.630770 0.284210 -0.213840 
#    y 0.284210 4.393200 -0.144100 
#    z -0.213840 -0.144100 4.262740 
# 
# 
# High freq. dielectric constant tensor:
#      x y z
#    x 1.818430 0.016350 -0.015970 
#    y 0.016350 1.857600 -0.004500 
#    z -0.015970 -0.004500 1.844040 
# 
# From -- ./inp_files/358454.got.cif
#   From: 2010.06.25/outbox.cif.g09.slc.cpg/sg2_180_cif.got.tgz:358454.got - 2010.06.27 13:26:56.
