data_PCOD8006720
_publ_section_title
;
Structure prediction by ZEFSAII (Michael W. Deem and Ramdas Pophale) SiO2 
 PCOD8006720
Probable space group: P -1
;
_chemical_formula_sum "Si O2"
_cell_formula_units_Z 14
_cell_length_a 7.351728
_cell_length_b 12.341318
_cell_length_c 8.040707
_cell_angle_alpha 104.186522
_cell_angle_beta 54.011162
_cell_angle_gamma 109.041225
_cell_volume 556.630416
_symmetry_space_group_name_H-M "P -1"
_symmetry_group_IT_number 2
_symmetry_cell_setting 'triclinic'
loop_
_space_group_symop_operation_xyz
x,y,z
-x,-y,-z
loop_
_atom_site_type_symbol
_atom_site_label
_atom_site_fract_x
_atom_site_fract_y
_atom_site_fract_z
Si Si1 0.374080 0.388240 0.334478
Si Si2 0.276902 0.036696 0.552370
Si Si3 0.474492 0.640736 0.395401
Si Si4 0.987614 0.813644 0.467397
Si Si5 0.752818 0.828160 0.074720
Si Si6 0.359800 0.765807 0.016686
Si Si7 0.253469 0.820970 0.735034
O O1 0.352965 0.515059 0.338368
O O2 0.382933 0.380235 0.527296
O O3 0.590617 0.358185 0.106955
O O4 0.150544 0.286244 0.372914
O O5 0.192511 0.062465 0.791053
O O6 0.561101 0.069220 0.403361
O O7 0.191056 0.122902 0.503018
O O8 0.170163 0.903727 0.514589
O O9 0.645480 0.711359 0.191858
O O10 0.281181 0.706925 0.580048
O O11 0.125915 0.750592 0.241483
O O12 0.574116 0.844038 0.032651
O O13 0.989270 0.823620 0.855663
O O14 0.325763 0.830544 0.891624
#
# Coordination Sequence:
#
# PCOD8006720 Si02
#       7
#     2   2   2   2   2   2   2
#     4  10  20  40  63  91 122 162 206 247 303 365
#     4  10  22  40  65  86 122 166 202 244 314 358
#     4   9  20  39  63  90 124 162 203 245 307 363
#     4  11  21  40  65  87 122 164 203 253 299 362
#     4  11  22  41  63  94 124 159 203 253 302 363
#     4  11  23  37  64  94 122 159 207 247 306 361
#     4  10  20  43  63  90 124 163 200 253 301 361
#
# _framework density 25.151337999999999
#
# number of rings (size 3 to 8) (size 9 to 14) (size 15 to 20)
#    0.000    1.714    5.714    0.000    0.000    6.286 
#    0.000    7.143    0.000    0.000    0.000    0.000 
#    0.000    0.000    0.000    0.000    0.000    0.000 
#
# Total GULP energy -173601.504135 kJ/mol
# GULP energy per Si atom -12400.107438 kJ/mol
# Density = 2.509409 g / cm^3
# Si number density = 25.151338 Si / 1000 Ang^3
#
#
#
# Elastic Constant Matrix: (Units=GPa)
#
#
# Indices 1 2 3 4 5 6 
#
# 1 103.7989 32.8465 29.6645 -5.4281 -14.9345 10.5973
# 2 32.8465 184.0901 69.3725 7.0395 -15.4191 -3.0508
# 3 29.6645 69.3725 123.9180 -5.0251 -32.7571 -2.0108
# 4 -5.4281 7.0395 -5.0251 31.4509 5.0258 1.5174
# 5 -14.9345 -15.4191 -32.7571 5.0258 52.6421 4.0927
# 6 10.5973 -3.0508 -2.0108 1.5174 4.0927 26.3097
#
#
#
# Elastic Compliance Matrix: (Units=1/GPa)
#
#
# Indices 1 2 3 4 5 6 
#
# 1 0.011463 -0.001534 -0.001305 0.002018 0.002214 -0.005356
# 2 -0.001534 0.007256 -0.003940 -0.002485 -0.000633 0.001400
# 3 -0.001305 -0.003940 0.012221 0.001664 0.005923 -0.000014
# 4 0.002018 -0.002485 0.001664 0.033427 -0.002111 -0.002573
# 5 0.002214 -0.000633 0.005923 -0.002111 0.023642 -0.004069
# 6 -0.005356 0.001400 -0.000014 -0.002573 -0.004069 0.041109
#
#
# Mechanical properties :
#
#
# Convention : Reuss Voigt Hill
#
# Bulk Modulus (GPa) = 57.53280 75.06376 66.29828
# Shear Modulus (GPa) = 33.67666 40.74211 37.20939
#
# Velocity S-wave (km/s) = 3.66315 4.02914 3.85050
# Velocity P-wave (km/s) = 6.38873 7.18017 6.79598
#
# Compressibility (1/GPa) = 0.01738139
#
# Stress axis : x y z
#
# Youngs Moduli (GPa) = 87.23453 137.82019 81.82659
#
# Poissons Ratio (x) = 0.21141 0.10679
# Poissons Ratio (y) = 0.13382 0.32242
# Poissons Ratio (z) = 0.11385 0.54305
#
# Static dielectric constant tensor:
#      x y z
#    x 4.711260 0.011020 0.103940 
#    y 0.011020 4.780090 0.125910 
#    z 0.103940 0.125910 4.758990 
# 
# 
# High freq. dielectric constant tensor:
#      x y z
#    x 2.018920 -0.002980 0.008470 
#    y -0.002980 1.994460 0.007840 
#    z 0.008470 0.007840 2.020670 
# 
# From -- ./inp_files/197388.got.cif
#   From: 2010.06.25/outbox.cif.g09.slc.cpg/sg2_99_cif.got.tgz:197388.got - 2010.06.27 13:26:56.
