data_PCOD8006213
_publ_section_title
;
Structure prediction by ZEFSAII (Michael W. Deem and Ramdas Pophale) SiO2 
 PCOD8006213
Probable space group: P -1
;
_chemical_formula_sum "Si O2"
_cell_formula_units_Z 16
_cell_length_a 19.831834
_cell_length_b 18.938314
_cell_length_c 8.342131
_cell_angle_alpha 38.519481
_cell_angle_beta 48.009415
_cell_angle_gamma 21.257030
_cell_volume 681.866026
_symmetry_space_group_name_H-M "P -1"
_symmetry_group_IT_number 2
_symmetry_cell_setting 'triclinic'
loop_
_space_group_symop_operation_xyz
x,y,z
-x,-y,-z
loop_
_atom_site_type_symbol
_atom_site_label
_atom_site_fract_x
_atom_site_fract_y
_atom_site_fract_z
Si Si1 0.347783 0.499173 0.730559
Si Si2 0.036557 0.718419 0.021702
Si Si3 0.645603 0.801860 0.488708
Si Si4 0.769753 0.169852 0.183460
Si Si5 0.110026 0.708498 0.275981
Si Si6 0.327133 0.993058 0.057487
Si Si7 0.468565 0.162780 0.703026
Si Si8 0.475197 0.536032 0.236793
O O1 0.325524 0.608657 0.419693
O O2 0.482921 0.413130 0.794689
O O3 0.140925 0.700376 0.780476
O O4 0.469108 0.255475 0.915336
O O5 0.172904 0.458824 0.256812
O O6 0.004916 0.788103 0.134267
O O7 0.835357 0.915198 0.904204
O O8 0.732296 0.813322 0.235028
O O9 0.525266 0.847914 0.481610
O O10 0.500000 0.000000 0.500000
O O11 0.673234 0.252881 0.364520
O O12 0.791093 0.281755 0.936988
O O13 0.618973 0.297692 0.059713
O O14 0.963184 0.885727 0.344914
O O15 0.257983 0.450150 0.564568
O O16 0.368213 0.942482 0.276357
O O17 0.500000 0.000000 0.000000
#
# Coordination Sequence:
#
# PCOD8006213 Si02
#       8
#     2   2   2   2   2   2   2   2
#     4  11  22  41  62  93 136 172 220 272 341 390
#     4  11  22  40  67  99 131 173 226 272 333 403
#     4  10  20  41  71  93 129 173 217 275 328 399
#     4  10  20  39  66  93 129 175 232 271 327 394
#     4  10  20  39  67  98 130 175 224 277 329 396
#     4  11  22  41  65  95 128 176 218 272 333 394
#     4   9  21  40  67  94 135 170 215 273 333 390
#     4  10  22  40  62  93 131 180 220 279 332 395
#
# _framework density 23.465021
#
# number of rings (size 3 to 8) (size 9 to 14) (size 15 to 20)
#    0.000    1.750    2.500    1.875    0.000    0.000 
#    6.750    2.500    2.750    0.000    0.000    0.000 
#    0.000    0.000    0.000    0.000    0.000    0.000 
#
# Total GULP energy -198256.409860 kJ/mol
# GULP energy per Si atom -12391.025616 kJ/mol
# Density = 2.341161 g / cm^3
# Si number density = 23.465021 Si / 1000 Ang^3
#
#
#
# Elastic Constant Matrix: (Units=GPa)
#
#
# Indices 1 2 3 4 5 6 
#
# 1 111.8379 33.6972 33.3716 -12.3184 11.8738 -2.2567
# 2 33.6972 87.9182 23.0428 1.3884 3.7537 7.6915
# 3 33.3716 23.0428 65.8748 -7.2354 7.6098 3.7732
# 4 -12.3184 1.3884 -7.2354 32.9647 0.8741 -4.0576
# 5 11.8738 3.7537 7.6098 0.8741 33.3563 -7.2921
# 6 -2.2567 7.6915 3.7732 -4.0576 -7.2921 43.0821
#
#
#
# Elastic Compliance Matrix: (Units=1/GPa)
#
#
# Indices 1 2 3 4 5 6 
#
# 1 0.012029 -0.003601 -0.004174 0.003994 -0.002688 0.001560
# 2 -0.003601 0.013875 -0.003194 -0.002959 -0.000058 -0.002674
# 3 -0.004174 -0.003194 0.019133 0.002659 -0.002933 -0.001570
# 4 0.003994 -0.002959 0.002659 0.032991 -0.001838 0.003301
# 5 -0.002688 -0.000058 -0.002933 -0.001838 0.032866 0.005516
# 6 0.001560 -0.002674 -0.001570 0.003301 0.005516 0.025153
#
#
# Mechanical properties :
#
#
# Convention : Reuss Voigt Hill
#
# Bulk Modulus (GPa) = 43.29459 49.53935 46.41697
# Shear Modulus (GPa) = 30.17785 33.58189 31.87987
#
# Velocity S-wave (km/s) = 3.59008 3.78715 3.68993
# Velocity P-wave (km/s) = 5.97291 6.34675 6.16267
#
# Compressibility (1/GPa) = 0.02309757
#
# Stress axis : x y z
#
# Youngs Moduli (GPa) = 83.13341 72.07314 52.26587
#
# Poissons Ratio (x) = 0.25955 0.21817
# Poissons Ratio (y) = 0.29937 0.16695
# Poissons Ratio (z) = 0.34702 0.23021
#
# Static dielectric constant tensor:
#      x y z
#    x 4.663540 0.281640 0.105360 
#    y 0.281640 4.211670 0.042430 
#    z 0.105360 0.042430 4.289010 
# 
# 
# High freq. dielectric constant tensor:
#      x y z
#    x 1.950850 0.017470 0.006340 
#    y 0.017470 1.904410 -0.009130 
#    z 0.006340 -0.009130 1.926030 
# 
# From -- ./inp_files/349416.got.cif
#   From: 2010.06.25/outbox.cif.g09.slc.cpg/sg2_175_cif.got.tgz:349416.got - 2010.06.27 13:26:56.
