data_PCOD8006116
_publ_section_title
;
Structure prediction by ZEFSAII (Michael W. Deem and Ramdas Pophale) SiO2 
 PCOD8006116
Probable space group: P -1
;
_chemical_formula_sum "Si O2"
_cell_formula_units_Z 12
_cell_length_a 9.903822
_cell_length_b 8.729000
_cell_length_c 7.693810
_cell_angle_alpha 73.784187
_cell_angle_beta 119.690743
_cell_angle_gamma 107.665266
_cell_volume 543.841208
_symmetry_space_group_name_H-M "P -1"
_symmetry_group_IT_number 2
_symmetry_cell_setting 'triclinic'
loop_
_space_group_symop_operation_xyz
x,y,z
-x,-y,-z
loop_
_atom_site_type_symbol
_atom_site_label
_atom_site_fract_x
_atom_site_fract_y
_atom_site_fract_z
Si Si1 0.643575 0.867582 0.502895
Si Si2 0.484780 0.714236 0.111962
Si Si3 0.138954 0.580456 0.936583
Si Si4 0.394309 0.782682 0.651537
Si Si5 0.777136 0.556496 0.305599
Si Si6 0.045260 0.184551 0.405691
O O1 0.565957 0.838983 0.270703
O O2 0.539004 0.769879 0.619366
O O3 0.808420 0.804870 0.637474
O O4 0.675962 0.060396 0.496618
O O5 0.600746 0.593376 0.173026
O O6 0.316762 0.620120 0.116872
O O7 0.451165 0.799381 0.883263
O O8 0.142018 0.449966 0.827591
O O9 0.101865 0.755733 0.796273
O O10 0.000000 0.500000 0.000000
O O11 0.253173 0.627170 0.577952
O O12 0.900027 0.687895 0.445994
O O13 0.000000 0.000000 0.500000
#
# Coordination Sequence:
#
# PCOD8006116 Si02
#       6
#     2   2   2   2   2   2
#     4  10  23  38  67  92 123 172 213 258 308 390
#     4  10  22  41  64  90 128 165 216 258 310 377
#     4  11  24  39  64  97 130 161 210 265 323 373
#     4  10  20  39  65  94 122 160 225 254 310 366
#     4  10  23  42  68  86 126 172 209 257 312 386
#     4  11  24  42  63  92 133 165 209 262 330 369
#
# _framework density 22.065265
#
# number of rings (size 3 to 8) (size 9 to 14) (size 15 to 20)
#    0.000    1.667    0.000    5.000    7.000    2.667 
#    3.000    0.833    0.000    0.000    0.000    0.000 
#    0.000    0.000    0.000    0.000    0.000    0.000 
#
# Total GULP energy -148732.151247 kJ/mol
# GULP energy per Si atom -12394.345937 kJ/mol
# Density = 2.201504 g / cm^3
# Si number density = 22.065265 Si / 1000 Ang^3
#
#
#
# Elastic Constant Matrix: (Units=GPa)
#
#
# Indices 1 2 3 4 5 6 
#
# 1 177.7269 46.0202 34.2792 2.6874 1.6441 -2.9453
# 2 46.0202 129.2604 22.9123 5.1866 -6.3507 5.4083
# 3 34.2792 22.9123 48.0273 -2.8272 8.2704 6.0535
# 4 2.6874 5.1866 -2.8272 22.8544 -0.1735 -0.7482
# 5 1.6441 -6.3507 8.2704 -0.1735 40.0153 -6.7153
# 6 -2.9453 5.4083 6.0535 -0.7482 -6.7153 31.3644
#
#
#
# Elastic Compliance Matrix: (Units=1/GPa)
#
#
# Indices 1 2 3 4 5 6 
#
# 1 0.006993 -0.001680 -0.004619 -0.000942 0.000727 0.001971
# 2 -0.001680 0.009203 -0.003621 -0.002344 0.002161 -0.000639
# 3 -0.004619 -0.003621 0.028223 0.004581 -0.007325 -0.006716
# 4 -0.000942 -0.002344 0.004581 0.044966 -0.001038 0.000282
# 5 0.000727 0.002161 -0.007325 -0.001038 0.028001 0.007080
# 6 0.001971 -0.000639 -0.006716 0.000282 0.007080 0.034997
#
#
# Mechanical properties :
#
#
# Convention : Reuss Voigt Hill
#
# Bulk Modulus (GPa) = 40.68395 62.38202 51.53298
# Shear Modulus (GPa) = 27.71382 35.63370 31.67376
#
# Velocity S-wave (km/s) = 3.54784 4.02297 3.79285
# Velocity P-wave (km/s) = 5.93809 7.06484 6.52583
#
# Compressibility (1/GPa) = 0.02457972
#
# Stress axis : x y z
#
# Youngs Moduli (GPa) = 143.00858 108.65835 35.43198
#
# Poissons Ratio (x) = 0.18252 0.16365
# Poissons Ratio (y) = 0.24022 0.12830
# Poissons Ratio (z) = 0.66052 0.39346
#
# Static dielectric constant tensor:
#      x y z
#    x 4.453630 -0.165830 0.136190 
#    y -0.165830 3.895460 -0.060870 
#    z 0.136190 -0.060870 3.792950 
# 
# 
# High freq. dielectric constant tensor:
#      x y z
#    x 1.900510 -0.010420 0.008630 
#    y -0.010420 1.869000 -0.003280 
#    z 0.008630 -0.003280 1.837450 
# 
# From -- ./inp_files/147778.got.cif
#   From: 2010.06.25/outbox.cif.g09.slc.cpg/sg2_74_cif.got.tgz:147778.got - 2010.06.27 13:26:56.
