data_PCOD8006635
_publ_section_title
;
Structure prediction by ZEFSAII (Michael W. Deem and Ramdas Pophale) SiO2 
 PCOD8006635
Probable space group: P -1
;
_chemical_formula_sum "Si O2"
_cell_formula_units_Z 10
_cell_length_a 10.686478
_cell_length_b 11.238242
_cell_length_c 9.348004
_cell_angle_alpha 42.372535
_cell_angle_beta 44.065738
_cell_angle_gamma 40.658443
_cell_volume 459.913674
_symmetry_space_group_name_H-M "P -1"
_symmetry_group_IT_number 2
_symmetry_cell_setting 'triclinic'
loop_
_space_group_symop_operation_xyz
x,y,z
-x,-y,-z
loop_
_atom_site_type_symbol
_atom_site_label
_atom_site_fract_x
_atom_site_fract_y
_atom_site_fract_z
Si Si1 0.301514 0.843827 0.501818
Si Si2 0.168684 0.977644 0.993981
Si Si3 0.746600 0.679466 0.338251
Si Si4 0.531244 0.295188 0.220721
Si Si5 0.912544 0.242984 0.488355
O O1 0.536319 0.786587 0.320727
O O2 0.296178 0.776266 0.730564
O O3 0.225729 0.723028 0.568695
O O4 0.150240 0.085067 0.398541
O O5 0.132265 0.194305 0.886754
O O6 0.389025 0.869489 0.825930
O O7 0.176801 0.841353 0.240734
O O8 0.000000 0.000000 0.000000
O O9 0.683037 0.674136 0.562190
O O10 0.896777 0.454197 0.359103
O O11 0.500000 0.500000 0.000000
#
# Coordination Sequence:
#
# PCOD8006635 Si02
#       5
#     2   2   2   2   2
#     4   9  22  41  62  91 127 157 205 255 305 367
#     4  12  22  40  61  91 124 162 214 247 299 371
#     4  10  23  39  63  91 125 162 205 249 311 360
#     4  10  20  40  62  90 125 161 198 257 305 360
#     4  11  21  42  66  88 125 164 199 259 305 363
#
# _framework density 21.743210999999999
#
# number of rings (size 3 to 8) (size 9 to 14) (size 15 to 20)
#    1.200    0.400    4.000    1.200    0.000    1.600 
#    3.600    4.000    0.000    0.000    0.000    0.000 
#    0.000    0.000    0.000    0.000    0.000    0.000 
#
# Total GULP energy -123947.782773 kJ/mol
# GULP energy per Si atom -12394.778277 kJ/mol
# Density = 2.169372 g / cm^3
# Si number density = 21.743211 Si / 1000 Ang^3
#
#
#
# Elastic Constant Matrix: (Units=GPa)
#
#
# Indices 1 2 3 4 5 6 
#
# 1 82.8047 22.8115 36.1446 -24.4729 5.5625 4.1807
# 2 22.8115 137.2226 28.7532 -33.7252 -10.2538 13.8585
# 3 36.1446 28.7532 58.7558 -27.6883 1.3469 15.5856
# 4 -24.4729 -33.7252 -27.6883 41.7637 8.8672 -4.2327
# 5 5.5625 -10.2538 1.3469 8.8672 28.9145 2.1860
# 6 4.1807 13.8585 15.5856 -4.2327 2.1860 31.6650
#
#
#
# Elastic Compliance Matrix: (Units=1/GPa)
#
#
# Indices 1 2 3 4 5 6 
#
# 1 0.017950 -0.000442 -0.008904 0.005699 -0.005194 0.003326
# 2 -0.000442 0.009482 -0.000632 0.006290 0.001779 -0.003062
# 3 -0.008904 -0.000632 0.034044 0.016427 -0.004166 -0.012821
# 4 0.005699 0.006290 0.016427 0.045608 -0.013271 -0.004578
# 5 -0.005194 0.001779 -0.004166 -0.013271 0.040677 -0.002625
# 6 0.003326 -0.003062 -0.012821 -0.004578 -0.002625 0.038361
#
#
# Mechanical properties :
#
#
# Convention : Reuss Voigt Hill
#
# Bulk Modulus (GPa) = 24.08517 50.46684 37.27600
# Shear Modulus (GPa) = 22.73572 33.20688 27.97130
#
# Velocity S-wave (km/s) = 3.23715 3.91222 3.59059
# Velocity P-wave (km/s) = 5.00733 6.60818 5.86265
#
# Compressibility (1/GPa) = 0.04151933
#
# Stress axis : x y z
#
# Youngs Moduli (GPa) = 55.70985 105.46775 29.37367
#
# Poissons Ratio (x) = 0.04660 0.26154
# Poissons Ratio (y) = 0.02461 0.01858
# Poissons Ratio (z) = 0.49604 0.06670
#
# Static dielectric constant tensor:
#      x y z
#    x 3.780880 0.016740 0.179810 
#    y 0.016740 4.254550 0.203770 
#    z 0.179810 0.203770 3.609870 
# 
# 
# High freq. dielectric constant tensor:
#      x y z
#    x 1.840720 0.000130 0.013330 
#    y 0.000130 1.870060 0.001630 
#    z 0.013330 0.001630 1.828110 
# 
# From -- ./inp_files/16290.got.cif
#   From: 2010.06.25/outbox.cif.g09.slc.cpg/sg2_9_cif.got.tgz:16290.got - 2010.06.27 13:26:56.
