data_PCOD8006180
_publ_section_title
;
Structure prediction by ZEFSAII (Michael W. Deem and Ramdas Pophale) SiO2 
 PCOD8006180
Probable space group: P -1
;
_chemical_formula_sum "Si O2"
_cell_formula_units_Z 16
_cell_length_a 12.488829
_cell_length_b 9.122960
_cell_length_c 9.657605
_cell_angle_alpha 80.051212
_cell_angle_beta 56.665429
_cell_angle_gamma 57.969704
_cell_volume 768.340268
_symmetry_space_group_name_H-M "P -1"
_symmetry_group_IT_number 2
_symmetry_cell_setting 'triclinic'
loop_
_space_group_symop_operation_xyz
x,y,z
-x,-y,-z
loop_
_atom_site_type_symbol
_atom_site_label
_atom_site_fract_x
_atom_site_fract_y
_atom_site_fract_z
Si Si1 0.229421 0.395313 0.895827
Si Si2 0.160522 0.319370 0.436686
Si Si3 0.321558 0.133566 0.627585
Si Si4 0.094352 0.078747 0.368035
Si Si5 0.343133 0.414043 0.095475
Si Si6 0.310084 0.763135 0.076064
Si Si7 0.002727 0.680401 0.842173
Si Si8 0.152694 0.996919 0.913161
O O1 0.312579 0.227528 0.763892
O O2 0.167739 0.567107 0.813434
O O3 0.340202 0.389180 0.935672
O O4 0.081599 0.428017 0.082444
O O5 0.234839 0.282092 0.544234
O O6 0.152800 0.147019 0.439387
O O7 0.272236 0.322727 0.245531
O O8 0.000000 0.500000 0.500000
O O9 0.500000 0.000000 0.500000
O O10 0.235464 0.024967 0.718358
O O11 0.983261 0.253766 0.328829
O O12 0.232153 0.926034 0.209012
O O13 0.000000 0.000000 0.500000
O O14 0.264675 0.618839 0.161662
O O15 0.515061 0.316582 0.028763
O O16 0.268038 0.817136 0.937303
O O17 0.885604 0.846006 0.985371
O O18 0.000000 0.000000 0.000000
#
# Coordination Sequence:
#
# PCOD8006180 Si02
#       8
#     2   2   2   2   2   2   2   2
#     4  10  20  39  66  89 126 167 220 264 320 387
#     4  12  26  41  70  99 131 175 218 274 333 392
#     4  11  26  42  62  99 136 168 218 275 334 395
#     4  11  23  40  62  95 134 164 214 276 328 382
#     4  11  23  43  68  92 131 175 220 266 333 397
#     4  10  24  41  65  97 128 172 222 271 321 400
#     4   9  19  36  60  94 115 163 219 270 304 385
#     4  10  21  38  66  89 126 168 217 266 324 385
#
# _framework density 20.824107000000001
#
# number of rings (size 3 to 8) (size 9 to 14) (size 15 to 20)
#    0.000    1.500    1.250    3.000   10.500    0.500 
#    0.000    0.000    0.000    3.750    0.000    0.000 
#    0.000    0.000    0.000    0.000    0.000    0.000 
#
# Total GULP energy -198260.199837 kJ/mol
# GULP energy per Si atom -12391.262490 kJ/mol
# Density = 2.077671 g / cm^3
# Si number density = 20.824107 Si / 1000 Ang^3
#
#
#
# Elastic Constant Matrix: (Units=GPa)
#
#
# Indices 1 2 3 4 5 6 
#
# 1 122.4576 50.1986 42.7608 -6.4539 5.4397 -8.9747
# 2 50.1986 98.0030 34.1214 -7.5497 -2.6361 -9.7254
# 3 42.7608 34.1214 86.7099 -8.0463 -2.9330 -2.6880
# 4 -6.4539 -7.5497 -8.0463 28.2915 5.7089 5.7238
# 5 5.4397 -2.6361 -2.9330 5.7089 32.5663 -4.1774
# 6 -8.9747 -9.7254 -2.6880 5.7238 -4.1774 41.5654
#
#
#
# Elastic Compliance Matrix: (Units=1/GPa)
#
#
# Indices 1 2 3 4 5 6 
#
# 1 0.011610 -0.004507 -0.003952 0.000693 -0.002675 0.000832
# 2 -0.004507 0.013902 -0.003028 0.001053 0.001691 0.002109
# 3 -0.003952 -0.003028 0.014917 0.002450 0.001225 -0.000811
# 4 0.000693 0.001053 0.002450 0.039098 -0.007378 -0.005571
# 5 -0.002675 0.001691 0.001225 -0.007378 0.033240 0.004254
# 6 0.000832 0.002109 -0.000811 -0.005571 0.004254 0.025874
#
#
# Mechanical properties :
#
#
# Convention : Reuss Voigt Hill
#
# Bulk Modulus (GPa) = 57.28956 62.37023 59.82990
# Shear Modulus (GPa) = 29.86261 32.49060 31.17661
#
# Velocity S-wave (km/s) = 3.79098 3.95427 3.87349
# Velocity P-wave (km/s) = 6.83615 7.13193 6.98560
#
# Compressibility (1/GPa) = 0.01745519
#
# Stress axis : x y z
#
# Youngs Moduli (GPa) = 86.13299 71.93069 67.03772
#
# Poissons Ratio (x) = 0.32417 0.26496
# Poissons Ratio (y) = 0.38817 0.20299
# Poissons Ratio (z) = 0.34043 0.21781
#
# Static dielectric constant tensor:
#      x y z
#    x 3.832360 0.079920 0.091170 
#    y 0.079920 4.046970 -0.409340 
#    z 0.091170 -0.409340 3.761040 
# 
# 
# High freq. dielectric constant tensor:
#      x y z
#    x 1.812220 -0.002330 0.007760 
#    y -0.002330 1.828340 -0.011520 
#    z 0.007760 -0.011520 1.804550 
# 
# From -- ./inp_files/243398.got.cif
#   From: 2010.06.25/outbox.cif.g09.slc.cpg/sg2_122_cif.got.tgz:243398.got - 2010.06.27 13:26:56.
