data_PCOD8006545
_publ_section_title
;
Structure prediction by ZEFSAII (Michael W. Deem and Ramdas Pophale) SiO2 
 PCOD8006545
Probable space group: P -1
;
_chemical_formula_sum "Si O2"
_cell_formula_units_Z 16
_cell_length_a 7.393151
_cell_length_b 10.645198
_cell_length_c 14.595345
_cell_angle_alpha 91.611595
_cell_angle_beta 67.815454
_cell_angle_gamma 137.355112
_cell_volume 661.061344
_symmetry_space_group_name_H-M "P -1"
_symmetry_group_IT_number 2
_symmetry_cell_setting 'triclinic'
loop_
_space_group_symop_operation_xyz
x,y,z
-x,-y,-z
loop_
_atom_site_type_symbol
_atom_site_label
_atom_site_fract_x
_atom_site_fract_y
_atom_site_fract_z
Si Si1 0.208980 0.769382 0.839940
Si Si2 0.511637 0.700269 0.173422
Si Si3 0.028415 0.094098 0.182779
Si Si4 0.562792 0.542029 0.311284
Si Si5 0.644420 0.340845 0.992068
Si Si6 0.590504 0.813855 0.628415
Si Si7 0.233568 0.149489 0.593989
Si Si8 0.264730 0.818218 0.159733
O O1 0.298073 0.730481 0.733418
O O2 0.008669 0.783367 0.841427
O O3 0.998051 0.575457 0.944688
O O4 0.504515 0.953845 0.849265
O O5 0.392823 0.527498 0.258300
O O6 0.495230 0.649874 0.069226
O O7 0.294965 0.717977 0.225948
O O8 0.867871 0.917115 0.137907
O O9 0.401977 0.245693 0.119946
O O10 0.858921 0.993989 0.310934
O O11 0.385379 0.323492 0.359201
O O12 0.560104 0.630578 0.402836
O O13 0.922589 0.702278 0.218744
O O14 0.649201 0.195924 0.957682
O O15 0.562823 0.817753 0.523534
O O16 0.912474 0.039775 0.606957
#
# Coordination Sequence:
#
# PCOD8006545 Si02
#       8
#     2   2   2   2   2   2   2   2
#     4  11  21  37  65  89 124 162 201 264 303 368
#     4   8  20  35  63  89 121 166 197 250 306 363
#     4  10  21  40  63  88 125 164 206 248 312 370
#     4  11  19  41  66  89 125 162 206 256 311 369
#     4  10  20  40  60  94 124 165 200 253 310 367
#     4  11  22  40  63  88 124 161 204 264 311 353
#     4  10  24  40  61  90 120 165 210 252 309 370
#     4   9  20  37  62  92 127 159 205 251 308 372
#
# _framework density 24.203502
#
# number of rings (size 3 to 8) (size 9 to 14) (size 15 to 20)
#    0.750    1.250    2.500    1.125    1.750    0.500 
#    0.000    4.375    0.000    4.500    0.000    0.000 
#    0.000    0.000    0.000    0.000    0.000    0.000 
#
# Total GULP energy -198321.502088 kJ/mol
# GULP energy per Si atom -12395.093880 kJ/mol
# Density = 2.414841 g / cm^3
# Si number density = 24.203502 Si / 1000 Ang^3
#
#
#
# Elastic Constant Matrix: (Units=GPa)
#
#
# Indices 1 2 3 4 5 6 
#
# 1 33.1060 -0.6084 12.2089 1.4263 -2.7957 -18.6535
# 2 -0.6084 92.3657 23.4780 -0.4212 2.7509 -13.2265
# 3 12.2089 23.4780 107.4851 2.4727 3.2046 -21.1037
# 4 1.4263 -0.4212 2.4727 24.8141 1.0464 1.6625
# 5 -2.7957 2.7509 3.2046 1.0464 23.8770 -3.2979
# 6 -18.6535 -13.2265 -21.1037 1.6625 -3.2979 30.2777
#
#
#
# Elastic Compliance Matrix: (Units=1/GPa)
#
#
# Indices 1 2 3 4 5 6 
#
# 1 0.051316 0.005087 -0.000226 -0.005640 0.010553 0.035139
# 2 0.005087 0.012362 -0.001845 -0.000408 0.000448 0.007320
# 3 -0.000226 -0.001845 0.011125 -0.001575 -0.000290 0.006864
# 4 -0.005640 -0.000408 -0.001575 0.041404 -0.003235 -0.007376
# 5 0.010553 0.000448 -0.000290 -0.003235 0.044842 0.011557
# 6 0.035139 0.007320 0.006864 -0.007376 0.011557 0.064321
#
#
# Mechanical properties :
#
#
# Convention : Reuss Voigt Hill
#
# Bulk Modulus (GPa) = 12.37083 33.67933 23.02508
# Shear Modulus (GPa) = 20.30188 28.98566 24.64377
#
# Velocity S-wave (km/s) = 2.89935 3.46436 3.19437
# Velocity P-wave (km/s) = 4.04111 5.47245 4.81031
#
# Compressibility (1/GPa) = 0.08083529
#
# Stress axis : x y z
#
# Youngs Moduli (GPa) = 19.48723 80.89361 89.88953
#
# Poissons Ratio (x) = -0.41151 0.02029
# Poissons Ratio (y) = -0.09913 0.16584
# Poissons Ratio (z) = 0.00440 0.14924
#
# Static dielectric constant tensor:
#      x y z
#    x 4.180290 -0.022260 0.167350 
#    y -0.022260 4.545330 0.128200 
#    z 0.167350 0.128200 4.187900 
# 
# 
# High freq. dielectric constant tensor:
#      x y z
#    x 1.951580 -0.000440 0.016530 
#    y -0.000440 1.974090 0.006790 
#    z 0.016530 0.006790 1.939070 
# 
# From -- ./inp_files/500461.got.cif
#   From: 2010.06.25/outbox.cif.g09.slc.cpg/sg2_251_cif.got.tgz:500461.got - 2010.06.27 13:26:56.
