data_PCOD8006533
_publ_section_title
;
Structure prediction by ZEFSAII (Michael W. Deem and Ramdas Pophale) SiO2 
 PCOD8006533
Probable space group: P -1
;
_chemical_formula_sum "Si O2"
_cell_formula_units_Z 16
_cell_length_a 9.802417
_cell_length_b 19.988781
_cell_length_c 16.733265
_cell_angle_alpha 18.969291
_cell_angle_beta 110.450723
_cell_angle_gamma 100.185794
_cell_volume 862.341788
_symmetry_space_group_name_H-M "P -1"
_symmetry_group_IT_number 2
_symmetry_cell_setting 'triclinic'
loop_
_space_group_symop_operation_xyz
x,y,z
-x,-y,-z
loop_
_atom_site_type_symbol
_atom_site_label
_atom_site_fract_x
_atom_site_fract_y
_atom_site_fract_z
Si Si1 0.597010 0.631298 0.397551
Si Si2 0.467006 0.904582 0.380489
Si Si3 0.968496 0.800402 0.385173
Si Si4 0.612818 0.865985 0.286463
Si Si5 0.169763 0.408904 0.740676
Si Si6 0.089189 0.718288 0.228784
Si Si7 0.275129 0.715452 0.632537
Si Si8 0.510609 0.794624 0.682956
O O1 0.500000 0.500000 0.500000
O O2 0.579318 0.692951 0.418359
O O3 0.792737 0.455091 0.620938
O O4 0.531190 0.866671 0.065038
O O5 0.589981 0.814969 0.430917
O O6 0.345356 0.787469 0.486697
O O7 0.582062 0.801751 0.600766
O O8 0.358715 0.194229 0.039238
O O9 0.076380 0.551117 0.641615
O O10 0.077488 0.810928 0.470585
O O11 0.798798 0.823707 0.358733
O O12 0.922622 0.025581 0.064307
O O13 0.168423 0.603520 0.460448
O O14 0.086338 0.270976 0.835546
O O15 0.322955 0.825566 0.595046
O O16 0.368684 0.435424 0.981636
O O17 0.500000 0.000000 0.500000
#
# Coordination Sequence:
#
# PCOD8006533 Si02
#       8
#     2   2   2   2   2   2   2   2
#     4  11  22  39  55  76 121 171 199 232 287 343
#     4  10  20  40  60  89 117 149 200 239 288 361
#     4  12  22  37  59  87 120 156 193 249 298 337
#     4  11  24  38  57  85 123 160 195 242 294 343
#     4  11  22  35  57  84 117 156 206 243 285 337
#     4  11  21  36  53  84 115 157 208 246 275 342
#     4   9  21  36  61  90 109 144 197 236 294 352
#     4   9  18  40  65  86 114 145 189 247 298 346
#
# _framework density 18.554129
#
# number of rings (size 3 to 8) (size 9 to 14) (size 15 to 20)
#    0.750    0.750    5.000    1.125    0.000    1.000 
#    2.250    0.625    0.000    0.750    0.000    0.000 
#    0.000    0.000    0.000    0.000    0.000    0.000 
#
# Total GULP energy -198232.720696 kJ/mol
# GULP energy per Si atom -12389.545044 kJ/mol
# Density = 1.851190 g / cm^3
# Si number density = 18.554129 Si / 1000 Ang^3
#
#
#
# Elastic Constant Matrix: (Units=GPa)
#
#
# Indices 1 2 3 4 5 6 
#
# 1 82.1233 41.0717 40.1391 -0.7017 -7.5181 0.6830
# 2 41.0717 90.8065 40.5502 -7.0687 -11.7929 0.7792
# 3 40.1391 40.5502 98.6986 1.5580 -10.6895 -2.9476
# 4 -0.7017 -7.0687 1.5580 29.4212 0.5306 -1.2914
# 5 -7.5181 -11.7929 -10.6895 0.5306 21.8344 -0.6278
# 6 0.6830 0.7792 -2.9476 -1.2914 -0.6278 32.9650
#
#
#
# Elastic Compliance Matrix: (Units=1/GPa)
#
#
# Indices 1 2 3 4 5 6 
#
# 1 0.017383 -0.005765 -0.004644 -0.000764 0.000598 -0.000658
# 2 -0.005765 0.016290 -0.003901 0.003880 0.004799 -0.000371
# 3 -0.004644 -0.003901 0.014047 -0.001788 0.003256 0.001436
# 4 -0.000764 0.003880 -0.001788 0.035045 0.000139 0.001140
# 5 0.000598 0.004799 0.003256 0.000139 0.050220 0.001127
# 6 -0.000658 -0.000371 0.001436 0.001140 0.001127 0.030552
#
#
# Mechanical properties :
#
#
# Convention : Reuss Voigt Hill
#
# Bulk Modulus (GPa) = 52.35295 57.23894 54.79594
# Shear Modulus (GPa) = 25.18580 26.83529 26.01054
#
# Velocity S-wave (km/s) = 3.68832 3.80718 3.74822
# Velocity P-wave (km/s) = 6.81292 7.08822 6.95193
#
# Compressibility (1/GPa) = 0.01910112
#
# Stress axis : x y z
#
# Youngs Moduli (GPa) = 57.52599 61.38598 71.19022
#
# Poissons Ratio (x) = 0.35389 0.33060
# Poissons Ratio (y) = 0.33164 0.27771
# Poissons Ratio (z) = 0.26714 0.23946
#
# Static dielectric constant tensor:
#      x y z
#    x 2.470900 0.143340 -0.772960 
#    y 0.143340 2.951300 -0.290730 
#    z -0.772960 -0.290730 2.509720 
# 
# 
# High freq. dielectric constant tensor:
#      x y z
#    x 1.696180 0.012650 -0.011630 
#    y 0.012650 1.712180 -0.002740 
#    z -0.011630 -0.002740 1.726160 
# 
# From -- ./inp_files/562548.got.cif
#   From: 2010.06.25/outbox.cif.g09.slc.cpg/sg2_282_cif.got.tgz:562548.got - 2010.06.27 13:26:56.
