data_PCOD8006825
_publ_section_title
;
Structure prediction by ZEFSAII (Michael W. Deem and Ramdas Pophale) SiO2 
 PCOD8006825
Probable space group: P -1
;
_chemical_formula_sum "Si O2"
_cell_formula_units_Z 14
_cell_length_a 9.122229
_cell_length_b 16.176327
_cell_length_c 10.995844
_cell_angle_alpha 128.870450
_cell_angle_beta 122.821432
_cell_angle_gamma 32.919859
_cell_volume 686.113403
_symmetry_space_group_name_H-M "P -1"
_symmetry_group_IT_number 2
_symmetry_cell_setting 'triclinic'
loop_
_space_group_symop_operation_xyz
x,y,z
-x,-y,-z
loop_
_atom_site_type_symbol
_atom_site_label
_atom_site_fract_x
_atom_site_fract_y
_atom_site_fract_z
Si Si1 0.099646 0.287060 0.812485
Si Si2 0.630478 0.210928 0.286039
Si Si3 0.784014 0.904710 0.087103
Si Si4 0.217181 0.485428 0.548566
Si Si5 0.173501 0.666876 0.508325
Si Si6 0.597724 0.657581 0.957764
Si Si7 0.299719 0.613560 0.905557
O O1 0.171277 0.157740 0.814481
O O2 0.992123 0.287360 0.641516
O O3 0.861496 0.466131 0.930255
O O4 0.357064 0.247135 0.871930
O O5 0.454101 0.317256 0.425152
O O6 0.867113 0.188955 0.355419
O O7 0.437462 0.303856 0.166538
O O8 0.792582 0.027603 0.206961
O O9 0.997730 0.758381 0.953415
O O10 0.500000 0.000000 0.000000
O O11 0.059766 0.647122 0.547001
O O12 0.338671 0.493304 0.724718
O O13 0.000000 0.500000 0.500000
O O14 0.500000 0.500000 0.500000
O O15 0.352603 0.702539 0.944517
O O16 0.500000 0.500000 0.000000
#
# Coordination Sequence:
#
# PCOD8006825 Si02
#       7
#     2   2   2   2   2   2   2
#     4  11  22  39  70  96 135 180 229 266 333 413
#     4  11  22  44  67  94 134 179 220 273 344 389
#     4  12  26  44  68 104 141 173 218 286 347 387
#     4  11  23  39  67  98 132 172 227 275 325 395
#     4  10  20  40  64  94 129 180 224 266 329 404
#     4  11  21  41  70  97 128 186 230 266 323 415
#     4  12  26  43  69 102 136 173 231 277 327 406
#
# _framework density 20.404789000000001
#
# number of rings (size 3 to 8) (size 9 to 14) (size 15 to 20)
#    0.000    0.857    7.143    1.714    2.000    1.143 
#    0.000    0.000    0.000    4.286    0.000    0.000 
#    0.000    0.000    0.000    0.000    0.000    0.000 
#
# Total GULP energy -173536.464098 kJ/mol
# GULP energy per Si atom -12395.461721 kJ/mol
# Density = 2.035835 g / cm^3
# Si number density = 20.404789 Si / 1000 Ang^3
#
#
#
# Elastic Constant Matrix: (Units=GPa)
#
#
# Indices 1 2 3 4 5 6 
#
# 1 142.9406 43.1914 56.5239 -12.3965 17.1694 18.4710
# 2 43.1914 82.5100 49.0402 -6.9758 -6.1028 13.7259
# 3 56.5239 49.0402 150.3373 -27.3407 9.4164 14.7078
# 4 -12.3965 -6.9758 -27.3407 35.0458 2.6392 1.0704
# 5 17.1694 -6.1028 9.4164 2.6392 41.8710 2.4922
# 6 18.4710 13.7259 14.7078 1.0704 2.4922 41.1550
#
#
#
# Elastic Compliance Matrix: (Units=1/GPa)
#
#
# Indices 1 2 3 4 5 6 
#
# 1 0.009772 -0.003963 -0.001558 0.001840 -0.004214 -0.002300
# 2 -0.003963 0.017695 -0.004705 -0.001885 0.005544 -0.002728
# 3 -0.001558 -0.004705 0.010321 0.006812 -0.002712 -0.001433
# 4 0.001840 -0.001885 0.006812 0.034566 -0.004546 -0.003256
# 5 -0.004214 0.005544 -0.002712 -0.004546 0.027347 -0.000526
# 6 -0.002300 -0.002728 -0.001433 -0.003256 -0.000526 0.026869
#
#
# Mechanical properties :
#
#
# Convention : Reuss Voigt Hill
#
# Bulk Modulus (GPa) = 57.68107 74.81100 66.24603
# Shear Modulus (GPa) = 32.72194 38.74985 35.73590
#
# Velocity S-wave (km/s) = 4.00889 4.36254 4.18945
# Velocity P-wave (km/s) = 7.05394 7.88155 7.47920
#
# Compressibility (1/GPa) = 0.01733671
#
# Stress axis : x y z
#
# Youngs Moduli (GPa) = 102.32929 56.51174 96.88670
#
# Poissons Ratio (x) = 0.22396 0.15094
# Poissons Ratio (y) = 0.40553 0.45588
# Poissons Ratio (z) = 0.15942 0.26590
#
# Static dielectric constant tensor:
#      x y z
#    x 3.750180 -1.666380 -1.235960 
#    y -1.666380 -3.017050 -5.274820 
#    z -1.235960 -5.274820 -0.352040 
# 
# 
# High freq. dielectric constant tensor:
#      x y z
#    x 1.816690 0.019430 0.016840 
#    y 0.019430 1.765300 -0.017310 
#    z 0.016840 -0.017310 1.806080 
# 
# From -- ./inp_files/402257.got.cif
#   From: 2010.06.25/outbox.cif.g09.slc.cpg/sg2_202_cif.got.tgz:402257.got - 2010.06.27 13:26:56.
