data_PCOD8006826
_publ_section_title
;
Structure prediction by ZEFSAII (Michael W. Deem and Ramdas Pophale) SiO2 
 PCOD8006826
Probable space group: P -1
;
_chemical_formula_sum "Si O2"
_cell_formula_units_Z 14
_cell_length_a 13.532711
_cell_length_b 8.250705
_cell_length_c 13.077009
_cell_angle_alpha 116.076283
_cell_angle_beta 33.419919
_cell_angle_gamma 94.142107
_cell_volume 580.220403
_symmetry_space_group_name_H-M "P -1"
_symmetry_group_IT_number 2
_symmetry_cell_setting 'triclinic'
loop_
_space_group_symop_operation_xyz
x,y,z
-x,-y,-z
loop_
_atom_site_type_symbol
_atom_site_label
_atom_site_fract_x
_atom_site_fract_y
_atom_site_fract_z
Si Si1 0.047042 0.481356 0.114127
Si Si2 0.885672 0.945145 0.663818
Si Si3 0.649507 0.243155 0.136250
Si Si4 0.544012 0.278456 0.628053
Si Si5 0.977190 0.813234 0.095633
Si Si6 0.704838 0.736074 0.647493
Si Si7 0.330170 0.570270 0.258631
O O1 0.973958 0.699426 0.171773
O O2 0.944750 0.556666 0.337555
O O3 0.314461 0.304645 0.843735
O O4 0.956679 0.354207 0.102515
O O5 0.701419 0.929193 0.762533
O O6 0.073728 0.703798 0.483018
O O7 0.000000 0.000000 0.500000
O O8 0.785023 0.145366 0.886341
O O9 0.503214 0.513905 0.340228
O O10 0.480421 0.170298 0.259958
O O11 0.829465 0.146745 0.047162
O O12 0.639353 0.270404 0.654705
O O13 0.736458 0.044290 0.343488
O O14 0.624527 0.635074 0.771026
O O15 0.500000 0.500000 0.000000
#
# Coordination Sequence:
#
# PCOD8006826 Si02
#       7
#     2   2   2   2   2   2   2
#     4  10  22  40  66  97 132 170 224 277 325 392
#     4  12  22  40  68  93 135 173 216 274 333 397
#     4  10  22  39  61  93 131 170 217 269 322 393
#     4  10  20  40  64  94 130 167 224 270 329 388
#     4  10  20  42  68  94 127 180 222 268 335 385
#     4  11  24  42  61 101 138 166 226 275 324 401
#     4  11  23  41  65  95 133 179 218 269 337 393
#
# _framework density 24.128761000000001
#
# number of rings (size 3 to 8) (size 9 to 14) (size 15 to 20)
#    0.000    1.429    1.429    5.571    0.000    0.571 
#    2.571    2.857    0.000    0.000    0.000    0.000 
#    0.000    0.000    0.000    0.000    0.000    0.000 
#
# Total GULP energy -173510.497697 kJ/mol
# GULP energy per Si atom -12393.606978 kJ/mol
# Density = 2.407384 g / cm^3
# Si number density = 24.128761 Si / 1000 Ang^3
#
#
#
# Elastic Constant Matrix: (Units=GPa)
#
#
# Indices 1 2 3 4 5 6 
#
# 1 97.9226 29.7221 13.3022 -3.5382 -18.4727 35.8286
# 2 29.7221 68.1901 24.7472 -0.9634 -0.7715 16.3339
# 3 13.3022 24.7472 80.1735 16.7665 -23.4599 -6.1042
# 4 -3.5382 -0.9634 16.7665 35.1876 4.7694 -2.9854
# 5 -18.4727 -0.7715 -23.4599 4.7694 51.5523 -9.2115
# 6 35.8286 16.3339 -6.1042 -2.9854 -9.2115 40.9944
#
#
#
# Elastic Compliance Matrix: (Units=1/GPa)
#
#
# Indices 1 2 3 4 5 6 
#
# 1 0.016833 -0.003324 -0.002297 0.001250 0.002484 -0.013080
# 2 -0.003324 0.021873 -0.010198 0.005415 -0.007548 -0.008630
# 3 -0.002297 -0.010198 0.023190 -0.012315 0.012771 0.011497
# 4 0.001250 0.005415 -0.012315 0.035417 -0.009168 -0.004564
# 5 0.002484 -0.007548 0.012771 -0.009168 0.028342 0.008439
# 6 -0.013080 -0.008630 0.011497 -0.004564 0.008439 0.042540
#
#
# Mechanical properties :
#
#
# Convention : Reuss Voigt Hill
#
# Bulk Modulus (GPa) = 33.05077 42.42548 37.73813
# Shear Modulus (GPa) = 23.81876 37.44784 30.63330
#
# Velocity S-wave (km/s) = 3.14531 3.94382 3.56698
# Velocity P-wave (km/s) = 5.18826 6.19349 5.71303
#
# Compressibility (1/GPa) = 0.03025648
#
# Stress axis : x y z
#
# Youngs Moduli (GPa) = 59.40808 45.71823 43.12274
#
# Poissons Ratio (x) = 0.15198 0.09906
# Poissons Ratio (y) = 0.19750 0.43976
# Poissons Ratio (z) = 0.13647 0.46623
#
# Static dielectric constant tensor:
#      x y z
#    x 4.797190 0.564690 -0.155560 
#    y 0.564690 4.023190 -0.078340 
#    z -0.155560 -0.078340 4.144760 
# 
# 
# High freq. dielectric constant tensor:
#      x y z
#    x 1.969320 0.028970 -0.012540 
#    y 0.028970 1.922430 0.004100 
#    z -0.012540 0.004100 1.967220 
# 
# From -- ./inp_files/528876.got.cif
#   From: 2010.06.25/outbox.cif.g09.slc.cpg/sg2_265_cif.got.tgz:528876.got - 2010.06.27 13:26:56.
