data_PCOD8006578
_publ_section_title
;
Structure prediction by ZEFSAII (Michael W. Deem and Ramdas Pophale) SiO2 
 PCOD8006578
Probable space group: P -1
;
_chemical_formula_sum "Si O2"
_cell_formula_units_Z 16
_cell_length_a 17.043508
_cell_length_b 11.637479
_cell_length_c 9.203873
_cell_angle_alpha 71.703825
_cell_angle_beta 120.735641
_cell_angle_gamma 150.081740
_cell_volume 746.317779
_symmetry_space_group_name_H-M "P -1"
_symmetry_group_IT_number 2
_symmetry_cell_setting 'triclinic'
loop_
_space_group_symop_operation_xyz
x,y,z
-x,-y,-z
loop_
_atom_site_type_symbol
_atom_site_label
_atom_site_fract_x
_atom_site_fract_y
_atom_site_fract_z
Si Si1 0.217490 0.883137 0.495599
Si Si2 0.267037 0.896618 0.064788
Si Si3 0.315691 0.248620 0.347955
Si Si4 0.968175 0.936044 0.327896
Si Si5 0.054458 0.525449 0.260050
Si Si6 0.672069 0.751319 0.977423
Si Si7 0.579002 0.092441 0.196777
Si Si8 0.873406 0.570641 0.423418
O O1 0.073015 0.631988 0.375367
O O2 0.390056 0.007798 0.674410
O O3 0.092665 0.800138 0.534152
O O4 0.301011 0.086234 0.397473
O O5 0.134243 0.697904 0.141141
O O6 0.329077 0.105078 0.066452
O O7 0.440448 0.008781 0.198437
O O8 0.155921 0.750529 0.866178
O O9 0.500000 0.500000 0.500000
O O10 0.326636 0.295590 0.169159
O O11 0.147489 0.118735 0.326016
O O12 0.835112 0.666971 0.320161
O O13 0.859364 0.920793 0.158901
O O14 0.000000 0.000000 0.500000
O O15 0.168270 0.532808 0.412388
O O16 0.500000 0.500000 0.000000
O O17 0.768410 0.381772 0.269424
O O18 0.500000 0.000000 0.000000
#
# Coordination Sequence:
#
# PCOD8006578 Si02
#       8
#     2   2   2   2   2   2   2   2
#     4  10  21  41  63  90 130 166 209 266 329 390
#     4  11  23  39  64  94 127 165 212 266 323 388
#     4  11  25  46  66  98 133 180 228 280 330 396
#     4  11  24  44  70 100 130 177 225 276 339 400
#     4  10  20  40  61  90 127 162 204 258 329 380
#     4  12  25  46  69  97 138 180 228 280 330 397
#     4  11  22  37  60  96 124 164 212 257 327 388
#     4  10  21  38  65  89 127 164 205 262 326 390
#
# _framework density 21.438589
#
# number of rings (size 3 to 8) (size 9 to 14) (size 15 to 20)
#    0.000    1.250    1.250    5.625    0.000    6.000 
#    9.000    0.000    0.000    0.000    0.000    0.000 
#    0.000    0.000    0.000    0.000    0.000    0.000 
#
# Total GULP energy -198213.588131 kJ/mol
# GULP energy per Si atom -12388.349258 kJ/mol
# Density = 2.138979 g / cm^3
# Si number density = 21.438589 Si / 1000 Ang^3
#
#
#
# Elastic Constant Matrix: (Units=GPa)
#
#
# Indices 1 2 3 4 5 6 
#
# 1 96.5509 32.8046 48.7332 0.0068 6.2990 8.1789
# 2 32.8046 100.6329 36.5199 0.9884 -5.7315 0.8474
# 3 48.7332 36.5199 138.6790 7.9906 -7.9810 6.6598
# 4 0.0068 0.9884 7.9906 33.6482 1.4811 0.0071
# 5 6.2990 -5.7315 -7.9810 1.4811 40.3365 2.3158
# 6 8.1789 0.8474 6.6598 0.0071 2.3158 26.9377
#
#
#
# Elastic Compliance Matrix: (Units=1/GPa)
#
#
# Indices 1 2 3 4 5 6 
#
# 1 0.014040 -0.003228 -0.004213 0.001241 -0.003368 -0.002830
# 2 -0.003228 0.011775 -0.001913 0.000032 0.001744 0.000933
# 3 -0.004213 -0.001913 0.009527 -0.002312 0.002426 -0.001224
# 4 0.001241 0.000032 -0.002312 0.030345 -0.001780 0.000339
# 5 -0.003368 0.001744 0.002426 -0.001780 0.026219 -0.001886
# 6 -0.002830 0.000933 -0.001224 0.000339 -0.001886 0.038417
#
#
# Mechanical properties :
#
#
# Convention : Reuss Voigt Hill
#
# Bulk Modulus (GPa) = 60.11879 63.55315 61.83597
# Shear Modulus (GPa) = 32.34674 34.70482 33.52578
#
# Velocity S-wave (km/s) = 3.88855 4.02780 3.95879
# Velocity P-wave (km/s) = 6.94725 7.16516 7.05705
#
# Compressibility (1/GPa) = 0.01663373
#
# Stress axis : x y z
#
# Youngs Moduli (GPa) = 71.22544 84.92820 104.96788
#
# Poissons Ratio (x) = 0.27415 0.44224
# Poissons Ratio (y) = 0.22992 0.20077
# Poissons Ratio (z) = 0.30008 0.16244
#
# Static dielectric constant tensor:
#      x y z
#    x 3.918560 -0.056370 0.079580 
#    y -0.056370 3.871370 0.090910 
#    z 0.079580 0.090910 4.233830 
# 
# 
# High freq. dielectric constant tensor:
#      x y z
#    x 1.834310 -0.008240 0.003460 
#    y -0.008240 1.843130 -0.002680 
#    z 0.003460 -0.002680 1.858800 
# 
# From -- ./inp_files/245465.got.cif
#   From: 2010.06.25/outbox.cif.g09.slc.cpg/sg2_123_cif.got.tgz:245465.got - 2010.06.27 13:26:56.
