data_PCOD8006806
_publ_section_title
;
Structure prediction by ZEFSAII (Michael W. Deem and Ramdas Pophale) SiO2 
 PCOD8006806
Probable space group: P -1
;
_chemical_formula_sum "Si O2"
_cell_formula_units_Z 12
_cell_length_a 8.710705
_cell_length_b 11.074248
_cell_length_c 17.549254
_cell_angle_alpha 149.672194
_cell_angle_beta 138.654176
_cell_angle_gamma 49.142448
_cell_volume 564.595120
_symmetry_space_group_name_H-M "P -1"
_symmetry_group_IT_number 2
_symmetry_cell_setting 'triclinic'
loop_
_space_group_symop_operation_xyz
x,y,z
-x,-y,-z
loop_
_atom_site_type_symbol
_atom_site_label
_atom_site_fract_x
_atom_site_fract_y
_atom_site_fract_z
Si Si1 0.771044 0.483774 0.074485
Si Si2 0.063670 0.041850 0.681344
Si Si3 0.168191 0.950316 0.250177
Si Si4 0.591824 0.622467 0.488154
Si Si5 0.122145 0.561458 0.366228
Si Si6 0.689708 0.141292 0.191955
O O1 0.874982 0.736271 0.226707
O O2 0.921591 0.411242 0.166331
O O3 0.500000 0.500000 0.000000
O O4 0.812140 0.299700 0.921483
O O5 0.000422 0.812358 0.482282
O O6 0.295344 0.966225 0.775051
O O7 0.850941 0.100826 0.693518
O O8 0.382134 0.118439 0.400140
O O9 0.936039 0.098829 0.218154
O O10 0.329798 0.614939 0.414781
O O11 0.779114 0.590464 0.608642
O O12 0.630087 0.422870 0.328091
O O13 0.500000 0.000000 0.000000
#
# Coordination Sequence:
#
# PCOD8006806 Si02
#       6
#     2   2   2   2   2   2
#     4  12  24  41  59  87 124 163 201 239 296 360
#     4   9  22  40  59  86 123 155 202 242 294 355
#     4  10  22  38  61  86 123 153 202 249 288 357
#     4  10  20  40  64  92 118 153 203 243 307 348
#     4  10  22  39  65  86 121 159 194 250 296 356
#     4   9  19  35  62  89 118 152 192 254 293 345
#
# _framework density 21.254169000000001
#
# number of rings (size 3 to 8) (size 9 to 14) (size 15 to 20)
#    1.000    1.000    0.000    3.500    0.000    2.000 
#    0.000    1.667    0.000    0.000    0.000    0.000 
#    0.000    0.000    0.000    0.000    0.000    0.000 
#
# Total GULP energy -148743.500663 kJ/mol
# GULP energy per Si atom -12395.291722 kJ/mol
# Density = 2.120579 g / cm^3
# Si number density = 21.254169 Si / 1000 Ang^3
#
#
#
# Elastic Constant Matrix: (Units=GPa)
#
#
# Indices 1 2 3 4 5 6 
#
# 1 115.5872 19.5431 30.7983 1.8666 -4.5229 -14.8182
# 2 19.5431 37.7550 24.1116 -2.4685 -2.2475 -3.3182
# 3 30.7983 24.1116 71.7158 -4.4171 -6.7789 -7.9699
# 4 1.8666 -2.4685 -4.4171 34.3512 -9.7005 1.9946
# 5 -4.5229 -2.2475 -6.7789 -9.7005 36.9114 14.3087
# 6 -14.8182 -3.3182 -7.9699 1.9946 14.3087 31.9997
#
#
#
# Elastic Compliance Matrix: (Units=1/GPa)
#
#
# Indices 1 2 3 4 5 6 
#
# 1 0.010635 -0.003259 -0.003246 -0.002030 -0.001861 0.004737
# 2 -0.003259 0.034773 -0.010231 0.001565 0.000560 -0.000800
# 3 -0.003246 -0.010231 0.019307 0.002711 0.002943 0.000760
# 4 -0.002030 0.001565 0.002711 0.033544 0.012109 -0.007608
# 5 -0.001861 0.000560 0.002943 0.012109 0.037429 -0.017562
# 6 0.004737 -0.000800 0.000760 -0.007608 -0.017562 0.041877
#
#
# Mechanical properties :
#
#
# Convention : Reuss Voigt Hill
#
# Bulk Modulus (GPa) = 32.00723 41.55154 36.77939
# Shear Modulus (GPa) = 22.57849 30.69278 26.63563
#
# Velocity S-wave (km/s) = 3.26284 3.80423 3.54389
# Velocity P-wave (km/s) = 5.41173 6.23607 5.83846
#
# Compressibility (1/GPa) = 0.03124294
#
# Stress axis : x y z
#
# Youngs Moduli (GPa) = 94.03267 28.75816 51.79426
#
# Poissons Ratio (x) = 0.09373 0.16811
# Poissons Ratio (y) = 0.30646 0.52990
# Poissons Ratio (z) = 0.30521 0.29422
#
# Static dielectric constant tensor:
#      x y z
#    x 3.895100 -0.065450 -0.195580 
#    y -0.065450 3.671840 -0.015570 
#    z -0.195580 -0.015570 3.684110 
# 
# 
# High freq. dielectric constant tensor:
#      x y z
#    x 1.834230 -0.007810 -0.014090 
#    y -0.007810 1.816200 0.003820 
#    z -0.014090 0.003820 1.833820 
# 
# From -- ./inp_files/302225.got.cif
#   From: 2010.06.25/outbox.cif.g09.slc.cpg/sg2_152_cif.got.tgz:302225.got - 2010.06.27 13:26:56.
