data_PCOD8006279
_publ_section_title
;
Structure prediction by ZEFSAII (Michael W. Deem and Ramdas Pophale) SiO2 
 PCOD8006279
Probable space group: P -1
;
_chemical_formula_sum "Si O2"
_cell_formula_units_Z 16
_cell_length_a 9.166156
_cell_length_b 11.248228
_cell_length_c 20.675321
_cell_angle_alpha 142.915430
_cell_angle_beta 37.974328
_cell_angle_gamma 142.538747
_cell_volume 708.493066
_symmetry_space_group_name_H-M "P -1"
_symmetry_group_IT_number 2
_symmetry_cell_setting 'triclinic'
loop_
_space_group_symop_operation_xyz
x,y,z
-x,-y,-z
loop_
_atom_site_type_symbol
_atom_site_label
_atom_site_fract_x
_atom_site_fract_y
_atom_site_fract_z
Si Si1 0.476770 0.384812 0.216099
Si Si2 0.514020 0.278801 0.415038
Si Si3 0.074744 0.868479 0.349524
Si Si4 0.732550 0.393572 0.258363
Si Si5 0.105910 0.107814 0.715028
Si Si6 0.287252 0.584244 0.095337
Si Si7 0.240540 0.720243 0.031886
Si Si8 0.915717 0.301760 0.393925
O O1 0.496581 0.325093 0.258507
O O2 0.664544 0.644334 0.252845
O O3 0.181023 0.337282 0.279440
O O4 0.544159 0.224195 0.076167
O O5 0.500000 0.500000 0.500000
O O6 0.636709 0.233457 0.284785
O O7 0.697117 0.302102 0.421835
O O8 0.218817 0.070964 0.438186
O O9 0.306562 0.790153 0.220784
O O10 0.813501 0.647040 0.366681
O O11 0.995769 0.956657 0.350544
O O12 0.985182 0.391849 0.131052
O O13 0.858510 0.091560 0.839336
O O14 0.207812 0.934147 0.628873
O O15 0.347667 0.664500 0.035892
O O16 0.500000 0.500000 0.000000
O O17 0.000000 0.500000 0.000000
O O18 0.000000 0.500000 0.500000
#
# Coordination Sequence:
#
# PCOD8006279 Si02
#       8
#     2   2   2   2   2   2   2   2
#     4  10  20  39  67  89 122 157 199 242 296 354
#     4  12  25  42  61  83 119 157 198 250 299 350
#     4   8  19  39  61  86 118 155 195 236 295 346
#     4   9  20  39  62  88 118 160 193 234 303 341
#     4   9  19  40  64  88 123 154 199 243 292 353
#     4   9  18  33  61  89 125 155 189 241 288 355
#     4   9  16  34  62  93 117 162 191 236 301 344
#     4  12  27  41  60  90 115 156 205 253 293 352
#
# _framework density 22.583143
#
# number of rings (size 3 to 8) (size 9 to 14) (size 15 to 20)
#    0.750    1.500    2.500    2.250    1.750    4.500 
#    0.000    0.625    0.000    0.000    0.000    0.000 
#    0.000    0.000    0.000    0.000    0.000    0.000 
#
# Total GULP energy -198212.861104 kJ/mol
# GULP energy per Si atom -12388.303819 kJ/mol
# Density = 2.253174 g / cm^3
# Si number density = 22.583143 Si / 1000 Ang^3
#
#
#
# Elastic Constant Matrix: (Units=GPa)
#
#
# Indices 1 2 3 4 5 6 
#
# 1 135.8093 35.5758 24.2199 12.0194 -19.9322 -0.4234
# 2 35.5758 68.8651 10.3874 -2.9912 -3.4067 3.5645
# 3 24.2199 10.3874 28.4511 7.9381 -14.7023 -0.2868
# 4 12.0194 -2.9912 7.9381 35.4680 -2.9134 -2.3125
# 5 -19.9322 -3.4067 -14.7023 -2.9134 41.6578 2.3377
# 6 -0.4234 3.5645 -0.2868 -2.3125 2.3377 38.0420
#
#
#
# Elastic Compliance Matrix: (Units=1/GPa)
#
#
# Indices 1 2 3 4 5 6 
#
# 1 0.009976 -0.004404 -0.004911 -0.002435 0.002499 0.000185
# 2 -0.004404 0.017660 -0.004817 0.003804 -0.002020 -0.001385
# 3 -0.004911 -0.004817 0.051219 -0.009038 0.014738 -0.000672
# 4 -0.002435 0.003804 -0.009038 0.031306 -0.001943 0.001571
# 5 0.002499 -0.002020 0.014738 -0.001943 0.030194 -0.001645
# 6 0.000185 -0.001385 -0.000672 0.001571 -0.001645 0.026610
#
#
# Mechanical properties :
#
#
# Convention : Reuss Voigt Hill
#
# Bulk Modulus (GPa) = 19.76723 41.49907 30.63315
# Shear Modulus (GPa) = 23.57448 33.89639 28.73544
#
# Velocity S-wave (km/s) = 3.23444 3.87843 3.57098
# Velocity P-wave (km/s) = 4.76665 6.20260 5.53142
#
# Compressibility (1/GPa) = 0.05058877
#
# Stress axis : x y z
#
# Youngs Moduli (GPa) = 100.24258 56.62494 19.52403
#
# Poissons Ratio (x) = 0.24940 0.09589
# Poissons Ratio (y) = 0.44151 0.09405
# Poissons Ratio (z) = 0.49234 0.27277
#
# Static dielectric constant tensor:
#      x y z
#    x 3.899690 -0.122770 0.223230 
#    y -0.122770 4.240380 -0.322560 
#    z 0.223230 -0.322560 4.638590 
# 
# 
# High freq. dielectric constant tensor:
#      x y z
#    x 1.871710 0.001220 0.015210 
#    y 0.001220 1.896510 -0.008740 
#    z 0.015210 -0.008740 1.899370 
# 
# From -- ./inp_files/607588.got.cif
#   From: 2010.06.25/outbox.cif.g09.slc.cpg/sg2_304_cif.got.tgz:607588.got - 2010.06.27 13:26:56.
