data_PCOD8006267
_publ_section_title
;
Structure prediction by ZEFSAII (Michael W. Deem and Ramdas Pophale) SiO2 
 PCOD8006267
Probable space group: P -1
;
_chemical_formula_sum "Si O2"
_cell_formula_units_Z 14
_cell_length_a 11.944074
_cell_length_b 9.203082
_cell_length_c 12.247147
_cell_angle_alpha 61.144522
_cell_angle_beta 36.671441
_cell_angle_gamma 50.320350
_cell_volume 617.506548
_symmetry_space_group_name_H-M "P -1"
_symmetry_group_IT_number 2
_symmetry_cell_setting 'triclinic'
loop_
_space_group_symop_operation_xyz
x,y,z
-x,-y,-z
loop_
_atom_site_type_symbol
_atom_site_label
_atom_site_fract_x
_atom_site_fract_y
_atom_site_fract_z
Si Si1 0.887932 0.321946 0.125176
Si Si2 0.941414 0.932551 0.266455
Si Si3 0.239767 0.210199 0.723171
Si Si4 0.294491 0.549834 0.566938
Si Si5 0.505186 0.294566 0.785711
Si Si6 0.437750 0.712874 0.003142
Si Si7 0.403156 0.040841 0.321383
O O1 0.909101 0.351521 0.228202
O O2 0.701746 0.504690 0.146625
O O3 0.841614 0.144306 0.219339
O O4 0.109897 0.278482 0.913388
O O5 0.906438 0.811360 0.244831
O O6 0.832904 0.917191 0.470543
O O7 0.192358 0.851250 0.116594
O O8 0.302756 0.365134 0.574359
O O9 0.457873 0.022616 0.651926
O O10 0.500000 0.500000 0.500000
O O11 0.288546 0.687809 0.425086
O O12 0.525219 0.258055 0.910897
O O13 0.501332 0.122123 0.786741
O O14 0.500000 0.500000 0.000000
O O15 0.591439 0.773437 0.794266
#
# Coordination Sequence:
#
# PCOD8006267 Si02
#       7
#     2   2   2   2   2   2   2
#     4  11  21  43  74 106 138 178 236 287 349 406
#     4  12  27  46  73 106 140 185 232 288 352 412
#     4  12  23  40  72 108 142 176 231 296 340 407
#     4  10  20  39  67 104 136 175 229 285 342 403
#     4  11  24  47  70 103 143 181 233 288 344 418
#     4  12  30  50  69 100 145 188 232 287 349 422
#     4  12  25  47  73 103 141 185 235 285 349 411
#
# _framework density 22.671824999999998
#
# number of rings (size 3 to 8) (size 9 to 14) (size 15 to 20)
#    0.000    0.571    5.714    3.429    4.000    1.143 
#    2.571    0.000    0.000    0.000    0.000    0.000 
#    0.000    0.000    0.000    0.000    0.000    0.000 
#
# Total GULP energy -173570.752787 kJ/mol
# GULP energy per Si atom -12397.910913 kJ/mol
# Density = 2.262022 g / cm^3
# Si number density = 22.671825 Si / 1000 Ang^3
#
#
#
# Elastic Constant Matrix: (Units=GPa)
#
#
# Indices 1 2 3 4 5 6 
#
# 1 75.0867 24.9782 7.4020 -11.2233 4.6029 7.5689
# 2 24.9782 119.9640 29.8845 -25.9588 -7.0012 19.7309
# 3 7.4020 29.8845 97.3978 -21.2401 -3.7364 0.8893
# 4 -11.2233 -25.9588 -21.2401 45.1765 3.5837 -7.5731
# 5 4.6029 -7.0012 -3.7364 3.5837 28.1810 -4.5421
# 6 7.5689 19.7309 0.8893 -7.5731 -4.5421 27.3123
#
#
#
# Elastic Compliance Matrix: (Units=1/GPa)
#
#
# Indices 1 2 3 4 5 6 
#
# 1 0.014931 -0.002456 -0.000026 0.002182 -0.003713 -0.002375
# 2 -0.002456 0.011327 -0.002386 0.003626 0.001442 -0.006179
# 3 -0.000026 -0.002386 0.012028 0.004675 0.000860 0.002779
# 4 0.002182 0.003626 0.004675 0.027772 -0.001717 0.004039
# 5 -0.003713 0.001442 0.000860 -0.001717 0.037709 0.005754
# 6 -0.002375 -0.006179 0.002779 0.004039 0.005754 0.043722
#
#
# Mechanical properties :
#
#
# Convention : Reuss Voigt Hill
#
# Bulk Modulus (GPa) = 35.02721 46.33089 40.67905
# Shear Modulus (GPa) = 29.98634 35.47954 32.73294
#
# Velocity S-wave (km/s) = 3.64074 3.96020 3.80382
# Velocity P-wave (km/s) = 5.75817 6.43356 6.10521
#
# Compressibility (1/GPa) = 0.02854923
#
# Stress axis : x y z
#
# Youngs Moduli (GPa) = 66.97603 88.28629 83.13596
#
# Poissons Ratio (x) = 0.21685 0.00216
# Poissons Ratio (y) = 0.16451 0.19838
# Poissons Ratio (z) = 0.00174 0.21067
#
# Static dielectric constant tensor:
#      x y z
#    x 3.744250 0.167590 0.136320 
#    y 0.167590 4.110340 -0.058210 
#    z 0.136320 -0.058210 4.870590 
# 
# 
# High freq. dielectric constant tensor:
#      x y z
#    x 1.869050 0.023350 0.000370 
#    y 0.023350 1.893760 -0.008590 
#    z 0.000370 -0.008590 1.917470 
# 
# From -- ./inp_files/208766.got.cif
#   From: 2010.06.25/outbox.cif.g09.slc.cpg/sg2_105_cif.got.tgz:208766.got - 2010.06.27 13:26:56.
