data_PCOD8006631
_publ_section_title
;
Structure prediction by ZEFSAII (Michael W. Deem and Ramdas Pophale) SiO2 
 PCOD8006631
Probable space group: P -1
;
_chemical_formula_sum "Si O2"
_cell_formula_units_Z 16
_cell_length_a 16.213418
_cell_length_b 9.184012
_cell_length_c 12.646113
_cell_angle_alpha 148.151840
_cell_angle_beta 55.610449
_cell_angle_gamma 111.265857
_cell_volume 789.764138
_symmetry_space_group_name_H-M "P -1"
_symmetry_group_IT_number 2
_symmetry_cell_setting 'triclinic'
loop_
_space_group_symop_operation_xyz
x,y,z
-x,-y,-z
loop_
_atom_site_type_symbol
_atom_site_label
_atom_site_fract_x
_atom_site_fract_y
_atom_site_fract_z
Si Si1 0.992944 0.941418 0.789745
Si Si2 0.978046 0.413502 0.244328
Si Si3 0.534497 0.221343 0.875727
Si Si4 0.153082 0.658809 0.328220
Si Si5 0.608837 0.971960 0.460211
Si Si6 0.677759 0.542668 0.751621
Si Si7 0.186689 0.142622 0.268346
Si Si8 0.712401 0.329603 0.946715
O O1 0.885179 0.878299 0.793902
O O2 0.044745 0.746559 0.731311
O O3 0.075894 0.892394 0.603655
O O4 0.968095 0.265461 0.048762
O O5 0.890058 0.713716 0.491781
O O6 0.093731 0.442197 0.188962
O O7 0.589336 0.967213 0.598702
O O8 0.500000 0.500000 0.000000
O O9 0.427491 0.200991 0.994753
O O10 0.609492 0.250739 0.934393
O O11 0.254627 0.482877 0.207415
O O12 0.195992 0.796768 0.282293
O O13 0.690997 0.672096 0.187385
O O14 0.500000 0.000000 0.500000
O O15 0.655246 0.235393 0.552522
O O16 0.737763 0.654718 0.683822
O O17 0.252028 0.829184 0.065706
#
# Coordination Sequence:
#
# PCOD8006631 Si02
#       8
#     2   2   2   2   2   2   2   2
#     4  10  21  40  63  95 126 163 217 258 301 380
#     4  10  21  39  66  91 126 166 214 258 304 377
#     4  10  20  40  62  90 123 160 212 259 298 374
#     4  11  20  38  64  92 117 174 213 248 303 381
#     4  11  21  41  65  91 121 164 219 255 295 379
#     4  11  20  41  69  87 123 170 211 253 306 377
#     4  11  24  43  60  97 135 158 203 270 321 358
#     4  12  25  39  65  96 131 162 204 268 321 358
#
# _framework density 20.259214
#
# number of rings (size 3 to 8) (size 9 to 14) (size 15 to 20)
#    0.000    1.250    7.500    0.750    1.750    3.500 
#    2.250    1.875    0.000    0.000    0.000    0.000 
#    0.000    0.000    0.000    0.000    0.000    0.000 
#
# Total GULP energy -198298.801278 kJ/mol
# GULP energy per Si atom -12393.675080 kJ/mol
# Density = 2.021310 g / cm^3
# Si number density = 20.259214 Si / 1000 Ang^3
#
#
#
# Elastic Constant Matrix: (Units=GPa)
#
#
# Indices 1 2 3 4 5 6 
#
# 1 100.1998 37.5454 62.8764 -10.1472 3.6981 26.2246
# 2 37.5454 77.2841 39.4782 -0.5155 -8.8137 10.2388
# 3 62.8764 39.4782 116.5949 -6.7897 10.4881 4.7182
# 4 -10.1472 -0.5155 -6.7897 25.7641 2.4912 -3.4453
# 5 3.6981 -8.8137 10.4881 2.4912 30.1898 -1.0776
# 6 26.2246 10.2388 4.7182 -3.4453 -1.0776 29.0627
#
#
#
# Elastic Compliance Matrix: (Units=1/GPa)
#
#
# Indices 1 2 3 4 5 6 
#
# 1 0.022394 -0.003801 -0.009744 0.004057 -0.001404 -0.016857
# 2 -0.003801 0.018554 -0.005046 -0.003537 0.007841 -0.002416
# 3 -0.009744 -0.005046 0.015832 0.001850 -0.005646 0.008010
# 4 0.004057 -0.003537 0.001850 0.041633 -0.005536 0.002015
# 5 -0.001404 0.007841 -0.005646 -0.005536 0.038009 0.000174
# 6 -0.016857 -0.002416 0.008010 0.002015 0.000174 0.049415
#
#
# Mechanical properties :
#
#
# Convention : Reuss Voigt Hill
#
# Bulk Modulus (GPa) = 51.03041 63.76432 57.39736
# Shear Modulus (GPa) = 21.78151 27.28192 24.53172
#
# Velocity S-wave (km/s) = 3.28249 3.67364 3.48356
# Velocity P-wave (km/s) = 6.29363 7.03824 6.67632
#
# Compressibility (1/GPa) = 0.01959616
#
# Stress axis : x y z
#
# Youngs Moduli (GPa) = 44.65553 53.89616 63.16454
#
# Poissons Ratio (x) = 0.20487 0.61551
# Poissons Ratio (y) = 0.16975 0.31873
# Poissons Ratio (z) = 0.43515 0.27196
#
# Static dielectric constant tensor:
#      x y z
#    x 3.847200 0.210990 -0.053520 
#    y 0.210990 3.495070 -0.296390 
#    z -0.053520 -0.296390 4.073590 
# 
# 
# High freq. dielectric constant tensor:
#      x y z
#    x 1.802770 0.010490 -0.005680 
#    y 0.010490 1.756570 -0.017850 
#    z -0.005680 -0.017850 1.789890 
# 
# From -- ./inp_files/448321.got.cif
#   From: 2010.06.25/outbox.cif.g09.slc.cpg/sg2_225_cif.got.tgz:448321.got - 2010.06.27 13:26:56.
