data_PCOD8006739
_publ_section_title
;
Structure prediction by ZEFSAII (Michael W. Deem and Ramdas Pophale) SiO2 
 PCOD8006739
Probable space group: P -1
;
_chemical_formula_sum "Si O2"
_cell_formula_units_Z 16
_cell_length_a 5.424634
_cell_length_b 24.459244
_cell_length_c 5.489182
_cell_angle_alpha 124.896388
_cell_angle_beta 77.692886
_cell_angle_gamma 87.265339
_cell_volume 570.400183
_symmetry_space_group_name_H-M "P -1"
_symmetry_group_IT_number 2
_symmetry_cell_setting 'triclinic'
loop_
_space_group_symop_operation_xyz
x,y,z
-x,-y,-z
loop_
_atom_site_type_symbol
_atom_site_label
_atom_site_fract_x
_atom_site_fract_y
_atom_site_fract_z
Si Si1 0.741755 0.031305 0.276202
Si Si2 0.174370 0.216566 0.181622
Si Si3 0.289596 0.455561 0.365525
Si Si4 0.368907 0.101655 0.137082
Si Si5 0.542410 0.295721 0.131164
Si Si6 0.256168 0.670278 0.314559
Si Si7 0.913880 0.149353 0.691470
Si Si8 0.854673 0.576494 0.186704
O O1 0.561303 0.084800 0.274287
O O2 0.783770 0.083436 0.618624
O O3 0.612850 0.966944 0.211353
O O4 0.000000 0.000000 0.000000
O O5 0.411460 0.171870 0.176940
O O6 0.925335 0.254501 0.481726
O O7 0.259585 0.277591 0.167768
O O8 0.110889 0.155640 0.879132
O O9 0.500000 0.500000 0.500000
O O10 0.287029 0.403241 0.466218
O O11 0.000000 0.500000 0.500000
O O12 0.348031 0.418366 0.990287
O O13 0.071977 0.126279 0.352876
O O14 0.564654 0.339929 0.994417
O O15 0.730042 0.222513 0.882324
O O16 0.586806 0.334622 0.474636
O O17 0.077339 0.615936 0.185720
O O18 0.000000 0.500000 0.000000
#
# Coordination Sequence:
#
# PCOD8006739 Si02
#       8
#     2   2   2   2   2   2   2   2
#     4   9  20  36  64  95 130 174 221 288 351 421
#     4  11  25  41  69  98 130 187 232 290 352 426
#     4  10  21  42  72 107 147 193 241 290 366 441
#     4  10  20  40  63  93 133 170 232 281 354 423
#     4  11  25  42  72 100 141 187 237 293 355 419
#     4  11  25  48  68 106 143 182 244 294 352 429
#     4  10  21  40  63  91 135 174 228 284 355 412
#     4  10  22  45  73 102 146 188 237 297 366 432
#
# _framework density 28.050487
#
# number of rings (size 3 to 8) (size 9 to 14) (size 15 to 20)
#    0.000    1.750    1.250    1.875    3.500    1.500 
#   13.500    8.750    0.000    0.000    0.000    0.000 
#    0.000    0.000    0.000    0.000    0.000    0.000 
#
# Total GULP energy -198268.798247 kJ/mol
# GULP energy per Si atom -12391.799890 kJ/mol
# Density = 2.798664 g / cm^3
# Si number density = 28.050487 Si / 1000 Ang^3
#
#
#
# Elastic Constant Matrix: (Units=GPa)
#
#
# Indices 1 2 3 4 5 6 
#
# 1 105.9485 54.5238 60.7855 -3.7212 30.8461 1.7067
# 2 54.5238 194.1876 72.5513 -10.6705 26.0194 0.0533
# 3 60.7855 72.5513 208.2384 1.0117 12.1896 4.0421
# 4 -3.7212 -10.6705 1.0117 36.5206 12.4388 8.9657
# 5 30.8461 26.0194 12.1896 12.4388 54.5261 13.0245
# 6 1.7067 0.0533 4.0421 8.9657 13.0245 54.7337
#
#
#
# Elastic Compliance Matrix: (Units=1/GPa)
#
#
# Indices 1 2 3 4 5 6 
#
# 1 0.014501 -0.001630 -0.003249 0.003468 -0.007745 0.001064
# 2 -0.001630 0.006753 -0.001745 0.002654 -0.002602 0.000357
# 3 -0.003249 -0.001745 0.006275 -0.001474 0.001731 -0.000531
# 4 0.003468 0.002654 -0.001474 0.032570 -0.009600 -0.003053
# 5 -0.007745 -0.002602 0.001731 -0.009600 0.026891 -0.004710
# 6 0.001064 0.000357 -0.000531 -0.003053 -0.004710 0.019897
#
#
# Mechanical properties :
#
#
# Convention : Reuss Voigt Hill
#
# Bulk Modulus (GPa) = 70.01982 98.23286 84.12634
# Shear Modulus (GPa) = 40.03377 50.52367 45.27872
#
# Velocity S-wave (km/s) = 3.78193 4.24862 4.02205
# Velocity P-wave (km/s) = 6.63980 7.69180 7.18508
#
# Compressibility (1/GPa) = 0.01428167
#
# Stress axis : x y z
#
# Youngs Moduli (GPa) = 68.96171 148.07375 159.37069
#
# Poissons Ratio (x) = 0.24130 0.51783
# Poissons Ratio (y) = 0.11238 0.27807
# Poissons Ratio (z) = 0.22407 0.25836
#
# Static dielectric constant tensor:
#      x y z
#    x 5.439890 -0.141650 -0.132150 
#    y -0.141650 4.592480 0.975430 
#    z -0.132150 0.975430 5.159240 
# 
# 
# High freq. dielectric constant tensor:
#      x y z
#    x 2.149520 -0.019660 -0.031630 
#    y -0.019660 2.148100 0.025620 
#    z -0.031630 0.025620 2.170040 
# 
# From -- ./inp_files/14777.got.cif
#   From: 2010.06.25/outbox.cif.g09.slc.cpg/sg2_8_cif.got.tgz:14777.got - 2010.06.27 13:26:56.
