data_PCOD8006587
_publ_section_title
;
Structure prediction by ZEFSAII (Michael W. Deem and Ramdas Pophale) SiO2 
 PCOD8006587
Probable space group: P -1
;
_chemical_formula_sum "Si O2"
_cell_formula_units_Z 16
_cell_length_a 16.423688
_cell_length_b 9.242880
_cell_length_c 12.775913
_cell_angle_alpha 35.602506
_cell_angle_beta 61.603898
_cell_angle_gamma 40.995505
_cell_volume 690.520932
_symmetry_space_group_name_H-M "P -1"
_symmetry_group_IT_number 2
_symmetry_cell_setting 'triclinic'
loop_
_space_group_symop_operation_xyz
x,y,z
-x,-y,-z
loop_
_atom_site_type_symbol
_atom_site_label
_atom_site_fract_x
_atom_site_fract_y
_atom_site_fract_z
Si Si1 0.262699 0.364272 0.115049
Si Si2 0.173230 0.741792 0.422472
Si Si3 0.110021 0.780541 0.766569
Si Si4 0.733632 0.792253 0.167656
Si Si5 0.472748 0.263332 0.153914
Si Si6 0.621284 0.461532 0.744138
Si Si7 0.224357 0.954686 0.468437
Si Si8 0.493705 0.739641 0.207974
O O1 0.335914 0.459003 0.064346
O O2 0.203326 0.294036 0.281299
O O3 0.368321 0.976787 0.222299
O O4 0.146450 0.686088 0.921485
O O5 0.168804 0.477230 0.637741
O O6 0.296434 0.529534 0.391784
O O7 0.181258 0.935511 0.392289
O O8 0.037416 0.039693 0.266018
O O9 0.218960 0.414983 0.848873
O O10 0.125109 0.037148 0.569306
O O11 0.596361 0.912495 0.218627
O O12 0.720209 0.113082 0.967972
O O13 0.462085 0.201512 0.320692
O O14 0.500000 0.500000 0.000000
O O15 0.528117 0.432503 0.765022
O O16 0.374135 0.585631 0.620042
O O17 0.500000 0.000000 0.000000
#
# Coordination Sequence:
#
# PCOD8006587 Si02
#       8
#     2   2   2   2   2   2   2   2
#     4  12  22  39  62  95 124 165 210 265 317 363
#     4  11  23  40  62  96 127 167 213 255 311 375
#     4  11  23  39  65  94 128 165 212 263 310 369
#     4  10  20  40  61  92 126 159 202 263 310 371
#     4  10  24  41  64  93 131 168 203 259 330 380
#     4  11  23  41  61  95 127 168 204 254 322 385
#     4  11  22  35  63  96 125 157 209 269 313 367
#     4  12  20  38  64  93 128 158 205 268 322 360
#
# _framework density 23.170912999999999
#
# number of rings (size 3 to 8) (size 9 to 14) (size 15 to 20)
#    0.000    1.000    3.750    5.625    1.750    3.500 
#    0.000    0.625    0.000    3.750    0.000    0.000 
#    0.000    0.000    0.000    0.000    0.000    0.000 
#
# Total GULP energy -198267.134242 kJ/mol
# GULP energy per Si atom -12391.695890 kJ/mol
# Density = 2.311817 g / cm^3
# Si number density = 23.170913 Si / 1000 Ang^3
#
#
#
# Elastic Constant Matrix: (Units=GPa)
#
#
# Indices 1 2 3 4 5 6 
#
# 1 127.7028 19.3605 44.0312 -6.9530 30.5314 -5.5945
# 2 19.3605 44.3732 2.9039 11.3311 1.0412 -0.2372
# 3 44.0312 2.9039 97.8512 23.5857 7.0846 -6.3362
# 4 -6.9530 11.3311 23.5857 21.8274 -5.6214 1.9846
# 5 30.5314 1.0412 7.0846 -5.6214 36.6251 5.3311
# 6 -5.5945 -0.2372 -6.3362 1.9846 5.3311 24.6984
#
#
#
# Elastic Compliance Matrix: (Units=1/GPa)
#
#
# Indices 1 2 3 4 5 6 
#
# 1 0.017155 -0.012365 -0.012278 0.023013 -0.008118 0.000520
# 2 -0.012365 0.036920 0.014080 -0.038716 -0.000032 0.004284
# 3 -0.012278 0.014080 0.025736 -0.040367 -0.002464 0.007732
# 4 0.023013 -0.038716 -0.040367 0.121271 0.010902 -0.017612
# 5 -0.008118 -0.000032 -0.002464 0.010902 0.037900 -0.011528
# 6 0.000520 0.004284 0.007732 -0.017612 -0.011528 0.046535
#
#
# Mechanical properties :
#
#
# Convention : Reuss Voigt Hill
#
# Bulk Modulus (GPa) = 17.04012 44.72428 30.88220
# Shear Modulus (GPa) = 15.32787 30.20563 22.76675
#
# Velocity S-wave (km/s) = 2.57478 3.61446 3.13798
# Velocity P-wave (km/s) = 4.02609 6.06324 5.14647
#
# Compressibility (1/GPa) = 0.05868502
#
# Stress axis : x y z
#
# Youngs Moduli (GPa) = 58.29084 27.08577 38.85670
#
# Poissons Ratio (x) = 0.33491 0.47708
# Poissons Ratio (y) = 0.72075 -0.54710
# Poissons Ratio (z) = 0.71570 -0.38137
#
# Static dielectric constant tensor:
#      x y z
#    x 4.076520 -0.014270 0.013630 
#    y -0.014270 4.413850 0.317440 
#    z 0.013630 0.317440 4.425760 
# 
# 
# High freq. dielectric constant tensor:
#      x y z
#    x 1.902650 -0.008180 0.004010 
#    y -0.008180 1.883880 0.023640 
#    z 0.004010 0.023640 1.930420 
# 
# From -- ./inp_files/446623.got.cif
#   From: 2010.06.25/outbox.cif.g09.slc.cpg/sg2_224_cif.got.tgz:446623.got - 2010.06.27 13:26:56.
