data_PCOD8006001
_publ_section_title
;
Structure prediction by ZEFSAII (Michael W. Deem and Ramdas Pophale) SiO2 
 PCOD8006001
Probable space group: P -1
;
_chemical_formula_sum "Si O2"
_cell_formula_units_Z 16
_cell_length_a 9.756605
_cell_length_b 16.967692
_cell_length_c 10.780017
_cell_angle_alpha 43.283136
_cell_angle_beta 76.178926
_cell_angle_gamma 110.024486
_cell_volume 750.027065
_symmetry_space_group_name_H-M "P -1"
_symmetry_group_IT_number 2
_symmetry_cell_setting 'triclinic'
loop_
_space_group_symop_operation_xyz
x,y,z
-x,-y,-z
loop_
_atom_site_type_symbol
_atom_site_label
_atom_site_fract_x
_atom_site_fract_y
_atom_site_fract_z
Si Si1 0.414263 0.459535 0.203090
Si Si2 0.128303 0.198664 0.227224
Si Si3 0.963484 0.208557 0.488334
Si Si4 0.947603 0.799979 0.024847
Si Si5 0.844478 0.382845 0.287818
Si Si6 0.372489 0.178342 0.613628
Si Si7 0.349366 0.176577 0.897163
Si Si8 0.870005 0.493833 0.431803
O O1 0.398125 0.330258 0.426853
O O2 0.163386 0.352897 0.380791
O O3 0.500000 0.500000 0.000000
O O4 0.602265 0.656987 0.004306
O O5 0.050399 0.217107 0.102486
O O6 0.081871 0.262312 0.270050
O O7 0.000000 0.000000 0.500000
O O8 0.818689 0.231537 0.494397
O O9 0.807202 0.999705 0.780938
O O10 0.733301 0.743230 0.171936
O O11 0.943141 0.672092 0.235019
O O12 0.176074 0.010409 0.761992
O O13 0.605959 0.271440 0.416690
O O14 0.917683 0.488147 0.283256
O O15 0.000000 0.500000 0.000000
O O16 0.313352 0.105100 0.849606
O O17 0.606065 0.322869 0.713697
O O18 0.000000 0.500000 0.500000
#
# Coordination Sequence:
#
# PCOD8006001 Si02
#       8
#     2   2   2   2   2   2   2   2
#     4  10  20  39  64  92 125 169 220 264 318 388
#     4  11  21  40  65 103 136 163 220 287 333 378
#     4  11  23  41  69  96 127 179 223 266 329 409
#     4  12  23  44  67  99 134 169 225 284 335 385
#     4  11  25  47  67  93 135 183 225 265 334 410
#     4  11  24  42  67  96 130 178 223 267 327 404
#     4  11  24  44  67  96 131 176 224 269 337 401
#     4  11  28  45  67 100 138 178 219 281 342 397
#
# _framework density 21.332563
#
# number of rings (size 3 to 8) (size 9 to 14) (size 15 to 20)
#    0.000    1.000    2.500    5.250    3.500    2.000 
#    2.250    1.250    0.000    0.000    0.000    0.000 
#    0.000    0.000    0.000    0.000    0.000    0.000 
#
# Total GULP energy -198316.380959 kJ/mol
# GULP energy per Si atom -12394.773810 kJ/mol
# Density = 2.128401 g / cm^3
# Si number density = 21.332563 Si / 1000 Ang^3
#
#
#
# Elastic Constant Matrix: (Units=GPa)
#
#
# Indices 1 2 3 4 5 6 
#
# 1 123.4286 46.1284 45.1570 -1.4758 -2.9629 12.8388
# 2 46.1284 89.3894 46.8370 -5.4304 -15.2821 11.8852
# 3 45.1570 46.8370 117.4451 -13.4184 -7.2662 13.1991
# 4 -1.4758 -5.4304 -13.4184 41.3580 -1.8426 -3.7420
# 5 -2.9629 -15.2821 -7.2662 -1.8426 38.2523 -6.5806
# 6 12.8388 11.8852 13.1991 -3.7420 -6.5806 38.3214
#
#
#
# Elastic Compliance Matrix: (Units=1/GPa)
#
#
# Indices 1 2 3 4 5 6 
#
# 1 0.010775 -0.004424 -0.002422 -0.001226 -0.001766 -0.001826
# 2 -0.004424 0.016963 -0.004508 0.000737 0.005403 -0.001227
# 3 -0.002422 -0.004508 0.011767 0.003007 0.000129 -0.001528
# 4 -0.001226 0.000737 0.003007 0.025497 0.002350 0.002040
# 5 -0.001766 0.005403 0.000129 0.002350 0.029004 0.004082
# 6 -0.001826 -0.001227 -0.001528 0.002040 0.004082 0.028514
#
#
# Mechanical properties :
#
#
# Convention : Reuss Voigt Hill
#
# Bulk Modulus (GPa) = 59.53826 67.38977 63.46401
# Shear Modulus (GPa) = 33.15064 36.39571 34.77318
#
# Velocity S-wave (km/s) = 3.94635 4.13499 4.04177
# Velocity P-wave (km/s) = 6.98105 7.37944 7.18301
#
# Compressibility (1/GPa) = 0.01679592
#
# Stress axis : x y z
#
# Youngs Moduli (GPa) = 92.81124 58.95018 84.98469
#
# Poissons Ratio (x) = 0.26082 0.20587
# Poissons Ratio (y) = 0.41064 0.38307
# Poissons Ratio (z) = 0.22483 0.26572
#
# Static dielectric constant tensor:
#      x y z
#    x 3.800630 0.306270 0.324560 
#    y 0.306270 3.876400 -0.291630 
#    z 0.324560 -0.291630 3.125580 
# 
# 
# High freq. dielectric constant tensor:
#      x y z
#    x 1.838320 0.012230 -0.000620 
#    y 0.012230 1.839390 0.001680 
#    z -0.000620 0.001680 1.848310 
# 
# From -- ./inp_files/186047.got.cif
#   From: 2010.06.25/outbox.cif.g09.slc.cpg/sg2_94_cif.got.tgz:186047.got - 2010.06.27 13:26:56.
