data_PCOD8006082
_publ_section_title
;
Structure prediction by ZEFSAII (Michael W. Deem and Ramdas Pophale) SiO2 
 PCOD8006082
Probable space group: P -1
;
_chemical_formula_sum "Si O2"
_cell_formula_units_Z 12
_cell_length_a 9.248087
_cell_length_b 9.025074
_cell_length_c 12.524197
_cell_angle_alpha 145.714724
_cell_angle_beta 97.826666
_cell_angle_gamma 68.464311
_cell_volume 519.133726
_symmetry_space_group_name_H-M "P -1"
_symmetry_group_IT_number 2
_symmetry_cell_setting 'triclinic'
loop_
_space_group_symop_operation_xyz
x,y,z
-x,-y,-z
loop_
_atom_site_type_symbol
_atom_site_label
_atom_site_fract_x
_atom_site_fract_y
_atom_site_fract_z
Si Si1 0.809748 0.222654 0.606396
Si Si2 0.088292 0.101715 0.888349
Si Si3 0.766105 0.521129 0.990680
Si Si4 0.093402 0.362901 0.258089
Si Si5 0.210428 0.426103 0.518065
Si Si6 0.551295 0.021411 0.399802
O O1 0.802981 0.487163 0.692610
O O2 0.709499 0.080633 0.451612
O O3 0.732835 0.335613 0.783615
O O4 0.000000 0.000000 0.500000
O O5 0.188061 0.240094 0.917742
O O6 0.153726 0.757411 0.663972
O O7 0.103064 0.117400 0.028185
O O8 0.900538 0.291973 0.947573
O O9 0.603029 0.713864 0.158443
O O10 0.180280 0.237551 0.307071
O O11 0.899711 0.574452 0.391300
O O12 0.400296 0.284713 0.482363
O O13 0.500000 0.000000 0.500000
#
# Coordination Sequence:
#
# PCOD8006082 Si02
#       6
#     2   2   2   2   2   2
#     4  11  22  41  66  90 123 167 209 251 307 371
#     4  10  20  39  65  91 121 163 210 251 300 367
#     4  10  22  39  64  94 125 163 207 253 307 368
#     4  10  22  39  62  90 121 163 209 250 303 369
#     4  11  23  39  63  92 125 162 204 255 309 363
#     4  12  26  42  62  94 129 160 205 263 313 362
#
# _framework density 23.11543
#
# number of rings (size 3 to 8) (size 9 to 14) (size 15 to 20)
#    0.000    1.333    0.000    7.500    0.000    6.000 
#    0.000    3.333    0.000    0.000    0.000    0.000 
#    0.000    0.000    0.000    0.000    0.000    0.000 
#
# Total GULP energy -148742.585286 kJ/mol
# GULP energy per Si atom -12395.215441 kJ/mol
# Density = 2.306282 g / cm^3
# Si number density = 23.115430 Si / 1000 Ang^3
#
#
#
# Elastic Constant Matrix: (Units=GPa)
#
#
# Indices 1 2 3 4 5 6 
#
# 1 66.1299 30.8430 17.8152 1.3732 -10.8332 -27.7347
# 2 30.8430 102.7529 57.9572 -3.4523 -8.8998 -20.7075
# 3 17.8152 57.9572 141.6035 -24.1770 -18.9365 -13.4992
# 4 1.3732 -3.4523 -24.1770 47.3415 -2.0306 -4.2758
# 5 -10.8332 -8.8998 -18.9365 -2.0306 32.7329 -0.1635
# 6 -27.7347 -20.7075 -13.4992 -4.2758 -0.1635 38.0322
#
#
#
# Elastic Compliance Matrix: (Units=1/GPa)
#
#
# Indices 1 2 3 4 5 6 
#
# 1 0.024991 -0.004256 0.001561 0.001620 0.008201 0.016679
# 2 -0.004256 0.014546 -0.005495 -0.001408 -0.000707 0.002704
# 3 0.001561 -0.005495 0.011140 0.005744 0.005838 0.002772
# 4 0.001620 -0.001408 0.005744 0.024596 0.005028 0.005240
# 5 0.008201 -0.000707 0.005838 0.005028 0.036803 0.008391
# 6 0.016679 0.002704 0.002772 0.005240 0.008391 0.041538
#
#
# Mechanical properties :
#
#
# Convention : Reuss Voigt Hill
#
# Bulk Modulus (GPa) = 29.15719 58.19078 43.67398
# Shear Modulus (GPa) = 27.55948 37.21271 32.38610
#
# Velocity S-wave (km/s) = 3.45665 4.01666 3.74713
# Velocity P-wave (km/s) = 5.34531 6.83667 6.13647
#
# Compressibility (1/GPa) = 0.03429686
#
# Stress axis : x y z
#
# Youngs Moduli (GPa) = 40.01432 68.74978 89.76491
#
# Poissons Ratio (x) = 0.29260 -0.14013
# Poissons Ratio (y) = 0.17030 0.49326
# Poissons Ratio (z) = -0.06247 0.37778
#
# Static dielectric constant tensor:
#      x y z
#    x 4.269170 0.056890 0.061240 
#    y 0.056890 4.142000 -0.389340 
#    z 0.061240 -0.389340 4.412730 
# 
# 
# High freq. dielectric constant tensor:
#      x y z
#    x 1.903860 0.009880 0.002960 
#    y 0.009880 1.910350 -0.028360 
#    z 0.002960 -0.028360 1.922910 
# 
# From -- ./inp_files/183901.got.cif
#   From: 2010.06.25/outbox.cif.g09.slc.cpg/sg2_92_cif.got.tgz:183901.got - 2010.06.27 13:26:56.
