data_PCOD8006209
_publ_section_title
;
Structure prediction by ZEFSAII (Michael W. Deem and Ramdas Pophale) SiO2 
 PCOD8006209
Probable space group: P -1
;
_chemical_formula_sum "Si O2"
_cell_formula_units_Z 14
_cell_length_a 8.484187
_cell_length_b 9.037650
_cell_length_c 9.217045
_cell_angle_alpha 71.400536
_cell_angle_beta 115.302002
_cell_angle_gamma 104.621812
_cell_volume 599.979948
_symmetry_space_group_name_H-M "P -1"
_symmetry_group_IT_number 2
_symmetry_cell_setting 'triclinic'
loop_
_space_group_symop_operation_xyz
x,y,z
-x,-y,-z
loop_
_atom_site_type_symbol
_atom_site_label
_atom_site_fract_x
_atom_site_fract_y
_atom_site_fract_z
Si Si1 0.342972 0.130607 0.187119
Si Si2 0.325075 0.622759 0.791793
Si Si3 0.737290 0.747907 0.172698
Si Si4 0.004751 0.328656 0.491929
Si Si5 0.795007 0.431407 0.919340
Si Si6 0.551378 0.199652 0.735088
Si Si7 0.709558 0.703105 0.623909
O O1 0.486818 0.284856 0.192442
O O2 0.247774 0.141086 0.303501
O O3 0.426199 0.971404 0.260427
O O4 0.221642 0.158630 0.991537
O O5 0.316011 0.440235 0.800859
O O6 0.194444 0.723252 0.620443
O O7 0.283353 0.632381 0.940772
O O8 0.922313 0.781657 0.323174
O O9 0.582149 0.817767 0.175601
O O10 0.125902 0.325306 0.399356
O O11 0.000000 0.500000 0.500000
O O12 0.745892 0.286576 0.830738
O O13 0.681340 0.560337 0.771824
O O14 0.000000 0.500000 0.000000
O O15 0.466155 0.291705 0.542457
#
# Coordination Sequence:
#
# PCOD8006209 Si02
#       7
#     2   2   2   2   2   2   2
#     4  12  23  41  68  95 132 173 217 266 317 387
#     4  11  21  40  67  99 127 166 217 269 325 378
#     4  10  20  39  66  93 124 172 218 259 314 386
#     4   9  21  40  64  96 131 160 215 268 322 374
#     4  12  23  41  69  95 129 168 218 273 321 382
#     4  11  25  42  63  96 132 173 218 263 325 381
#     4  11  23  43  67  96 130 172 219 264 318 386
#
# _framework density 23.334112999999999
#
# number of rings (size 3 to 8) (size 9 to 14) (size 15 to 20)
#    0.000    1.143    4.286    2.571    0.000    2.286 
#    0.000    5.000    3.143    0.000    0.000    0.000 
#    0.000    0.000    0.000    0.000    0.000    0.000 
#
# Total GULP energy -173453.651598 kJ/mol
# GULP energy per Si atom -12389.546543 kJ/mol
# Density = 2.328100 g / cm^3
# Si number density = 23.334113 Si / 1000 Ang^3
#
#
#
# Elastic Constant Matrix: (Units=GPa)
#
#
# Indices 1 2 3 4 5 6 
#
# 1 65.2447 31.7807 39.2165 7.6065 -0.1395 -27.8161
# 2 31.7807 95.8784 26.2312 8.0208 -9.9230 -38.2436
# 3 39.2165 26.2312 153.2946 17.3716 15.0499 -12.1511
# 4 7.6065 8.0208 17.3716 32.1861 -11.4269 -7.3554
# 5 -0.1395 -9.9230 15.0499 -11.4269 19.9160 1.9884
# 6 -27.8161 -38.2436 -12.1511 -7.3554 1.9884 30.3820
#
#
#
# Elastic Compliance Matrix: (Units=1/GPa)
#
#
# Indices 1 2 3 4 5 6 
#
# 1 0.030549 0.005443 -0.007780 0.006344 0.009186 0.032644
# 2 0.005443 0.026262 -0.006275 0.011336 0.020683 0.036922
# 3 -0.007780 -0.006275 0.011725 -0.011970 -0.017704 -0.012071
# 4 0.006344 0.011336 -0.011970 0.054487 0.043440 0.025639
# 5 0.009186 0.020683 -0.017704 0.043440 0.095726 0.031616
# 6 0.032644 0.036922 -0.012071 0.025639 0.031616 0.108588
#
#
# Mechanical properties :
#
#
# Convention : Reuss Voigt Hill
#
# Bulk Modulus (GPa) = 19.48819 56.54163 38.01491
# Shear Modulus (GPa) = 13.82499 30.97610 22.40055
#
# Velocity S-wave (km/s) = 2.43673 3.64744 3.10173
# Velocity P-wave (km/s) = 4.03569 6.48247 5.39950
#
# Compressibility (1/GPa) = 0.05131313
#
# Stress axis : x y z
#
# Youngs Moduli (GPa) = 32.73442 38.07783 85.28725
#
# Poissons Ratio (x) = -0.20727 0.66351
# Poissons Ratio (y) = -0.17818 0.53517
# Poissons Ratio (z) = 0.25467 0.23893
#
# Static dielectric constant tensor:
#      x y z
#    x 13.753860 -2.715890 -3.378550 
#    y -2.715890 4.733800 1.352570 
#    z -3.378550 1.352570 6.480250 
# 
# 
# High freq. dielectric constant tensor:
#      x y z
#    x 1.900160 -0.033550 0.011730 
#    y -0.033550 1.905890 0.020270 
#    z 0.011730 0.020270 1.954380 
# 
# From -- ./inp_files/157616.got.cif
#   From: 2010.06.25/outbox.cif.g09.slc.cpg/sg2_79_cif.got.tgz:157616.got - 2010.06.27 13:26:56.
