data_PCOD8006509
_publ_section_title
;
Structure prediction by ZEFSAII (Michael W. Deem and Ramdas Pophale) SiO2 
 PCOD8006509
Probable space group: P -1
;
_chemical_formula_sum "Si O2"
_cell_formula_units_Z 16
_cell_length_a 8.609722
_cell_length_b 12.892113
_cell_length_c 19.243164
_cell_angle_alpha 143.624742
_cell_angle_beta 128.900490
_cell_angle_gamma 77.487823
_cell_volume 768.730049
_symmetry_space_group_name_H-M "P -1"
_symmetry_group_IT_number 2
_symmetry_cell_setting 'triclinic'
loop_
_space_group_symop_operation_xyz
x,y,z
-x,-y,-z
loop_
_atom_site_type_symbol
_atom_site_label
_atom_site_fract_x
_atom_site_fract_y
_atom_site_fract_z
Si Si1 0.102153 0.214284 0.551514
Si Si2 0.834622 0.173328 0.878910
Si Si3 0.033823 0.565807 0.735779
Si Si4 0.195867 0.161122 0.402194
Si Si5 0.246428 0.014689 0.092790
Si Si6 0.333000 0.045512 0.602881
Si Si7 0.757860 0.370034 0.693331
Si Si8 0.212788 0.522125 0.525590
O O1 0.181636 0.461525 0.715066
O O2 0.032597 0.131865 0.407411
O O3 0.330753 0.221503 0.651692
O O4 0.843773 0.030053 0.420318
O O5 0.611994 0.160362 0.772588
O O6 0.925750 0.073870 0.796897
O O7 0.740392 0.028939 0.845558
O O8 0.061378 0.436718 0.095643
O O9 0.838116 0.467323 0.691193
O O10 0.855531 0.499751 0.585041
O O11 0.237917 0.832457 0.946459
O O12 0.472656 0.277473 0.575654
O O13 0.215017 0.321098 0.436634
O O14 0.501476 0.246166 0.260666
O O15 0.000000 0.000000 0.000000
O O16 0.230809 0.835012 0.409314
O O17 0.000000 0.500000 0.500000
#
# Coordination Sequence:
#
# PCOD8006509 Si02
#       8
#     2   2   2   2   2   2   2   2
#     4  10  20  40  59  89 117 158 185 252 306 342
#     4  10  21  39  62  88 114 156 206 236 286 358
#     4  10  21  41  60  85 124 159 202 241 294 362
#     4  11  22  37  58  87 123 148 193 252 297 345
#     4  11  23  40  64  88 120 167 207 240 294 362
#     4   9  20  40  66  79 118 155 202 236 296 360
#     4   9  20  39  61  87 115 156 198 243 285 353
#     4  12  23  37  59  91 123 158 199 247 305 352
#
# _framework density 20.813548999999998
#
# number of rings (size 3 to 8) (size 9 to 14) (size 15 to 20)
#    0.000    1.750    1.250    4.500    0.000    4.000 
#    2.250   15.000    0.000    0.000    0.000    0.000 
#    0.000    0.000    0.000    0.000    0.000    0.000 
#
# Total GULP energy -198371.217110 kJ/mol
# GULP energy per Si atom -12398.201069 kJ/mol
# Density = 2.076618 g / cm^3
# Si number density = 20.813549 Si / 1000 Ang^3
#
#
#
# Elastic Constant Matrix: (Units=GPa)
#
#
# Indices 1 2 3 4 5 6 
#
# 1 92.8234 35.9187 61.0615 5.2290 -21.6221 -13.2520
# 2 35.9187 117.2114 53.2716 3.5078 -15.9699 -25.1524
# 3 61.0615 53.2716 145.3063 0.1010 -25.8163 -10.5291
# 4 5.2290 3.5078 0.1010 16.6259 -1.1744 -6.6553
# 5 -21.6221 -15.9699 -25.8163 -1.1744 32.7809 3.0644
# 6 -13.2520 -25.1524 -10.5291 -6.6553 3.0644 26.0276
#
#
#
# Elastic Compliance Matrix: (Units=1/GPa)
#
#
# Indices 1 2 3 4 5 6 
#
# 1 0.016786 -0.000957 -0.005364 -0.003034 0.005900 0.003981
# 2 -0.000957 0.012825 -0.003115 0.002148 0.002219 0.010934
# 3 -0.005364 -0.003115 0.010837 0.002029 0.003670 -0.001271
# 4 -0.003034 0.002148 0.002029 0.068188 0.001344 0.018629
# 5 0.005900 0.002219 0.003670 0.001344 0.038185 0.002481
# 6 0.003981 0.010934 -0.001271 0.018629 0.002481 0.054972
#
#
# Mechanical properties :
#
#
# Convention : Reuss Voigt Hill
#
# Bulk Modulus (GPa) = 46.34804 72.87162 59.60983
# Shear Modulus (GPa) = 21.94372 28.75948 25.35160
#
# Velocity S-wave (km/s) = 3.25052 3.72125 3.49382
# Velocity P-wave (km/s) = 6.03361 7.31787 6.70655
#
# Compressibility (1/GPa) = 0.02157588
#
# Stress axis : x y z
#
# Youngs Moduli (GPa) = 59.57412 77.97371 92.27939
#
# Poissons Ratio (x) = 0.07461 0.49500
# Poissons Ratio (y) = 0.05701 0.28742
# Poissons Ratio (z) = 0.31956 0.24286
#
# Static dielectric constant tensor:
#      x y z
#    x 3.886390 -0.205630 -0.287450 
#    y -0.205630 4.031140 0.115920 
#    z -0.287450 0.115920 3.781690 
# 
# 
# High freq. dielectric constant tensor:
#      x y z
#    x 1.819970 -0.007410 -0.017100 
#    y -0.007410 1.826950 -0.000550 
#    z -0.017100 -0.000550 1.799840 
# 
# From -- ./inp_files/270796.got.cif
#   From: 2010.06.25/outbox.cif.g09.slc.cpg/sg2_136_cif.got.tgz:270796.got - 2010.06.27 13:26:56.
