data_PCOD8006469
_publ_section_title
;
Structure prediction by ZEFSAII (Michael W. Deem and Ramdas Pophale) SiO2 
 PCOD8006469
Probable space group: P -1
;
_chemical_formula_sum "Si O2"
_cell_formula_units_Z 14
_cell_length_a 12.200279
_cell_length_b 10.307243
_cell_length_c 14.383731
_cell_angle_alpha 120.207444
_cell_angle_beta 33.388147
_cell_angle_gamma 136.812297
_cell_volume 653.877166
_symmetry_space_group_name_H-M "P -1"
_symmetry_group_IT_number 2
_symmetry_cell_setting 'triclinic'
loop_
_space_group_symop_operation_xyz
x,y,z
-x,-y,-z
loop_
_atom_site_type_symbol
_atom_site_label
_atom_site_fract_x
_atom_site_fract_y
_atom_site_fract_z
Si Si1 0.271383 0.151224 0.760643
Si Si2 0.693241 0.029286 0.949606
Si Si3 0.709548 0.729275 0.413856
Si Si4 0.493204 0.901968 0.706907
Si Si5 0.981281 0.245332 0.115294
Si Si6 0.426043 0.615148 0.042623
Si Si7 0.714295 0.303976 0.645485
O O1 0.353957 0.222317 0.622407
O O2 0.519098 0.285585 0.703246
O O3 0.128200 0.918573 0.784804
O O4 0.069110 0.181679 0.944983
O O5 0.655946 0.828282 0.910187
O O6 0.997634 0.196585 0.764697
O O7 0.500000 0.000000 0.000000
O O8 0.620233 0.092550 0.114025
O O9 0.500000 0.500000 0.500000
O O10 0.657878 0.827754 0.567620
O O11 0.243340 0.755551 0.763763
O O12 0.685852 0.111586 0.592313
O O13 0.206042 0.467198 0.070147
O O14 0.333094 0.683062 0.210014
O O15 0.500000 0.500000 0.000000
O O16 0.000000 0.500000 0.500000
#
# Coordination Sequence:
#
# PCOD8006469 Si02
#       7
#     2   2   2   2   2   2   2
#     4  10  21  41  64  99 136 174 228 278 339 415
#     4  11  27  49  69  99 141 182 232 289 346 417
#     4  12  28  44  71  98 137 187 236 278 339 418
#     4  10  25  45  67  99 135 178 229 282 343 416
#     4  10  20  39  72  97 129 175 224 283 344 403
#     4  11  22  39  69 100 130 176 226 284 352 402
#     4  10  23  37  62 103 138 169 220 290 350 399
#
# _framework density 21.410748999999999
#
# number of rings (size 3 to 8) (size 9 to 14) (size 15 to 20)
#    0.000    1.429    2.857    0.857    8.000    4.571 
#    0.000    0.000    0.000    0.000    0.000    0.000 
#    0.000    0.000    0.000    0.000    0.000    0.000 
#
# Total GULP energy -173476.755649 kJ/mol
# GULP energy per Si atom -12391.196832 kJ/mol
# Density = 2.136202 g / cm^3
# Si number density = 21.410749 Si / 1000 Ang^3
#
#
#
# Elastic Constant Matrix: (Units=GPa)
#
#
# Indices 1 2 3 4 5 6 
#
# 1 68.5392 31.6447 42.2275 -0.8794 1.9351 1.7122
# 2 31.6447 123.4338 62.0986 -14.4873 0.9289 1.6622
# 3 42.2275 62.0986 124.1892 -8.8720 -13.0176 -0.8968
# 4 -0.8794 -14.4873 -8.8720 41.2340 2.7800 -3.1482
# 5 1.9351 0.9289 -13.0176 2.7800 25.0603 -0.8838
# 6 1.7122 1.6622 -0.8968 -3.1482 -0.8838 33.8566
#
#
#
# Elastic Compliance Matrix: (Units=1/GPa)
#
#
# Indices 1 2 3 4 5 6 
#
# 1 0.019480 -0.001977 -0.006222 -0.001411 -0.004552 -0.001303
# 2 -0.001977 0.011672 -0.005300 0.003116 -0.003393 -0.000412
# 3 -0.006222 -0.005300 0.013677 0.000515 0.007766 0.001188
# 4 -0.001411 0.003116 0.000515 0.025770 -0.002518 0.002263
# 5 -0.004552 -0.003393 0.007766 -0.002518 0.044749 0.001536
# 6 -0.001303 -0.000412 0.001188 0.002263 0.001536 0.029904
#
#
# Mechanical properties :
#
#
# Convention : Reuss Voigt Hill
#
# Bulk Modulus (GPa) = 56.08591 65.34487 60.71539
# Shear Modulus (GPa) = 28.05934 32.04295 30.05115
#
# Velocity S-wave (km/s) = 3.62405 3.87277 3.75047
# Velocity P-wave (km/s) = 6.61541 7.11222 6.86831
#
# Compressibility (1/GPa) = 0.01782979
#
# Stress axis : x y z
#
# Youngs Moduli (GPa) = 51.33555 85.67862 73.11283
#
# Poissons Ratio (x) = 0.16942 0.45492
# Poissons Ratio (y) = 0.10151 0.38749
# Poissons Ratio (z) = 0.31942 0.45408
#
# Static dielectric constant tensor:
#      x y z
#    x 3.823830 -0.147460 -0.078860 
#    y -0.147460 3.488350 0.218780 
#    z -0.078860 0.218780 3.979450 
# 
# 
# High freq. dielectric constant tensor:
#      x y z
#    x 1.834530 0.009580 -0.000960 
#    y 0.009580 1.847620 -0.002650 
#    z -0.000960 -0.002650 1.838260 
# 
# From -- ./inp_files/319144.got.cif
#   From: 2010.06.25/outbox.cif.g09.slc.cpg/sg2_160_cif.got.tgz:319144.got - 2010.06.27 13:26:56.
