data_PCOD8006899
_publ_section_title
;
Structure prediction by ZEFSAII (Michael W. Deem and Ramdas Pophale) SiO2 
 PCOD8006899
Probable space group: P -1
;
_chemical_formula_sum "Si O2"
_cell_formula_units_Z 16
_cell_length_a 15.508880
_cell_length_b 14.709924
_cell_length_c 14.375229
_cell_angle_alpha 37.666874
_cell_angle_beta 27.328734
_cell_angle_gamma 29.685839
_cell_volume 742.808048
_symmetry_space_group_name_H-M "P -1"
_symmetry_group_IT_number 2
_symmetry_cell_setting 'triclinic'
loop_
_space_group_symop_operation_xyz
x,y,z
-x,-y,-z
loop_
_atom_site_type_symbol
_atom_site_label
_atom_site_fract_x
_atom_site_fract_y
_atom_site_fract_z
Si Si1 0.032468 0.120216 0.440305
Si Si2 0.953624 0.248004 0.832718
Si Si3 0.680134 0.118363 0.132251
Si Si4 0.497940 0.087937 0.741705
Si Si5 0.765051 0.816687 0.557298
Si Si6 0.706685 0.130586 0.888733
Si Si7 0.095488 0.492876 0.812838
Si Si8 0.196123 0.440249 0.132595
O O1 0.907197 0.126766 0.648945
O O2 0.921144 0.322985 0.339965
O O3 0.000000 0.000000 0.500000
O O4 0.306178 0.009250 0.287341
O O5 0.017484 0.250642 0.661692
O O6 0.864217 0.426414 0.832036
O O7 0.190497 0.084306 0.785947
O O8 0.742690 0.227629 0.050944
O O9 0.404529 0.216037 0.311821
O O10 0.782374 0.104645 0.944082
O O11 0.359701 0.308662 0.702102
O O12 0.607568 0.025446 0.581596
O O13 0.324555 0.029944 0.977219
O O14 0.854398 0.699900 0.662706
O O15 0.466447 0.330027 0.937213
O O16 0.951508 0.467406 0.893808
O O17 0.000000 0.500000 0.000000
#
# Coordination Sequence:
#
# PCOD8006899 Si02
#       8
#     2   2   2   2   2   2   2   2
#     4  12  26  45  71 100 129 177 228 281 344 403
#     4  11  20  37  61  96 135 170 226 270 322 395
#     4   9  21  35  58  92 127 175 216 265 326 384
#     4  10  23  47  70  96 138 179 218 284 339 393
#     4  10  20  40  65  90 135 177 220 266 330 395
#     4  10  22  45  67  91 142 178 221 279 338 400
#     4  12  26  46  73 101 135 177 230 281 343 407
#     4  10  22  42  65  95 134 179 221 276 336 393
#
# _framework density 21.539885999999999
#
# number of rings (size 3 to 8) (size 9 to 14) (size 15 to 20)
#    0.000    1.750    2.500    3.750    1.750    3.500 
#   11.250    0.000    0.000    0.000    0.000    0.000 
#    0.000    0.000    0.000    0.000    0.000    0.000 
#
# Total GULP energy -198311.441342 kJ/mol
# GULP energy per Si atom -12394.465084 kJ/mol
# Density = 2.149086 g / cm^3
# Si number density = 21.539886 Si / 1000 Ang^3
#
#
#
# Elastic Constant Matrix: (Units=GPa)
#
#
# Indices 1 2 3 4 5 6 
#
# 1 93.0338 45.8162 14.2491 -1.6420 -0.1304 -2.9819
# 2 45.8162 120.5196 36.5255 -4.0559 1.3529 9.4544
# 3 14.2491 36.5255 56.7035 -5.7409 0.3125 -2.1575
# 4 -1.6420 -4.0559 -5.7409 22.2885 1.7772 2.8117
# 5 -0.1304 1.3529 0.3125 1.7772 32.0470 -0.4101
# 6 -2.9819 9.4544 -2.1575 2.8117 -0.4101 37.7845
#
#
#
# Elastic Compliance Matrix: (Units=1/GPa)
#
#
# Indices 1 2 3 4 5 6 
#
# 1 0.013438 -0.005353 0.000133 -0.000283 0.000326 0.002432
# 2 -0.005353 0.012798 -0.006980 0.000698 -0.000585 -0.004082
# 3 0.000133 -0.006980 0.022632 0.004234 -0.000125 0.002733
# 4 -0.000283 0.000698 0.004234 0.046715 -0.002707 -0.003461
# 5 0.000326 -0.000585 -0.000125 -0.002707 0.031391 0.000707
# 6 0.002432 -0.004082 0.002733 -0.003461 0.000707 0.028100
#
#
# Mechanical properties :
#
#
# Convention : Reuss Voigt Hill
#
# Bulk Modulus (GPa) = 40.86908 51.49315 46.18111
# Shear Modulus (GPa) = 26.64829 30.00175 28.32502
#
# Velocity S-wave (km/s) = 3.52114 3.73613 3.63023
# Velocity P-wave (km/s) = 5.96206 6.52453 6.24962
#
# Compressibility (1/GPa) = 0.02446838
#
# Stress axis : x y z
#
# Youngs Moduli (GPa) = 74.41641 78.13707 44.18586
#
# Poissons Ratio (x) = 0.41826 -0.00589
# Poissons Ratio (y) = 0.39834 0.30842
# Poissons Ratio (z) = -0.00992 0.54540
#
# Static dielectric constant tensor:
#      x y z
#    x 3.989710 0.077680 0.079060 
#    y 0.077680 4.154320 0.141110 
#    z 0.079060 0.141110 3.890590 
# 
# 
# High freq. dielectric constant tensor:
#      x y z
#    x 1.861960 -0.000100 -0.004020 
#    y -0.000100 1.841260 -0.001010 
#    z -0.004020 -0.001010 1.828180 
# 
# From -- ./inp_files/533818.got.cif
#   From: 2010.06.25/outbox.cif.g09.slc.cpg/sg2_267_cif.got.tgz:533818.got - 2010.06.27 13:26:56.
