data_PCOD8006488
_publ_section_title
;
Structure prediction by ZEFSAII (Michael W. Deem and Ramdas Pophale) SiO2 
 PCOD8006488
Probable space group: P -1
;
_chemical_formula_sum "Si O2"
_cell_formula_units_Z 14
_cell_length_a 22.688042
_cell_length_b 13.104259
_cell_length_c 22.119864
_cell_angle_alpha 28.015462
_cell_angle_beta 161.473994
_cell_angle_gamma 161.440705
_cell_volume 656.653339
_symmetry_space_group_name_H-M "P -1"
_symmetry_group_IT_number 2
_symmetry_cell_setting 'triclinic'
loop_
_space_group_symop_operation_xyz
x,y,z
-x,-y,-z
loop_
_atom_site_type_symbol
_atom_site_label
_atom_site_fract_x
_atom_site_fract_y
_atom_site_fract_z
Si Si1 0.869133 0.673586 0.782670
Si Si2 0.841251 0.314672 0.040398
Si Si3 0.337749 0.637174 0.955314
Si Si4 0.032108 0.542431 0.410858
Si Si5 0.874349 0.374459 0.726507
Si Si6 0.584611 0.377520 0.342216
Si Si7 0.295168 0.008524 0.527362
O O1 0.604596 0.362309 0.650146
O O2 0.906782 0.962352 0.675297
O O3 0.124328 0.817865 0.914063
O O4 0.856995 0.568678 0.893785
O O5 0.082916 0.507415 0.225075
O O6 0.545974 0.009405 0.943182
O O7 0.101371 0.408675 0.793226
O O8 0.181010 0.579670 0.893129
O O9 0.508208 0.564485 0.169731
O O10 0.189488 0.479713 0.564343
O O11 0.256850 0.874021 0.494058
O O12 0.784658 0.239266 0.370750
O O13 0.722413 0.436048 0.510123
O O14 0.692322 0.999109 0.742064
#
# Coordination Sequence:
#
# PCOD8006488 Si02
#       7
#     2   2   2   2   2   2   2
#     4  10  22  38  61  85 122 155 197 238 292 350
#     4  11  22  40  58  90 119 155 197 243 287 354
#     4  11  22  40  62  90 118 155 196 244 292 352
#     4  10  21  38  63  88 123 149 198 244 290 352
#     4  10  23  41  61  86 121 153 198 244 293 349
#     4  10  22  41  61  90 116 153 198 247 293 348
#     4  10  20  40  57  90 117 161 190 241 297 343
#
# _framework density 21.320231
#
# number of rings (size 3 to 8) (size 9 to 14) (size 15 to 20)
#    0.000    1.714    1.429    2.571    2.000    0.571 
#    5.143    2.143    0.000    0.000    0.000    0.000 
#    0.000    0.000    0.000    0.000    0.000    0.000 
#
# Total GULP energy -173596.252133 kJ/mol
# GULP energy per Si atom -12399.732295 kJ/mol
# Density = 2.127170 g / cm^3
# Si number density = 21.320231 Si / 1000 Ang^3
#
#
#
# Elastic Constant Matrix: (Units=GPa)
#
#
# Indices 1 2 3 4 5 6 
#
# 1 84.7429 23.2814 34.7182 -0.9890 -21.1706 -2.6662
# 2 23.2814 47.4247 14.1986 0.5481 -5.6519 7.1400
# 3 34.7182 14.1986 104.6965 -13.2488 -7.3161 -7.3194
# 4 -0.9890 0.5481 -13.2488 32.3662 2.1450 8.5923
# 5 -21.1706 -5.6519 -7.3161 2.1450 34.8856 4.4939
# 6 -2.6662 7.1400 -7.3194 8.5923 4.4939 21.2810
#
#
#
# Elastic Compliance Matrix: (Units=1/GPa)
#
#
# Indices 1 2 3 4 5 6 
#
# 1 0.017625 -0.006550 -0.004509 -0.002287 0.008576 0.001967
# 2 -0.006550 0.026738 -0.001970 0.001463 0.001314 -0.011337
# 3 -0.004509 -0.001970 0.011949 0.004124 -0.001162 0.002786
# 4 -0.002287 0.001463 0.004124 0.036208 -0.000731 -0.013824
# 5 0.008576 0.001314 -0.001162 -0.000731 0.034761 -0.006811
# 6 0.001967 -0.011337 0.002786 -0.013824 -0.006811 0.059018
#
#
# Mechanical properties :
#
#
# Convention : Reuss Voigt Hill
#
# Bulk Modulus (GPa) = 33.05246 42.36227 37.70736
# Shear Modulus (GPa) = 22.47780 28.68428 25.58104
#
# Velocity S-wave (km/s) = 3.25051 3.67195 3.46764
# Velocity P-wave (km/s) = 5.44282 6.15551 5.81010
#
# Compressibility (1/GPa) = 0.03025494
#
# Stress axis : x y z
#
# Youngs Moduli (GPa) = 56.73815 37.40023 83.68796
#
# Poissons Ratio (x) = 0.24497 0.37733
# Poissons Ratio (y) = 0.37164 0.16483
# Poissons Ratio (z) = 0.25582 0.07366
#
# Static dielectric constant tensor:
#      x y z
#    x 3.891490 0.098210 -0.094420 
#    y 0.098210 3.607840 0.037370 
#    z -0.094420 0.037370 3.855350 
# 
# 
# High freq. dielectric constant tensor:
#      x y z
#    x 1.844240 0.011970 -0.007200 
#    y 0.011970 1.824870 0.008310 
#    z -0.007200 0.008310 1.835910 
# 
# From -- ./inp_files/180897.got.cif
#   From: 2010.06.25/outbox.cif.g09.slc.cpg/sg2_91_cif.got.tgz:180897.got - 2010.06.27 13:26:56.
