data_PCOD8006314
_publ_section_title
;
Structure prediction by ZEFSAII (Michael W. Deem and Ramdas Pophale) SiO2 
 PCOD8006314
Probable space group: P -1
;
_chemical_formula_sum "Si O2"
_cell_formula_units_Z 16
_cell_length_a 17.029086
_cell_length_b 14.294010
_cell_length_c 22.242659
_cell_angle_alpha 158.056478
_cell_angle_beta 158.556199
_cell_angle_gamma 30.787959
_cell_volume 739.309026
_symmetry_space_group_name_H-M "P -1"
_symmetry_group_IT_number 2
_symmetry_cell_setting 'triclinic'
loop_
_space_group_symop_operation_xyz
x,y,z
-x,-y,-z
loop_
_atom_site_type_symbol
_atom_site_label
_atom_site_fract_x
_atom_site_fract_y
_atom_site_fract_z
Si Si1 0.096613 0.508861 0.141172
Si Si2 0.780522 0.907347 0.714037
Si Si3 0.404407 0.169179 0.645230
Si Si4 0.907287 0.679433 0.781559
Si Si5 0.535437 0.270915 0.014555
Si Si6 0.093826 0.260802 0.743269
Si Si7 0.509475 0.123134 0.351620
Si Si8 0.022065 0.945564 0.784321
O O1 0.334819 0.633254 0.383928
O O2 0.960137 0.675691 0.188549
O O3 0.000000 0.500000 0.000000
O O4 0.101286 0.233758 0.009371
O O5 0.807450 0.664966 0.633322
O O6 0.896317 0.867463 0.709584
O O7 0.532194 0.994288 0.583556
O O8 0.885674 0.136830 0.963054
O O9 0.149444 0.115016 0.425784
O O10 0.468858 0.082993 0.705058
O O11 0.458659 0.463698 0.856439
O O12 0.731571 0.779717 0.762903
O O13 0.988518 0.422977 0.712398
O O14 0.353821 0.283250 0.943641
O O15 0.455327 0.032162 0.776113
O O16 0.773441 0.226036 0.183187
O O17 0.000000 0.000000 0.500000
#
# Coordination Sequence:
#
# PCOD8006314 Si02
#       8
#     2   2   2   2   2   2   2   2
#     4  12  25  47  70  94 136 182 230 269 333 411
#     4  10  20  39  67  96 125 170 226 275 328 387
#     4  11  23  41  64  98 138 174 220 280 340 390
#     4  10  21  40  66  99 128 168 229 280 321 393
#     4  12  24  41  66  99 135 173 224 282 336 391
#     4  12  25  43  68 100 136 174 221 283 337 391
#     4  11  23  41  71  98 128 181 226 275 330 399
#     4  12  24  42  67  97 138 182 221 271 340 407
#
# _framework density 21.641829999999999
#
# number of rings (size 3 to 8) (size 9 to 14) (size 15 to 20)
#    0.000    0.750    6.250    1.125    1.750    2.000 
#    0.000    0.625    0.000    0.000    0.000    0.000 
#    0.000    0.000    0.000    0.000    0.000    0.000 
#
# Total GULP energy -198298.520708 kJ/mol
# GULP energy per Si atom -12393.657544 kJ/mol
# Density = 2.159257 g / cm^3
# Si number density = 21.641830 Si / 1000 Ang^3
#
#
#
# Elastic Constant Matrix: (Units=GPa)
#
#
# Indices 1 2 3 4 5 6 
#
# 1 94.3166 47.4513 18.0110 -0.8862 12.2819 -7.6139
# 2 47.4513 131.0585 31.0028 -16.4057 10.7073 -10.0473
# 3 18.0110 31.0028 90.4435 -6.1324 10.3023 -2.9718
# 4 -0.8862 -16.4057 -6.1324 35.9084 -3.2919 8.0870
# 5 12.2819 10.7073 10.3023 -3.2919 27.5723 -4.2959
# 6 -7.6139 -10.0473 -2.9718 8.0870 -4.2959 23.6110
#
#
#
# Elastic Compliance Matrix: (Units=1/GPa)
#
#
# Indices 1 2 3 4 5 6 
#
# 1 0.013793 -0.004634 -0.000814 -0.002873 -0.003973 0.002635
# 2 -0.004634 0.010483 -0.002307 0.003960 -0.000480 0.001233
# 3 -0.000814 -0.002307 0.012434 0.000873 -0.003375 -0.000592
# 4 -0.002873 0.003960 0.000873 0.032104 0.001720 -0.009815
# 5 -0.003973 -0.000480 -0.003375 0.001720 0.040448 0.004860
# 6 0.002635 0.001233 -0.000592 -0.009815 0.004860 0.047899
#
#
# Mechanical properties :
#
#
# Convention : Reuss Voigt Hill
#
# Bulk Modulus (GPa) = 47.17170 56.52765 51.84968
# Shear Modulus (GPa) = 27.81844 32.04191 29.93017
#
# Velocity S-wave (km/s) = 3.58914 3.85197 3.72288
# Velocity P-wave (km/s) = 6.24658 6.77937 6.51842
#
# Compressibility (1/GPa) = 0.02119915
#
# Stress axis : x y z
#
# Youngs Moduli (GPa) = 72.50266 95.39061 80.42638
#
# Poissons Ratio (x) = 0.44208 0.06545
# Poissons Ratio (y) = 0.33601 0.18554
# Poissons Ratio (z) = 0.05900 0.22006
#
# Static dielectric constant tensor:
#      x y z
#    x 4.420970 0.637090 0.107590 
#    y 0.637090 5.019700 -0.320520 
#    z 0.107590 -0.320520 3.942150 
# 
# 
# High freq. dielectric constant tensor:
#      x y z
#    x 1.841900 0.001950 0.019000 
#    y 0.001950 1.861220 -0.008470 
#    z 0.019000 -0.008470 1.849160 
# 
# From -- ./inp_files/226641.got.cif
#   From: 2010.06.25/outbox.cif.g09.slc.cpg/sg2_114_cif.got.tgz:226641.got - 2010.06.27 13:26:56.
