data_PCOD8006620
_publ_section_title
;
Structure prediction by ZEFSAII (Michael W. Deem and Ramdas Pophale) SiO2 
 PCOD8006620
Probable space group: P -1
;
_chemical_formula_sum "Si O2"
_cell_formula_units_Z 14
_cell_length_a 8.137563
_cell_length_b 24.208669
_cell_length_c 16.241421
_cell_angle_alpha 157.965671
_cell_angle_beta 137.943586
_cell_angle_gamma 31.561034
_cell_volume 609.723559
_symmetry_space_group_name_H-M "P -1"
_symmetry_group_IT_number 2
_symmetry_cell_setting 'triclinic'
loop_
_space_group_symop_operation_xyz
x,y,z
-x,-y,-z
loop_
_atom_site_type_symbol
_atom_site_label
_atom_site_fract_x
_atom_site_fract_y
_atom_site_fract_z
Si Si1 0.519988 0.153660 0.183704
Si Si2 0.830575 0.173335 0.087491
Si Si3 0.791102 0.678904 0.869285
Si Si4 0.647520 0.199107 0.624209
Si Si5 0.508620 0.471421 0.662351
Si Si6 0.468336 0.536790 0.924568
Si Si7 0.965861 0.718632 0.538628
O O1 0.288992 0.237854 0.136353
O O2 0.412500 0.335438 0.450843
O O3 0.500000 0.000000 0.000000
O O4 0.896285 0.035593 0.139481
O O5 0.518011 0.188764 0.001588
O O6 0.760449 0.339894 0.231769
O O7 0.961425 0.169829 0.222016
O O8 0.094895 0.656233 0.979108
O O9 0.886985 0.470802 0.614353
O O10 0.682791 0.315095 0.729277
O O11 0.418905 0.156504 0.446339
O O12 0.459791 0.339995 0.829389
O O13 0.000000 0.000000 0.500000
O O14 0.525950 0.538262 0.851210
O O15 0.851928 0.345835 0.570288
#
# Coordination Sequence:
#
# PCOD8006620 Si02
#       7
#     2   2   2   2   2   2   2
#     4  12  25  33  58  97 131 168 200 253 314 374
#     4  11  22  40  64  96 129 170 205 248 325 384
#     4  10  20  40  62  88 131 164 206 249 310 386
#     4  10  24  44  66  89 118 170 222 258 309 368
#     4  11  23  43  61  98 133 160 209 262 321 379
#     4  10  24  41  65  94 125 165 210 265 314 367
#     4  10  21  42  69  87 128 176 205 259 311 377
#
# _framework density 22.961224999999999
#
# number of rings (size 3 to 8) (size 9 to 14) (size 15 to 20)
#    0.000    1.429    2.857    2.143    6.000    2.857 
#    0.000    0.714    0.000    0.000    0.000    0.000 
#    0.000    0.000    0.000    0.000    0.000    0.000 
#
# Total GULP energy -173528.764478 kJ/mol
# GULP energy per Si atom -12394.911748 kJ/mol
# Density = 2.290896 g / cm^3
# Si number density = 22.961225 Si / 1000 Ang^3
#
#
#
# Elastic Constant Matrix: (Units=GPa)
#
#
# Indices 1 2 3 4 5 6 
#
# 1 93.7429 39.0431 30.1417 -2.3420 -2.3645 25.2012
# 2 39.0431 119.9533 27.2676 17.2516 0.3527 7.5520
# 3 30.1417 27.2676 72.6163 -3.4914 3.7720 12.5027
# 4 -2.3420 17.2516 -3.4914 28.7576 3.7485 -5.9700
# 5 -2.3645 0.3527 3.7720 3.7485 35.6259 -1.1249
# 6 25.2012 7.5520 12.5027 -5.9700 -1.1249 36.0603
#
#
#
# Elastic Compliance Matrix: (Units=1/GPa)
#
#
# Indices 1 2 3 4 5 6 
#
# 1 0.015907 -0.004000 -0.003580 0.001297 0.001060 -0.008790
# 2 -0.004000 0.011411 -0.003069 -0.007593 0.000753 0.000236
# 3 -0.003580 -0.003069 0.017097 0.003471 -0.002455 -0.002285
# 4 0.001297 -0.007593 0.003471 0.041727 -0.004399 0.006251
# 5 0.001060 0.000753 -0.002455 -0.004399 0.028859 0.000124
# 6 -0.008790 0.000236 -0.002285 0.006251 0.000124 0.035656
#
#
# Mechanical properties :
#
#
# Convention : Reuss Voigt Hill
#
# Bulk Modulus (GPa) = 43.25896 53.24637 48.25266
# Shear Modulus (GPa) = 27.83022 32.74610 30.28816
#
# Velocity S-wave (km/s) = 3.48523 3.78053 3.63588
# Velocity P-wave (km/s) = 5.92256 6.50358 6.21986
#
# Compressibility (1/GPa) = 0.02311660
#
# Stress axis : x y z
#
# Youngs Moduli (GPa) = 62.86695 87.63335 58.48841
#
# Poissons Ratio (x) = 0.35053 0.20938
# Poissons Ratio (y) = 0.25146 0.17953
# Poissons Ratio (z) = 0.22506 0.26899
#
# Static dielectric constant tensor:
#      x y z
#    x 4.168630 -0.099800 0.127590 
#    y -0.099800 4.291600 0.195160 
#    z 0.127590 0.195160 4.127590 
# 
# 
# High freq. dielectric constant tensor:
#      x y z
#    x 1.898530 0.004600 0.012160 
#    y 0.004600 1.908080 0.021210 
#    z 0.012160 0.021210 1.907970 
# 
# From -- ./inp_files/304313.got.cif
#   From: 2010.06.25/outbox.cif.g09.slc.cpg/sg2_153_cif.got.tgz:304313.got - 2010.06.27 13:26:56.
