data_PCOD8006358
_publ_section_title
;
Structure prediction by ZEFSAII (Michael W. Deem and Ramdas Pophale) SiO2 
 PCOD8006358
Probable space group: P -1
;
_chemical_formula_sum "Si O2"
_cell_formula_units_Z 16
_cell_length_a 11.549940
_cell_length_b 13.664873
_cell_length_c 11.773270
_cell_angle_alpha 57.889041
_cell_angle_beta 137.903924
_cell_angle_gamma 146.558197
_cell_volume 666.887368
_symmetry_space_group_name_H-M "P -1"
_symmetry_group_IT_number 2
_symmetry_cell_setting 'triclinic'
loop_
_space_group_symop_operation_xyz
x,y,z
-x,-y,-z
loop_
_atom_site_type_symbol
_atom_site_label
_atom_site_fract_x
_atom_site_fract_y
_atom_site_fract_z
Si Si1 0.909098 0.629135 0.300853
Si Si2 0.824476 0.346916 0.080108
Si Si3 0.404944 0.629778 0.281822
Si Si4 0.797796 0.771445 0.290811
Si Si5 0.607769 0.866734 0.481353
Si Si6 0.937764 0.292237 0.879766
Si Si7 0.573601 0.228508 0.345787
Si Si8 0.330897 0.061638 0.037424
O O1 0.748586 0.639742 0.251924
O O2 0.754776 0.429038 0.315818
O O3 0.904796 0.668071 0.143327
O O4 0.221923 0.774149 0.483208
O O5 0.632050 0.184178 0.131525
O O6 0.106309 0.420212 0.226052
O O7 0.887675 0.513976 0.058044
O O8 0.666260 0.281769 0.884552
O O9 0.584392 0.645471 0.317179
O O10 0.570829 0.735662 0.453637
O O11 0.765187 0.874268 0.136636
O O12 0.103604 0.925889 0.467409
O O13 0.364108 0.827087 0.303365
O O14 0.597688 0.827766 0.631242
O O15 0.889858 0.155668 0.011099
O O16 0.356427 0.089061 0.174928
#
# Coordination Sequence:
#
# PCOD8006358 Si02
#       8
#     2   2   2   2   2   2   2   2
#     4  10  21  38  63  93 125 158 204 251 309 366
#     4   9  19  41  65  90 120 160 213 251 295 362
#     4   9  20  40  64  81 125 169 200 252 303 349
#     4  11  23  39  59  94 129 160 197 256 312 360
#     4  10  21  40  63  88 124 164 207 249 298 366
#     4  10  20  39  68  93 117 162 206 252 304 365
#     4  10  21  39  65  92 119 164 207 249 300 372
#     4  11  22  38  65  98 123 156 201 256 314 361
#
# _framework density 23.992056999999999
#
# number of rings (size 3 to 8) (size 9 to 14) (size 15 to 20)
#    0.000    2.000    1.250    1.875    1.750    4.500 
#    4.500   16.250    0.000    0.000    0.000    0.000 
#    0.000    0.000    0.000    0.000    0.000    0.000 
#
# Total GULP energy -198311.051180 kJ/mol
# GULP energy per Si atom -12394.440699 kJ/mol
# Density = 2.393745 g / cm^3
# Si number density = 23.992057 Si / 1000 Ang^3
#
#
#
# Elastic Constant Matrix: (Units=GPa)
#
#
# Indices 1 2 3 4 5 6 
#
# 1 146.6259 36.9928 11.2272 -8.8090 -13.8548 33.8483
# 2 36.9928 86.9590 1.5293 -4.0864 -5.1595 13.1800
# 3 11.2272 1.5293 38.9658 0.7443 -17.8693 3.2986
# 4 -8.8090 -4.0864 0.7443 31.0794 1.7810 4.2712
# 5 -13.8548 -5.1595 -17.8693 1.7810 32.3540 -4.7910
# 6 33.8483 13.1800 3.2986 4.2712 -4.7910 30.3164
#
#
#
# Elastic Compliance Matrix: (Units=1/GPa)
#
#
# Indices 1 2 3 4 5 6 
#
# 1 0.010418 -0.002503 -0.001393 0.004046 0.001481 -0.010728
# 2 -0.002503 0.013133 0.000891 0.001358 0.000989 -0.003047
# 3 -0.001393 0.000891 0.034700 -0.002292 0.018942 0.000709
# 4 0.004046 0.001358 -0.002292 0.035122 -0.002767 -0.010244
# 5 0.001481 0.000989 0.018942 -0.002767 0.042758 0.003003
# 6 -0.010728 -0.003047 0.000709 -0.010244 0.003003 0.048128
#
#
# Mechanical properties :
#
#
# Convention : Reuss Voigt Hill
#
# Bulk Modulus (GPa) = 19.14230 41.33882 30.24056
# Shear Modulus (GPa) = 24.07495 33.60338 28.83916
#
# Velocity S-wave (km/s) = 3.17117 3.74652 3.47079
# Velocity P-wave (km/s) = 4.62649 5.99857 5.35664
#
# Compressibility (1/GPa) = 0.05224032
#
# Stress axis : x y z
#
# Youngs Moduli (GPa) = 95.98892 76.14306 28.81825
#
# Poissons Ratio (x) = 0.19061 0.04015
# Poissons Ratio (y) = 0.24029 -0.02568
# Poissons Ratio (z) = 0.13375 -0.06786
#
# Static dielectric constant tensor:
#      x y z
#    x 4.534770 0.398340 -0.210240 
#    y 0.398340 4.260120 0.209350 
#    z -0.210240 0.209350 4.196480 
# 
# 
# High freq. dielectric constant tensor:
#      x y z
#    x 1.957010 0.023330 -0.018840 
#    y 0.023330 1.941110 0.014270 
#    z -0.018840 0.014270 1.931110 
# 
# From -- ./inp_files/238446.got.cif
#   From: 2010.06.25/outbox.cif.g09.slc.cpg/sg2_120_cif.got.tgz:238446.got - 2010.06.27 13:26:56.
