data_PCOD8006628
_publ_section_title
;
Structure prediction by ZEFSAII (Michael W. Deem and Ramdas Pophale) SiO2 
 PCOD8006628
Probable space group: P -1
;
_chemical_formula_sum "Si O2"
_cell_formula_units_Z 14
_cell_length_a 4.991673
_cell_length_b 9.524712
_cell_length_c 13.157208
_cell_angle_alpha 107.629537
_cell_angle_beta 107.995287
_cell_angle_gamma 67.813261
_cell_volume 538.443694
_symmetry_space_group_name_H-M "P -1"
_symmetry_group_IT_number 2
_symmetry_cell_setting 'triclinic'
loop_
_space_group_symop_operation_xyz
x,y,z
-x,-y,-z
loop_
_atom_site_type_symbol
_atom_site_label
_atom_site_fract_x
_atom_site_fract_y
_atom_site_fract_z
Si Si1 0.905327 0.614024 0.779033
Si Si2 0.326995 0.673618 0.047090
Si Si3 0.863116 0.291735 0.755414
Si Si4 0.723160 0.188430 0.168741
Si Si5 0.720527 0.859530 0.074870
Si Si6 0.769797 0.169747 0.505710
Si Si7 0.888745 0.764494 0.615892
O O1 0.970231 0.443882 0.792604
O O2 0.576875 0.720153 0.790578
O O3 0.925461 0.610191 0.655419
O O4 0.161302 0.692211 0.864080
O O5 0.383361 0.683005 0.178408
O O6 0.965010 0.734234 0.005848
O O7 0.500000 0.500000 0.000000
O O8 0.563986 0.201189 0.977201
O O9 0.159969 0.156572 0.797647
O O10 0.727341 0.252479 0.627739
O O11 0.988269 0.124840 0.269953
O O12 0.662640 0.039644 0.074154
O O13 0.453155 0.153881 0.434396
O O14 0.898289 0.271983 0.465819
O O15 0.000000 0.000000 0.500000
#
# Coordination Sequence:
#
# PCOD8006628 Si02
#       7
#     2   2   2   2   2   2   2
#     4  10  22  39  60  88 128 169 204 252 304 368
#     4  10  23  41  67  96 123 153 205 265 314 365
#     4  10  27  37  67  93 122 164 213 251 316 362
#     4  10  20  40  62  89 124 171 207 244 305 365
#     4  10  22  39  68  91 118 160 211 249 312 368
#     4  12  24  37  58  90 129 161 215 259 289 357
#     4  10  22  38  56  82 127 169 198 249 302 345
#
# _framework density 26.000864
#
# number of rings (size 3 to 8) (size 9 to 14) (size 15 to 20)
#    1.714    0.000    1.429    2.571    4.000    1.143 
#    0.000    0.000    0.000    5.143    0.000    0.000 
#    0.000    0.000    0.000    0.000    0.000    0.000 
#
# Total GULP energy -173437.719401 kJ/mol
# GULP energy per Si atom -12388.408529 kJ/mol
# Density = 2.594168 g / cm^3
# Si number density = 26.000864 Si / 1000 Ang^3
#
#
#
# Elastic Constant Matrix: (Units=GPa)
#
#
# Indices 1 2 3 4 5 6 
#
# 1 169.1223 45.0795 62.9537 -6.3622 9.1434 36.8234
# 2 45.0795 159.0545 65.2609 -5.2461 -1.4011 39.5152
# 3 62.9537 65.2609 121.8250 -2.1622 -1.3348 15.9370
# 4 -6.3622 -5.2461 -2.1622 38.8953 6.5335 1.6149
# 5 9.1434 -1.4011 -1.3348 6.5335 57.4548 -7.0327
# 6 36.8234 39.5152 15.9370 1.6149 -7.0327 30.8745
#
#
#
# Elastic Compliance Matrix: (Units=1/GPa)
#
#
# Indices 1 2 3 4 5 6 
#
# 1 0.010528 0.002742 -0.004997 0.003064 -0.003851 -0.014523
# 2 0.002742 0.011991 -0.005668 0.002872 -0.002614 -0.016437
# 3 -0.004997 -0.005668 0.012895 -0.001494 0.001994 0.007090
# 4 0.003064 0.002872 -0.001494 0.027684 -0.004712 -0.009080
# 5 -0.003851 -0.002614 0.001994 -0.004712 0.019969 0.011704
# 6 -0.014523 -0.016437 0.007090 -0.009080 0.011704 0.070229
#
#
# Mechanical properties :
#
#
# Convention : Reuss Voigt Hill
#
# Bulk Modulus (GPa) = 51.10479 88.51001 69.80740
# Shear Modulus (GPa) = 28.46355 43.89210 36.17783
#
# Velocity S-wave (km/s) = 3.31224 4.11311 3.73421
# Velocity P-wave (km/s) = 5.85881 7.52808 6.74528
#
# Compressibility (1/GPa) = 0.01956764
#
# Stress axis : x y z
#
# Youngs Moduli (GPa) = 94.98685 83.39746 77.55171
#
# Poissons Ratio (x) = -0.22866 0.38752
# Poissons Ratio (y) = -0.26043 0.43953
# Poissons Ratio (z) = 0.47464 0.47267
#
# Static dielectric constant tensor:
#      x y z
#    x 4.801140 0.232390 0.091340 
#    y 0.232390 4.789640 -0.660180 
#    z 0.091340 -0.660180 4.801210 
# 
# 
# High freq. dielectric constant tensor:
#      x y z
#    x 2.059070 0.008290 0.011290 
#    y 0.008290 2.054850 -0.045160 
#    z 0.011290 -0.045160 2.040300 
# 
# From -- ./inp_files/546707.got.cif
#   From: 2010.06.25/outbox.cif.g09.slc.cpg/sg2_274_cif.got.tgz:546707.got - 2010.06.27 13:26:56.
