data_PCOD8006907
_publ_section_title
;
Structure prediction by ZEFSAII (Michael W. Deem and Ramdas Pophale) SiO2 
 PCOD8006907
Probable space group: P -1
;
_chemical_formula_sum "Si O2"
_cell_formula_units_Z 14
_cell_length_a 13.177100
_cell_length_b 12.106598
_cell_length_c 13.998878
_cell_angle_alpha 137.180507
_cell_angle_beta 151.013726
_cell_angle_gamma 44.592774
_cell_volume 718.534718
_symmetry_space_group_name_H-M "P -1"
_symmetry_group_IT_number 2
_symmetry_cell_setting 'triclinic'
loop_
_space_group_symop_operation_xyz
x,y,z
-x,-y,-z
loop_
_atom_site_type_symbol
_atom_site_label
_atom_site_fract_x
_atom_site_fract_y
_atom_site_fract_z
Si Si1 0.749734 0.423342 0.651396
Si Si2 0.632137 0.004347 0.979280
Si Si3 0.530140 0.256841 0.891971
Si Si4 0.160983 0.530141 0.729378
Si Si5 0.999510 0.704498 0.038971
Si Si6 0.871387 0.184266 0.983112
Si Si7 0.223396 0.890202 0.646164
O O1 0.500000 0.500000 0.500000
O O2 0.775074 0.293816 0.504096
O O3 0.820804 0.341271 0.760589
O O4 0.903680 0.547305 0.828107
O O5 0.735183 0.115403 0.209254
O O6 0.798840 0.832024 0.997182
O O7 0.586666 0.092435 0.896544
O O8 0.406693 0.970998 0.803961
O O9 0.278302 0.345288 0.746743
O O10 0.623297 0.203247 0.826960
O O11 0.656208 0.392875 0.124044
O O12 0.000000 0.500000 0.500000
O O13 0.043402 0.664392 0.797159
O O14 0.111181 0.784730 0.095489
O O15 0.000000 0.000000 0.000000
O O16 0.000000 0.000000 0.500000
#
# Coordination Sequence:
#
# PCOD8006907 Si02
#       7
#     2   2   2   2   2   2   2
#     4  11  24  42  62  90 126 161 211 257 311 365
#     4  11  22  40  67  88 127 162 205 264 313 364
#     4   9  21  40  63  88 128 156 202 255 304 368
#     4   9  20  41  60  86 123 160 206 245 295 369
#     4  11  22  41  65  91 128 163 202 264 310 366
#     4  10  20  40  65  91 126 162 196 250 313 364
#     4  11  24  41  62  93 118 162 213 254 310 370
#
# _framework density 19.484096000000001
#
# number of rings (size 3 to 8) (size 9 to 14) (size 15 to 20)
#    0.857    0.857    4.286    0.000    0.000    4.571 
#    5.143    0.714    0.000    0.000    0.000    0.000 
#    0.000    0.000    0.000    0.000    0.000    0.000 
#
# Total GULP energy -173451.936644 kJ/mol
# GULP energy per Si atom -12389.424046 kJ/mol
# Density = 1.943975 g / cm^3
# Si number density = 19.484096 Si / 1000 Ang^3
#
#
#
# Elastic Constant Matrix: (Units=GPa)
#
#
# Indices 1 2 3 4 5 6 
#
# 1 93.7740 44.8402 29.8397 -7.7188 -12.1643 1.4949
# 2 44.8402 138.2829 48.1307 -14.0278 -5.3830 -13.8440
# 3 29.8397 48.1307 104.5453 -9.6683 -12.4777 -9.8277
# 4 -7.7188 -14.0278 -9.6683 34.6656 -9.5313 -3.0195
# 5 -12.1643 -5.3830 -12.4777 -9.5313 20.3393 1.0040
# 6 1.4949 -13.8440 -9.8277 -3.0195 1.0040 42.8365
#
#
#
# Elastic Compliance Matrix: (Units=1/GPa)
#
#
# Indices 1 2 3 4 5 6 
#
# 1 0.014246 -0.003706 -0.001194 0.003524 0.008553 -0.001921
# 2 -0.003706 0.010039 -0.003119 0.002493 -0.000445 0.002844
# 3 -0.001194 -0.003119 0.012981 0.004610 0.008479 0.002138
# 4 0.003524 0.002493 0.004610 0.038745 0.023558 0.003919
# 5 0.008553 -0.000445 0.008479 0.023558 0.070330 0.001515
# 6 -0.001921 0.002844 0.002138 0.003919 0.001515 0.025062
#
#
# Mechanical properties :
#
#
# Convention : Reuss Voigt Hill
#
# Bulk Modulus (GPa) = 47.10676 64.69147 55.89911
# Shear Modulus (GPa) = 25.70460 33.82106 29.76283
#
# Velocity S-wave (km/s) = 3.63610 4.17085 3.91262
# Velocity P-wave (km/s) = 6.46976 7.51458 7.01166
#
# Compressibility (1/GPa) = 0.02122838
#
# Stress axis : x y z
#
# Youngs Moduli (GPa) = 70.19487 99.60926 77.03331
#
# Poissons Ratio (x) = 0.36913 0.09197
# Poissons Ratio (y) = 0.26013 0.24030
# Poissons Ratio (z) = 0.08381 0.31072
#
# Static dielectric constant tensor:
#      x y z
#    x 3.505050 -0.213490 -0.042720 
#    y -0.213490 3.801960 -0.003000 
#    z -0.042720 -0.003000 3.497680 
# 
# 
# High freq. dielectric constant tensor:
#      x y z
#    x 1.749240 -0.011010 -0.001980 
#    y -0.011010 1.776550 -0.000180 
#    z -0.001980 -0.000180 1.746490 
# 
# From -- ./inp_files/530754.got.cif
#   From: 2010.06.25/outbox.cif.g09.slc.cpg/sg2_266_cif.got.tgz:530754.got - 2010.06.27 13:26:56.
