data_PCOD8006333
_publ_section_title
;
Structure prediction by ZEFSAII (Michael W. Deem and Ramdas Pophale) SiO2 
 PCOD8006333
Probable space group: P -1
;
_chemical_formula_sum "Si O2"
_cell_formula_units_Z 16
_cell_length_a 9.072100
_cell_length_b 15.418553
_cell_length_c 8.859524
_cell_angle_alpha 140.813201
_cell_angle_beta 108.314550
_cell_angle_gamma 80.135865
_cell_volume 737.951166
_symmetry_space_group_name_H-M "P -1"
_symmetry_group_IT_number 2
_symmetry_cell_setting 'triclinic'
loop_
_space_group_symop_operation_xyz
x,y,z
-x,-y,-z
loop_
_atom_site_type_symbol
_atom_site_label
_atom_site_fract_x
_atom_site_fract_y
_atom_site_fract_z
Si Si1 0.860328 0.547596 0.425340
Si Si2 0.656666 0.600286 0.697730
Si Si3 0.594021 0.892389 0.526037
Si Si4 0.100820 0.914960 0.525355
Si Si5 0.613434 0.897675 0.196037
Si Si6 0.175652 0.472170 0.061138
Si Si7 0.121703 0.232199 0.515208
Si Si8 0.720099 0.314514 0.842751
O O1 0.739452 0.617318 0.585651
O O2 0.934591 0.666249 0.492970
O O3 0.000000 0.500000 0.500000
O O4 0.766589 0.415362 0.134406
O O5 0.500000 0.500000 0.500000
O O6 0.782397 0.537272 0.762279
O O7 0.598662 0.741209 0.927287
O O8 0.663324 0.921101 0.418932
O O9 0.737376 0.847872 0.611082
O O10 0.445841 0.774847 0.305862
O O11 0.548725 0.033363 0.778393
O O12 0.140102 0.779752 0.264411
O O13 0.021036 0.871782 0.602887
O O14 0.258482 0.013902 0.748556
O O15 0.000000 0.000000 0.500000
O O16 0.294855 0.593273 0.187635
O O17 0.201888 0.323937 0.802300
O O18 0.000000 0.500000 0.000000
#
# Coordination Sequence:
#
# PCOD8006333 Si02
#       8
#     2   2   2   2   2   2   2   2
#     4  11  27  41  63  96 141 171 213 278 338 398
#     4  12  25  44  67  97 138 177 211 274 354 399
#     4  10  20  39  67  99 126 156 229 279 316 377
#     4  11  20  37  69  96 121 172 228 274 314 383
#     4  10  22  40  64  97 129 169 215 273 328 393
#     4  11  21  39  69  96 128 170 232 272 314 399
#     4  11  22  40  69  98 127 168 230 271 321 385
#     4  10  23  38  67  95 126 169 222 275 327 379
#
# _framework density 21.681650999999999
#
# number of rings (size 3 to 8) (size 9 to 14) (size 15 to 20)
#    0.000    1.250    3.750    2.250    3.500    1.000 
#    0.000    1.250    0.000    0.000    0.000    0.000 
#    0.000    0.000    0.000    0.000    0.000    0.000 
#
# Total GULP energy -198339.677929 kJ/mol
# GULP energy per Si atom -12396.229871 kJ/mol
# Density = 2.163230 g / cm^3
# Si number density = 21.681651 Si / 1000 Ang^3
#
#
#
# Elastic Constant Matrix: (Units=GPa)
#
#
# Indices 1 2 3 4 5 6 
#
# 1 135.0002 63.9963 50.1136 11.3527 -8.1813 1.0918
# 2 63.9963 125.7192 47.3261 9.7545 4.6424 5.7405
# 3 50.1136 47.3261 101.0132 16.4627 -13.6575 -2.1546
# 4 11.3527 9.7545 16.4627 32.3363 -1.4353 -2.5671
# 5 -8.1813 4.6424 -13.6575 -1.4353 30.7284 9.5195
# 6 1.0918 5.7405 -2.1546 -2.5671 9.5195 43.7553
#
#
#
# Elastic Compliance Matrix: (Units=1/GPa)
#
#
# Indices 1 2 3 4 5 6 
#
# 1 0.010772 -0.004423 -0.002806 -0.000945 0.002368 -0.000397
# 2 -0.004423 0.011923 -0.003976 -0.000275 -0.004550 -0.000676
# 3 -0.002806 -0.003976 0.014835 -0.005116 0.006318 -0.000352
# 4 -0.000945 -0.000275 -0.005116 0.034045 -0.001558 0.002144
# 5 0.002368 -0.004550 0.006318 -0.001558 0.038989 -0.007725
# 6 -0.000397 -0.000676 -0.000352 0.002144 -0.007725 0.024742
#
#
# Mechanical properties :
#
#
# Convention : Reuss Voigt Hill
#
# Bulk Modulus (GPa) = 66.14221 76.06717 71.10469
# Shear Modulus (GPa) = 30.72053 34.71710 32.71882
#
# Velocity S-wave (km/s) = 3.76824 4.00587 3.88887
# Velocity P-wave (km/s) = 7.03599 7.52036 7.28220
#
# Compressibility (1/GPa) = 0.01511894
#
# Stress axis : x y z
#
# Youngs Moduli (GPa) = 92.83351 83.87252 67.40712
#
# Poissons Ratio (x) = 0.37097 0.18915
# Poissons Ratio (y) = 0.41060 0.26804
# Poissons Ratio (z) = 0.26050 0.33352
#
# Static dielectric constant tensor:
#      x y z
#    x 0.173240 -0.113000 1.954160 
#    y -0.113000 4.069340 0.439770 
#    z 1.954160 0.439770 2.542080 
# 
# 
# High freq. dielectric constant tensor:
#      x y z
#    x 1.867790 0.003810 -0.014030 
#    y 0.003810 1.858710 0.029720 
#    z -0.014030 0.029720 1.821880 
# 
# From -- ./inp_files/209567.got.cif
#   From: 2010.06.25/outbox.cif.g09.slc.cpg/sg2_105_cif.got.tgz:209567.got - 2010.06.27 13:26:56.
