data_PCOD8006627
_publ_section_title
;
Structure prediction by ZEFSAII (Michael W. Deem and Ramdas Pophale) SiO2 
 PCOD8006627
Probable space group: P -1
;
_chemical_formula_sum "Si O2"
_cell_formula_units_Z 16
_cell_length_a 13.689104
_cell_length_b 6.309852
_cell_length_c 25.059224
_cell_angle_alpha 104.695240
_cell_angle_beta 158.989770
_cell_angle_gamma 78.713652
_cell_volume 745.380077
_symmetry_space_group_name_H-M "P -1"
_symmetry_group_IT_number 2
_symmetry_cell_setting 'triclinic'
loop_
_space_group_symop_operation_xyz
x,y,z
-x,-y,-z
loop_
_atom_site_type_symbol
_atom_site_label
_atom_site_fract_x
_atom_site_fract_y
_atom_site_fract_z
Si Si1 0.832602 0.705872 0.438375
Si Si2 0.707594 0.899798 0.281668
Si Si3 0.637951 0.665192 0.450041
Si Si4 0.804785 0.270844 0.123956
Si Si5 0.799455 0.995256 0.633209
Si Si6 0.037927 0.623711 0.190608
Si Si7 0.834345 0.496907 0.258492
Si Si8 0.418957 0.140143 0.072944
O O1 0.648475 0.754357 0.295962
O O2 0.626180 0.650218 0.379094
O O3 0.000000 0.500000 0.500000
O O4 0.026257 0.927519 0.563713
O O5 0.755641 0.737328 0.246764
O O6 0.453902 0.032365 0.142686
O O7 0.333061 0.601294 0.313957
O O8 0.837396 0.495617 0.564975
O O9 0.775983 0.912572 0.554393
O O10 0.709653 0.433366 0.131787
O O11 0.879742 0.389793 0.112817
O O12 0.080902 0.191314 0.282906
O O13 0.589255 0.055201 0.988343
O O14 0.952769 0.238036 0.739553
O O15 0.500000 0.000000 0.500000
O O16 0.857019 0.739446 0.062243
O O17 0.689361 0.310432 0.212489
#
# Coordination Sequence:
#
# PCOD8006627 Si02
#       8
#     2   2   2   2   2   2   2   2
#     4  11  22  42  63  95 119 151 210 270 309 354
#     4  11  23  38  66  91 116 161 205 263 313 356
#     4  10  20  40  62  89 124 160 198 266 306 350
#     4  10  22  35  59  93 126 171 203 238 306 372
#     4   8  18  34  54  85 125 162 194 246 292 361
#     4  10  22  39  58  89 133 165 202 240 304 382
#     4  11  22  38  64  93 122 162 211 255 299 361
#     4  11  22  41  58  88 132 166 200 254 301 361
#
# _framework density 21.465558000000001
#
# number of rings (size 3 to 8) (size 9 to 14) (size 15 to 20)
#    0.000    1.750    2.500    1.125    1.750    7.500 
#    4.500    0.625    0.000    5.250    0.000    0.000 
#    0.000    0.000    0.000    0.000    0.000    0.000 
#
# Total GULP energy -198220.441004 kJ/mol
# GULP energy per Si atom -12388.777563 kJ/mol
# Density = 2.141670 g / cm^3
# Si number density = 21.465558 Si / 1000 Ang^3
#
#
#
# Elastic Constant Matrix: (Units=GPa)
#
#
# Indices 1 2 3 4 5 6 
#
# 1 86.1050 33.4546 18.5975 -9.7976 -5.7708 -1.4578
# 2 33.4546 96.7143 27.3828 2.1376 -0.8501 -1.4065
# 3 18.5975 27.3828 79.4128 -17.7458 -8.4924 2.1322
# 4 -9.7976 2.1376 -17.7458 31.2258 7.6794 -7.0808
# 5 -5.7708 -0.8501 -8.4924 7.6794 24.4213 -5.3003
# 6 -1.4578 -1.4065 2.1322 -7.0808 -5.3003 28.1380
#
#
#
# Elastic Compliance Matrix: (Units=1/GPa)
#
#
# Indices 1 2 3 4 5 6 
#
# 1 0.014292 -0.004852 -0.000505 0.004487 0.002068 0.002055
# 2 -0.004852 0.013444 -0.004704 -0.005051 -0.000868 -0.000658
# 3 -0.000505 -0.004704 0.016669 0.009227 0.002904 0.001345
# 4 0.004487 -0.005051 0.009227 0.042826 -0.007497 0.008646
# 5 0.002068 -0.000868 0.002904 -0.007497 0.046220 0.006663
# 6 0.002055 -0.000658 0.001345 0.008646 0.006663 0.038942
#
#
# Mechanical properties :
#
#
# Convention : Reuss Voigt Hill
#
# Bulk Modulus (GPa) = 41.18008 46.78907 43.98458
# Shear Modulus (GPa) = 24.92412 28.94351 26.93382
#
# Velocity S-wave (km/s) = 3.41122 3.67600 3.54608
# Velocity P-wave (km/s) = 5.89416 6.31363 6.10750
#
# Compressibility (1/GPa) = 0.02428358
#
# Stress axis : x y z
#
# Youngs Moduli (GPa) = 69.97011 74.38184 59.99150
#
# Poissons Ratio (x) = 0.36088 0.03033
# Poissons Ratio (y) = 0.33947 0.28217
# Poissons Ratio (z) = 0.03537 0.34986
#
# Static dielectric constant tensor:
#      x y z
#    x 3.860160 -0.508750 -0.548140 
#    y -0.508750 4.951770 0.369020 
#    z -0.548140 0.369020 4.162260 
# 
# 
# High freq. dielectric constant tensor:
#      x y z
#    x 1.807160 -0.006150 -0.020640 
#    y -0.006150 1.853820 -0.008550 
#    z -0.020640 -0.008550 1.842310 
# 
# From -- ./inp_files/84574.got.cif
#   From: 2010.06.25/outbox.cif.g09.slc.cpg/sg2_43_cif.got.tgz:84574.got - 2010.06.27 13:26:56.
