data_PCOD8006344
_publ_section_title
;
Structure prediction by ZEFSAII (Michael W. Deem and Ramdas Pophale) SiO2 
 PCOD8006344
Probable space group: P -1
;
_chemical_formula_sum "Si O2"
_cell_formula_units_Z 16
_cell_length_a 11.484987
_cell_length_b 17.488482
_cell_length_c 21.004419
_cell_angle_alpha 20.471138
_cell_angle_beta 140.071272
_cell_angle_gamma 150.405944
_cell_volume 700.219512
_symmetry_space_group_name_H-M "P -1"
_symmetry_group_IT_number 2
_symmetry_cell_setting 'triclinic'
loop_
_space_group_symop_operation_xyz
x,y,z
-x,-y,-z
loop_
_atom_site_type_symbol
_atom_site_label
_atom_site_fract_x
_atom_site_fract_y
_atom_site_fract_z
Si Si1 0.722796 0.346051 0.313453
Si Si2 0.334599 0.553163 0.257494
Si Si3 0.791854 0.286461 0.693536
Si Si4 0.898552 0.592039 0.935271
Si Si5 0.411829 0.614027 0.578391
Si Si6 0.584452 0.938324 0.179892
Si Si7 0.615702 0.663452 0.099328
Si Si8 0.200636 0.743212 0.721015
O O1 0.651631 0.536526 0.152499
O O2 0.803800 0.412981 0.221464
O O3 0.950943 0.453851 0.368007
O O4 0.500000 0.000000 0.500000
O O5 0.407857 0.382415 0.392103
O O6 0.469647 0.679544 0.283288
O O7 0.045681 0.314496 0.334342
O O8 0.411552 0.813028 0.040589
O O9 0.784738 0.420937 0.520755
O O10 0.567042 0.179705 0.726707
O O11 0.760428 0.005426 0.882592
O O12 0.679107 0.552833 0.842761
O O13 0.771808 0.381220 0.107859
O O14 0.138486 0.925239 0.796841
O O15 0.000000 0.500000 0.000000
O O16 0.272010 0.354889 0.774897
O O17 0.567850 0.910228 0.454757
#
# Coordination Sequence:
#
# PCOD8006344 Si02
#       8
#     2   2   2   2   2   2   2   2
#     4  12  28  50  71 101 147 193 248 296 344 426
#     4  10  21  38  69 105 142 182 225 296 367 431
#     4  12  25  49  73 105 144 187 242 296 356 426
#     4  11  21  41  74 109 144 175 231 297 361 434
#     4  12  24  42  75 104 138 187 241 288 366 426
#     4  10  20  39  68 105 147 175 229 290 368 429
#     4  12  25  47  73 103 145 196 237 293 357 418
#     4  11  22  44  70 104 143 190 232 296 356 421
#
# _framework density 22.849976000000002
#
# number of rings (size 3 to 8) (size 9 to 14) (size 15 to 20)
#    0.000    0.750    6.250    1.500    0.000    3.500 
#    0.000    0.000    0.000    0.000    0.000    0.000 
#    0.000    0.000    0.000    0.000    0.000    0.000 
#
# Total GULP energy -198459.625266 kJ/mol
# GULP energy per Si atom -12403.726579 kJ/mol
# Density = 2.279797 g / cm^3
# Si number density = 22.849976 Si / 1000 Ang^3
#
#
#
# Elastic Constant Matrix: (Units=GPa)
#
#
# Indices 1 2 3 4 5 6 
#
# 1 129.3732 23.9852 40.3484 11.9582 14.0647 -21.0902
# 2 23.9852 125.7161 46.4241 2.5064 0.0128 -14.8684
# 3 40.3484 46.4241 69.4197 14.8939 0.5821 -3.4351
# 4 11.9582 2.5064 14.8939 34.0645 -6.8010 -7.1451
# 5 14.0647 0.0128 0.5821 -6.8010 23.2846 -6.1503
# 6 -21.0902 -14.8684 -3.4351 -7.1451 -6.1503 34.7747
#
#
#
# Elastic Compliance Matrix: (Units=1/GPa)
#
#
# Indices 1 2 3 4 5 6 
#
# 1 0.011177 0.000955 -0.006591 -0.001089 -0.005494 0.005340
# 2 0.000955 0.011778 -0.009137 0.004596 0.002603 0.006117
# 3 -0.006591 -0.009137 0.026222 -0.010466 -0.001781 -0.007779
# 4 -0.001089 0.004596 -0.010466 0.039360 0.015337 0.011071
# 5 -0.005494 0.002603 -0.001781 0.015337 0.053487 0.010216
# 6 0.005340 0.006117 -0.007779 0.011071 0.010216 0.037924
#
#
# Mechanical properties :
#
#
# Convention : Reuss Voigt Hill
#
# Bulk Modulus (GPa) = 50.93947 60.66938 55.80442
# Shear Modulus (GPa) = 23.14435 32.67485 27.90960
#
# Velocity S-wave (km/s) = 3.18603 3.78560 3.49868
# Velocity P-wave (km/s) = 5.98964 6.76140 6.38719
#
# Compressibility (1/GPa) = 0.01963114
#
# Stress axis : x y z
#
# Youngs Moduli (GPa) = 89.47302 84.90612 38.13644
#
# Poissons Ratio (x) = -0.08112 0.25136
# Poissons Ratio (y) = -0.08549 0.34844
# Poissons Ratio (z) = 0.58973 0.77576
#
# Static dielectric constant tensor:
#      x y z
#    x 4.195990 -0.139510 -0.001250 
#    y -0.139510 4.499420 0.039790 
#    z -0.001250 0.039790 3.870990 
# 
# 
# High freq. dielectric constant tensor:
#      x y z
#    x 1.909490 -0.009820 -0.005590 
#    y -0.009820 1.917410 -0.000140 
#    z -0.005590 -0.000140 1.883000 
# 
# From -- ./inp_files/447127.got.cif
#   From: 2010.06.25/outbox.cif.g09.slc.cpg/sg2_224_cif.got.tgz:447127.got - 2010.06.27 13:26:56.
