data_PCOD8006165
_publ_section_title
;
Structure prediction by ZEFSAII (Michael W. Deem and Ramdas Pophale) SiO2 
 PCOD8006165
Probable space group: P -1
;
_chemical_formula_sum "Si O2"
_cell_formula_units_Z 14
_cell_length_a 11.634850
_cell_length_b 16.054368
_cell_length_c 8.262591
_cell_angle_alpha 90.830692
_cell_angle_beta 94.899021
_cell_angle_gamma 157.460609
_cell_volume 571.553073
_symmetry_space_group_name_H-M "P -1"
_symmetry_group_IT_number 2
_symmetry_cell_setting 'triclinic'
loop_
_space_group_symop_operation_xyz
x,y,z
-x,-y,-z
loop_
_atom_site_type_symbol
_atom_site_label
_atom_site_fract_x
_atom_site_fract_y
_atom_site_fract_z
Si Si1 0.277919 0.835155 0.181680
Si Si2 0.168481 0.066453 0.259129
Si Si3 0.308858 0.127050 0.928132
Si Si4 0.929351 0.208893 0.130489
Si Si5 0.274262 0.509156 0.463003
Si Si6 0.176298 0.899725 0.407892
Si Si7 0.315239 0.693869 0.293967
O O1 0.385871 0.979547 0.323742
O O2 0.110415 0.639892 0.234486
O O3 0.595642 0.015070 0.149225
O O4 0.027480 0.707783 0.025365
O O5 0.368240 0.243313 0.432362
O O6 0.860160 0.912774 0.191164
O O7 0.058429 0.900554 0.294288
O O8 0.376909 0.201438 0.123092
O O9 0.075443 0.892123 0.909683
O O10 0.614591 0.307902 0.866370
O O11 0.219781 0.418897 0.291239
O O12 0.157636 0.525696 0.401043
O O13 0.101556 0.348553 0.584187
O O14 0.356702 0.050877 0.592205
#
# Coordination Sequence:
#
# PCOD8006165 Si02
#       7
#     2   2   2   2   2   2   2
#     4  10  20  39  66  86 128 167 201 249 312 360
#     4  10  24  42  67  91 122 164 203 263 304 364
#     4  10  20  47  65  87 127 162 206 253 315 361
#     4  10  21  40  66  91 121 168 204 252 307 366
#     4  11  24  40  60 101 122 160 212 247 310 363
#     4  11  21  41  61  95 128 162 199 258 309 365
#     4  10  23  40  63  93 125 164 205 253 306 367
#
# _framework density 24.494664
#
# number of rings (size 3 to 8) (size 9 to 14) (size 15 to 20)
#    0.000    1.714    4.286    0.429    0.000    5.143 
#    5.143    1.429    0.000    0.000    0.000    0.000 
#    0.000    0.000    0.000    0.000    0.000    0.000 
#
# Total GULP energy -173453.679416 kJ/mol
# GULP energy per Si atom -12389.548530 kJ/mol
# Density = 2.443891 g / cm^3
# Si number density = 24.494664 Si / 1000 Ang^3
#
#
#
# Elastic Constant Matrix: (Units=GPa)
#
#
# Indices 1 2 3 4 5 6 
#
# 1 115.5294 26.4837 29.2451 -16.8196 14.7602 -40.0794
# 2 26.4837 82.4361 18.9565 -8.1217 14.0892 -38.3369
# 3 29.2451 18.9565 114.2188 1.8347 16.7856 -11.7608
# 4 -16.8196 -8.1217 1.8347 32.8839 -16.9778 9.3725
# 5 14.7602 14.0892 16.7856 -16.9778 35.3684 -12.8053
# 6 -40.0794 -38.3369 -11.7608 9.3725 -12.8053 34.0473
#
#
#
# Elastic Compliance Matrix: (Units=1/GPa)
#
#
# Indices 1 2 3 4 5 6 
#
# 1 0.018386 0.008984 -0.003738 0.005238 0.004105 0.030570
# 2 0.008984 0.030152 -0.003071 0.000680 0.001960 0.044016
# 3 -0.003738 -0.003071 0.010759 -0.005261 -0.006741 -0.005230
# 4 0.005238 0.000680 -0.005261 0.044495 0.021782 0.001058
# 5 0.004105 0.001960 -0.006741 0.021782 0.045113 0.015681
# 6 0.030570 0.044016 -0.005230 0.001058 0.015681 0.118719
#
#
# Mechanical properties :
#
#
# Convention : Reuss Voigt Hill
#
# Bulk Modulus (GPa) = 15.71192 51.28386 33.49789
# Shear Modulus (GPa) = 17.57531 36.29319 26.93425
#
# Velocity S-wave (km/s) = 2.68155 3.85343 3.31961
# Velocity P-wave (km/s) = 4.00200 6.38598 5.32901
#
# Compressibility (1/GPa) = 0.06364594
#
# Stress axis : x y z
#
# Youngs Moduli (GPa) = 54.38851 33.16504 92.94769
#
# Poissons Ratio (x) = -0.29796 0.34747
# Poissons Ratio (y) = -0.48863 0.28547
# Poissons Ratio (z) = 0.20332 0.10186
#
# Static dielectric constant tensor:
#      x y z
#    x 4.402750 -0.837050 0.198100 
#    y -0.837050 4.166380 -0.315180 
#    z 0.198100 -0.315180 4.705450 
# 
# 
# High freq. dielectric constant tensor:
#      x y z
#    x 1.957190 -0.054720 0.006570 
#    y -0.054720 1.945350 -0.012720 
#    z 0.006570 -0.012720 1.993530 
# 
# From -- ./inp_files/273403.got.cif
#   From: 2010.06.25/outbox.cif.g09.slc.cpg/sg2_137_cif.got.tgz:273403.got - 2010.06.27 13:26:56.
