data_PCOD8006162
_publ_section_title
;
Structure prediction by ZEFSAII (Michael W. Deem and Ramdas Pophale) SiO2 
 PCOD8006162
Probable space group: P -1
;
_chemical_formula_sum "Si O2"
_cell_formula_units_Z 14
_cell_length_a 9.470915
_cell_length_b 12.065637
_cell_length_c 19.280497
_cell_angle_alpha 153.568793
_cell_angle_beta 131.959593
_cell_angle_gamma 37.903817
_cell_volume 596.654514
_symmetry_space_group_name_H-M "P -1"
_symmetry_group_IT_number 2
_symmetry_cell_setting 'triclinic'
loop_
_space_group_symop_operation_xyz
x,y,z
-x,-y,-z
loop_
_atom_site_type_symbol
_atom_site_label
_atom_site_fract_x
_atom_site_fract_y
_atom_site_fract_z
Si Si1 0.686729 0.516349 0.755621
Si Si2 0.017098 0.758139 0.817447
Si Si3 0.831828 0.366641 0.946239
Si Si4 0.872298 0.622780 0.233595
Si Si5 0.601739 0.700619 0.410836
Si Si6 0.342680 0.020341 0.294531
Si Si7 0.692977 0.874765 0.087307
O O1 0.610775 0.295408 0.625029
O O2 0.950344 0.300021 0.692648
O O3 0.519204 0.770578 0.785077
O O4 0.672789 0.688560 0.916256
O O5 0.056363 0.487958 0.726410
O O6 0.233474 0.612671 0.753500
O O7 0.788427 0.882979 0.767210
O O8 0.000000 0.000000 0.000000
O O9 0.671708 0.241993 0.820786
O O10 0.064508 0.155860 0.858264
O O11 0.903479 0.355681 0.044161
O O12 0.690432 0.717296 0.069653
O O13 0.605929 0.903783 0.300323
O O14 0.500000 0.000000 0.500000
O O15 0.749516 0.709090 0.527944
#
# Coordination Sequence:
#
# PCOD8006162 Si02
#       7
#     2   2   2   2   2   2   2
#     4  10  23  41  67 101 143 189 238 289 356 431
#     4  12  27  46  76 108 143 187 246 301 350 421
#     4  10  20  39  66 107 136 185 241 300 349 417
#     4  11  25  42  68 110 140 186 238 304 345 415
#     4  12  26  49  74 105 147 196 233 293 365 436
#     4  12  25  44  73 105 150 188 238 287 370 429
#     4   9  20  37  67  99 141 184 241 296 350 411
#
# _framework density 23.464164
#
# number of rings (size 3 to 8) (size 9 to 14) (size 15 to 20)
#    0.000    1.143    2.857    2.571    6.000    0.571 
#    0.000    0.714    0.000    0.000    0.000    0.000 
#    0.000    0.000    0.000    0.000    0.000    0.000 
#
# Total GULP energy -173561.456235 kJ/mol
# GULP energy per Si atom -12397.246874 kJ/mol
# Density = 2.341076 g / cm^3
# Si number density = 23.464164 Si / 1000 Ang^3
#
#
#
# Elastic Constant Matrix: (Units=GPa)
#
#
# Indices 1 2 3 4 5 6 
#
# 1 152.8905 67.8465 52.8088 -9.3908 13.2037 -13.9863
# 2 67.8465 154.4807 38.3699 -9.7023 2.0125 -3.1972
# 3 52.8088 38.3699 106.8834 -15.9862 -7.2761 -6.8477
# 4 -9.3908 -9.7023 -15.9862 23.5853 2.3732 -8.9354
# 5 13.2037 2.0125 -7.2761 2.3732 36.0261 -2.8481
# 6 -13.9863 -3.1972 -6.8477 -8.9354 -2.8481 35.3556
#
#
#
# Elastic Compliance Matrix: (Units=1/GPa)
#
#
# Indices 1 2 3 4 5 6 
#
# 1 0.009960 -0.003261 -0.003563 0.001785 -0.004062 0.003079
# 2 -0.003261 0.008255 -0.001197 0.001068 0.000384 -0.000474
# 3 -0.003563 -0.001197 0.013203 0.007926 0.003782 0.003347
# 4 0.001785 0.001068 0.007926 0.055195 -0.001471 0.016169
# 5 -0.004062 0.000384 0.003782 -0.001471 0.030182 0.001220
# 6 0.003079 -0.000474 0.003347 0.016169 0.001220 0.034292
#
#
# Mechanical properties :
#
#
# Convention : Reuss Voigt Hill
#
# Bulk Modulus (GPa) = 65.02998 81.36721 73.19859
# Shear Modulus (GPa) = 29.02676 36.00870 32.51773
#
# Velocity S-wave (km/s) = 3.52101 3.92168 3.72673
# Velocity P-wave (km/s) = 6.65619 7.43361 7.05561
#
# Compressibility (1/GPa) = 0.01537752
#
# Stress axis : x y z
#
# Youngs Moduli (GPa) = 100.39761 121.13975 75.73815
#
# Poissons Ratio (x) = 0.39501 0.26985
# Poissons Ratio (y) = 0.32738 0.09065
# Poissons Ratio (z) = 0.35771 0.14498
#
# Static dielectric constant tensor:
#      x y z
#    x 4.387270 0.095060 -0.172290 
#    y 0.095060 4.461230 -0.229780 
#    z -0.172290 -0.229780 4.023710 
# 
# 
# High freq. dielectric constant tensor:
#      x y z
#    x 1.937950 0.001500 -0.004960 
#    y 0.001500 1.932350 -0.014330 
#    z -0.004960 -0.014330 1.901410 
# 
# From -- ./inp_files/560182.got.cif
#   From: 2010.06.25/outbox.cif.g09.slc.cpg/sg2_281_cif.got.tgz:560182.got - 2010.06.27 13:26:56.
