data_PCOD8006043
_publ_section_title
;
Structure prediction by ZEFSAII (Michael W. Deem and Ramdas Pophale) SiO2 
 PCOD8006043
Probable space group: P -1
;
_chemical_formula_sum "Si O2"
_cell_formula_units_Z 16
_cell_length_a 14.584594
_cell_length_b 9.039790
_cell_length_c 12.940686
_cell_angle_alpha 104.500988
_cell_angle_beta 139.300463
_cell_angle_gamma 46.875938
_cell_volume 671.222980
_symmetry_space_group_name_H-M "P -1"
_symmetry_group_IT_number 2
_symmetry_cell_setting 'triclinic'
loop_
_space_group_symop_operation_xyz
x,y,z
-x,-y,-z
loop_
_atom_site_type_symbol
_atom_site_label
_atom_site_fract_x
_atom_site_fract_y
_atom_site_fract_z
Si Si1 0.140395 0.832028 0.865605
Si Si2 0.437498 0.846757 0.351299
Si Si3 0.938163 0.210564 0.430600
Si Si4 0.831355 0.706486 0.652920
Si Si5 0.498966 0.763594 0.166675
Si Si6 0.723592 0.306579 0.724150
Si Si7 0.268760 0.466296 0.062191
Si Si8 0.696113 0.896440 0.338491
O O1 0.047014 0.825827 0.685601
O O2 0.297752 0.836466 0.957419
O O3 0.283535 0.586644 0.009745
O O4 0.934233 0.070509 0.797580
O O5 0.706680 0.652337 0.567744
O O6 0.401161 0.928504 0.215815
O O7 0.352828 0.745021 0.260062
O O8 0.293281 0.053378 0.349989
O O9 0.698685 0.473772 0.312710
O O10 0.119173 0.194069 0.600205
O O11 0.000000 0.000000 0.500000
O O12 0.810516 0.760234 0.523021
O O13 0.087796 0.491587 0.875597
O O14 0.592935 0.825633 0.189287
O O15 0.500000 0.500000 0.500000
O O16 0.793288 0.404877 0.857144
O O17 0.506830 0.186065 0.235104
#
# Coordination Sequence:
#
# PCOD8006043 Si02
#       8
#     2   2   2   2   2   2   2   2
#     4  12  24  45  70 103 136 178 238 280 343 410
#     4  10  20  39  64  98 138 177 222 276 348 401
#     4  12  26  48  71  99 137 183 234 289 342 397
#     4  10  21  41  68  97 142 178 220 284 346 414
#     4  11  25  44  70  96 141 180 229 289 335 412
#     4  12  24  39  71 104 142 182 224 283 345 415
#     4  12  22  42  73 102 138 179 224 285 342 410
#     4  11  25  47  68 103 136 181 230 282 354 403
#
# _framework density 23.837088000000001
#
# number of rings (size 3 to 8) (size 9 to 14) (size 15 to 20)
#    0.000    0.750    3.750    4.125    1.750    1.000 
#    2.250    8.125    0.000    0.000    0.000    0.000 
#    0.000    0.000    0.000    0.000    0.000    0.000 
#
# Total GULP energy -198254.686266 kJ/mol
# GULP energy per Si atom -12390.917892 kJ/mol
# Density = 2.378283 g / cm^3
# Si number density = 23.837088 Si / 1000 Ang^3
#
#
#
# Elastic Constant Matrix: (Units=GPa)
#
#
# Indices 1 2 3 4 5 6 
#
# 1 77.3018 21.3610 26.5893 -7.7763 24.6307 14.0786
# 2 21.3610 70.4793 19.2975 -3.8741 7.7591 15.0853
# 3 26.5893 19.2975 100.9332 1.5941 22.2903 9.6027
# 4 -7.7763 -3.8741 1.5941 32.4606 8.5021 4.2897
# 5 24.6307 7.7591 22.2903 8.5021 47.4110 11.1402
# 6 14.0786 15.0853 9.6027 4.2897 11.1402 27.3281
#
#
#
# Elastic Compliance Matrix: (Units=1/GPa)
#
#
# Indices 1 2 3 4 5 6 
#
# 1 0.018743 -0.002667 -0.002211 0.007142 -0.008336 -0.005129
# 2 -0.002667 0.017354 -0.002099 0.002352 0.001053 -0.008267
# 3 -0.002211 -0.002099 0.011786 -0.000299 -0.003952 -0.000186
# 4 0.007142 0.002352 -0.000299 0.036032 -0.008783 -0.006948
# 5 -0.008336 0.001053 -0.003952 -0.008783 0.030038 -0.005764
# 6 -0.005129 -0.008267 -0.000186 -0.006948 -0.005764 0.047304
#
#
# Mechanical properties :
#
#
# Convention : Reuss Voigt Hill
#
# Bulk Modulus (GPa) = 29.47265 42.57888 36.02576
# Shear Modulus (GPa) = 26.80671 33.53770 30.17221
#
# Velocity S-wave (km/s) = 3.35711 3.75501 3.56162
# Velocity P-wave (km/s) = 5.23622 6.05816 5.66213
#
# Compressibility (1/GPa) = 0.03392976
#
# Stress axis : x y z
#
# Youngs Moduli (GPa) = 53.35397 57.62280 84.84325
#
# Poissons Ratio (x) = 0.15368 0.18762
# Poissons Ratio (y) = 0.14229 0.17805
# Poissons Ratio (z) = 0.11798 0.12092
#
# Static dielectric constant tensor:
#      x y z
#    x 4.024850 0.115400 0.316320 
#    y 0.115400 4.328990 0.365020 
#    z 0.316320 0.365020 4.488060 
# 
# 
# High freq. dielectric constant tensor:
#      x y z
#    x 1.941080 0.002830 0.027650 
#    y 0.002830 1.941890 0.021120 
#    z 0.027650 0.021120 1.947430 
# 
# From -- ./inp_files/529912.got.cif
#   From: 2010.06.25/outbox.cif.g09.slc.cpg/sg2_265_cif.got.tgz:529912.got - 2010.06.27 13:26:56.
