data_PCOD8006643
_publ_section_title
;
Structure prediction by ZEFSAII (Michael W. Deem and Ramdas Pophale) SiO2 
 PCOD8006643
Probable space group: P -1
;
_chemical_formula_sum "Si O2"
_cell_formula_units_Z 16
_cell_length_a 9.202454
_cell_length_b 14.432110
_cell_length_c 11.347792
_cell_angle_alpha 102.408016
_cell_angle_beta 49.005548
_cell_angle_gamma 133.559001
_cell_volume 742.798363
_symmetry_space_group_name_H-M "P -1"
_symmetry_group_IT_number 2
_symmetry_cell_setting 'triclinic'
loop_
_space_group_symop_operation_xyz
x,y,z
-x,-y,-z
loop_
_atom_site_type_symbol
_atom_site_label
_atom_site_fract_x
_atom_site_fract_y
_atom_site_fract_z
Si Si1 0.292772 0.711540 0.271239
Si Si2 0.494719 0.968972 0.130414
Si Si3 0.477872 0.573819 0.196930
Si Si4 0.367349 0.539359 0.511851
Si Si5 0.105085 0.745920 0.605524
Si Si6 0.918117 0.087056 0.488264
Si Si7 0.449776 0.222994 0.362637
Si Si8 0.109999 0.757937 0.870436
O O1 0.480795 0.850192 0.126023
O O2 0.430708 0.657693 0.180834
O O3 0.283297 0.743532 0.421244
O O4 0.973969 0.595266 0.355477
O O5 0.215159 0.914478 0.323213
O O6 0.784591 0.109601 0.081296
O O7 0.500000 0.000000 0.000000
O O8 0.514522 0.599892 0.323472
O O9 0.222690 0.409553 0.255905
O O10 0.767471 0.628675 0.013453
O O11 0.500000 0.500000 0.500000
O O12 0.433560 0.661189 0.573415
O O13 0.123107 0.860947 0.586861
O O14 0.236765 0.796758 0.680137
O O15 0.262434 0.205150 0.356254
O O16 0.768020 0.931526 0.500499
O O17 0.725919 0.272564 0.166719
#
# Coordination Sequence:
#
# PCOD8006643 Si02
#       8
#     2   2   2   2   2   2   2   2
#     4  10  22  41  65  90 125 171 208 263 313 368
#     4  10  23  42  63  93 131 159 213 272 313 369
#     4  11  23  39  60  97 131 161 208 266 315 371
#     4  11  22  38  69  95 121 170 215 255 309 382
#     4  10  20  42  63  89 125 161 214 253 305 384
#     4   9  21  40  66  88 121 167 209 263 309 364
#     4  10  20  40  62  91 121 163 215 246 313 376
#     4  11  24  38  63  92 126 169 201 260 321 362
#
# _framework density 21.540167
#
# number of rings (size 3 to 8) (size 9 to 14) (size 15 to 20)
#    0.000    1.750    0.000    5.625    3.500    6.000 
#    6.750    2.500    0.000    0.000    0.000    0.000 
#    0.000    0.000    0.000    0.000    0.000    0.000 
#
# Total GULP energy -198365.455608 kJ/mol
# GULP energy per Si atom -12397.840976 kJ/mol
# Density = 2.149114 g / cm^3
# Si number density = 21.540167 Si / 1000 Ang^3
#
#
#
# Elastic Constant Matrix: (Units=GPa)
#
#
# Indices 1 2 3 4 5 6 
#
# 1 81.6955 9.3984 35.3404 -0.4558 -4.2653 -4.5926
# 2 9.3984 96.3406 12.2693 7.5671 20.5337 -3.5923
# 3 35.3404 12.2693 70.1391 -5.9470 -1.1453 -1.6060
# 4 -0.4558 7.5671 -5.9470 19.8307 -0.9496 2.4796
# 5 -4.2653 20.5337 -1.1453 -0.9496 36.5128 2.1835
# 6 -4.5926 -3.5923 -1.6060 2.4796 2.1835 34.9681
#
#
#
# Elastic Compliance Matrix: (Units=1/GPa)
#
#
# Indices 1 2 3 4 5 6 
#
# 1 0.015971 -0.000728 -0.008010 -0.001876 0.001875 0.001671
# 2 -0.000728 0.013005 -0.002528 -0.006367 -0.007767 0.002061
# 3 -0.008010 -0.002528 0.019307 0.006757 0.001326 -0.000987
# 4 -0.001876 -0.006367 0.006757 0.055703 0.005313 -0.004872
# 5 0.001875 -0.007767 0.001326 0.005313 0.032327 -0.002886
# 6 0.001671 0.002061 -0.000987 -0.004872 -0.002886 0.029509
#
#
# Mechanical properties :
#
#
# Convention : Reuss Voigt Hill
#
# Bulk Modulus (GPa) = 38.83153 40.24348 39.53751
# Shear Modulus (GPa) = 25.38882 31.00681 28.19781
#
# Velocity S-wave (km/s) = 3.43691 3.79817 3.62205
# Velocity P-wave (km/s) = 5.81519 6.16104 5.99061
#
# Compressibility (1/GPa) = 0.02575227
#
# Stress axis : x y z
#
# Youngs Moduli (GPa) = 62.61493 76.89308 51.79359
#
# Poissons Ratio (x) = 0.05597 0.41486
# Poissons Ratio (y) = 0.04557 0.13092
# Poissons Ratio (z) = 0.50154 0.19436
#
# Static dielectric constant tensor:
#      x y z
#    x 4.050450 -0.062050 -0.046310 
#    y -0.062050 4.038800 -0.020840 
#    z -0.046310 -0.020840 3.687690 
# 
# 
# High freq. dielectric constant tensor:
#      x y z
#    x 1.856080 0.002720 -0.008940 
#    y 0.002720 1.860210 -0.000630 
#    z -0.008940 -0.000630 1.816380 
# 
# From -- ./inp_files/399180.got.cif
#   From: 2010.06.25/outbox.cif.g09.slc.cpg/sg2_200_cif.got.tgz:399180.got - 2010.06.27 13:26:56.
