data_PCOD8006646
_publ_section_title
;
Structure prediction by ZEFSAII (Michael W. Deem and Ramdas Pophale) SiO2 
 PCOD8006646
Probable space group: P -1
;
_chemical_formula_sum "Si O2"
_cell_formula_units_Z 16
_cell_length_a 14.925795
_cell_length_b 8.598808
_cell_length_c 9.724496
_cell_angle_alpha 116.028879
_cell_angle_beta 110.377904
_cell_angle_gamma 118.057325
_cell_volume 707.350290
_symmetry_space_group_name_H-M "P -1"
_symmetry_group_IT_number 2
_symmetry_cell_setting 'triclinic'
loop_
_space_group_symop_operation_xyz
x,y,z
-x,-y,-z
loop_
_atom_site_type_symbol
_atom_site_label
_atom_site_fract_x
_atom_site_fract_y
_atom_site_fract_z
Si Si1 0.537366 0.362618 0.516075
Si Si2 0.833433 0.822946 0.471491
Si Si3 0.128467 0.559355 0.155715
Si Si4 0.651667 0.097860 0.960992
Si Si5 0.413691 0.035387 0.842897
Si Si6 0.367475 0.149700 0.593824
Si Si7 0.796559 0.537520 0.591397
Si Si8 0.122596 0.377662 0.813808
O O1 0.500000 0.500000 0.500000
O O2 0.512083 0.322994 0.651415
O O3 0.698078 0.529857 0.629864
O O4 0.420114 0.077420 0.279003
O O5 0.691553 0.733736 0.405378
O O6 0.875012 0.750611 0.593648
O O7 0.814184 0.700233 0.267469
O O8 0.952194 0.130850 0.628978
O O9 0.093281 0.410939 0.224093
O O10 0.259530 0.860157 0.370034
O O11 0.172219 0.466941 0.033790
O O12 0.000000 0.500000 0.000000
O O13 0.573532 0.175801 0.985250
O O14 0.629867 0.944939 0.023102
O O15 0.818286 0.366967 0.128953
O O16 0.303303 0.733870 0.639905
O O17 0.403377 0.173901 0.781853
#
# Coordination Sequence:
#
# PCOD8006646 Si02
#       8
#     2   2   2   2   2   2   2   2
#     4  11  22  38  66  98 128 164 209 270 317 377
#     4  11  23  43  61  93 135 164 206 272 314 367
#     4  11  23  43  65  91 123 175 219 258 308 388
#     4  10  20  40  62  91 124 168 219 249 315 388
#     4   9  21  38  65  89 122 169 205 264 315 378
#     4  11  22  40  64  95 130 162 214 261 325 370
#     4  10  22  40  66  92 130 165 210 264 325 367
#     4  11  23  40  66  90 126 171 209 258 316 376
#
# _framework density 22.619624999999999
#
# number of rings (size 3 to 8) (size 9 to 14) (size 15 to 20)
#    0.000    1.500    5.000    0.000    1.750    2.000 
#    2.250    5.000    0.000    0.000    0.000    0.000 
#    0.000    0.000    0.000    0.000    0.000    0.000 
#
# Total GULP energy -198210.406496 kJ/mol
# GULP energy per Si atom -12388.150406 kJ/mol
# Density = 2.256814 g / cm^3
# Si number density = 22.619625 Si / 1000 Ang^3
#
#
#
# Elastic Constant Matrix: (Units=GPa)
#
#
# Indices 1 2 3 4 5 6 
#
# 1 68.7224 28.1810 24.1447 -11.9723 -6.4127 4.7152
# 2 28.1810 122.6339 27.8494 -27.7121 10.8110 8.0067
# 3 24.1447 27.8494 59.8709 -26.1948 -2.9325 2.3981
# 4 -11.9723 -27.7121 -26.1948 41.4671 1.9782 3.0562
# 5 -6.4127 10.8110 -2.9325 1.9782 34.0385 -5.7468
# 6 4.7152 8.0067 2.3981 3.0562 -5.7468 33.5356
#
#
#
# Elastic Compliance Matrix: (Units=1/GPa)
#
#
# Indices 1 2 3 4 5 6 
#
# 1 0.018283 -0.003352 -0.005985 -0.000888 0.003946 -0.000585
# 2 -0.003352 0.011353 -0.001271 0.006339 -0.005330 -0.003639
# 3 -0.005985 -0.001271 0.025882 0.013895 0.000376 -0.001908
# 4 -0.000888 0.006339 0.013895 0.037558 -0.004270 -0.006537
# 5 0.003946 -0.005330 0.000376 -0.004270 0.033239 0.006776
# 6 -0.000585 -0.003639 -0.001908 -0.006537 0.006776 0.032664
#
#
# Mechanical properties :
#
#
# Convention : Reuss Voigt Hill
#
# Bulk Modulus (GPa) = 29.15449 45.73083 37.44266
# Shear Modulus (GPa) = 26.09202 33.21169 29.65186
#
# Velocity S-wave (km/s) = 3.40002 3.83596 3.62455
# Velocity P-wave (km/s) = 5.32265 6.31511 5.84000
#
# Compressibility (1/GPa) = 0.03430004
#
# Stress axis : x y z
#
# Youngs Moduli (GPa) = 54.69678 88.08006 38.63749
#
# Poissons Ratio (x) = 0.29528 0.23126
# Poissons Ratio (y) = 0.18337 0.04911
# Poissons Ratio (z) = 0.32738 0.11194
#
# Static dielectric constant tensor:
#      x y z
#    x 3.989620 0.270000 -0.203490 
#    y 0.270000 4.333640 -0.227260 
#    z -0.203490 -0.227260 3.982360 
# 
# 
# High freq. dielectric constant tensor:
#      x y z
#    x 1.862680 0.016320 -0.026450 
#    y 0.016320 1.899360 -0.007420 
#    z -0.026450 -0.007420 1.889290 
# 
# From -- ./inp_files/205399.got.cif
#   From: 2010.06.25/outbox.cif.g09.slc.cpg/sg2_103_cif.got.tgz:205399.got - 2010.06.27 13:26:56.
