data_PCOD8006451
_publ_section_title
;
Structure prediction by ZEFSAII (Michael W. Deem and Ramdas Pophale) SiO2 
 PCOD8006451
Probable space group: P -1
;
_chemical_formula_sum "Si O2"
_cell_formula_units_Z 14
_cell_length_a 11.757194
_cell_length_b 9.520345
_cell_length_c 7.795283
_cell_angle_alpha 105.524588
_cell_angle_beta 102.752567
_cell_angle_gamma 51.228302
_cell_volume 653.817017
_symmetry_space_group_name_H-M "P -1"
_symmetry_group_IT_number 2
_symmetry_cell_setting 'triclinic'
loop_
_space_group_symop_operation_xyz
x,y,z
-x,-y,-z
loop_
_atom_site_type_symbol
_atom_site_label
_atom_site_fract_x
_atom_site_fract_y
_atom_site_fract_z
Si Si1 0.344152 0.544546 0.963854
Si Si2 0.848927 0.236547 0.726109
Si Si3 0.783706 0.438026 0.436743
Si Si4 0.908639 0.872184 0.666650
Si Si5 0.955271 0.724947 0.980038
Si Si6 0.769128 0.668072 0.096495
Si Si7 0.668056 0.838969 0.471759
O O1 0.282418 0.590798 0.763820
O O2 0.345228 0.378397 0.990192
O O3 0.500000 0.500000 0.000000
O O4 0.246378 0.712402 0.116039
O O5 0.752836 0.368645 0.577162
O O6 0.908303 0.031737 0.632905
O O7 0.982148 0.247670 0.816512
O O8 0.712961 0.650228 0.507994
O O9 0.959061 0.316757 0.437954
O O10 0.927230 0.870560 0.878101
O O11 0.757166 0.903360 0.603203
O O12 0.073868 0.524619 0.869712
O O13 0.803770 0.751299 0.977404
O O14 0.704452 0.812675 0.274394
O O15 0.500000 0.000000 0.500000
#
# Coordination Sequence:
#
# PCOD8006451 Si02
#       7
#     2   2   2   2   2   2   2
#     4  10  23  43  67  97 139 175 224 275 341 408
#     4  11  24  41  69 103 136 173 229 281 340 398
#     4  11  24  45  71  96 131 186 227 277 341 394
#     4  12  23  41  69 102 135 178 226 287 332 398
#     4  10  20  39  71 100 133 169 232 287 332 390
#     4   9  20  40  66  95 129 175 226 268 342 390
#     4  11  25  43  63  97 140 175 227 278 338 413
#
# _framework density 21.412721000000001
#
# number of rings (size 3 to 8) (size 9 to 14) (size 15 to 20)
#    0.000    1.429    4.286    2.143   10.000    0.571 
#    0.000    0.714    0.000    0.000    0.000    0.000 
#    0.000    0.000    0.000    0.000    0.000    0.000 
#
# Total GULP energy -173507.855398 kJ/mol
# GULP energy per Si atom -12393.418243 kJ/mol
# Density = 2.136398 g / cm^3
# Si number density = 21.412721 Si / 1000 Ang^3
#
#
#
# Elastic Constant Matrix: (Units=GPa)
#
#
# Indices 1 2 3 4 5 6 
#
# 1 155.3553 53.5259 48.0192 0.6596 2.6941 -5.3033
# 2 53.5259 127.8995 43.5404 5.3909 -6.0155 8.9381
# 3 48.0192 43.5404 94.8431 1.4566 -4.4543 0.6369
# 4 0.6596 5.3909 1.4566 20.0888 1.4331 -6.6046
# 5 2.6941 -6.0155 -4.4543 1.4331 28.4305 -6.5350
# 6 -5.3033 8.9381 0.6369 -6.6046 -6.5350 33.0912
#
#
#
# Elastic Compliance Matrix: (Units=1/GPa)
#
#
# Indices 1 2 3 4 5 6 
#
# 1 0.008442 -0.002756 -0.003115 0.001506 -0.001448 0.002172
# 2 -0.002756 0.010587 -0.003319 -0.003834 0.001314 -0.003743
# 3 -0.003115 -0.003319 0.013728 0.000032 0.001858 0.000506
# 4 0.001506 -0.003834 0.000032 0.054776 -0.000947 0.012022
# 5 -0.001448 0.001314 0.001858 -0.000947 0.037441 0.006582
# 6 0.002172 -0.003743 0.000506 0.012022 0.006582 0.035268
#
#
# Mechanical properties :
#
#
# Convention : Reuss Voigt Hill
#
# Bulk Modulus (GPa) = 69.55472 74.25211 71.90341
# Shear Modulus (GPa) = 27.26075 31.85626 29.55851
#
# Velocity S-wave (km/s) = 3.57194 3.86129 3.71943
# Velocity P-wave (km/s) = 7.04025 7.39130 7.21791
#
# Compressibility (1/GPa) = 0.01437717
#
# Stress axis : x y z
#
# Youngs Moduli (GPa) = 118.45563 94.45598 72.84472
#
# Poissons Ratio (x) = 0.26032 0.22689
# Poissons Ratio (y) = 0.32646 0.24178
# Poissons Ratio (z) = 0.36895 0.31351
#
# Static dielectric constant tensor:
#      x y z
#    x 3.885710 0.138980 -0.175580 
#    y 0.138980 3.646370 -0.014050 
#    z -0.175580 -0.014050 3.943980 
# 
# 
# High freq. dielectric constant tensor:
#      x y z
#    x 1.837850 0.015510 -0.012580 
#    y 0.015510 1.816260 0.009020 
#    z -0.012580 0.009020 1.843510 
# 
# From -- ./inp_files/244622.got.cif
#   From: 2010.06.25/outbox.cif.g09.slc.cpg/sg2_123_cif.got.tgz:244622.got - 2010.06.27 13:26:56.
