data_PCOD8006823
_publ_section_title
;
Structure prediction by ZEFSAII (Michael W. Deem and Ramdas Pophale) SiO2 
 PCOD8006823
Probable space group: P -1
;
_chemical_formula_sum "Si O2"
_cell_formula_units_Z 16
_cell_length_a 11.683296
_cell_length_b 11.246446
_cell_length_c 11.508510
_cell_angle_alpha 53.987353
_cell_angle_beta 39.717936
_cell_angle_gamma 64.021210
_cell_volume 781.321923
_symmetry_space_group_name_H-M "P -1"
_symmetry_group_IT_number 2
_symmetry_cell_setting 'triclinic'
loop_
_space_group_symop_operation_xyz
x,y,z
-x,-y,-z
loop_
_atom_site_type_symbol
_atom_site_label
_atom_site_fract_x
_atom_site_fract_y
_atom_site_fract_z
Si Si1 0.078878 0.842154 0.008399
Si Si2 0.586945 0.051740 0.756367
Si Si3 0.394469 0.645184 0.300779
Si Si4 0.102133 0.440432 0.769805
Si Si5 0.112768 0.033200 0.279922
Si Si6 0.762764 0.507630 0.128545
Si Si7 0.264323 0.837813 0.101944
Si Si8 0.820251 0.182289 0.309340
O O1 0.201778 0.795284 0.046893
O O2 0.927111 0.713031 0.188101
O O3 0.196292 0.854573 0.792764
O O4 0.000000 0.000000 0.000000
O O5 0.568219 0.215834 0.725445
O O6 0.703004 0.062895 0.541253
O O7 0.681375 0.949443 0.841571
O O8 0.400636 0.977931 0.907632
O O9 0.227556 0.548064 0.534661
O O10 0.570362 0.549223 0.206824
O O11 0.348473 0.695113 0.176988
O O12 0.185199 0.394094 0.856076
O O13 0.909727 0.515273 0.905393
O O14 0.028241 0.172178 0.199944
O O15 0.103031 0.894663 0.277451
O O16 0.000000 0.000000 0.500000
O O17 0.751971 0.345150 0.287943
#
# Coordination Sequence:
#
# PCOD8006823 Si02
#       8
#     2   2   2   2   2   2   2   2
#     4  11  24  41  63  90 127 175 212 247 312 391
#     4  10  22  37  64  96 126 160 204 274 323 359
#     4  11  22  42  64  96 128 160 216 265 321 374
#     4  10  23  40  66  94 126 171 208 263 318 370
#     4   9  18  36  61  90 121 155 206 263 310 362
#     4  10  22  39  66 100 123 160 210 275 321 363
#     4  11  24  40  59  92 130 170 206 254 317 383
#     4  10  20  40  64  94 126 156 217 260 314 380
#
# _framework density 20.478113
#
# number of rings (size 3 to 8) (size 9 to 14) (size 15 to 20)
#    0.000    1.750    2.500    1.875    1.750    5.000 
#    4.500    3.750    0.000    0.000    0.000    0.000 
#    0.000    0.000    0.000    0.000    0.000    0.000 
#
# Total GULP energy -198277.047666 kJ/mol
# GULP energy per Si atom -12392.315479 kJ/mol
# Density = 2.043150 g / cm^3
# Si number density = 20.478113 Si / 1000 Ang^3
#
#
#
# Elastic Constant Matrix: (Units=GPa)
#
#
# Indices 1 2 3 4 5 6 
#
# 1 145.2364 73.0882 53.3312 -2.6095 17.5374 -3.5353
# 2 73.0882 109.7031 46.2876 -8.6608 -2.3197 -13.9292
# 3 53.3312 46.2876 115.6693 -7.4059 0.7627 -1.2809
# 4 -2.6095 -8.6608 -7.4059 29.8806 2.9451 -2.7469
# 5 17.5374 -2.3197 0.7627 2.9451 31.8635 -2.5371
# 6 -3.5353 -13.9292 -1.2809 -2.7469 -2.5371 43.4573
#
#
#
# Elastic Compliance Matrix: (Units=1/GPa)
#
#
# Indices 1 2 3 4 5 6 
#
# 1 0.012655 -0.007783 -0.002776 -0.001288 -0.007511 -0.002067
# 2 -0.007783 0.016508 -0.002785 0.003328 0.005652 0.005116
# 3 -0.002776 -0.002785 0.011127 0.001564 0.000863 -0.000641
# 4 -0.001288 0.003328 0.001564 0.035198 -0.002092 0.003111
# 5 -0.007511 0.005652 0.000863 -0.002092 0.036358 0.003216
# 6 -0.002067 0.005116 -0.000641 0.003111 0.003216 0.024848
#
#
# Mechanical properties :
#
#
# Convention : Reuss Voigt Hill
#
# Bulk Modulus (GPa) = 73.51989 79.55810 76.53899
# Shear Modulus (GPa) = 29.77683 34.23372 32.00528
#
# Velocity S-wave (km/s) = 3.81738 4.09311 3.95764
# Velocity P-wave (km/s) = 7.44375 7.82769 7.63813
#
# Compressibility (1/GPa) = 0.01360176
#
# Stress axis : x y z
#
# Youngs Moduli (GPa) = 79.02204 60.57825 89.87009
#
# Poissons Ratio (x) = 0.47146 0.24949
# Poissons Ratio (y) = 0.61500 0.25030
# Poissons Ratio (z) = 0.21937 0.16872
#
# Static dielectric constant tensor:
#      x y z
#    x 3.943450 -0.149660 0.083990 
#    y -0.149660 3.835580 0.135930 
#    z 0.083990 0.135930 3.780940 
# 
# 
# High freq. dielectric constant tensor:
#      x y z
#    x 1.787670 -0.014370 0.013580 
#    y -0.014370 1.792260 0.003680 
#    z 0.013580 0.003680 1.806690 
# 
# From -- ./inp_files/425240.got.cif
#   From: 2010.06.25/outbox.cif.g09.slc.cpg/sg2_213_cif.got.tgz:425240.got - 2010.06.27 13:26:56.
