data_PCOD8006598
_publ_section_title
;
Structure prediction by ZEFSAII (Michael W. Deem and Ramdas Pophale) SiO2 
 PCOD8006598
Probable space group: P -1
;
_chemical_formula_sum "Si O2"
_cell_formula_units_Z 14
_cell_length_a 15.312474
_cell_length_b 12.587103
_cell_length_c 6.131413
_cell_angle_alpha 117.192643
_cell_angle_beta 104.768608
_cell_angle_gamma 31.016959
_cell_volume 516.988592
_symmetry_space_group_name_H-M "P -1"
_symmetry_group_IT_number 2
_symmetry_cell_setting 'triclinic'
loop_
_space_group_symop_operation_xyz
x,y,z
-x,-y,-z
loop_
_atom_site_type_symbol
_atom_site_label
_atom_site_fract_x
_atom_site_fract_y
_atom_site_fract_z
Si Si1 0.424979 0.575432 0.765379
Si Si2 0.719514 0.409629 0.903537
Si Si3 0.768730 0.690794 0.730869
Si Si4 0.076706 0.492560 0.826415
Si Si5 0.562604 0.843752 0.198915
Si Si6 0.234107 0.569934 0.519670
Si Si7 0.949911 0.879889 0.954692
O O1 0.500000 0.500000 0.500000
O O2 0.588399 0.443604 0.899905
O O3 0.355568 0.515735 0.714739
O O4 0.254374 0.854800 0.936295
O O5 0.760202 0.358692 0.625250
O O6 0.916305 0.171022 0.909695
O O7 0.622408 0.644798 0.132327
O O8 0.838227 0.623574 0.464852
O O9 0.686821 0.651018 0.683948
O O10 0.941553 0.537595 0.842795
O O11 0.598828 0.974612 0.907570
O O12 0.253178 0.305257 0.923365
O O13 0.966405 0.741940 0.983056
O O14 0.500000 0.000000 0.500000
O O15 0.033457 0.769452 0.661353
#
# Coordination Sequence:
#
# PCOD8006598 Si02
#       7
#     2   2   2   2   2   2   2
#     4  10  22  40  61  88 117 152 201 243 288 351
#     4  10  22  40  61  86 119 156 193 243 296 339
#     4   9  16  31  51  76 114 145 177 236 282 323
#     4   8  16  30  53  79 104 146 189 222 282 345
#     4   9  17  32  55  82 110 147 190 228 282 348
#     4  10  22  38  58  89 119 153 202 238 283 356
#     4  10  20  40  62  82 117 155 194 245 292 343
#
# _framework density 27.079903999999999
#
# number of rings (size 3 to 8) (size 9 to 14) (size 15 to 20)
#    0.000    2.571    0.000    2.143    0.000    4.571 
#    0.000   10.000    0.000    0.000    0.000    0.000 
#    0.000    0.000    0.000    0.000    0.000    0.000 
#
# Total GULP energy -173475.886117 kJ/mol
# GULP energy per Si atom -12391.134723 kJ/mol
# Density = 2.701827 g / cm^3
# Si number density = 27.079904 Si / 1000 Ang^3
#
#
#
# Elastic Constant Matrix: (Units=GPa)
#
#
# Indices 1 2 3 4 5 6 
#
# 1 171.0403 43.7682 33.1331 6.7534 -14.2648 -33.4005
# 2 43.7682 190.1009 41.0550 14.3357 13.3981 -36.3731
# 3 33.1331 41.0550 96.8606 5.5634 -1.5523 -15.3342
# 4 6.7534 14.3357 5.5634 44.5222 -5.8127 6.2876
# 5 -14.2648 13.3981 -1.5523 -5.8127 38.0828 -2.0342
# 6 -33.4005 -36.3731 -15.3342 6.2876 -2.0342 41.5007
#
#
#
# Elastic Compliance Matrix: (Units=1/GPa)
#
#
# Indices 1 2 3 4 5 6 
#
# 1 0.007631 -0.000535 -0.001397 -0.001181 0.003103 0.005487
# 2 -0.000535 0.007330 -0.001895 -0.003236 -0.003049 0.005634
# 3 -0.001397 -0.001895 0.011946 -0.000845 0.000597 0.001786
# 4 -0.001181 -0.003236 -0.000845 0.025420 0.004128 -0.007748
# 5 0.003103 -0.003049 0.000597 0.004128 0.029193 0.000850
# 6 0.005487 0.005634 0.001786 -0.007748 0.000850 0.035326
#
#
# Mechanical properties :
#
#
# Convention : Reuss Voigt Hill
#
# Bulk Modulus (GPa) = 51.94061 77.10160 64.52110
# Shear Modulus (GPa) = 38.19182 47.49085 42.84133
#
# Velocity S-wave (km/s) = 3.75952 4.19230 3.98179
# Velocity P-wave (km/s) = 6.16988 7.20885 6.70951
#
# Compressibility (1/GPa) = 0.01925276
#
# Stress axis : x y z
#
# Youngs Moduli (GPa) = 131.04288 136.43142 83.70951
#
# Poissons Ratio (x) = 0.07297 0.11698
# Poissons Ratio (y) = 0.07009 0.15861
# Poissons Ratio (z) = 0.18312 0.25851
#
# Static dielectric constant tensor:
#      x y z
#    x 5.352980 -0.492730 -0.275660 
#    y -0.492730 6.071400 -0.406190 
#    z -0.275660 -0.406190 5.373080 
# 
# 
# High freq. dielectric constant tensor:
#      x y z
#    x 2.120780 -0.011100 -0.042920 
#    y -0.011100 2.102070 -0.034670 
#    z -0.042920 -0.034670 2.119020 
# 
# From -- ./inp_files/220692.got.cif
#   From: 2010.06.25/outbox.cif.g09.slc.cpg/sg2_111_cif.got.tgz:220692.got - 2010.06.27 13:26:56.
