data_PCOD8006410
_publ_section_title
;
Structure prediction by ZEFSAII (Michael W. Deem and Ramdas Pophale) SiO2 
 PCOD8006410
Probable space group: P -1
;
_chemical_formula_sum "Si O2"
_cell_formula_units_Z 16
_cell_length_a 12.272724
_cell_length_b 13.042501
_cell_length_c 8.379713
_cell_angle_alpha 111.798023
_cell_angle_beta 127.685491
_cell_angle_gamma 43.081284
_cell_volume 717.989192
_symmetry_space_group_name_H-M "P -1"
_symmetry_group_IT_number 2
_symmetry_cell_setting 'triclinic'
loop_
_space_group_symop_operation_xyz
x,y,z
-x,-y,-z
loop_
_atom_site_type_symbol
_atom_site_label
_atom_site_fract_x
_atom_site_fract_y
_atom_site_fract_z
Si Si1 0.090856 0.759910 0.417408
Si Si2 0.601631 0.700821 0.054099
Si Si3 0.545970 0.154548 0.678370
Si Si4 0.910600 0.642515 0.108128
Si Si5 0.533669 0.455565 0.190847
Si Si6 0.321163 0.751136 0.369672
Si Si7 0.675992 0.058995 0.287196
Si Si8 0.608549 0.899378 0.753331
O O1 0.247903 0.693361 0.657310
O O2 0.145631 0.778920 0.301700
O O3 0.064537 0.642440 0.314647
O O4 0.900913 0.926652 0.399371
O O5 0.576822 0.707999 0.226445
O O6 0.801867 0.643802 0.156553
O O7 0.592456 0.582617 0.907011
O O8 0.429217 0.874784 0.938889
O O9 0.711381 0.142465 0.743068
O O10 0.393100 0.197808 0.435521
O O11 0.645163 0.994672 0.754241
O O12 0.772361 0.793512 0.966141
O O13 0.000000 0.500000 0.000000
O O14 0.475084 0.581498 0.338871
O O15 0.500000 0.500000 0.000000
O O16 0.391501 0.789575 0.600743
O O17 0.595203 0.997624 0.277958
#
# Coordination Sequence:
#
# PCOD8006410 Si02
#       8
#     2   2   2   2   2   2   2   2
#     4  12  25  43  70 104 133 171 238 276 329 406
#     4  11  22  43  69  94 138 176 224 269 346 390
#     4  10  20  39  69  92 128 182 220 272 328 404
#     4  11  25  42  69 100 134 179 227 280 330 403
#     4  12  26  45  68 100 136 179 218 277 349 410
#     4  11  23  41  68  94 135 179 220 268 340 397
#     4  10  22  42  71  98 128 181 227 279 323 398
#     4   9  21  42  67  96 136 178 227 266 345 391
#
# _framework density 22.284455999999999
#
# number of rings (size 3 to 8) (size 9 to 14) (size 15 to 20)
#    0.000    1.250    2.500    3.000    5.250    2.000 
#    0.000   16.875    0.000    0.000    0.000    0.000 
#    0.000    0.000    0.000    0.000    0.000    0.000 
#
# Total GULP energy -198242.975196 kJ/mol
# GULP energy per Si atom -12390.185950 kJ/mol
# Density = 2.223374 g / cm^3
# Si number density = 22.284456 Si / 1000 Ang^3
#
#
#
# Elastic Constant Matrix: (Units=GPa)
#
#
# Indices 1 2 3 4 5 6 
#
# 1 191.8873 54.0650 57.3743 -2.6845 0.8959 16.2867
# 2 54.0650 69.9723 11.7188 11.6943 4.0112 0.5789
# 3 57.3743 11.7188 75.6591 11.2741 -1.2421 0.6546
# 4 -2.6845 11.6943 11.2741 31.3774 2.4719 2.5079
# 5 0.8959 4.0112 -1.2421 2.4719 35.2736 10.1501
# 6 16.2867 0.5789 0.6546 2.5079 10.1501 40.1980
#
#
#
# Elastic Compliance Matrix: (Units=1/GPa)
#
#
# Indices 1 2 3 4 5 6 
#
# 1 0.010047 -0.007670 -0.007360 0.006632 0.001205 -0.004558
# 2 -0.007670 0.021367 0.003944 -0.010158 -0.002538 0.004010
# 3 -0.007360 0.003944 0.019563 -0.009395 0.000180 0.003147
# 4 0.006632 -0.010158 -0.009395 0.040036 -0.000802 -0.004683
# 5 0.001205 -0.002538 0.000180 -0.000802 0.031042 -0.008243
# 6 -0.004558 0.004010 0.003147 -0.004683 -0.008243 0.028988
#
#
# Mechanical properties :
#
#
# Convention : Reuss Voigt Hill
#
# Bulk Modulus (GPa) = 34.71565 64.87055 49.79310
# Shear Modulus (GPa) = 27.34949 35.66050 31.50500
#
# Velocity S-wave (km/s) = 3.50707 4.00464 3.76409
# Velocity P-wave (km/s) = 5.65788 7.11029 6.42526
#
# Compressibility (1/GPa) = 0.02880545
#
# Stress axis : x y z
#
# Youngs Moduli (GPa) = 99.52958 46.80059 51.11616
#
# Poissons Ratio (x) = 0.35897 0.37622
# Poissons Ratio (y) = 0.76342 -0.20161
# Poissons Ratio (z) = 0.73255 -0.18459
#
# Static dielectric constant tensor:
#      x y z
#    x 4.415690 0.242980 -0.075990 
#    y 0.242980 3.903260 0.301270 
#    z -0.075990 0.301270 3.996960 
# 
# 
# High freq. dielectric constant tensor:
#      x y z
#    x 1.894200 0.023100 -0.009360 
#    y 0.023100 1.868170 0.035220 
#    z -0.009360 0.035220 1.868200 
# 
# From -- ./inp_files/262836.got.cif
#   From: 2010.06.25/outbox.cif.g09.slc.cpg/sg2_132_cif.got.tgz:262836.got - 2010.06.27 13:26:56.
