data_PCOD8006597
_publ_section_title
;
Structure prediction by ZEFSAII (Michael W. Deem and Ramdas Pophale) SiO2 
 PCOD8006597
Probable space group: P -1
;
_chemical_formula_sum "Si O2"
_cell_formula_units_Z 16
_cell_length_a 9.008717
_cell_length_b 13.531693
_cell_length_c 11.656357
_cell_angle_alpha 73.939822
_cell_angle_beta 38.044633
_cell_angle_gamma 83.211774
_cell_volume 829.514702
_symmetry_space_group_name_H-M "P -1"
_symmetry_group_IT_number 2
_symmetry_cell_setting 'triclinic'
loop_
_space_group_symop_operation_xyz
x,y,z
-x,-y,-z
loop_
_atom_site_type_symbol
_atom_site_label
_atom_site_fract_x
_atom_site_fract_y
_atom_site_fract_z
Si Si1 0.693929 0.883639 0.256482
Si Si2 0.148460 0.654373 0.401285
Si Si3 0.495003 0.651894 0.401052
Si Si4 0.117414 0.488823 0.808280
Si Si5 0.830049 0.036429 0.937951
Si Si6 0.772330 0.488432 0.804876
Si Si7 0.075575 0.888758 0.378203
Si Si8 0.374252 0.024259 0.338060
O O1 0.550525 0.767990 0.377269
O O2 0.912408 0.891273 0.211943
O O3 0.499188 0.961462 0.381708
O O4 0.809241 0.921966 0.047714
O O5 0.367342 0.645547 0.357490
O O6 0.218511 0.611208 0.249805
O O7 0.115070 0.772808 0.364870
O O8 0.897399 0.590789 0.625951
O O9 0.322030 0.589013 0.623035
O O10 0.750240 0.611692 0.242014
O O11 0.908357 0.473390 0.845022
O O12 0.000000 0.500000 0.000000
O O13 0.808516 0.029792 0.816548
O O14 0.596578 0.086660 0.106754
O O15 0.500000 0.500000 0.000000
O O16 0.784127 0.890893 0.551650
O O17 0.200654 0.930674 0.406275
#
# Coordination Sequence:
#
# PCOD8006597 Si02
#       8
#     2   2   2   2   2   2   2   2
#     4   9  19  40  57  81 118 155 189 235 289 337
#     4  10  21  38  60  86 116 157 192 237 304 343
#     4  10  20  40  62  81 119 152 195 242 288 355
#     4  10  22  40  62  88 112 151 197 244 295 354
#     4   9  20  37  55  81 122 148 192 241 279 339
#     4  10  22  40  60  86 121 147 191 251 293 356
#     4  11  20  35  61  85 115 157 191 240 291 339
#     4   9  20  37  55  84 117 148 200 235 277 349
#
# _framework density 19.288385999999999
#
# number of rings (size 3 to 8) (size 9 to 14) (size 15 to 20)
#    0.750    1.500    1.250    1.125    1.750    2.500 
#    2.250    1.250    0.000    0.000    0.000    0.000 
#    0.000    0.000    0.000    0.000    0.000    0.000 
#
# Total GULP energy -198256.166684 kJ/mol
# GULP energy per Si atom -12391.010418 kJ/mol
# Density = 1.924448 g / cm^3
# Si number density = 19.288386 Si / 1000 Ang^3
#
#
#
# Elastic Constant Matrix: (Units=GPa)
#
#
# Indices 1 2 3 4 5 6 
#
# 1 76.2569 44.1980 55.5470 13.4563 -9.7655 -10.8484
# 2 44.1980 81.2180 33.0875 9.3309 -1.7331 -7.7618
# 3 55.5470 33.0875 97.8378 24.5683 -5.0051 -9.3314
# 4 13.4563 9.3309 24.5683 30.7575 -3.2129 -7.5275
# 5 -9.7655 -1.7331 -5.0051 -3.2129 36.2486 5.1655
# 6 -10.8484 -7.7618 -9.3314 -7.5275 5.1655 26.1043
#
#
#
# Elastic Compliance Matrix: (Units=1/GPa)
#
#
# Indices 1 2 3 4 5 6 
#
# 1 0.029706 -0.010541 -0.013221 0.002320 0.005294 0.004106
# 2 -0.010541 0.018198 0.000056 -0.000884 -0.002216 0.001234
# 3 -0.013221 0.000056 0.020246 -0.010827 -0.001573 -0.001051
# 4 0.002320 -0.000884 -0.010827 0.042745 0.001617 0.008837
# 5 0.005294 -0.002216 -0.001573 0.001617 0.029458 -0.004384
# 6 0.004106 0.001234 -0.001051 0.008837 -0.004384 0.043422
#
#
# Mechanical properties :
#
#
# Convention : Reuss Voigt Hill
#
# Bulk Modulus (GPa) = 48.21703 57.88640 53.05171
# Shear Modulus (GPa) = 20.99973 26.78743 23.89358
#
# Velocity S-wave (km/s) = 3.30316 3.73068 3.52341
# Velocity P-wave (km/s) = 6.29286 6.97377 6.64205
#
# Compressibility (1/GPa) = 0.02073956
#
# Stress axis : x y z
#
# Youngs Moduli (GPa) = 33.66334 54.95131 49.39278
#
# Poissons Ratio (x) = 0.57923 0.65301
# Poissons Ratio (y) = 0.35484 -0.00279
# Poissons Ratio (z) = 0.44505 -0.00310
#
# Static dielectric constant tensor:
#      x y z
#    x 3.674600 -0.181020 -0.133370 
#    y -0.181020 3.292010 0.050020 
#    z -0.133370 0.050020 3.512950 
# 
# 
# High freq. dielectric constant tensor:
#      x y z
#    x 1.764580 -0.012910 -0.011720 
#    y -0.012910 1.729200 0.001800 
#    z -0.011720 0.001800 1.748190 
# 
# From -- ./inp_files/395707.got.cif
#   From: 2010.06.25/outbox.cif.g09.slc.cpg/sg2_198_cif.got.tgz:395707.got - 2010.06.27 13:26:56.
