data_PCOD8006989
_publ_section_title
;
Structure prediction by ZEFSAII (Michael W. Deem and Ramdas Pophale) SiO2 
 PCOD8006989
Probable space group: P -1
;
_chemical_formula_sum "Si O2"
_cell_formula_units_Z 16
_cell_length_a 13.139400
_cell_length_b 11.582013
_cell_length_c 15.227952
_cell_angle_alpha 151.013335
_cell_angle_beta 124.641275
_cell_angle_gamma 74.651153
_cell_volume 750.523453
_symmetry_space_group_name_H-M "P -1"
_symmetry_group_IT_number 2
_symmetry_cell_setting 'triclinic'
loop_
_space_group_symop_operation_xyz
x,y,z
-x,-y,-z
loop_
_atom_site_type_symbol
_atom_site_label
_atom_site_fract_x
_atom_site_fract_y
_atom_site_fract_z
Si Si1 0.848246 0.005231 0.109197
Si Si2 0.322655 0.074705 0.388052
Si Si3 0.094753 0.546333 0.704621
Si Si4 0.356793 0.650029 0.007528
Si Si5 0.323759 0.119300 0.735360
Si Si6 0.340246 0.369493 0.084979
Si Si7 0.821130 0.305941 0.768761
Si Si8 0.030972 0.865287 0.006669
O O1 0.825157 0.155056 0.115429
O O2 0.975826 0.259075 0.402914
O O3 0.905569 0.803662 0.975837
O O4 0.692130 0.793910 0.945745
O O5 0.263021 0.966213 0.385474
O O6 0.199557 0.086248 0.278651
O O7 0.479477 0.396874 0.683783
O O8 0.353696 0.857728 0.214176
O O9 0.227073 0.520876 0.784314
O O10 0.013355 0.575509 0.769584
O O11 0.335034 0.386669 0.874192
O O12 0.516435 0.839427 0.161688
O O13 0.203135 0.818580 0.424936
O O14 0.277308 0.117004 0.811764
O O15 0.245777 0.507079 0.125243
O O16 0.000000 0.500000 0.000000
O O17 0.000000 0.000000 0.000000
#
# Coordination Sequence:
#
# PCOD8006989 Si02
#       8
#     2   2   2   2   2   2   2   2
#     4  10  22  41  65  93 125 164 213 264 317 375
#     4  11  21  42  66  92 130 171 209 263 317 380
#     4   9  21  41  67  90 123 165 216 263 310 375
#     4  10  20  40  66  90 126 170 212 255 319 371
#     4  11  24  39  63  94 128 169 206 261 318 375
#     4  12  25  41  63  98 131 165 214 260 320 384
#     4  12  26  42  64  96 128 166 217 261 313 384
#     4   9  20  40  67  92 120 167 214 260 315 368
#
# _framework density 21.318453999999999
#
# number of rings (size 3 to 8) (size 9 to 14) (size 15 to 20)
#    0.000    1.500    2.500    2.625    5.250    3.500 
#    0.000    6.250    0.000    0.000    0.000    0.000 
#    0.000    0.000    0.000    0.000    0.000    0.000 
#
# Total GULP energy -198362.498640 kJ/mol
# GULP energy per Si atom -12397.656165 kJ/mol
# Density = 2.126993 g / cm^3
# Si number density = 21.318454 Si / 1000 Ang^3
#
#
#
# Elastic Constant Matrix: (Units=GPa)
#
#
# Indices 1 2 3 4 5 6 
#
# 1 111.2305 34.9345 32.3719 -4.0899 -3.9317 16.5865
# 2 34.9345 58.6496 8.9828 -6.6789 7.6320 4.0397
# 3 32.3719 8.9828 60.5189 -6.4719 -5.3139 12.0686
# 4 -4.0899 -6.6789 -6.4719 29.3917 7.8160 7.0370
# 5 -3.9317 7.6320 -5.3139 7.8160 36.9073 -3.3568
# 6 16.5865 4.0397 12.0686 7.0370 -3.3568 34.5067
#
#
#
# Elastic Compliance Matrix: (Units=1/GPa)
#
#
# Indices 1 2 3 4 5 6 
#
# 1 0.013358 -0.007249 -0.005290 -0.000672 0.001994 -0.003391
# 2 -0.007249 0.022999 0.000869 0.006624 -0.006946 -0.001539
# 3 -0.005290 0.000869 0.021037 0.005356 0.000610 -0.005950
# 4 -0.000672 0.006624 0.005356 0.042342 -0.010729 -0.012004
# 5 0.001994 -0.006946 0.000610 -0.010729 0.031549 0.004898
# 6 -0.003391 -0.001539 -0.005950 -0.012004 0.004898 0.035795
#
#
# Mechanical properties :
#
#
# Convention : Reuss Voigt Hill
#
# Bulk Modulus (GPa) = 29.36409 42.55304 35.95856
# Shear Modulus (GPa) = 24.78051 30.43513 27.60782
#
# Velocity S-wave (km/s) = 3.41309 3.78251 3.60254
# Velocity P-wave (km/s) = 5.41629 6.25144 5.84879
#
# Compressibility (1/GPa) = 0.03405520
#
# Stress axis : x y z
#
# Youngs Moduli (GPa) = 74.86152 43.47959 47.53517
#
# Poissons Ratio (x) = 0.31518 0.25145
# Poissons Ratio (y) = 0.54266 -0.04131
# Poissons Ratio (z) = 0.39600 -0.03779
#
# Static dielectric constant tensor:
#      x y z
#    x 4.413530 0.074720 -0.251850 
#    y 0.074720 3.935100 -0.204400 
#    z -0.251850 -0.204400 3.751590 
# 
# 
# High freq. dielectric constant tensor:
#      x y z
#    x 1.854640 0.000830 -0.018370 
#    y 0.000830 1.829090 -0.015690 
#    z -0.018370 -0.015690 1.827640 
# 
# From -- ./inp_files/398275.got.cif
#   From: 2010.06.25/outbox.cif.g09.slc.cpg/sg2_200_cif.got.tgz:398275.got - 2010.06.27 13:26:56.
