data_PCOD8006698
_publ_section_title
;
Structure prediction by ZEFSAII (Michael W. Deem and Ramdas Pophale) SiO2 
 PCOD8006698
Probable space group: P -1
;
_chemical_formula_sum "Si O2"
_cell_formula_units_Z 16
_cell_length_a 16.985915
_cell_length_b 8.165757
_cell_length_c 18.792383
_cell_angle_alpha 52.403550
_cell_angle_beta 19.669064
_cell_angle_gamma 62.041247
_cell_volume 638.246672
_symmetry_space_group_name_H-M "P -1"
_symmetry_group_IT_number 2
_symmetry_cell_setting 'triclinic'
loop_
_space_group_symop_operation_xyz
x,y,z
-x,-y,-z
loop_
_atom_site_type_symbol
_atom_site_label
_atom_site_fract_x
_atom_site_fract_y
_atom_site_fract_z
Si Si1 0.708516 0.325328 0.709542
Si Si2 0.972045 0.386550 0.833623
Si Si3 0.203165 0.183031 0.533658
Si Si4 0.494709 0.455223 0.598316
Si Si5 0.845569 0.143363 0.510856
Si Si6 0.793195 0.019451 0.822735
Si Si7 0.402106 0.965844 0.844095
Si Si8 0.455326 0.781753 0.642598
O O1 0.761956 0.585220 0.596826
O O2 0.888981 0.249443 0.524536
O O3 0.724773 0.230855 0.799727
O O4 0.427677 0.218533 0.943247
O O5 0.229540 0.388206 0.646218
O O6 0.024841 0.647382 0.709281
O O7 0.871949 0.246424 0.880407
O O8 0.749643 0.251606 0.113100
O O9 0.371187 0.068568 0.382748
O O10 0.281028 0.203256 0.545496
O O11 0.898632 0.036381 0.811704
O O12 0.500000 0.500000 0.500000
O O13 0.331873 0.565181 0.752860
O O14 0.379780 0.190199 0.775549
O O15 0.530782 0.014084 0.801709
O O16 0.975052 0.970426 0.430064
O O17 0.500000 0.000000 0.500000
#
# Coordination Sequence:
#
# PCOD8006698 Si02
#       8
#     2   2   2   2   2   2   2   2
#     4  11  22  38  62  93 123 164 210 246 308 371
#     4  10  22  42  62  86 126 163 199 258 309 353
#     4  10  20  40  63  88 125 161 204 255 304 363
#     4  11  23  40  61  89 119 153 204 254 305 369
#     4  10  21  38  61  90 123 161 206 251 300 365
#     4  10  22  39  62  90 127 164 201 258 306 359
#     4   9  20  37  59  85 115 158 202 244 300 360
#     4  11  24  42  66  93 121 163 210 252 309 371
#
# _framework density 25.068677999999998
#
# number of rings (size 3 to 8) (size 9 to 14) (size 15 to 20)
#    0.000    1.750    0.000    5.250    0.000    4.500 
#    0.000   10.000    0.000   10.500    0.000    0.000 
#    0.000    0.000    0.000    0.000    0.000    0.000 
#
# Total GULP energy -198249.887722 kJ/mol
# GULP energy per Si atom -12390.617983 kJ/mol
# Density = 2.501162 g / cm^3
# Si number density = 25.068678 Si / 1000 Ang^3
#
#
#
# Elastic Constant Matrix: (Units=GPa)
#
#
# Indices 1 2 3 4 5 6 
#
# 1 131.1338 34.7188 13.5311 -10.9360 -7.0277 0.2112
# 2 34.7188 110.3407 0.6681 -29.7408 -12.6654 0.5452
# 3 13.5311 0.6681 87.0375 -20.4899 -25.1439 -13.1928
# 4 -10.9360 -29.7408 -20.4899 28.1059 -1.3022 3.8149
# 5 -7.0277 -12.6654 -25.1439 -1.3022 36.2686 -5.7591
# 6 0.2112 0.5452 -13.1928 3.8149 -5.7591 35.0945
#
#
#
# Elastic Compliance Matrix: (Units=1/GPa)
#
#
# Indices 1 2 3 4 5 6 
#
# 1 0.008504 -0.003214 -0.002118 -0.001578 -0.001128 -0.000811
# 2 -0.003214 0.019726 0.012626 0.029052 0.016704 0.004042
# 3 -0.002118 0.012626 0.029306 0.033585 0.027375 0.011675
# 4 -0.001578 0.029052 0.033585 0.090786 0.037734 0.008507
# 5 -0.001128 0.016704 0.027375 0.037734 0.055920 0.015113
# 6 -0.000811 0.004042 0.011675 0.008507 0.015113 0.034381
#
#
# Mechanical properties :
#
#
# Convention : Reuss Voigt Hill
#
# Bulk Modulus (GPa) = 13.86486 47.37200 30.61843
# Shear Modulus (GPa) = 20.15514 38.53339 29.34426
#
# Velocity S-wave (km/s) = 2.83856 3.92486 3.42505
# Velocity P-wave (km/s) = 4.03559 6.28309 5.28030
#
# Compressibility (1/GPa) = 0.07212480
#
# Stress axis : x y z
#
# Youngs Moduli (GPa) = 117.58507 50.69555 34.12268
#
# Poissons Ratio (x) = 0.16293 0.07226
# Poissons Ratio (y) = 0.37790 -0.43082
# Poissons Ratio (z) = 0.24900 -0.64007
#
# Static dielectric constant tensor:
#      x y z
#    x 4.991990 0.250990 -0.386950 
#    y 0.250990 4.555820 0.182070 
#    z -0.386950 0.182070 4.632040 
# 
# 
# High freq. dielectric constant tensor:
#      x y z
#    x 2.013250 0.022380 -0.012150 
#    y 0.022380 2.010560 0.014620 
#    z -0.012150 0.014620 2.003360 
# 
# From -- ./inp_files/599445.got.cif
#   From: 2010.06.25/outbox.cif.g09.slc.cpg/sg2_300_cif.got.tgz:599445.got - 2010.06.27 13:26:56.
