data_PCOD8006766
_publ_section_title
;
Structure prediction by ZEFSAII (Michael W. Deem and Ramdas Pophale) SiO2 
 PCOD8006766
Probable space group: P -1
;
_chemical_formula_sum "Si O2"
_cell_formula_units_Z 12
_cell_length_a 15.381977
_cell_length_b 8.899005
_cell_length_c 15.134234
_cell_angle_alpha 106.820222
_cell_angle_beta 18.836565
_cell_angle_gamma 97.793977
_cell_volume 572.612271
_symmetry_space_group_name_H-M "P -1"
_symmetry_group_IT_number 2
_symmetry_cell_setting 'triclinic'
loop_
_space_group_symop_operation_xyz
x,y,z
-x,-y,-z
loop_
_atom_site_type_symbol
_atom_site_label
_atom_site_fract_x
_atom_site_fract_y
_atom_site_fract_z
Si Si1 0.715783 0.696212 0.590012
Si Si2 0.943753 0.839600 0.115484
Si Si3 0.245199 0.598881 0.945088
Si Si4 0.341897 0.392727 0.170961
Si Si5 0.447162 0.782462 0.488561
Si Si6 0.294311 0.979496 0.265766
O O1 0.440448 0.703255 0.797762
O O2 0.639610 0.638536 0.747498
O O3 0.744608 0.879925 0.596842
O O4 0.043783 0.571431 0.212119
O O5 0.761906 0.781079 0.210565
O O6 0.748100 0.049745 0.358888
O O7 0.008743 0.718815 0.118923
O O8 0.261593 0.802539 0.760297
O O9 0.481525 0.402603 0.656656
O O10 0.000000 0.500000 0.500000
O O11 0.500000 0.500000 0.000000
O O12 0.511574 0.216873 0.918914
O O13 0.000000 0.000000 0.500000
O O14 0.500000 0.000000 0.000000
#
# Coordination Sequence:
#
# PCOD8006766 Si02
#       6
#     2   2   2   2   2   2
#     4  11  24  40  60  92 126 157 202 261 313 371
#     4  10  21  39  63  88 121 168 214 238 306 370
#     4  12  22  39  61  93 131 159 200 260 326 352
#     4  11  22  41  65  89 116 163 214 252 305 377
#     4  10  21  39  63  89 121 167 210 252 284 385
#     4  10  20  40  64  81 117 162 205 245 299 379
#
# _framework density 20.956589999999998
#
# number of rings (size 3 to 8) (size 9 to 14) (size 15 to 20)
#    0.000    1.333    0.000    8.000    0.000    0.000 
#    9.000    0.000    0.000    0.000    0.000    0.000 
#    0.000    0.000    0.000    0.000    0.000    0.000 
#
# Total GULP energy -148657.743407 kJ/mol
# GULP energy per Si atom -12388.145284 kJ/mol
# Density = 2.090889 g / cm^3
# Si number density = 20.956590 Si / 1000 Ang^3
#
#
#
# Elastic Constant Matrix: (Units=GPa)
#
#
# Indices 1 2 3 4 5 6 
#
# 1 64.1468 50.6286 40.2496 17.0073 -2.7813 10.2250
# 2 50.6286 152.5821 65.0811 15.1604 -3.3691 2.8894
# 3 40.2496 65.0811 133.8610 3.7557 -11.8222 5.2330
# 4 17.0073 15.1604 3.7557 51.8159 0.1267 -4.7286
# 5 -2.7813 -3.3691 -11.8222 0.1267 32.1094 -8.2366
# 6 10.2250 2.8894 5.2330 -4.7286 -8.2366 31.1589
#
#
#
# Elastic Compliance Matrix: (Units=1/GPa)
#
#
# Indices 1 2 3 4 5 6 
#
# 1 0.026590 -0.005932 -0.004755 -0.007476 -0.002385 -0.009142
# 2 -0.005932 0.009858 -0.003069 -0.000587 -0.000250 0.001393
# 3 -0.004755 -0.003069 0.010600 0.001797 0.003485 0.001258
# 4 -0.007476 -0.000587 0.001797 0.022335 0.001394 0.005964
# 5 -0.002385 -0.000250 0.003485 0.001394 0.034648 0.009591
# 6 -0.009142 0.001393 0.001258 0.005964 0.009591 0.038194
#
#
# Mechanical properties :
#
#
# Convention : Reuss Voigt Hill
#
# Bulk Modulus (GPa) = 51.18473 73.61207 62.39840
# Shear Modulus (GPa) = 28.36890 35.99223 32.18056
#
# Velocity S-wave (km/s) = 3.68326 4.14873 3.92290
# Velocity P-wave (km/s) = 6.52424 7.62571 7.09638
#
# Compressibility (1/GPa) = 0.01953708
#
# Stress axis : x y z
#
# Youngs Moduli (GPa) = 37.60762 101.44526 94.33565
#
# Poissons Ratio (x) = 0.60174 0.44856
# Poissons Ratio (y) = 0.22307 0.28952
# Poissons Ratio (z) = 0.17882 0.31134
#
# Static dielectric constant tensor:
#      x y z
#    x 4.063960 0.555900 0.267570 
#    y 0.555900 4.526060 0.344690 
#    z 0.267570 0.344690 4.160150 
# 
# 
# High freq. dielectric constant tensor:
#      x y z
#    x 1.789610 0.007170 -0.004580 
#    y 0.007170 1.837380 -0.006940 
#    z -0.004580 -0.006940 1.846860 
# 
# From -- ./inp_files/97944.got.cif
#   From: 2010.06.25/outbox.cif.g09.slc.cpg/sg2_49_cif.got.tgz:97944.got - 2010.06.27 13:26:56.
