data_PCOD8006881
_publ_section_title
;
Structure prediction by ZEFSAII (Michael W. Deem and Ramdas Pophale) SiO2 
 PCOD8006881
Probable space group: P -1
;
_chemical_formula_sum "Si O2"
_cell_formula_units_Z 16
_cell_length_a 29.219531
_cell_length_b 17.951578
_cell_length_c 22.653435
_cell_angle_alpha 19.836594
_cell_angle_beta 169.229443
_cell_angle_gamma 160.185502
_cell_volume 726.920507
_symmetry_space_group_name_H-M "P -1"
_symmetry_group_IT_number 2
_symmetry_cell_setting 'triclinic'
loop_
_space_group_symop_operation_xyz
x,y,z
-x,-y,-z
loop_
_atom_site_type_symbol
_atom_site_label
_atom_site_fract_x
_atom_site_fract_y
_atom_site_fract_z
Si Si1 0.036907 0.876053 0.363011
Si Si2 0.486390 0.846625 0.175096
Si Si3 0.197198 0.633197 0.530702
Si Si4 0.364489 0.289903 0.649651
Si Si5 0.315798 0.271006 0.219183
Si Si6 0.141454 0.864024 0.823576
Si Si7 0.381224 0.920035 0.657694
Si Si8 0.543059 0.983096 0.635053
O O1 0.234173 0.020094 0.551027
O O2 0.897832 0.635375 0.395327
O O3 0.165378 0.831918 0.498160
O O4 0.840087 0.024142 0.992106
O O5 0.529746 0.660557 0.320897
O O6 0.355512 0.028372 0.845060
O O7 0.306236 0.735717 0.085539
O O8 0.394706 0.728561 0.657452
O O9 0.344569 0.712829 0.719597
O O10 0.971684 0.757667 0.144324
O O11 0.552234 0.461633 0.803415
O O12 0.074635 0.307282 0.282356
O O13 0.340304 0.142816 0.406827
O O14 0.456475 0.179331 0.413278
O O15 0.340659 0.027448 0.998880
O O16 0.000000 0.000000 0.500000
O O17 0.500000 0.000000 0.500000
#
# Coordination Sequence:
#
# PCOD8006881 Si02
#       8
#     2   2   2   2   2   2   2   2
#     4  11  21  41  63  93 125 164 220 265 317 385
#     4   9  20  39  63  92 123 166 218 270 311 377
#     4  11  22  41  67  92 124 172 219 257 323 395
#     4  10  20  40  65  88 129 168 215 263 323 381
#     4  11  23  42  64  94 130 173 209 262 338 386
#     4   9  20  40  61  92 126 169 215 266 318 378
#     4  10  22  39  65  91 131 166 209 272 325 383
#     4  11  24  42  59  95 135 166 207 270 328 386
#
# _framework density 22.010659
#
# number of rings (size 3 to 8) (size 9 to 14) (size 15 to 20)
#    0.000    1.750    1.250    3.750    3.500    0.500 
#    4.500    1.250    0.000    0.000    0.000    0.000 
#    0.000    0.000    0.000    0.000    0.000    0.000 
#
# Total GULP energy -198328.318119 kJ/mol
# GULP energy per Si atom -12395.519882 kJ/mol
# Density = 2.196056 g / cm^3
# Si number density = 22.010659 Si / 1000 Ang^3
#
#
#
# Elastic Constant Matrix: (Units=GPa)
#
#
# Indices 1 2 3 4 5 6 
#
# 1 141.2417 34.5845 45.5944 16.0753 13.1132 -13.0494
# 2 34.5845 44.5824 14.2567 12.2763 8.2289 -10.3178
# 3 45.5944 14.2567 113.1526 27.9375 -3.2137 -13.0437
# 4 16.0753 12.2763 27.9375 32.1176 2.6917 -2.9048
# 5 13.1132 8.2289 -3.2137 2.6917 41.3255 6.9406
# 6 -13.0494 -10.3178 -13.0437 -2.9048 6.9406 24.8080
#
#
#
# Elastic Compliance Matrix: (Units=1/GPa)
#
#
# Indices 1 2 3 4 5 6 
#
# 1 0.009921 -0.005895 -0.003235 0.000483 -0.002566 0.001841
# 2 -0.005895 0.032980 0.001831 -0.009652 -0.005960 0.012115
# 3 -0.003235 0.001831 0.012933 -0.010084 0.001615 0.004228
# 4 0.000483 -0.009652 -0.010084 0.043123 -0.001207 -0.003675
# 5 -0.002566 -0.005960 0.001615 -0.001207 0.028255 -0.011026
# 6 0.001841 0.012115 0.004228 -0.003675 -0.011026 0.051194
#
#
# Mechanical properties :
#
#
# Convention : Reuss Voigt Hill
#
# Bulk Modulus (GPa) = 24.25090 54.20533 39.22812
# Shear Modulus (GPa) = 24.18367 33.28628 28.73497
#
# Velocity S-wave (km/s) = 3.31830 3.89302 3.61709
# Velocity P-wave (km/s) = 5.07180 6.69984 5.94184
#
# Compressibility (1/GPa) = 0.04123558
#
# Stress axis : x y z
#
# Youngs Moduli (GPa) = 100.79454 30.32143 77.31978
#
# Poissons Ratio (x) = 0.17875 0.25012
# Poissons Ratio (y) = 0.59420 -0.14154
# Poissons Ratio (z) = 0.32606 -0.05551
#
# Static dielectric constant tensor:
#      x y z
#    x 4.380530 0.094150 0.283770 
#    y 0.094150 3.634910 0.297190 
#    z 0.283770 0.297190 4.235340 
# 
# 
# High freq. dielectric constant tensor:
#      x y z
#    x 1.876960 -0.002650 0.006490 
#    y -0.002650 1.840420 0.021120 
#    z 0.006490 0.021120 1.876540 
# 
# From -- ./inp_files/218718.got.cif
#   From: 2010.06.25/outbox.cif.g09.slc.cpg/sg2_110_cif.got.tgz:218718.got - 2010.06.27 13:26:56.
