data_PCOD8006626
_publ_section_title
;
Structure prediction by ZEFSAII (Michael W. Deem and Ramdas Pophale) SiO2 
 PCOD8006626
Probable space group: P -1
;
_chemical_formula_sum "Si O2"
_cell_formula_units_Z 12
_cell_length_a 12.759151
_cell_length_b 11.511954
_cell_length_c 8.336370
_cell_angle_alpha 100.166919
_cell_angle_beta 54.663543
_cell_angle_gamma 57.416891
_cell_volume 592.770827
_symmetry_space_group_name_H-M "P -1"
_symmetry_group_IT_number 2
_symmetry_cell_setting 'triclinic'
loop_
_space_group_symop_operation_xyz
x,y,z
-x,-y,-z
loop_
_atom_site_type_symbol
_atom_site_label
_atom_site_fract_x
_atom_site_fract_y
_atom_site_fract_z
Si Si1 0.093836 0.056479 0.591876
Si Si2 0.831626 0.636116 0.953934
Si Si3 0.487962 0.880877 0.055698
Si Si4 0.793477 0.498689 0.507786
Si Si5 0.748540 0.304273 0.699716
Si Si6 0.973007 0.340247 0.985366
O O1 0.053004 0.151516 0.820892
O O2 0.868132 0.205520 0.739564
O O3 0.204989 0.849380 0.479204
O O4 0.244734 0.026036 0.338840
O O5 0.609665 0.789086 0.095976
O O6 0.012331 0.550709 0.648674
O O7 0.888117 0.464951 0.929239
O O8 0.828379 0.729752 0.131750
O O9 0.577719 0.719075 0.811022
O O10 0.500000 0.000000 0.000000
O O11 0.838758 0.348025 0.531343
O O12 0.785035 0.471253 0.318463
O O13 0.500000 0.500000 0.000000
#
# Coordination Sequence:
#
# PCOD8006626 Si02
#       6
#     2   2   2   2   2   2
#     4  11  24  40  64  92 119 162 216 246 309 367
#     4   9  20  39  63  88 134 157 194 248 320 365
#     4  12  22  35  64  98 122 162 205 252 305 375
#     4  10  20  40  62  89 123 166 200 250 306 358
#     4  11  23  44  64  85 124 166 210 258 298 359
#     4   9  21  40  61  92 125 161 199 252 314 366
#
# _framework density 20.243911000000001
#
# number of rings (size 3 to 8) (size 9 to 14) (size 15 to 20)
#    1.000    0.667    1.667    3.500    0.000    1.333 
#    0.000    0.833    0.000    0.000    0.000    0.000 
#    0.000    0.000    0.000    0.000    0.000    0.000 
#
# Total GULP energy -148748.327238 kJ/mol
# GULP energy per Si atom -12395.693937 kJ/mol
# Density = 2.019784 g / cm^3
# Si number density = 20.243911 Si / 1000 Ang^3
#
#
#
# Elastic Constant Matrix: (Units=GPa)
#
#
# Indices 1 2 3 4 5 6 
#
# 1 82.7785 32.6702 53.7876 19.2836 24.1811 2.7062
# 2 32.6702 117.6870 35.9781 5.5857 13.0504 9.5769
# 3 53.7876 35.9781 91.9917 15.3981 20.0113 -9.1620
# 4 19.2836 5.5857 15.3981 31.7024 6.0620 2.0145
# 5 24.1811 13.0504 20.0113 6.0620 43.8162 14.5860
# 6 2.7062 9.5769 -9.1620 2.0145 14.5860 25.8366
#
#
#
# Elastic Compliance Matrix: (Units=1/GPa)
#
#
# Indices 1 2 3 4 5 6 
#
# 1 0.023126 -0.002161 -0.010257 -0.007480 -0.005964 -0.001309
# 2 -0.002161 0.010613 -0.004174 0.001524 0.001840 -0.006345
# 3 -0.010257 -0.004174 0.022289 -0.003311 -0.007890 0.015238
# 4 -0.007480 0.001524 -0.003311 0.037431 0.001598 -0.004776
# 5 -0.005964 0.001840 -0.007890 0.001598 0.036869 -0.023794
# 6 -0.001309 -0.006345 0.015238 -0.004776 -0.023794 0.060403
#
#
# Mechanical properties :
#
#
# Convention : Reuss Voigt Hill
#
# Bulk Modulus (GPa) = 43.77885 59.70321 51.74103
# Shear Modulus (GPa) = 21.59543 31.60581 26.60062
#
# Velocity S-wave (km/s) = 3.26967 3.95555 3.62885
# Velocity P-wave (km/s) = 5.99391 7.10055 6.57057
#
# Compressibility (1/GPa) = 0.02284208
#
# Stress axis : x y z
#
# Youngs Moduli (GPa) = 43.24161 94.22176 44.86563
#
# Poissons Ratio (x) = 0.20363 0.46020
# Poissons Ratio (y) = 0.09345 0.18729
# Poissons Ratio (z) = 0.44354 0.39332
#
# Static dielectric constant tensor:
#      x y z
#    x 3.629430 0.214460 0.081450 
#    y 0.214460 3.641330 0.025110 
#    z 0.081450 0.025110 3.518020 
# 
# 
# High freq. dielectric constant tensor:
#      x y z
#    x 1.786350 0.016630 0.009580 
#    y 0.016630 1.787480 0.001900 
#    z 0.009580 0.001900 1.777470 
# 
# From -- ./inp_files/70948.got.cif
#   From: 2010.06.25/outbox.cif.g09.slc.cpg/sg2_36_cif.got.tgz:70948.got - 2010.06.27 13:26:56.
