data_PCOD8006992
_publ_section_title
;
Structure prediction by ZEFSAII (Michael W. Deem and Ramdas Pophale) SiO2 
 PCOD8006992
Probable space group: P -1
;
_chemical_formula_sum "Si O2"
_cell_formula_units_Z 16
_cell_length_a 15.458004
_cell_length_b 12.186501
_cell_length_c 8.868658
_cell_angle_alpha 38.312909
_cell_angle_beta 130.044107
_cell_angle_gamma 129.816430
_cell_volume 759.902612
_symmetry_space_group_name_H-M "P -1"
_symmetry_group_IT_number 2
_symmetry_cell_setting 'triclinic'
loop_
_space_group_symop_operation_xyz
x,y,z
-x,-y,-z
loop_
_atom_site_type_symbol
_atom_site_label
_atom_site_fract_x
_atom_site_fract_y
_atom_site_fract_z
Si Si1 0.653376 0.157667 0.623817
Si Si2 0.073196 0.663825 0.608556
Si Si3 0.924658 0.275587 0.799968
Si Si4 0.486290 0.570116 0.743101
Si Si5 0.956374 0.986850 0.634325
Si Si6 0.312476 0.179706 0.472558
Si Si7 0.423980 0.217653 0.883037
Si Si8 0.337988 0.816644 0.743213
O O1 0.789415 0.261584 0.692442
O O2 0.576274 0.267955 0.506320
O O3 0.621069 0.149953 0.420144
O O4 0.626854 0.953488 0.879107
O O5 0.044665 0.711357 0.355880
O O6 0.210015 0.670122 0.774679
O O7 0.997822 0.454341 0.784485
O O8 0.038632 0.808056 0.525444
O O9 0.953871 0.091237 0.085062
O O10 0.615461 0.639383 0.734614
O O11 0.403881 0.399763 0.739762
O O12 0.500000 0.500000 0.000000
O O13 0.826546 0.842386 0.659932
O O14 0.000000 0.000000 0.500000
O O15 0.358301 0.183458 0.688997
O O16 0.335001 0.009173 0.597068
O O17 0.565100 0.253352 0.981787
#
# Coordination Sequence:
#
# PCOD8006992 Si02
#       8
#     2   2   2   2   2   2   2   2
#     4  11  23  41  64  98 127 167 216 261 321 375
#     4   9  22  41  65  96 118 166 222 263 318 369
#     4  10  22  41  68  90 126 167 214 270 310 375
#     4  12  25  41  66  97 130 166 212 265 317 383
#     4  11  24  43  64  93 132 168 214 262 320 377
#     4  11  25  42  63  97 130 174 211 259 324 381
#     4  12  23  41  64  91 135 170 208 259 318 383
#     4  10  20  40  66  90 129 168 209 264 317 379
#
# _framework density 21.055327999999999
#
# number of rings (size 3 to 8) (size 9 to 14) (size 15 to 20)
#    0.000    1.250    2.500    3.000    1.750    3.500 
#    0.000    0.000    0.000    0.000    0.000    0.000 
#    0.000    0.000    0.000    0.000    0.000    0.000 
#
# Total GULP energy -198448.788374 kJ/mol
# GULP energy per Si atom -12403.049273 kJ/mol
# Density = 2.100741 g / cm^3
# Si number density = 21.055328 Si / 1000 Ang^3
#
#
#
# Elastic Constant Matrix: (Units=GPa)
#
#
# Indices 1 2 3 4 5 6 
#
# 1 101.5720 40.0534 12.0986 -7.0631 0.2806 -8.1516
# 2 40.0534 121.8539 2.2484 1.1798 -9.3679 -18.1878
# 3 12.0986 2.2484 41.6423 0.0645 10.4003 8.5824
# 4 -7.0631 1.1798 0.0645 42.3973 0.3452 -10.0485
# 5 0.2806 -9.3679 10.4003 0.3452 17.9227 5.2190
# 6 -8.1516 -18.1878 8.5824 -10.0485 5.2190 49.4827
#
#
#
# Elastic Compliance Matrix: (Units=1/GPa)
#
#
# Indices 1 2 3 4 5 6 
#
# 1 0.012048 -0.003699 -0.003515 0.002553 -0.000662 0.001823
# 2 -0.003699 0.010286 -0.001415 -0.000285 0.005450 0.002784
# 3 -0.003515 -0.001415 0.030328 -0.001620 -0.016822 -0.004914
# 4 0.002553 -0.000285 -0.001620 0.025436 -0.001461 0.005916
# 5 -0.000662 0.005450 -0.016822 -0.001461 0.069256 -0.002790
# 6 0.001823 0.002784 -0.004914 0.005916 -0.002790 0.023881
#
#
# Mechanical properties :
#
#
# Convention : Reuss Voigt Hill
#
# Bulk Modulus (GPa) = 28.24544 41.54099 34.89322
# Shear Modulus (GPa) = 24.96322 36.00508 30.48415
#
# Velocity S-wave (km/s) = 3.44699 4.13973 3.80914
# Velocity P-wave (km/s) = 5.41168 6.52856 5.99618
#
# Compressibility (1/GPa) = 0.03540394
#
# Stress axis : x y z
#
# Youngs Moduli (GPa) = 83.00007 97.22156 32.97260
#
# Poissons Ratio (x) = 0.35961 0.11590
# Poissons Ratio (y) = 0.30701 0.04666
# Poissons Ratio (z) = 0.29175 0.13759
#
# Static dielectric constant tensor:
#      x y z
#    x 3.942440 0.177150 0.119810 
#    y 0.177150 4.091900 0.007920 
#    z 0.119810 0.007920 3.672930 
# 
# 
# High freq. dielectric constant tensor:
#      x y z
#    x 1.828490 0.001050 0.004220 
#    y 0.001050 1.843670 -0.001320 
#    z 0.004220 -0.001320 1.816700 
# 
# From -- ./inp_files/270807.got.cif
#   From: 2010.06.25/outbox.cif.g09.slc.cpg/sg2_136_cif.got.tgz:270807.got - 2010.06.27 13:26:56.
