data_PCOD8006835
_publ_section_title
;
Structure prediction by ZEFSAII (Michael W. Deem and Ramdas Pophale) SiO2 
 PCOD8006835
Probable space group: P -1
;
_chemical_formula_sum "Si O2"
_cell_formula_units_Z 16
_cell_length_a 14.216880
_cell_length_b 18.196746
_cell_length_c 9.200242
_cell_angle_alpha 41.278463
_cell_angle_beta 142.495946
_cell_angle_gamma 151.495107
_cell_volume 679.321677
_symmetry_space_group_name_H-M "P -1"
_symmetry_group_IT_number 2
_symmetry_cell_setting 'triclinic'
loop_
_space_group_symop_operation_xyz
x,y,z
-x,-y,-z
loop_
_atom_site_type_symbol
_atom_site_label
_atom_site_fract_x
_atom_site_fract_y
_atom_site_fract_z
Si Si1 0.586092 0.907457 0.165054
Si Si2 0.627264 0.740527 0.252687
Si Si3 0.884111 0.398136 0.866828
Si Si4 0.527651 0.229167 0.259140
Si Si5 0.692978 0.544710 0.076315
Si Si6 0.076347 0.693683 0.508914
Si Si7 0.781467 0.605124 0.770192
Si Si8 0.323140 0.960512 0.629996
O O1 0.699442 0.869802 0.265406
O O2 0.369828 0.747653 0.210554
O O3 0.745729 0.023650 0.320597
O O4 0.527926 0.982312 0.878584
O O5 0.783657 0.713308 0.505662
O O6 0.380102 0.572436 0.226769
O O7 0.639399 0.801672 0.017037
O O8 0.929023 0.511737 0.630180
O O9 0.000000 0.500000 0.000000
O O10 0.980458 0.328091 0.035928
O O11 0.660783 0.395359 0.250751
O O12 0.692220 0.224445 0.395094
O O13 0.384378 0.091299 0.404090
O O14 0.927174 0.689669 0.221878
O O15 0.500000 0.500000 0.000000
O O16 0.701587 0.600453 0.841228
O O17 0.124237 0.789498 0.571272
#
# Coordination Sequence:
#
# PCOD8006835 Si02
#       8
#     2   2   2   2   2   2   2   2
#     4  11  23  40  67 101 134 175 221 279 333 397
#     4  10  20  40  64  95 135 168 221 268 340 396
#     4  12  20  39  68 100 127 166 228 284 319 389
#     4  11  22  44  68 101 130 180 219 281 332 398
#     4  11  26  43  68 101 134 173 223 284 341 390
#     4  12  23  42  67 103 130 172 232 273 331 398
#     4  10  22  38  64 100 132 170 216 281 342 384
#     4  11  24  40  67  98 138 177 224 272 337 392
#
# _framework density 23.552906
#
# number of rings (size 3 to 8) (size 9 to 14) (size 15 to 20)
#    0.000    1.000    6.250    1.500    5.250    1.000 
#    0.000    0.625    0.000    3.750    0.000    0.000 
#    0.000    0.000    0.000    0.000    0.000    0.000 
#
# Total GULP energy -198381.887334 kJ/mol
# GULP energy per Si atom -12398.867958 kJ/mol
# Density = 2.349930 g / cm^3
# Si number density = 23.552906 Si / 1000 Ang^3
#
#
#
# Elastic Constant Matrix: (Units=GPa)
#
#
# Indices 1 2 3 4 5 6 
#
# 1 81.0610 23.2869 29.6261 14.3392 -9.6939 -31.8367
# 2 23.2869 75.7968 44.2920 10.7614 -5.5751 -27.1410
# 3 29.6261 44.2920 146.5665 -4.9298 -21.4843 -12.0330
# 4 14.3392 10.7614 -4.9298 36.5253 -0.6727 -8.7363
# 5 -9.6939 -5.5751 -21.4843 -0.6727 21.2344 -0.2875
# 6 -31.8367 -27.1410 -12.0330 -8.7363 -0.2875 41.3786
#
#
#
# Elastic Compliance Matrix: (Units=1/GPa)
#
#
# Indices 1 2 3 4 5 6 
#
# 1 0.020505 0.001948 -0.002585 -0.005189 0.007299 0.015257
# 2 0.001948 0.021312 -0.005862 -0.004770 0.000576 0.012770
# 3 -0.002585 -0.005862 0.010207 0.003780 0.007701 -0.002014
# 4 -0.005189 -0.004770 0.003780 0.031506 0.001210 0.000638
# 5 0.007299 0.000576 0.007701 0.001210 0.058527 0.008895
# 6 0.015257 0.012770 -0.002014 0.000638 0.008895 0.043893
#
#
# Mechanical properties :
#
#
# Convention : Reuss Voigt Hill
#
# Bulk Modulus (GPa) = 25.62398 55.31493 40.46946
# Shear Modulus (GPa) = 23.58962 33.57562 28.58262
#
# Velocity S-wave (km/s) = 3.16817 3.77973 3.48738
# Velocity P-wave (km/s) = 4.92809 6.52571 5.78234
#
# Compressibility (1/GPa) = 0.03902594
#
# Stress axis : x y z
#
# Youngs Moduli (GPa) = 48.76912 46.92107 97.96747
#
# Poissons Ratio (x) = -0.09140 0.25329
# Poissons Ratio (y) = -0.09500 0.57428
# Poissons Ratio (z) = 0.12609 0.27505
#
# Static dielectric constant tensor:
#      x y z
#    x 4.047960 -0.395330 -0.182510 
#    y -0.395330 4.290370 -0.081630 
#    z -0.182510 -0.081630 4.299180 
# 
# 
# High freq. dielectric constant tensor:
#      x y z
#    x 1.915700 -0.025490 -0.013890 
#    y -0.025490 1.921450 -0.002220 
#    z -0.013890 -0.002220 1.937130 
# 
# From -- ./inp_files/317991.got.cif
#   From: 2010.06.25/outbox.cif.g09.slc.cpg/sg2_159_cif.got.tgz:317991.got - 2010.06.27 13:26:56.
