data_PCOD8006182
_publ_section_title
;
Structure prediction by ZEFSAII (Michael W. Deem and Ramdas Pophale) SiO2 
 PCOD8006182
Probable space group: P -1
;
_chemical_formula_sum "Si O2"
_cell_formula_units_Z 16
_cell_length_a 15.278169
_cell_length_b 24.014670
_cell_length_c 8.446946
_cell_angle_alpha 32.507867
_cell_angle_beta 133.209926
_cell_angle_gamma 153.626541
_cell_volume 706.518329
_symmetry_space_group_name_H-M "P -1"
_symmetry_group_IT_number 2
_symmetry_cell_setting 'triclinic'
loop_
_space_group_symop_operation_xyz
x,y,z
-x,-y,-z
loop_
_atom_site_type_symbol
_atom_site_label
_atom_site_fract_x
_atom_site_fract_y
_atom_site_fract_z
Si Si1 0.446328 0.866280 0.046951
Si Si2 0.855697 0.006922 0.681620
Si Si3 0.209426 0.865299 0.928461
Si Si4 0.607825 0.836303 0.094661
Si Si5 0.152471 0.509381 0.677770
Si Si6 0.978151 0.916866 0.827796
Si Si7 0.255065 0.413861 0.273375
Si Si8 0.388749 0.480770 0.629023
O O1 0.491722 0.864736 0.923884
O O2 0.369504 0.702174 0.418189
O O3 0.651718 0.051156 0.946089
O O4 0.279917 0.840531 0.926198
O O5 0.776991 0.009319 0.420575
O O6 0.051630 0.200367 0.536647
O O7 0.911018 0.930941 0.871528
O O8 0.672477 0.874424 0.900191
O O9 0.971938 0.667414 0.150789
O O10 0.465119 0.637216 0.439768
O O11 0.800431 0.976133 0.117863
O O12 0.000000 0.500000 0.500000
O O13 0.203986 0.492519 0.952147
O O14 0.814456 0.710932 0.082962
O O15 0.000000 0.000000 0.500000
O O16 0.337694 0.485145 0.380312
O O17 0.430885 0.478830 0.233985
#
# Coordination Sequence:
#
# PCOD8006182 Si02
#       8
#     2   2   2   2   2   2   2   2
#     4  10  22  40  63  96 122 165 217 262 320 373
#     4  11  21  42  65  89 130 172 209 262 324 371
#     4   9  21  41  67  89 123 163 216 268 315 374
#     4  12  25  40  62  94 135 166 210 264 317 392
#     4   9  20  39  66  92 121 166 218 266 312 372
#     4  12  26  42  63  95 130 167 212 266 317 383
#     4  10  20  39  66  89 131 171 214 258 315 386
#     4  11  24  39  61  96 127 172 212 252 325 386
#
# _framework density 22.646262
#
# number of rings (size 3 to 8) (size 9 to 14) (size 15 to 20)
#    0.000    1.500    2.500    2.625    5.250    4.000 
#    0.000    0.000    0.000    2.250    0.000    0.000 
#    0.000    0.000    0.000    0.000    0.000    0.000 
#
# Total GULP energy -198258.219421 kJ/mol
# GULP energy per Si atom -12391.138714 kJ/mol
# Density = 2.259472 g / cm^3
# Si number density = 22.646262 Si / 1000 Ang^3
#
#
#
# Elastic Constant Matrix: (Units=GPa)
#
#
# Indices 1 2 3 4 5 6 
#
# 1 103.7855 -1.5377 4.8509 -7.0233 18.1066 -7.8958
# 2 -1.5377 75.9221 26.3043 -13.8726 5.0908 9.7789
# 3 4.8509 26.3043 92.2524 -18.8595 6.8623 3.6371
# 4 -7.0233 -13.8726 -18.8595 50.0724 9.2252 1.4366
# 5 18.1066 5.0908 6.8623 9.2252 23.3158 7.7611
# 6 -7.8958 9.7789 3.6371 1.4366 7.7611 10.8006
#
#
#
# Elastic Compliance Matrix: (Units=1/GPa)
#
#
# Indices 1 2 3 4 5 6 
#
# 1 0.016909 -0.001212 0.001526 0.006549 -0.026190 0.030893
# 2 -0.001212 0.017070 -0.003685 0.003139 0.002921 -0.017618
# 3 0.001526 -0.003685 0.013365 0.005597 -0.008234 0.005123
# 4 0.006549 0.003139 0.005597 0.027661 -0.022553 0.012588
# 5 -0.026190 0.002921 -0.008234 -0.022553 0.104190 -0.090888
# 6 0.030893 -0.017618 0.005123 0.012588 -0.090888 0.193033
#
#
# Mechanical properties :
#
#
# Convention : Reuss Voigt Hill
#
# Bulk Modulus (GPa) = 24.62996 36.79944 30.71470
# Shear Modulus (GPa) = 12.73868 32.99393 22.86630
#
# Velocity S-wave (km/s) = 2.37430 3.82111 3.18105
# Velocity P-wave (km/s) = 4.29138 5.97936 5.20426
#
# Compressibility (1/GPa) = 0.04060095
#
# Stress axis : x y z
#
# Youngs Moduli (GPa) = 59.14139 58.58150 74.82278
#
# Poissons Ratio (x) = 0.07103 -0.11416
# Poissons Ratio (y) = 0.07171 0.27569
# Poissons Ratio (z) = -0.09023 0.21585
#
# Static dielectric constant tensor:
#      x y z
#    x 3.936090 0.194880 0.091190 
#    y 0.194880 4.138170 -0.333930 
#    z 0.091190 -0.333930 4.251380 
# 
# 
# High freq. dielectric constant tensor:
#      x y z
#    x 1.875540 0.009710 0.009680 
#    y 0.009710 1.897700 -0.021830 
#    z 0.009680 -0.021830 1.894860 
# 
# From -- ./inp_files/320254.got.cif
#   From: 2010.06.25/outbox.cif.g09.slc.cpg/sg2_161_cif.got.tgz:320254.got - 2010.06.27 13:26:56.
