data_PCOD8006730
_publ_section_title
;
Structure prediction by ZEFSAII (Michael W. Deem and Ramdas Pophale) SiO2 
 PCOD8006730
Probable space group: P -1
;
_chemical_formula_sum "Si O2"
_cell_formula_units_Z 16
_cell_length_a 15.875348
_cell_length_b 11.735426
_cell_length_c 19.326895
_cell_angle_alpha 23.205833
_cell_angle_beta 33.986725
_cell_angle_gamma 44.075945
_cell_volume 777.367248
_symmetry_space_group_name_H-M "P -1"
_symmetry_group_IT_number 2
_symmetry_cell_setting 'triclinic'
loop_
_space_group_symop_operation_xyz
x,y,z
-x,-y,-z
loop_
_atom_site_type_symbol
_atom_site_label
_atom_site_fract_x
_atom_site_fract_y
_atom_site_fract_z
Si Si1 0.693160 0.342962 0.988996
Si Si2 0.601647 0.157073 0.923405
Si Si3 0.973750 0.829421 0.540536
Si Si4 0.659635 0.687463 0.318843
Si Si5 0.868630 0.121387 0.315789
Si Si6 0.399461 0.357672 0.242647
Si Si7 0.694510 0.267169 0.650884
Si Si8 0.830299 0.746980 0.032426
O O1 0.577520 0.320854 0.146286
O O2 0.664496 0.027741 0.145309
O O3 0.866685 0.498113 0.807113
O O4 0.642707 0.584283 0.839450
O O5 0.651689 0.389680 0.818834
O O6 0.626494 0.329005 0.737636
O O7 0.422629 0.020365 0.137170
O O8 0.699607 0.899992 0.003244
O O9 0.136527 0.791398 0.421653
O O10 0.905852 0.028771 0.420027
O O11 0.000000 0.000000 0.500000
O O12 0.500000 0.500000 0.500000
O O13 0.699644 0.540891 0.443850
O O14 0.795371 0.687836 0.170519
O O15 0.835759 0.448535 0.154438
O O16 0.710170 0.943259 0.492062
O O17 0.999639 0.062517 0.204998
#
# Coordination Sequence:
#
# PCOD8006730 Si02
#       8
#     2   2   2   2   2   2   2   2
#     4  10  22  37  63  94 126 162 215 258 301 384
#     4  11  22  41  65  92 123 170 205 259 312 379
#     4  11  22  40  60  90 133 171 204 256 323 369
#     4  12  22  40  66  94 123 166 209 262 312 369
#     4  10  23  38  65  93 123 166 214 265 299 377
#     4  10  20  40  63  92 122 161 213 259 314 360
#     4  11  24  39  63  92 129 164 208 253 319 376
#     4  11  21  40  63  95 121 161 215 252 310 367
#
# _framework density 20.582294000000001
#
# number of rings (size 3 to 8) (size 9 to 14) (size 15 to 20)
#    0.000    1.250    3.750    2.250    0.000    4.000 
#    0.000    3.125    0.000    0.000    0.000    0.000 
#    0.000    0.000    0.000    0.000    0.000    0.000 
#
# Total GULP energy -198264.429392 kJ/mol
# GULP energy per Si atom -12391.526837 kJ/mol
# Density = 2.053545 g / cm^3
# Si number density = 20.582294 Si / 1000 Ang^3
#
#
#
# Elastic Constant Matrix: (Units=GPa)
#
#
# Indices 1 2 3 4 5 6 
#
# 1 51.6022 23.2110 35.3807 6.9710 2.0644 5.5571
# 2 23.2110 105.0894 56.0596 9.7614 -14.1569 1.8606
# 3 35.3807 56.0596 129.2300 19.6680 -19.4387 7.8345
# 4 6.9710 9.7614 19.6680 35.0516 4.1215 1.4865
# 5 2.0644 -14.1569 -19.4387 4.1215 42.5220 4.5463
# 6 5.5571 1.8606 7.8345 1.4865 4.5463 22.4688
#
#
#
# Elastic Compliance Matrix: (Units=1/GPa)
#
#
# Indices 1 2 3 4 5 6 
#
# 1 0.025470 -0.002869 -0.006251 -0.000079 -0.004729 -0.002920
# 2 -0.002869 0.012861 -0.004332 -0.000899 0.002451 0.000718
# 3 -0.006251 -0.004332 0.013263 -0.005529 0.005838 -0.003535
# 4 -0.000079 -0.000899 -0.005529 0.032568 -0.006097 0.001101
# 5 -0.004729 0.002451 0.005838 -0.006097 0.028511 -0.006434
# 6 -0.002920 0.000718 -0.003535 0.001101 -0.006434 0.047631
#
#
# Mechanical properties :
#
#
# Convention : Reuss Voigt Hill
#
# Bulk Modulus (GPa) = 40.50181 57.24716 48.87448
# Shear Modulus (GPa) = 25.58381 31.42650 28.50516
#
# Velocity S-wave (km/s) = 3.52945 3.91176 3.72551
# Velocity P-wave (km/s) = 6.02744 6.94814 6.50410
#
# Compressibility (1/GPa) = 0.02469026
#
# Stress axis : x y z
#
# Youngs Moduli (GPa) = 39.26221 77.75393 75.40053
#
# Poissons Ratio (x) = 0.22308 0.47132
# Poissons Ratio (y) = 0.11264 0.32660
# Poissons Ratio (z) = 0.24543 0.33680
#
# Static dielectric constant tensor:
#      x y z
#    x 3.537040 -0.044760 -0.075020 
#    y -0.044760 3.733090 0.381450 
#    z -0.075020 0.381450 4.153240 
# 
# 
# High freq. dielectric constant tensor:
#      x y z
#    x 1.781250 0.000770 -0.002140 
#    y 0.000770 1.807390 0.018080 
#    z -0.002140 0.018080 1.822860 
# 
# From -- ./inp_files/262300.got.cif
#   From: 2010.06.25/outbox.cif.g09.slc.cpg/sg2_132_cif.got.tgz:262300.got - 2010.06.27 13:26:56.
