data_PCOD8006408
_publ_section_title
;
Structure prediction by ZEFSAII (Michael W. Deem and Ramdas Pophale) SiO2 
 PCOD8006408
Probable space group: P -1
;
_chemical_formula_sum "Si O2"
_cell_formula_units_Z 14
_cell_length_a 15.360539
_cell_length_b 5.209886
_cell_length_c 15.405576
_cell_angle_alpha 82.071645
_cell_angle_beta 26.637641
_cell_angle_gamma 75.033975
_cell_volume 521.569789
_symmetry_space_group_name_H-M "P -1"
_symmetry_group_IT_number 2
_symmetry_cell_setting 'triclinic'
loop_
_space_group_symop_operation_xyz
x,y,z
-x,-y,-z
loop_
_atom_site_type_symbol
_atom_site_label
_atom_site_fract_x
_atom_site_fract_y
_atom_site_fract_z
Si Si1 0.989802 0.633793 0.315840
Si Si2 0.677512 0.636048 0.845867
Si Si3 0.365570 0.767774 0.561976
Si Si4 0.373885 0.530179 0.395537
Si Si5 0.523958 0.031968 0.830561
Si Si6 0.125503 0.108474 0.104128
Si Si7 0.690802 0.059262 0.216771
O O1 0.104208 0.572211 0.309809
O O2 0.085116 0.402565 0.169680
O O3 0.748927 0.654787 0.533555
O O4 0.992104 0.927955 0.268940
O O5 0.702799 0.778203 0.724381
O O6 0.500000 0.500000 0.000000
O O7 0.619631 0.851274 0.964695
O O8 0.500000 0.500000 0.500000
O O9 0.244529 0.686676 0.591047
O O10 0.227509 0.935805 0.756808
O O11 0.503970 0.934137 0.389383
O O12 0.382760 0.750643 0.305923
O O13 0.593796 0.362809 0.246496
O O14 0.369458 0.940498 0.908842
O O15 0.118757 0.116450 0.003792
#
# Coordination Sequence:
#
# PCOD8006408 Si02
#       7
#     2   2   2   2   2   2   2
#     4  11  26  40  64  97 140 163 214 272 333 365
#     4  10  20  40  61  91 123 172 218 264 306 392
#     4   9  20  37  65  95 123 159 220 266 307 382
#     4  11  23  40  63  99 129 168 208 277 325 374
#     4  10  21  37  67  87 123 171 224 254 313 386
#     4  11  22  42  65  95 124 182 215 258 313 401
#     4  10  20  39  69  90 123 171 224 252 311 391
#
# _framework density 26.842047000000001
#
# number of rings (size 3 to 8) (size 9 to 14) (size 15 to 20)
#    0.000    1.714    2.857    1.714    4.000    0.571 
#    0.000    2.143    0.000    0.000    0.000    0.000 
#    0.000    0.000    0.000    0.000    0.000    0.000 
#
# Total GULP energy -173473.064709 kJ/mol
# GULP energy per Si atom -12390.933193 kJ/mol
# Density = 2.678095 g / cm^3
# Si number density = 26.842047 Si / 1000 Ang^3
#
#
#
# Elastic Constant Matrix: (Units=GPa)
#
#
# Indices 1 2 3 4 5 6 
#
# 1 110.8582 19.8098 10.6678 -14.3695 -11.8920 -3.5092
# 2 19.8098 90.7911 10.9878 -25.8414 6.8865 -14.9184
# 3 10.6678 10.9878 44.9074 -23.5464 -2.8675 -13.1282
# 4 -14.3695 -25.8414 -23.5464 42.6152 4.6118 3.6073
# 5 -11.8920 6.8865 -2.8675 4.6118 49.9818 -6.7340
# 6 -3.5092 -14.9184 -13.1282 3.6073 -6.7340 39.9380
#
#
#
# Elastic Compliance Matrix: (Units=1/GPa)
#
#
# Indices 1 2 3 4 5 6 
#
# 1 0.009885 -0.001786 -0.000946 0.001449 0.002433 0.000169
# 2 -0.001786 0.014939 0.003492 0.010217 -0.002522 0.005223
# 3 -0.000946 0.003492 0.035741 0.020486 0.000974 0.011284
# 4 0.001449 0.010217 0.020486 0.041225 -0.002818 0.006479
# 5 0.002433 -0.002522 0.000974 -0.002818 0.021722 0.003509
# 6 0.000169 0.005223 0.011284 0.006479 0.003509 0.030720
#
#
# Mechanical properties :
#
#
# Convention : Reuss Voigt Hill
#
# Bulk Modulus (GPa) = 16.10744 36.60973 26.35858
# Shear Modulus (GPa) = 28.83365 40.17976 34.50671
#
# Velocity S-wave (km/s) = 3.28105 3.87317 3.58934
# Velocity P-wave (km/s) = 4.51305 5.80263 5.19798
#
# Compressibility (1/GPa) = 0.06208311
#
# Stress axis : x y z
#
# Youngs Moduli (GPa) = 101.16300 66.93918 27.97939
#
# Poissons Ratio (x) = 0.11958 0.02648
# Poissons Ratio (y) = 0.18072 -0.09770
# Poissons Ratio (z) = 0.09572 -0.23375
#
# Static dielectric constant tensor:
#      x y z
#    x 5.992640 -1.488860 0.578960 
#    y -1.488860 -9.300280 2.485210 
#    z 0.578960 2.485210 4.277860 
# 
# 
# High freq. dielectric constant tensor:
#      x y z
#    x 2.109410 0.002260 0.016950 
#    y 0.002260 2.078770 0.004650 
#    z 0.016950 0.004650 2.061370 
# 
# From -- ./inp_files/34408.got.cif
#   From: 2010.06.25/outbox.cif.g09.slc.cpg/sg2_18_cif.got.tgz:34408.got - 2010.06.27 13:26:56.
