data_PCOD8006652
_publ_section_title
;
Structure prediction by ZEFSAII (Michael W. Deem and Ramdas Pophale) SiO2 
 PCOD8006652
Probable space group: P -1
;
_chemical_formula_sum "Si O2"
_cell_formula_units_Z 16
_cell_length_a 13.068534
_cell_length_b 14.927572
_cell_length_c 13.276289
_cell_angle_alpha 30.020844
_cell_angle_beta 36.670715
_cell_angle_gamma 45.902651
_cell_volume 773.860004
_symmetry_space_group_name_H-M "P -1"
_symmetry_group_IT_number 2
_symmetry_cell_setting 'triclinic'
loop_
_space_group_symop_operation_xyz
x,y,z
-x,-y,-z
loop_
_atom_site_type_symbol
_atom_site_label
_atom_site_fract_x
_atom_site_fract_y
_atom_site_fract_z
Si Si1 0.997829 0.543135 0.342299
Si Si2 0.323835 0.433869 0.555504
Si Si3 0.947689 0.992009 0.662220
Si Si4 0.022628 0.948103 0.918675
Si Si5 0.174400 0.222592 0.400938
Si Si6 0.128617 0.376805 0.955872
Si Si7 0.679975 0.972929 0.035663
Si Si8 0.408109 0.273811 0.991617
O O1 0.802448 0.533180 0.470175
O O2 0.000000 0.500000 0.500000
O O3 0.107935 0.404847 0.325130
O O4 0.073169 0.740420 0.070780
O O5 0.233922 0.489780 0.678889
O O6 0.387802 0.229205 0.709340
O O7 0.489474 0.549285 0.290024
O O8 0.974981 0.777679 0.875560
O O9 0.747821 0.025564 0.818314
O O10 0.000000 0.000000 0.500000
O O11 0.057201 0.139535 0.487719
O O12 0.845650 0.998483 0.952485
O O13 0.179903 0.067097 0.633582
O O14 0.000000 0.000000 0.000000
O O15 0.349942 0.273314 0.155729
O O16 0.250346 0.271200 0.041180
O O17 0.000000 0.500000 0.000000
O O18 0.522564 0.097376 0.065537
#
# Coordination Sequence:
#
# PCOD8006652 Si02
#       8
#     2   2   2   2   2   2   2   2
#     4  11  22  42  75  94 123 172 224 276 323 381
#     4  10  23  41  61  96 133 167 219 268 323 388
#     4  10  20  40  62  92 125 168 222 263 303 381
#     4  10  20  41  72  96 120 163 227 275 314 380
#     4  11  23  40  63 100 126 168 219 264 328 388
#     4  11  24  41  65  96 128 177 228 266 314 389
#     4   9  23  39  62  91 130 170 213 264 325 380
#     4  12  24  40  64  94 141 175 203 266 339 388
#
# _framework density 20.675574999999998
#
# number of rings (size 3 to 8) (size 9 to 14) (size 15 to 20)
#    0.000    1.500    2.500    3.375    1.750    4.000 
#    0.000    1.250    0.000    0.000    0.000    0.000 
#    0.000    0.000    0.000    0.000    0.000    0.000 
#
# Total GULP energy -198211.395431 kJ/mol
# GULP energy per Si atom -12388.212214 kJ/mol
# Density = 2.062852 g / cm^3
# Si number density = 20.675575 Si / 1000 Ang^3
#
#
#
# Elastic Constant Matrix: (Units=GPa)
#
#
# Indices 1 2 3 4 5 6 
#
# 1 83.2651 55.1719 38.9471 7.8480 24.1031 9.6053
# 2 55.1719 183.9115 81.6514 2.6281 9.1939 13.2796
# 3 38.9471 81.6514 165.7496 8.7516 24.3696 12.1864
# 4 7.8480 2.6281 8.7516 35.3157 9.2030 5.7264
# 5 24.1031 9.1939 24.3696 9.2030 31.2034 2.2301
# 6 9.6053 13.2796 12.1864 5.7264 2.2301 36.2106
#
#
#
# Elastic Compliance Matrix: (Units=1/GPa)
#
#
# Indices 1 2 3 4 5 6 
#
# 1 0.019490 -0.005017 0.000053 -0.000067 -0.013419 -0.002511
# 2 -0.005017 0.008345 -0.003490 0.000439 0.004076 -0.000875
# 3 0.000053 -0.003490 0.008673 -0.000229 -0.005628 -0.001270
# 4 -0.000067 0.000439 -0.000229 0.031385 -0.008835 -0.004485
# 5 -0.013419 0.004076 -0.005628 -0.008835 0.048042 0.002397
# 6 -0.002511 -0.000875 -0.001270 -0.004485 0.002397 0.029592
#
#
# Mechanical properties :
#
#
# Convention : Reuss Voigt Hill
#
# Bulk Modulus (GPa) = 51.02218 87.16300 69.09259
# Shear Modulus (GPa) = 29.59125 37.68965 33.64045
#
# Velocity S-wave (km/s) = 3.78725 4.27418 4.03806
# Velocity P-wave (km/s) = 6.62234 8.16132 7.43178
#
# Compressibility (1/GPa) = 0.01959932
#
# Stress axis : x y z
#
# Youngs Moduli (GPa) = 51.30873 119.82868 115.30101
#
# Poissons Ratio (x) = 0.60121 -0.00611
# Poissons Ratio (y) = 0.25743 0.40241
# Poissons Ratio (z) = -0.00272 0.41822
#
# Static dielectric constant tensor:
#      x y z
#    x 3.820160 0.319420 0.287610 
#    y 0.319420 3.617550 0.175620 
#    z 0.287610 0.175620 3.907850 
# 
# 
# High freq. dielectric constant tensor:
#      x y z
#    x 1.786010 0.026340 0.020190 
#    y 0.026340 1.813030 -0.011510 
#    z 0.020190 -0.011510 1.829410 
# 
# From -- ./inp_files/350313.got.cif
#   From: 2010.06.25/outbox.cif.g09.slc.cpg/sg2_176_cif.got.tgz:350313.got - 2010.06.27 13:26:56.
