data_PCOD8006690
_publ_section_title
;
Structure prediction by ZEFSAII (Michael W. Deem and Ramdas Pophale) SiO2 
 PCOD8006690
Probable space group: P -1
;
_chemical_formula_sum "Si O2"
_cell_formula_units_Z 16
_cell_length_a 9.493394
_cell_length_b 11.491412
_cell_length_c 13.947188
_cell_angle_alpha 33.801455
_cell_angle_beta 68.630438
_cell_angle_gamma 68.923900
_cell_volume 783.505664
_symmetry_space_group_name_H-M "P -1"
_symmetry_group_IT_number 2
_symmetry_cell_setting 'triclinic'
loop_
_space_group_symop_operation_xyz
x,y,z
-x,-y,-z
loop_
_atom_site_type_symbol
_atom_site_label
_atom_site_fract_x
_atom_site_fract_y
_atom_site_fract_z
Si Si1 0.617568 0.393212 0.116821
Si Si2 0.768880 0.975657 0.285231
Si Si3 0.108030 0.918967 0.295754
Si Si4 0.749024 0.416780 0.364573
Si Si5 0.179486 0.628904 0.308371
Si Si6 0.854711 0.704580 0.293624
Si Si7 0.854517 0.599020 0.023208
Si Si8 0.452406 0.347568 0.378439
O O1 0.729206 0.219830 0.151619
O O2 0.709869 0.577078 0.007666
O O3 0.532242 0.295406 0.293018
O O4 0.500000 0.500000 0.000000
O O5 0.791776 0.938983 0.187927
O O6 0.630778 0.856082 0.439239
O O7 0.928196 0.899141 0.351124
O O8 0.171716 0.792649 0.460499
O O9 0.192048 0.823645 0.243958
O O10 0.143577 0.156769 0.125049
O O11 0.751819 0.621135 0.293146
O O12 0.843956 0.463663 0.215082
O O13 0.575764 0.383510 0.405742
O O14 0.156634 0.424857 0.516715
O O15 0.334126 0.563030 0.255162
O O16 0.034459 0.683873 0.234986
O O17 0.000000 0.500000 0.000000
#
# Coordination Sequence:
#
# PCOD8006690 Si02
#       8
#     2   2   2   2   2   2   2   2
#     4  11  25  42  56  85 126 159 196 246 302 353
#     4  10  20  40  63  87 117 159 203 241 291 361
#     4  10  21  41  65  89 120 158 200 248 298 345
#     4  10  22  38  62  95 119 156 197 245 309 349
#     4   8  16  34  60  88 118 153 195 244 293 353
#     4   8  16  34  61  89 115 150 201 245 289 348
#     4  11  24  44  60  88 124 154 207 252 283 361
#     4  10  21  38  60  91 120 152 201 243 296 370
#
# _framework density 20.421040000000001
#
# number of rings (size 3 to 8) (size 9 to 14) (size 15 to 20)
#    0.000    2.250    1.250    2.625    1.750    7.000 
#    2.250    2.500    0.000    0.000    0.000    0.000 
#    0.000    0.000    0.000    0.000    0.000    0.000 
#
# Total GULP energy -198309.151514 kJ/mol
# GULP energy per Si atom -12394.321970 kJ/mol
# Density = 2.037456 g / cm^3
# Si number density = 20.421040 Si / 1000 Ang^3
#
#
#
# Elastic Constant Matrix: (Units=GPa)
#
#
# Indices 1 2 3 4 5 6 
#
# 1 115.4209 25.0431 24.3244 -0.8491 -6.2890 10.2467
# 2 25.0431 81.3724 11.4735 -23.5254 -1.0630 -4.7075
# 3 24.3244 11.4735 51.8225 -16.0404 -10.4328 6.2045
# 4 -0.8491 -23.5254 -16.0404 30.1995 0.5219 -1.2392
# 5 -6.2890 -1.0630 -10.4328 0.5219 29.1833 -2.2840
# 6 10.2467 -4.7075 6.2045 -1.2392 -2.2840 35.5748
#
#
#
# Elastic Compliance Matrix: (Units=1/GPa)
#
#
# Indices 1 2 3 4 5 6 
#
# 1 0.011134 -0.004673 -0.005857 -0.006563 0.000016 -0.003032
# 2 -0.004673 0.018065 0.002656 0.015499 0.000625 0.003853
# 3 -0.005857 0.002656 0.028641 0.016893 0.008629 -0.001814
# 4 -0.006563 0.015499 0.016893 0.054028 0.004471 0.003164
# 5 0.000016 0.000625 0.008629 0.004471 0.037386 0.001129
# 6 -0.003032 0.003853 -0.001814 0.003164 0.001129 0.029992
#
#
# Mechanical properties :
#
#
# Convention : Reuss Voigt Hill
#
# Bulk Modulus (GPa) = 23.75771 41.14419 32.45095
# Shear Modulus (GPa) = 23.92066 31.50985 27.71526
#
# Velocity S-wave (km/s) = 3.42625 3.93238 3.68800
# Velocity P-wave (km/s) = 5.22603 6.38825 5.83615
#
# Compressibility (1/GPa) = 0.04209160
#
# Stress axis : x y z
#
# Youngs Moduli (GPa) = 89.81597 55.35567 34.91496
#
# Poissons Ratio (x) = 0.25870 0.20448
# Poissons Ratio (y) = 0.41974 -0.09273
# Poissons Ratio (z) = 0.52602 -0.14702
#
# Static dielectric constant tensor:
#      x y z
#    x 3.772690 -0.094240 -0.126460 
#    y -0.094240 3.894630 0.041470 
#    z -0.126460 0.041470 3.125330 
# 
# 
# High freq. dielectric constant tensor:
#      x y z
#    x 1.806050 0.002900 -0.012160 
#    y 0.002900 1.811830 -0.013240 
#    z -0.012160 -0.013240 1.768930 
# 
# From -- ./inp_files/224217.got.cif
#   From: 2010.06.25/outbox.cif.g09.slc.cpg/sg2_113_cif.got.tgz:224217.got - 2010.06.27 13:26:56.
