data_PCOD8006868
_publ_section_title
;
Structure prediction by ZEFSAII (Michael W. Deem and Ramdas Pophale) SiO2 
 PCOD8006868
Probable space group: P -1
;
_chemical_formula_sum "Si O2"
_cell_formula_units_Z 16
_cell_length_a 8.576725
_cell_length_b 11.859505
_cell_length_c 9.957849
_cell_angle_alpha 78.999014
_cell_angle_beta 46.369196
_cell_angle_gamma 87.697225
_cell_volume 713.652853
_symmetry_space_group_name_H-M "P -1"
_symmetry_group_IT_number 2
_symmetry_cell_setting 'triclinic'
loop_
_space_group_symop_operation_xyz
x,y,z
-x,-y,-z
loop_
_atom_site_type_symbol
_atom_site_label
_atom_site_fract_x
_atom_site_fract_y
_atom_site_fract_z
Si Si1 0.577304 0.595090 0.325900
Si Si2 0.431860 0.950318 0.908164
Si Si3 0.938658 0.918419 0.275100
Si Si4 0.372545 0.162814 0.757686
Si Si5 0.945407 0.372998 0.003091
Si Si6 0.023221 0.180073 0.184303
Si Si7 0.522809 0.437580 0.139249
Si Si8 0.771838 0.787208 0.662768
O O1 0.500000 0.500000 0.500000
O O2 0.465774 0.714292 0.379126
O O3 0.535222 0.538874 0.218659
O O4 0.829448 0.646704 0.198146
O O5 0.561086 0.846636 0.813550
O O6 0.496907 0.051740 0.735172
O O7 0.173653 0.907595 0.072159
O O8 0.500000 0.000000 0.000000
O O9 0.764839 0.856226 0.291220
O O10 0.917585 0.855236 0.445737
O O11 0.892682 0.051190 0.291240
O O12 0.239497 0.174186 0.971561
O O13 0.740102 0.373159 0.026569
O O14 0.885609 0.274417 0.176031
O O15 0.000000 0.500000 0.000000
O O16 0.079347 0.220390 0.293374
O O17 0.314199 0.342197 0.308165
O O18 0.500000 0.500000 0.000000
#
# Coordination Sequence:
#
# PCOD8006868 Si02
#       8
#     2   2   2   2   2   2   2   2
#     4  10  21  42  63  90 128 164 215 265 313 374
#     4  11  23  40  65  93 130 172 210 256 333 380
#     4  11  24  41  62  97 133 165 212 267 319 379
#     4  10  21  40  63  89 130 172 206 263 325 381
#     4   9  20  39  64  85 119 171 206 249 319 376
#     4  10  20  40  65  86 131 168 206 260 320 383
#     4  11  24  42  67  92 125 167 214 264 319 382
#     4  12  24  41  66  98 129 167 218 267 318 386
#
# _framework density 22.419865000000001
#
# number of rings (size 3 to 8) (size 9 to 14) (size 15 to 20)
#    0.000    1.500    2.500    4.875    5.250    0.500 
#    4.500    1.875    0.000    0.000    0.000    0.000 
#    0.000    0.000    0.000    0.000    0.000    0.000 
#
# Total GULP energy -198298.399795 kJ/mol
# GULP energy per Si atom -12393.649987 kJ/mol
# Density = 2.236884 g / cm^3
# Si number density = 22.419865 Si / 1000 Ang^3
#
#
#
# Elastic Constant Matrix: (Units=GPa)
#
#
# Indices 1 2 3 4 5 6 
#
# 1 116.2167 55.0570 39.5090 -10.9271 33.4329 -8.7551
# 2 55.0570 128.0425 35.7073 -38.7557 6.2169 4.2525
# 3 39.5090 35.7073 88.5288 -30.5681 22.4527 -5.5954
# 4 -10.9271 -38.7557 -30.5681 41.3367 -5.9305 7.9902
# 5 33.4329 6.2169 22.4527 -5.9305 32.4413 -5.0599
# 6 -8.7551 4.2525 -5.5954 7.9902 -5.0599 40.4371
#
#
#
# Elastic Compliance Matrix: (Units=1/GPa)
#
#
# Indices 1 2 3 4 5 6 
#
# 1 0.017837 -0.008887 -0.003363 -0.009122 -0.015362 0.004211
# 2 -0.008887 0.015866 0.000461 0.015040 0.007685 -0.005539
# 3 -0.003363 0.000461 0.018807 0.012678 -0.007574 -0.001627
# 4 -0.009122 0.015040 0.012678 0.048018 0.004856 -0.010683
# 5 -0.015362 0.007685 -0.007574 0.004856 0.051358 0.000285
# 6 0.004211 -0.005539 -0.001627 -0.010683 0.000285 0.028145
#
#
# Mechanical properties :
#
#
# Convention : Reuss Voigt Hill
#
# Bulk Modulus (GPa) = 34.56531 65.92608 50.24570
# Shear Modulus (GPa) = 23.44623 36.34399 29.89511
#
# Velocity S-wave (km/s) = 3.23736 4.03061 3.65556
# Velocity P-wave (km/s) = 5.42446 7.15053 6.34645
#
# Compressibility (1/GPa) = 0.02893074
#
# Stress axis : x y z
#
# Youngs Moduli (GPa) = 56.06313 63.02884 53.17231
#
# Poissons Ratio (x) = 0.56013 0.17884
# Poissons Ratio (y) = 0.49822 -0.02450
# Poissons Ratio (z) = 0.18856 -0.02904
#
# Static dielectric constant tensor:
#      x y z
#    x 4.481260 -0.546510 -0.130160 
#    y -0.546510 4.741550 -0.222160 
#    z -0.130160 -0.222160 3.927580 
# 
# 
# High freq. dielectric constant tensor:
#      x y z
#    x 1.876630 0.001190 0.019430 
#    y 0.001190 1.909840 -0.019760 
#    z 0.019430 -0.019760 1.862430 
# 
# From -- ./inp_files/186437.got.cif
#   From: 2010.06.25/outbox.cif.g09.slc.cpg/sg2_94_cif.got.tgz:186437.got - 2010.06.27 13:26:56.
