data_PCOD8006609
_publ_section_title
;
Structure prediction by ZEFSAII (Michael W. Deem and Ramdas Pophale) SiO2 
 PCOD8006609
Probable space group: P -1
;
_chemical_formula_sum "Si O2"
_cell_formula_units_Z 16
_cell_length_a 16.268683
_cell_length_b 18.571470
_cell_length_c 6.959577
_cell_angle_alpha 67.803927
_cell_angle_beta 58.337472
_cell_angle_gamma 25.678290
_cell_volume 749.190528
_symmetry_space_group_name_H-M "P -1"
_symmetry_group_IT_number 2
_symmetry_cell_setting 'triclinic'
loop_
_space_group_symop_operation_xyz
x,y,z
-x,-y,-z
loop_
_atom_site_type_symbol
_atom_site_label
_atom_site_fract_x
_atom_site_fract_y
_atom_site_fract_z
Si Si1 0.221742 0.381427 0.571509
Si Si2 0.699781 0.235735 0.294372
Si Si3 0.882950 0.981811 0.043413
Si Si4 0.429319 0.740557 0.176911
Si Si5 0.325156 0.478413 0.252675
Si Si6 0.251297 0.243789 0.343119
Si Si7 0.155591 0.139126 0.570995
Si Si8 0.476386 0.168862 0.838369
O O1 0.345597 0.372491 0.386967
O O2 0.303762 0.257116 0.450314
O O3 0.288090 0.303708 0.776913
O O4 0.969399 0.572880 0.671582
O O5 0.649277 0.257910 0.556894
O O6 0.483671 0.411927 0.265574
O O7 0.808828 0.081059 0.224621
O O8 0.862095 0.191483 0.121572
O O9 0.826904 0.931388 0.197766
O O10 0.771395 0.093289 0.876961
O O11 0.541681 0.736753 0.123576
O O12 0.602208 0.567857 0.012757
O O13 0.090269 0.679867 0.374639
O O14 0.246616 0.157582 0.502397
O O15 0.434292 0.127985 0.077675
O O16 0.288856 0.010839 0.356978
#
# Coordination Sequence:
#
# PCOD8006609 Si02
#       8
#     2   2   2   2   2   2   2   2
#     4  10  20  40  62  87 120 159 206 242 289 359
#     4  10  20  41  68  87 115 164 204 245 294 363
#     4  10  22  40  63  92 122 154 201 252 302 349
#     4  11  20  39  66  90 115 160 208 242 290 367
#     4  10  21  40  62  89 125 158 198 247 301 352
#     4  10  23  39  61  88 121 161 199 245 297 354
#     4  11  24  42  56  92 131 154 193 256 303 346
#     4  12  21  39  64  89 119 159 205 245 293 354
#
# _framework density 21.356383000000001
#
# number of rings (size 3 to 8) (size 9 to 14) (size 15 to 20)
#    0.000    1.500    3.750    1.875    0.000    1.000 
#    4.500    0.625    0.000    0.000    0.000    0.000 
#    0.000    0.000    0.000    0.000    0.000    0.000 
#
# Total GULP energy -198444.992103 kJ/mol
# GULP energy per Si atom -12402.812006 kJ/mol
# Density = 2.130778 g / cm^3
# Si number density = 21.356383 Si / 1000 Ang^3
#
#
#
# Elastic Constant Matrix: (Units=GPa)
#
#
# Indices 1 2 3 4 5 6 
#
# 1 71.5940 20.7519 44.7923 -1.4947 2.9370 -11.5316
# 2 20.7519 63.2905 28.8973 6.8437 6.2768 -3.0085
# 3 44.7923 28.8973 146.2623 -0.2329 -1.9839 0.7278
# 4 -1.4947 6.8437 -0.2329 20.8089 -4.7693 -5.8491
# 5 2.9370 6.2768 -1.9839 -4.7693 34.1102 -5.6836
# 6 -11.5316 -3.0085 0.7278 -5.8491 -5.6836 28.6174
#
#
#
# Elastic Compliance Matrix: (Units=1/GPa)
#
#
# Indices 1 2 3 4 5 6 
#
# 1 0.020129 -0.004467 -0.005303 0.005681 0.001100 0.009156
# 2 -0.004467 0.019779 -0.002610 -0.008690 -0.005026 -0.002429
# 3 -0.005303 -0.002610 0.009004 0.000153 0.001083 -0.002394
# 4 0.005681 -0.008690 0.000153 0.058462 0.011906 0.015685
# 5 0.001100 -0.005026 0.001083 0.011906 0.033366 0.008948
# 6 0.009156 -0.002429 -0.002394 0.015685 0.008948 0.043422
#
#
# Mechanical properties :
#
#
# Convention : Reuss Voigt Hill
#
# Bulk Modulus (GPa) = 41.40523 52.22552 46.81538
# Shear Modulus (GPa) = 23.04460 29.15433 26.09947
#
# Velocity S-wave (km/s) = 3.28845 3.69878 3.49964
# Velocity P-wave (km/s) = 5.81794 6.53825 6.18858
#
# Compressibility (1/GPa) = 0.02415154
#
# Stress axis : x y z
#
# Youngs Moduli (GPa) = 49.68059 50.55882 111.06597
#
# Poissons Ratio (x) = 0.22583 0.58903
# Poissons Ratio (y) = 0.22190 0.28986
# Poissons Ratio (z) = 0.26348 0.13195
#
# Static dielectric constant tensor:
#      x y z
#    x 3.862020 -0.099910 -0.109580 
#    y -0.099910 3.634480 0.108930 
#    z -0.109580 0.108930 3.931310 
# 
# 
# High freq. dielectric constant tensor:
#      x y z
#    x 1.834600 -0.014990 -0.010070 
#    y -0.014990 1.823530 0.006080 
#    z -0.010070 0.006080 1.846160 
# 
# From -- ./inp_files/38980.got.cif
#   From: 2010.06.25/outbox.cif.g09.slc.cpg/sg2_20_cif.got.tgz:38980.got - 2010.06.27 13:26:56.
