data_PCOD8006570
_publ_section_title
;
Structure prediction by ZEFSAII (Michael W. Deem and Ramdas Pophale) SiO2 
 PCOD8006570
Probable space group: P -1
;
_chemical_formula_sum "Si O2"
_cell_formula_units_Z 16
_cell_length_a 6.465862
_cell_length_b 16.049583
_cell_length_c 8.784437
_cell_angle_alpha 83.606974
_cell_angle_beta 103.735114
_cell_angle_gamma 61.592882
_cell_volume 751.586056
_symmetry_space_group_name_H-M "P -1"
_symmetry_group_IT_number 2
_symmetry_cell_setting 'triclinic'
loop_
_space_group_symop_operation_xyz
x,y,z
-x,-y,-z
loop_
_atom_site_type_symbol
_atom_site_label
_atom_site_fract_x
_atom_site_fract_y
_atom_site_fract_z
Si Si1 0.326942 0.480845 0.291108
Si Si2 0.318231 0.637395 0.865062
Si Si3 0.427235 0.401667 0.644478
Si Si4 0.035360 0.998631 0.325579
Si Si5 0.689035 0.175681 0.808693
Si Si6 0.521551 0.089294 0.043519
Si Si7 0.936623 0.844862 0.868228
Si Si8 0.182152 0.481726 0.879829
O O1 0.589194 0.395827 0.283924
O O2 0.301072 0.436083 0.451261
O O3 0.345344 0.577540 0.297445
O O4 0.091887 0.503673 0.131561
O O5 0.206715 0.572788 0.924317
O O6 0.107860 0.749982 0.814901
O O7 0.564316 0.618331 0.003745
O O8 0.535874 0.287227 0.706166
O O9 0.197845 0.468469 0.703125
O O10 0.154595 0.062820 0.280036
O O11 0.770215 0.050389 0.188993
O O12 0.213811 0.888813 0.315495
O O13 0.000000 0.000000 0.500000
O O14 0.509913 0.151888 0.881222
O O15 0.924862 0.149656 0.959118
O O16 0.300330 0.157076 0.108677
O O17 0.500000 0.000000 0.000000
#
# Coordination Sequence:
#
# PCOD8006570 Si02
#       8
#     2   2   2   2   2   2   2   2
#     4  10  22  40  65  86 133 168 204 266 325 371
#     4  10  22  38  60  95 125 158 212 265 308 376
#     4  10  22  40  60  95 125 166 214 258 317 382
#     4  11  25  42  66  96 135 161 204 278 324 371
#     4  11  22  42  66  93 129 166 216 263 312 386
#     4  11  21  44  69  91 122 177 216 257 317 386
#     4  11  22  43  66  91 129 169 217 256 314 390
#     4  10  20  40  61  89 125 163 210 260 313 376
#
# _framework density 21.288314
#
# number of rings (size 3 to 8) (size 9 to 14) (size 15 to 20)
#    0.000    1.500    3.750    1.500    1.750    3.500 
#    0.000    0.000    0.000    0.000    0.000    0.000 
#    0.000    0.000    0.000    0.000    0.000    0.000 
#
# Total GULP energy -198350.827903 kJ/mol
# GULP energy per Si atom -12396.926744 kJ/mol
# Density = 2.123986 g / cm^3
# Si number density = 21.288314 Si / 1000 Ang^3
#
#
#
# Elastic Constant Matrix: (Units=GPa)
#
#
# Indices 1 2 3 4 5 6 
#
# 1 118.3267 47.6219 23.3156 -4.6446 -12.3763 -2.4762
# 2 47.6219 141.9185 38.8769 -3.7888 -13.1322 -4.5112
# 3 23.3156 38.8769 71.4480 1.9753 -12.7188 7.6305
# 4 -4.6446 -3.7888 1.9753 29.9838 -0.1846 -8.9850
# 5 -12.3763 -13.1322 -12.7188 -0.1846 34.1681 3.8180
# 6 -2.4762 -4.5112 7.6305 -8.9850 3.8180 29.7732
#
#
#
# Elastic Compliance Matrix: (Units=1/GPa)
#
#
# Indices 1 2 3 4 5 6 
#
# 1 0.010154 -0.002690 -0.001680 0.001696 0.001901 0.001135
# 2 -0.002690 0.009373 -0.004460 0.001914 0.000662 0.002832
# 3 -0.001680 -0.004460 0.018898 -0.004336 0.005547 -0.007679
# 4 0.001696 0.001914 -0.004336 0.038099 -0.001537 0.013237
# 5 0.001901 0.000662 0.005547 -0.001537 0.032920 -0.005849
# 6 0.001135 0.002832 -0.007679 0.013237 -0.005849 0.040823
#
#
# Mechanical properties :
#
#
# Convention : Reuss Voigt Hill
#
# Bulk Modulus (GPa) = 48.15432 61.25799 54.70616
# Shear Modulus (GPa) = 28.59620 33.57694 31.08657
#
# Velocity S-wave (km/s) = 3.66906 3.97577 3.82549
# Velocity P-wave (km/s) = 6.37326 7.06495 6.72800
#
# Compressibility (1/GPa) = 0.02076657
#
# Stress axis : x y z
#
# Youngs Moduli (GPa) = 98.48482 106.68917 52.91445
#
# Poissons Ratio (x) = 0.28698 0.08887
# Poissons Ratio (y) = 0.26491 0.23600
# Poissons Ratio (z) = 0.16541 0.47583
#
# Static dielectric constant tensor:
#      x y z
#    x 4.216030 0.096570 -0.272050 
#    y 0.096570 3.862990 0.215200 
#    z -0.272050 0.215200 3.921340 
# 
# 
# High freq. dielectric constant tensor:
#      x y z
#    x 1.843610 -0.001100 -0.021050 
#    y -0.001100 1.828510 0.014680 
#    z -0.021050 0.014680 1.833200 
# 
# From -- ./inp_files/135166.got.cif
#   From: 2010.06.25/outbox.cif.g09.slc.cpg/sg2_68_cif.got.tgz:135166.got - 2010.06.27 13:26:56.
