data_PCOD8006132
_publ_section_title
;
Structure prediction by ZEFSAII (Michael W. Deem and Ramdas Pophale) SiO2 
 PCOD8006132
Probable space group: P -1
;
_chemical_formula_sum "Si O2"
_cell_formula_units_Z 16
_cell_length_a 14.172467
_cell_length_b 11.920087
_cell_length_c 14.594579
_cell_angle_alpha 115.573613
_cell_angle_beta 42.569789
_cell_angle_gamma 147.517798
_cell_volume 764.122680
_symmetry_space_group_name_H-M "P -1"
_symmetry_group_IT_number 2
_symmetry_cell_setting 'triclinic'
loop_
_space_group_symop_operation_xyz
x,y,z
-x,-y,-z
loop_
_atom_site_type_symbol
_atom_site_label
_atom_site_fract_x
_atom_site_fract_y
_atom_site_fract_z
Si Si1 0.563847 0.816178 0.761956
Si Si2 0.900534 0.626974 0.425925
Si Si3 0.021140 0.408296 0.108884
Si Si4 0.905254 0.797801 0.957482
Si Si5 0.657957 0.347982 0.327871
Si Si6 0.092851 0.880383 0.649890
Si Si7 0.197111 0.716635 0.589534
Si Si8 0.308107 0.331102 0.287853
O O1 0.433355 0.661226 0.705778
O O2 0.729372 0.834177 0.700832
O O3 0.313542 0.673593 0.952034
O O4 0.781294 0.092391 0.682498
O O5 0.876446 0.593424 0.319846
O O6 0.813358 0.437450 0.481267
O O7 0.694446 0.574180 0.592587
O O8 0.973787 0.221784 0.072166
O O9 0.777729 0.302453 0.198832
O O10 0.019066 0.441578 0.228367
O O11 0.992432 0.854527 0.809856
O O12 0.577696 0.543668 0.108179
O O13 0.000000 0.000000 0.000000
O O14 0.413373 0.154626 0.507773
O O15 0.068861 0.710249 0.602080
O O16 0.943441 0.831735 0.656085
O O17 0.500000 0.000000 0.500000
#
# Coordination Sequence:
#
# PCOD8006132 Si02
#       8
#     2   2   2   2   2   2   2   2
#     4  11  24  45  60  93 133 166 219 259 309 377
#     4  11  23  40  67  94 124 174 210 257 323 374
#     4   9  21  40  65  88 131 163 204 278 306 362
#     4  10  22  39  64  92 126 165 212 257 319 386
#     4  11  22  40  67  92 122 170 209 267 312 371
#     4  11  21  40  64  91 131 161 205 266 322 365
#     4  10  20  39  65  95 127 161 210 266 312 375
#     4  11  24  42  62  92 131 169 207 268 309 379
#
# _framework density 20.939046999999999
#
# number of rings (size 3 to 8) (size 9 to 14) (size 15 to 20)
#    0.000    1.500    3.750    1.875    1.750    3.000 
#    6.750    0.000    0.000    0.000    0.000    0.000 
#    0.000    0.000    0.000    0.000    0.000    0.000 
#
# Total GULP energy -198231.390586 kJ/mol
# GULP energy per Si atom -12389.461912 kJ/mol
# Density = 2.089139 g / cm^3
# Si number density = 20.939047 Si / 1000 Ang^3
#
#
#
# Elastic Constant Matrix: (Units=GPa)
#
#
# Indices 1 2 3 4 5 6 
#
# 1 127.3697 37.3074 29.3626 3.8416 -10.0318 0.1296
# 2 37.3074 92.5130 36.4205 5.2098 -8.7107 -8.9417
# 3 29.3626 36.4205 140.3978 0.6889 -5.6611 -7.2881
# 4 3.8416 5.2098 0.6889 19.9923 -1.9653 2.3314
# 5 -10.0318 -8.7107 -5.6611 -1.9653 29.7698 5.5965
# 6 0.1296 -8.9417 -7.2881 2.3314 5.5965 28.8557
#
#
#
# Elastic Compliance Matrix: (Units=1/GPa)
#
#
# Indices 1 2 3 4 5 6 
#
# 1 0.009241 -0.003223 -0.001092 -0.000477 0.002254 -0.001715
# 2 -0.003223 0.013823 -0.002647 -0.003154 0.001574 0.003579
# 3 -0.001092 -0.002647 0.008104 0.000508 0.000216 0.001148
# 4 -0.000477 -0.003154 0.000508 0.051929 0.003517 -0.005725
# 5 0.002254 0.001574 0.000216 0.003517 0.036364 -0.006805
# 6 -0.001715 0.003579 0.001148 -0.005725 -0.006805 0.037844
#
#
# Mechanical properties :
#
#
# Convention : Reuss Voigt Hill
#
# Bulk Modulus (GPa) = 57.99672 62.94016 60.46844
# Shear Modulus (GPa) = 28.25244 32.86956 30.56100
#
# Velocity S-wave (km/s) = 3.67723 3.96633 3.82451
# Velocity P-wave (km/s) = 6.76663 7.14841 6.96014
#
# Compressibility (1/GPa) = 0.01724236
#
# Stress axis : x y z
#
# Youngs Moduli (GPa) = 108.21707 72.34387 123.40281
#
# Poissons Ratio (x) = 0.23317 0.13479
# Poissons Ratio (y) = 0.34880 0.32664
# Poissons Ratio (z) = 0.11820 0.19149
#
# Static dielectric constant tensor:
#      x y z
#    x 3.948400 -0.342180 -0.126490 
#    y -0.342180 3.621960 0.097220 
#    z -0.126490 0.097220 4.190370 
# 
# 
# High freq. dielectric constant tensor:
#      x y z
#    x 1.821760 -0.017820 -0.004460 
#    y -0.017820 1.787440 -0.000660 
#    z -0.004460 -0.000660 1.843150 
# 
# From -- ./inp_files/457545.got.cif
#   From: 2010.06.25/outbox.cif.g09.slc.cpg/sg2_229_cif.got.tgz:457545.got - 2010.06.27 13:26:56.
