data_PCOD8006895
_publ_section_title
;
Structure prediction by ZEFSAII (Michael W. Deem and Ramdas Pophale) SiO2 
 PCOD8006895
Probable space group: P -1
;
_chemical_formula_sum "Si O2"
_cell_formula_units_Z 16
_cell_length_a 10.789901
_cell_length_b 12.130747
_cell_length_c 9.315138
_cell_angle_alpha 38.917389
_cell_angle_beta 89.590875
_cell_angle_gamma 93.234852
_cell_volume 762.177371
_symmetry_space_group_name_H-M "P -1"
_symmetry_group_IT_number 2
_symmetry_cell_setting 'triclinic'
loop_
_space_group_symop_operation_xyz
x,y,z
-x,-y,-z
loop_
_atom_site_type_symbol
_atom_site_label
_atom_site_fract_x
_atom_site_fract_y
_atom_site_fract_z
Si Si1 0.353529 0.761461 0.708106
Si Si2 0.249475 0.445408 0.228318
Si Si3 0.372486 0.130939 0.458648
Si Si4 0.611908 0.039345 0.070384
Si Si5 0.024297 0.560975 0.274072
Si Si6 0.619951 0.435318 0.630786
Si Si7 0.883390 0.110536 0.906489
Si Si8 0.789116 0.366458 0.440001
O O1 0.503321 0.765857 0.716720
O O2 0.307407 0.706385 0.605282
O O3 0.317992 0.958928 0.543502
O O4 0.285325 0.619099 0.958823
O O5 0.265067 0.265377 0.322847
O O6 0.112681 0.448716 0.291971
O O7 0.341217 0.430867 0.377359
O O8 0.416447 0.072413 0.673849
O O9 0.607844 0.244409 0.898463
O O10 0.749101 0.999862 0.050509
O O11 0.500000 0.000000 0.000000
O O12 0.084639 0.762484 0.083041
O O13 0.000000 0.500000 0.500000
O O14 0.890735 0.527890 0.225464
O O15 0.500000 0.500000 0.500000
O O16 0.721062 0.441860 0.499261
O O17 0.868460 0.210945 0.654209
O O18 0.000000 0.000000 0.000000
#
# Coordination Sequence:
#
# PCOD8006895 Si02
#       8
#     2   2   2   2   2   2   2   2
#     4  11  24  46  62  94 141 168 220 276 330 406
#     4  12  22  43  67  93 129 178 221 263 342 392
#     4  11  24  40  70  91 134 181 213 270 342 397
#     4  11  21  38  61 100 132 163 225 277 324 388
#     4  10  20  40  65  90 128 164 220 271 327 385
#     4  11  21  38  65  99 130 166 219 283 328 388
#     4  10  21  38  65  97 133 170 214 277 338 386
#     4  10  22  42  62  96 132 166 220 280 317 400
#
# _framework density 20.992488000000002
#
# number of rings (size 3 to 8) (size 9 to 14) (size 15 to 20)
#    0.000    1.250    5.000    3.375    3.500    1.500 
#    2.250    0.625    0.000    0.000    0.000    0.000 
#    0.000    0.000    0.000    0.000    0.000    0.000 
#
# Total GULP energy -198261.517505 kJ/mol
# GULP energy per Si atom -12391.344844 kJ/mol
# Density = 2.094471 g / cm^3
# Si number density = 20.992488 Si / 1000 Ang^3
#
#
#
# Elastic Constant Matrix: (Units=GPa)
#
#
# Indices 1 2 3 4 5 6 
#
# 1 105.3813 22.6946 31.3736 -19.4756 -7.7701 -13.5563
# 2 22.6946 88.9818 13.2517 -14.9621 -5.3642 -7.5900
# 3 31.3736 13.2517 57.2310 0.3616 -9.8537 -13.3880
# 4 -19.4756 -14.9621 0.3616 26.5380 -4.1254 7.2085
# 5 -7.7701 -5.3642 -9.8537 -4.1254 32.4100 -3.2351
# 6 -13.5563 -7.5900 -13.3880 7.2085 -3.2351 45.5396
#
#
#
# Elastic Compliance Matrix: (Units=1/GPa)
#
#
# Indices 1 2 3 4 5 6 
#
# 1 0.013806 -0.000590 -0.006949 0.010127 0.002442 0.000539
# 2 -0.000590 0.013117 -0.002281 0.007253 0.002294 0.000355
# 3 -0.006949 -0.002281 0.024166 -0.007634 0.004952 0.006216
# 4 0.010127 0.007253 -0.007634 0.052007 0.007355 -0.005730
# 5 0.002442 0.002294 0.004952 0.007355 0.034647 0.003862
# 6 0.000539 0.000355 0.006216 -0.005730 0.003862 0.025187
#
#
# Mechanical properties :
#
#
# Convention : Reuss Voigt Hill
#
# Bulk Modulus (GPa) = 31.79952 42.91489 37.35720
# Shear Modulus (GPa) = 25.89931 33.18247 29.54089
#
# Velocity S-wave (km/s) = 3.51628 3.98009 3.75535
# Velocity P-wave (km/s) = 5.62730 6.45049 6.05291
#
# Compressibility (1/GPa) = 0.03144702
#
# Stress axis : x y z
#
# Youngs Moduli (GPa) = 72.42996 76.23822 41.38086
#
# Poissons Ratio (x) = 0.04500 0.28757
# Poissons Ratio (y) = 0.04275 0.09441
# Poissons Ratio (z) = 0.50334 0.17393
#
# Static dielectric constant tensor:
#      x y z
#    x 4.204410 0.057590 -0.144360 
#    y 0.057590 4.083430 -0.189470 
#    z -0.144360 -0.189470 3.671870 
# 
# 
# High freq. dielectric constant tensor:
#      x y z
#    x 1.830080 -0.002100 -0.015750 
#    y -0.002100 1.823230 -0.005910 
#    z -0.015750 -0.005910 1.803220 
# 
# From -- ./inp_files/255920.got.cif
#   From: 2010.06.25/outbox.cif.g09.slc.cpg/sg2_128_cif.got.tgz:255920.got - 2010.06.27 13:26:56.
