data_PCOD8006849
_publ_section_title
;
Structure prediction by ZEFSAII (Michael W. Deem and Ramdas Pophale) SiO2 
 PCOD8006849
Probable space group: P -1
;
_chemical_formula_sum "Si O2"
_cell_formula_units_Z 16
_cell_length_a 9.396090
_cell_length_b 5.211958
_cell_length_c 15.901645
_cell_angle_alpha 73.491794
_cell_angle_beta 80.165994
_cell_angle_gamma 103.274994
_cell_volume 703.052548
_symmetry_space_group_name_H-M "P -1"
_symmetry_group_IT_number 2
_symmetry_cell_setting 'triclinic'
loop_
_space_group_symop_operation_xyz
x,y,z
-x,-y,-z
loop_
_atom_site_type_symbol
_atom_site_label
_atom_site_fract_x
_atom_site_fract_y
_atom_site_fract_z
Si Si1 0.126616 0.402689 0.951523
Si Si2 0.023335 0.969387 0.136197
Si Si3 0.900463 0.187059 0.527266
Si Si4 0.147568 0.727646 0.294909
Si Si5 0.531419 0.354651 0.093653
Si Si6 0.544338 0.256426 0.797325
Si Si7 0.251218 0.065914 0.732190
Si Si8 0.181425 0.626132 0.639800
O O1 0.291844 0.619619 0.914474
O O2 0.129672 0.139883 0.035271
O O3 0.077256 0.322819 0.867859
O O4 0.000000 0.500000 0.000000
O O5 0.134819 0.934825 0.201236
O O6 0.890591 0.088155 0.177427
O O7 0.833423 0.095542 0.635782
O O8 0.773194 0.203433 0.469129
O O9 0.000000 0.500000 0.500000
O O10 0.000000 0.000000 0.500000
O O11 0.296025 0.625592 0.277458
O O12 0.001973 0.453291 0.330005
O O13 0.472801 0.499153 0.163557
O O14 0.450369 0.023290 0.127204
O O15 0.500000 0.500000 0.000000
O O16 0.409389 0.171618 0.752777
O O17 0.222162 0.334446 0.664409
O O18 0.263610 0.834735 0.685337
#
# Coordination Sequence:
#
# PCOD8006849 Si02
#       8
#     2   2   2   2   2   2   2   2
#     4  11  24  38  63  89 121 164 221 269 307 374
#     4  10  22  39  60  91 119 164 218 264 312 366
#     4  10  20  40  65 101 130 163 210 268 320 378
#     4  10  24  41  68  95 129 167 215 264 319 387
#     4  12  27  44  64  89 134 175 215 270 332 380
#     4  12  26  44  63  96 132 172 215 263 333 388
#     4  11  22  42  65  94 130 169 210 265 322 384
#     4  10  22  40  70  95 126 167 216 260 318 380
#
# _framework density 22.757901
#
# number of rings (size 3 to 8) (size 9 to 14) (size 15 to 20)
#    0.000    1.250    1.250    4.875    8.750    4.000 
#    0.000    1.250    0.000    0.000    0.000    0.000 
#    0.000    0.000    0.000    0.000    0.000    0.000 
#
# Total GULP energy -198313.906818 kJ/mol
# GULP energy per Si atom -12394.619176 kJ/mol
# Density = 2.270610 g / cm^3
# Si number density = 22.757901 Si / 1000 Ang^3
#
#
#
# Elastic Constant Matrix: (Units=GPa)
#
#
# Indices 1 2 3 4 5 6 
#
# 1 106.7367 -0.8815 26.3398 2.3798 -16.4036 -0.5605
# 2 -0.8815 67.6118 5.1068 9.0352 -6.0561 -18.6886
# 3 26.3398 5.1068 107.5157 16.9898 3.7463 -3.8715
# 4 2.3798 9.0352 16.9898 33.7130 -6.9194 -0.1437
# 5 -16.4036 -6.0561 3.7463 -6.9194 25.8870 5.5152
# 6 -0.5605 -18.6886 -3.8715 -0.1437 5.5152 31.3069
#
#
#
# Elastic Compliance Matrix: (Units=1/GPa)
#
#
# Indices 1 2 3 4 5 6 
#
# 1 0.011601 0.000437 -0.003672 0.002767 0.009058 -0.001569
# 2 0.000437 0.018527 0.000131 -0.004814 0.000986 0.010888
# 3 -0.003672 0.000131 0.011601 -0.006918 -0.006364 0.002537
# 4 0.002767 -0.004814 -0.006918 0.036824 0.012696 -0.005747
# 5 0.009058 0.000986 -0.006364 0.012696 0.050817 -0.008930
# 6 -0.001569 0.010888 0.002537 -0.005747 -0.008930 0.040274
#
#
# Mechanical properties :
#
#
# Convention : Reuss Voigt Hill
#
# Bulk Modulus (GPa) = 28.15298 38.11051 33.13175
# Shear Modulus (GPa) = 26.63931 34.93464 30.78698
#
# Velocity S-wave (km/s) = 3.42504 3.92223 3.68204
# Velocity P-wave (km/s) = 5.29516 6.10690 5.71546
#
# Compressibility (1/GPa) = 0.03552021
#
# Stress axis : x y z
#
# Youngs Moduli (GPa) = 86.20056 53.97470 86.20237
#
# Poissons Ratio (x) = -0.02356 0.31655
# Poissons Ratio (y) = -0.03763 -0.01133
# Poissons Ratio (z) = 0.31655 -0.00709
#
# Static dielectric constant tensor:
#      x y z
#    x 4.029650 -0.087240 0.456730 
#    y -0.087240 4.384340 -0.539840 
#    z 0.456730 -0.539840 5.151620 
# 
# 
# High freq. dielectric constant tensor:
#      x y z
#    x 1.889110 -0.011310 0.020110 
#    y -0.011310 1.893760 0.008490 
#    z 0.020110 0.008490 1.907570 
# 
# From -- ./inp_files/488417.got.cif
#   From: 2010.06.25/outbox.cif.g09.slc.cpg/sg2_245_cif.got.tgz:488417.got - 2010.06.27 13:26:56.
