data_PCOD8006563
_publ_section_title
;
Structure prediction by ZEFSAII (Michael W. Deem and Ramdas Pophale) SiO2 
 PCOD8006563
Probable space group: P -1
;
_chemical_formula_sum "Si O2"
_cell_formula_units_Z 16
_cell_length_a 9.640547
_cell_length_b 15.152913
_cell_length_c 12.092404
_cell_angle_alpha 129.169712
_cell_angle_beta 141.254867
_cell_angle_gamma 44.838137
_cell_volume 767.090130
_symmetry_space_group_name_H-M "P -1"
_symmetry_group_IT_number 2
_symmetry_cell_setting 'triclinic'
loop_
_space_group_symop_operation_xyz
x,y,z
-x,-y,-z
loop_
_atom_site_type_symbol
_atom_site_label
_atom_site_fract_x
_atom_site_fract_y
_atom_site_fract_z
Si Si1 0.097938 0.431831 0.261948
Si Si2 0.928531 0.028147 0.815135
Si Si3 0.787983 0.062073 0.508309
Si Si4 0.279886 0.442273 0.164482
Si Si5 0.288680 0.674677 0.061710
Si Si6 0.542084 0.360115 0.621165
Si Si7 0.360525 0.330660 0.900883
Si Si8 0.396955 0.959305 0.186308
O O1 0.300468 0.373992 0.241782
O O2 0.251737 0.411936 0.454211
O O3 0.923166 0.579513 0.240298
O O4 0.943770 0.353370 0.116654
O O5 0.898896 0.998600 0.645930
O O6 0.818059 0.175920 0.885295
O O7 0.770459 0.980153 0.759571
O O8 0.217827 0.964083 0.977270
O O9 0.702442 0.212363 0.574108
O O10 0.551110 0.037121 0.314275
O O11 0.000000 0.000000 0.500000
O O12 0.357540 0.555463 0.318069
O O13 0.428284 0.343093 0.080878
O O14 0.000000 0.500000 0.000000
O O15 0.441736 0.613464 0.218987
O O16 0.472567 0.620951 0.029751
O O17 0.409111 0.187826 0.791528
#
# Coordination Sequence:
#
# PCOD8006563 Si02
#       8
#     2   2   2   2   2   2   2   2
#     4  11  22  37  62  84 120 159 191 236 293 351
#     4   9  21  41  65  85 115 164 193 242 298 347
#     4  11  25  38  62  91 121 151 198 251 288 350
#     4  10  21  39  60  81 118 160 189 238 292 348
#     4  10  20  40  61  88 121 147 198 245 289 344
#     4  11  23  40  61  86 118 158 197 234 298 347
#     4  10  22  38  62  90 119 153 193 246 286 347
#     4  10  21  42  63  87 120 154 201 240 295 349
#
# _framework density 20.858045000000001
#
# number of rings (size 3 to 8) (size 9 to 14) (size 15 to 20)
#    0.000    1.750    2.500    1.875    3.500    2.000 
#    2.250    0.000    0.000    0.000    0.000    0.000 
#    0.000    0.000    0.000    0.000    0.000    0.000 
#
# Total GULP energy -198376.950556 kJ/mol
# GULP energy per Si atom -12398.559410 kJ/mol
# Density = 2.081057 g / cm^3
# Si number density = 20.858045 Si / 1000 Ang^3
#
#
#
# Elastic Constant Matrix: (Units=GPa)
#
#
# Indices 1 2 3 4 5 6 
#
# 1 136.2552 8.0576 54.2677 1.6964 12.1110 -7.5383
# 2 8.0576 13.1915 15.8239 -10.8967 6.3460 -10.0743
# 3 54.2677 15.8239 123.7231 -10.5187 19.9340 -5.1048
# 4 1.6964 -10.8967 -10.5187 34.7620 5.4859 -0.1316
# 5 12.1110 6.3460 19.9340 5.4859 23.3845 6.7215
# 6 -7.5383 -10.0743 -5.1048 -0.1316 6.7215 22.2445
#
#
#
# Elastic Compliance Matrix: (Units=1/GPa)
#
#
# Indices 1 2 3 4 5 6 
#
# 1 0.008950 -0.014889 -0.003944 -0.007329 0.006380 -0.006586
# 2 -0.014889 -1.041055 -0.020903 -0.429125 0.599905 -0.665136
# 3 -0.003944 -0.020903 0.011764 -0.002956 0.000783 -0.008358
# 4 -0.007329 -0.429125 -0.002956 -0.144223 0.233940 -0.269050
# 5 0.006380 0.599905 0.000783 0.233940 -0.282601 0.360809
# 6 -0.006586 -0.665136 -0.008358 -0.269050 0.360809 -0.371045
#
#
# Mechanical properties :
#
#
# Convention : Reuss Voigt Hill
#
# Bulk Modulus (GPa) = -0.90924 47.71869 23.40472
# Shear Modulus (GPa) = -2.37491 29.07957 13.35233
#
# Velocity S-wave (km/s) = -1.06821 3.73790 2.53287
# Velocity P-wave (km/s) = 1.39939 6.44645 4.44963
#
# Compressibility (1/GPa) = -1.09981448
#
# Stress axis : x y z
#
# Youngs Moduli (GPa) = 111.72701 -0.96056 85.00655
#
# Poissons Ratio (x) = -0.01430 0.33530
# Poissons Ratio (y) = 1.66354 1.77691
# Poissons Ratio (z) = 0.44069 -0.02008
#
# Static dielectric constant tensor:
#      x y z
#    x 3.869120 0.100270 -0.302800 
#    y 0.100270 3.672990 -0.066220 
#    z -0.302800 -0.066220 3.785900 
# 
# 
# High freq. dielectric constant tensor:
#      x y z
#    x 1.826190 0.009660 0.001570 
#    y 0.009660 1.807020 -0.000630 
#    z 0.001570 -0.000630 1.813520 
# 
# From -- ./inp_files/344940.got.cif
#   From: 2010.06.25/outbox.cif.g09.slc.cpg/sg2_173_cif.got.tgz:344940.got - 2010.06.27 13:26:56.
