data_PCOD8006490
_publ_section_title
;
Structure prediction by ZEFSAII (Michael W. Deem and Ramdas Pophale) SiO2 
 PCOD8006490
Probable space group: P -1
;
_chemical_formula_sum "Si O2"
_cell_formula_units_Z 12
_cell_length_a 8.615830
_cell_length_b 8.556442
_cell_length_c 16.305314
_cell_angle_alpha 41.541980
_cell_angle_beta 52.064258
_cell_angle_gamma 48.950028
_cell_volume 582.625621
_symmetry_space_group_name_H-M "P -1"
_symmetry_group_IT_number 2
_symmetry_cell_setting 'triclinic'
loop_
_space_group_symop_operation_xyz
x,y,z
-x,-y,-z
loop_
_atom_site_type_symbol
_atom_site_label
_atom_site_fract_x
_atom_site_fract_y
_atom_site_fract_z
Si Si1 0.992995 0.985533 0.768557
Si Si2 0.197068 0.493456 0.311168
Si Si3 0.842357 0.825043 0.033220
Si Si4 0.360912 0.583434 0.733879
Si Si5 0.908149 0.991705 0.444797
Si Si6 0.271405 0.645473 0.055111
O O1 0.999027 0.245189 0.704434
O O2 0.925716 0.024150 0.677940
O O3 0.231668 0.768051 0.778196
O O4 0.838863 0.891557 0.910982
O O5 0.391682 0.512589 0.292121
O O6 0.153364 0.251495 0.449333
O O7 0.238904 0.480135 0.205957
O O8 0.701540 0.660438 0.158836
O O9 0.087024 0.672473 0.039114
O O10 0.739950 0.079694 0.019446
O O11 0.299946 0.749804 0.603747
O O12 0.000000 0.000000 0.500000
O O13 0.500000 0.500000 0.000000
#
# Coordination Sequence:
#
# PCOD8006490 Si02
#       6
#     2   2   2   2   2   2
#     4   9  22  36  67  81 120 157 189 247 287 347
#     4  11  21  41  60  89 116 157 201 231 296 354
#     4  10  20  40  57  94 118 152 197 236 300 343
#     4  10  22  36  63  85 120 152 196 242 287 354
#     4  10  22  41  60  85 118 158 195 246 291 339
#     4  10  22  36  63  88 123 153 191 248 288 348
#
# _framework density 20.596416999999999
#
# number of rings (size 3 to 8) (size 9 to 14) (size 15 to 20)
#    1.000    1.000    0.000    3.500    0.000    4.000 
#    0.000    0.833    0.000    0.000    0.000    0.000 
#    0.000    0.000    0.000    0.000    0.000    0.000 
#
# Total GULP energy -148695.989622 kJ/mol
# GULP energy per Si atom -12391.332468 kJ/mol
# Density = 2.054954 g / cm^3
# Si number density = 20.596417 Si / 1000 Ang^3
#
#
#
# Elastic Constant Matrix: (Units=GPa)
#
#
# Indices 1 2 3 4 5 6 
#
# 1 99.1080 32.8175 47.5359 -1.4450 2.1703 8.5145
# 2 32.8175 78.8370 31.1278 4.1092 -1.2078 -1.1852
# 3 47.5359 31.1278 105.5955 -25.7930 11.6022 14.7582
# 4 -1.4450 4.1092 -25.7930 35.9776 12.6587 5.1185
# 5 2.1703 -1.2078 11.6022 12.6587 39.0729 2.8040
# 6 8.5145 -1.1852 14.7582 5.1185 2.8040 24.1264
#
#
#
# Elastic Compliance Matrix: (Units=1/GPa)
#
#
# Indices 1 2 3 4 5 6 
#
# 1 0.014366 -0.002751 -0.007337 -0.005457 0.003057 0.000085
# 2 -0.002751 0.018475 -0.009440 -0.012808 0.006991 0.009558
# 3 -0.007337 -0.009440 0.026653 0.027965 -0.015545 -0.018304
# 4 -0.005457 -0.012808 0.027965 0.062158 -0.026676 -0.025897
# 5 0.003057 0.006991 -0.015545 -0.026676 0.038180 0.009995
# 6 0.000085 0.009558 -0.018304 -0.025897 0.009995 0.057417
#
#
# Mechanical properties :
#
#
# Convention : Reuss Voigt Hill
#
# Bulk Modulus (GPa) = 48.92826 56.27809 52.60317
# Shear Modulus (GPa) = 19.00286 31.30601 25.15444
#
# Velocity S-wave (km/s) = 3.04078 3.90291 3.49850
# Velocity P-wave (km/s) = 6.01130 6.90607 6.47416
#
# Compressibility (1/GPa) = 0.02043809
#
# Stress axis : x y z
#
# Youngs Moduli (GPa) = 69.60808 54.12672 37.51921
#
# Poissons Ratio (x) = 0.14888 0.27528
# Poissons Ratio (y) = 0.19147 0.35419
# Poissons Ratio (z) = 0.51072 0.51097
#
# Static dielectric constant tensor:
#      x y z
#    x 3.504950 0.047350 0.228330 
#    y 0.047350 3.787910 -0.240620 
#    z 0.228330 -0.240620 3.905900 
# 
# 
# High freq. dielectric constant tensor:
#      x y z
#    x 1.777350 0.005070 0.020100 
#    y 0.005070 1.807690 -0.016460 
#    z 0.020100 -0.016460 1.816870 
# 
# From -- ./inp_files/157437.got.cif
#   From: 2010.06.25/outbox.cif.g09.slc.cpg/sg2_79_cif.got.tgz:157437.got - 2010.06.27 13:26:56.
