data_PCOD8006079
_publ_section_title
;
Structure prediction by ZEFSAII (Michael W. Deem and Ramdas Pophale) SiO2 
 PCOD8006079
Probable space group: P -1
;
_chemical_formula_sum "Si O2"
_cell_formula_units_Z 16
_cell_length_a 8.728251
_cell_length_b 14.441184
_cell_length_c 9.059509
_cell_angle_alpha 123.384888
_cell_angle_beta 82.676477
_cell_angle_gamma 58.370829
_cell_volume 658.342950
_symmetry_space_group_name_H-M "P -1"
_symmetry_group_IT_number 2
_symmetry_cell_setting 'triclinic'
loop_
_space_group_symop_operation_xyz
x,y,z
-x,-y,-z
loop_
_atom_site_type_symbol
_atom_site_label
_atom_site_fract_x
_atom_site_fract_y
_atom_site_fract_z
Si Si1 0.658761 0.233177 0.175263
Si Si2 0.350514 0.568960 0.853182
Si Si3 0.473304 0.952249 0.673941
Si Si4 0.988568 0.431045 0.215194
Si Si5 0.726083 0.731364 0.702289
Si Si6 0.624968 0.766895 0.208982
Si Si7 0.688917 0.268577 0.739516
Si Si8 0.877930 0.047750 0.269412
O O1 0.593853 0.388448 0.261924
O O2 0.444155 0.268636 0.205554
O O3 0.721768 0.200828 0.312494
O O4 0.870010 0.079526 0.924113
O O5 0.217773 0.532147 0.782217
O O6 0.572672 0.415425 0.772044
O O7 0.210081 0.716161 0.119371
O O8 0.590352 0.893075 0.768303
O O9 0.623250 0.799178 0.410880
O O10 0.227263 0.022678 0.772702
O O11 0.470853 0.079498 0.734903
O O12 0.903645 0.584575 0.441143
O O13 0.142507 0.283842 0.187007
O O14 0.129434 0.388445 0.014922
O O15 0.481087 0.731612 0.168424
O O16 0.876638 0.106915 0.482111
#
# Coordination Sequence:
#
# PCOD8006079 Si02
#       8
#     2   2   2   2   2   2   2   2
#     4  10  20  39  65  90 123 161 199 249 307 358
#     4  11  23  40  62  89 125 162 202 250 303 363
#     4   9  19  38  65  95 123 156 202 253 305 360
#     4  11  23  40  62  89 125 162 202 250 303 363
#     4  10  23  41  62  91 124 159 203 253 303 362
#     4  10  20  39  65  90 123 161 199 249 307 358
#     4  10  23  41  62  91 124 159 203 253 303 362
#     4   9  19  38  65  95 123 156 202 253 305 360
#
# _framework density 24.303443000000001
#
# number of rings (size 3 to 8) (size 9 to 14) (size 15 to 20)
#    0.000    2.000    0.000    3.750    0.000    5.000 
#    0.000    8.750    0.000    0.000    0.000    0.000 
#    0.000    0.000    0.000    0.000    0.000    0.000 
#
# Total GULP energy -198384.708854 kJ/mol
# GULP energy per Si atom -12399.044303 kJ/mol
# Density = 2.424813 g / cm^3
# Si number density = 24.303443 Si / 1000 Ang^3
#
#
#
# Elastic Constant Matrix: (Units=GPa)
#
#
# Indices 1 2 3 4 5 6 
#
# 1 41.8751 16.0574 17.0151 -7.6472 -2.7338 2.7454
# 2 16.0574 71.2474 -5.6840 -16.8998 -6.1390 7.7310
# 3 17.0151 -5.6840 75.3563 -14.9216 -8.0846 5.3179
# 4 -7.6472 -16.8998 -14.9216 23.9399 -2.2668 1.9076
# 5 -2.7338 -6.1390 -8.0846 -2.2668 42.7245 -7.9260
# 6 2.7454 7.7310 5.3179 1.9076 -7.9260 41.8171
#
#
#
# Elastic Compliance Matrix: (Units=1/GPa)
#
#
# Indices 1 2 3 4 5 6 
#
# 1 0.029616 -0.007474 -0.007436 -0.000528 -0.000558 0.000301
# 2 -0.007474 0.021557 0.007730 0.018408 0.004221 -0.004518
# 3 -0.007436 0.007730 0.019390 0.015858 0.004539 -0.003270
# 4 -0.000528 0.018408 0.015858 0.065772 0.007821 -0.006903
# 5 -0.000558 0.004221 0.004539 0.007821 0.025848 0.003222
# 6 0.000301 -0.004518 -0.003270 -0.006903 0.003222 0.026070
#
#
# Mechanical properties :
#
#
# Convention : Reuss Voigt Hill
#
# Bulk Modulus (GPa) = 17.79280 27.02842 22.41061
# Shear Modulus (GPa) = 22.58891 32.43564 27.51227
#
# Velocity S-wave (km/s) = 3.05200 3.65720 3.36822
# Velocity P-wave (km/s) = 4.44484 5.38320 4.93637
#
# Compressibility (1/GPa) = 0.05620250
#
# Stress axis : x y z
#
# Youngs Moduli (GPa) = 33.76607 46.38876 51.57235
#
# Poissons Ratio (x) = 0.34670 0.38352
# Poissons Ratio (y) = 0.25236 -0.39867
# Poissons Ratio (z) = 0.25110 -0.35860
#
# Static dielectric constant tensor:
#      x y z
#    x 4.021250 -0.008200 0.009790 
#    y -0.008200 4.560770 -0.316400 
#    z 0.009790 -0.316400 4.600600 
# 
# 
# High freq. dielectric constant tensor:
#      x y z
#    x 1.936610 -0.000780 0.000940 
#    y -0.000780 1.977190 -0.015340 
#    z 0.000940 -0.015340 1.979080 
# 
# From -- ./inp_files/208683.got.cif
#   From: 2010.06.25/outbox.cif.g09.slc.cpg/sg2_105_cif.got.tgz:208683.got - 2010.06.27 13:26:56.
