data_PCOD8006732
_publ_section_title
;
Structure prediction by ZEFSAII (Michael W. Deem and Ramdas Pophale) SiO2 
 PCOD8006732
Probable space group: P -1
;
_chemical_formula_sum "Si O2"
_cell_formula_units_Z 14
_cell_length_a 12.287794
_cell_length_b 14.500099
_cell_length_c 11.138115
_cell_angle_alpha 79.650687
_cell_angle_beta 78.893024
_cell_angle_gamma 19.429217
_cell_volume 647.759216
_symmetry_space_group_name_H-M "P -1"
_symmetry_group_IT_number 2
_symmetry_cell_setting 'triclinic'
loop_
_space_group_symop_operation_xyz
x,y,z
-x,-y,-z
loop_
_atom_site_type_symbol
_atom_site_label
_atom_site_fract_x
_atom_site_fract_y
_atom_site_fract_z
Si Si1 0.786444 0.310145 0.564900
Si Si2 0.930336 0.463269 0.251865
Si Si3 0.279520 0.725213 0.157016
Si Si4 0.495128 0.268809 0.499707
Si Si5 0.013818 0.847351 0.953597
Si Si6 0.325296 0.226537 0.423356
Si Si7 0.392883 0.992690 0.093872
O O1 0.500000 0.500000 0.500000
O O2 0.809763 0.237769 0.701339
O O3 0.708927 0.481194 0.566777
O O4 0.120373 0.020935 0.488302
O O5 0.680241 0.620998 0.365707
O O6 0.228905 0.284287 0.292046
O O7 0.109924 0.237617 0.194559
O O8 0.727080 0.690510 0.153197
O O9 0.666623 0.425994 0.129064
O O10 0.112414 0.785659 0.085391
O O11 0.147539 0.933900 0.121063
O O12 0.519626 0.168964 0.413746
O O13 0.758150 0.964457 0.974468
O O14 0.000000 0.500000 0.500000
O O15 0.500000 0.000000 0.500000
O O16 0.500000 0.000000 0.000000
#
# Coordination Sequence:
#
# PCOD8006732 Si02
#       7
#     2   2   2   2   2   2   2
#     4  12  26  40  64 104 136 164 225 280 333 394
#     4  11  24  42  67  95 134 176 212 274 334 410
#     4  10  23  44  67  95 129 178 226 272 326 390
#     4  11  24  42  64  95 132 183 209 262 346 391
#     4  10  23  44  69  91 129 180 225 268 332 399
#     4  10  20  40  63  92 126 168 226 251 313 417
#     4  12  26  42  66 101 129 169 227 285 345 385
#
# _framework density 21.612967999999999
#
# number of rings (size 3 to 8) (size 9 to 14) (size 15 to 20)
#    0.000    1.143    0.000    6.857    6.000    2.286 
#    0.000    0.000    0.000    0.000    0.000    0.000 
#    0.000    0.000    0.000    0.000    0.000    0.000 
#
# Total GULP energy -173589.409115 kJ/mol
# GULP energy per Si atom -12399.243508 kJ/mol
# Density = 2.156378 g / cm^3
# Si number density = 21.612968 Si / 1000 Ang^3
#
#
#
# Elastic Constant Matrix: (Units=GPa)
#
#
# Indices 1 2 3 4 5 6 
#
# 1 95.6657 13.5652 27.3699 0.7120 8.0793 -16.1927
# 2 13.5652 122.9269 17.7749 -4.5396 4.8048 4.3701
# 3 27.3699 17.7749 81.4515 -8.3450 6.7751 -20.0622
# 4 0.7120 -4.5396 -8.3450 43.0890 1.0129 3.0321
# 5 8.0793 4.8048 6.7751 1.0129 27.0409 -0.3532
# 6 -16.1927 4.3701 -20.0622 3.0321 -0.3532 37.6256
#
#
#
# Elastic Compliance Matrix: (Units=1/GPa)
#
#
# Indices 1 2 3 4 5 6 
#
# 1 0.012314 -0.001027 -0.002820 -0.001074 -0.002698 0.003976
# 2 -0.001027 0.008696 -0.002056 0.000737 -0.000785 -0.002615
# 3 -0.002820 -0.002056 0.015959 0.002472 -0.002788 0.007309
# 4 -0.001074 0.000737 0.002472 0.023896 -0.001340 -0.001168
# 5 -0.002698 -0.000785 -0.002788 -0.001340 0.038648 -0.002086
# 6 0.003976 -0.002615 0.007309 -0.001168 -0.002086 0.032565
#
#
# Mechanical properties :
#
#
# Convention : Reuss Voigt Hill
#
# Bulk Modulus (GPa) = 39.73904 46.38488 43.06196
# Shear Modulus (GPa) = 32.83599 37.64003 35.23801
#
# Velocity S-wave (km/s) = 3.90201 4.17771 4.04221
# Velocity P-wave (km/s) = 6.22314 6.69173 6.46169
#
# Compressibility (1/GPa) = 0.02516417
#
# Stress axis : x y z
#
# Youngs Moduli (GPa) = 81.20563 114.99019 62.66043
#
# Poissons Ratio (x) = 0.11806 0.17671
# Poissons Ratio (y) = 0.08337 0.12883
# Poissons Ratio (z) = 0.22901 0.23642
#
# Static dielectric constant tensor:
#      x y z
#    x 3.748460 -0.294950 0.342710 
#    y -0.294950 5.326800 -0.891740 
#    z 0.342710 -0.891740 4.229550 
# 
# 
# High freq. dielectric constant tensor:
#      x y z
#    x 1.860620 0.005590 0.007620 
#    y 0.005590 1.875840 -0.009480 
#    z 0.007620 -0.009480 1.833430 
# 
# From -- ./inp_files/432811.got.cif
#   From: 2010.06.25/outbox.cif.g09.slc.cpg/sg2_217_cif.got.tgz:432811.got - 2010.06.27 13:26:56.
