data_PCOD8006186
_publ_section_title
;
Structure prediction by ZEFSAII (Michael W. Deem and Ramdas Pophale) SiO2 
 PCOD8006186
Probable space group: P -1
;
_chemical_formula_sum "Si O2"
_cell_formula_units_Z 16
_cell_length_a 18.055276
_cell_length_b 8.938930
_cell_length_c 8.634515
_cell_angle_alpha 48.884666
_cell_angle_beta 67.081195
_cell_angle_gamma 97.134237
_cell_volume 808.879316
_symmetry_space_group_name_H-M "P -1"
_symmetry_group_IT_number 2
_symmetry_cell_setting 'triclinic'
loop_
_space_group_symop_operation_xyz
x,y,z
-x,-y,-z
loop_
_atom_site_type_symbol
_atom_site_label
_atom_site_fract_x
_atom_site_fract_y
_atom_site_fract_z
Si Si1 0.970756 0.182068 0.360351
Si Si2 0.697171 0.154296 0.212512
Si Si3 0.869460 0.277707 0.142701
Si Si4 0.430151 0.626965 0.358564
Si Si5 0.533221 0.658417 0.715422
Si Si6 0.660048 0.500153 0.159146
Si Si7 0.775277 0.048050 0.668914
Si Si8 0.372009 0.936452 0.014965
O O1 0.931918 0.167134 0.222299
O O2 0.882415 0.122908 0.587265
O O3 0.000000 0.000000 0.500000
O O4 0.061529 0.444173 0.134424
O O5 0.799104 0.168055 0.124474
O O6 0.718243 0.387513 0.128402
O O7 0.615373 0.919610 0.527778
O O8 0.658739 0.143167 0.080536
O O9 0.791816 0.206705 0.394462
O O10 0.423048 0.422377 0.398886
O O11 0.351032 0.507995 0.639864
O O12 0.539148 0.788693 0.228085
O O13 0.406294 0.777704 0.165971
O O14 0.444892 0.663409 0.717882
O O15 0.500000 0.500000 0.000000
O O16 0.712862 0.767972 0.872417
O O17 0.723225 0.110774 0.794460
#
# Coordination Sequence:
#
# PCOD8006186 Si02
#       8
#     2   2   2   2   2   2   2   2
#     4   9  19  40  69  93 118 157 206 259 317 383
#     4  12  24  38  58  93 125 160 211 263 310 362
#     4   9  21  39  64  93 121 152 206 259 313 376
#     4  11  24  40  57  82 130 174 218 246 299 367
#     4  12  24  37  56  85 124 165 211 261 306 360
#     4  12  22  37  61  88 123 171 213 252 304 366
#     4  10  20  39  66  90 116 165 209 249 312 378
#     4  11  23  39  59  86 125 171 208 258 303 363
#
# _framework density 19.780453999999999
#
# number of rings (size 3 to 8) (size 9 to 14) (size 15 to 20)
#    0.750    0.500    2.500    4.500    3.500    0.000 
#    0.000    0.625    0.000    0.750    0.000    0.000 
#    0.000    0.000    0.000    0.000    0.000    0.000 
#
# Total GULP energy -198242.328288 kJ/mol
# GULP energy per Si atom -12390.145518 kJ/mol
# Density = 1.973543 g / cm^3
# Si number density = 19.780454 Si / 1000 Ang^3
#
#
#
# Elastic Constant Matrix: (Units=GPa)
#
#
# Indices 1 2 3 4 5 6 
#
# 1 125.0592 28.1166 39.6426 -5.1909 -0.4866 9.5617
# 2 28.1166 66.1653 23.0221 5.3950 -0.8907 -2.9097
# 3 39.6426 23.0221 94.8103 -10.1948 -10.5822 3.8940
# 4 -5.1909 5.3950 -10.1948 28.9351 1.5472 0.1681
# 5 -0.4866 -0.8907 -10.5822 1.5472 33.5910 -0.8400
# 6 9.5617 -2.9097 3.8940 0.1681 -0.8400 30.7551
#
#
#
# Elastic Compliance Matrix: (Units=1/GPa)
#
#
# Indices 1 2 3 4 5 6 
#
# 1 0.010079 -0.003422 -0.003231 0.001385 -0.001103 -0.003086
# 2 -0.003422 0.018478 -0.003821 -0.005402 -0.000432 0.003314
# 3 -0.003231 -0.003821 0.013826 0.004798 0.003961 -0.001026
# 4 0.001385 -0.005402 0.004798 0.037537 -0.000385 -0.001765
# 5 -0.001103 -0.000432 0.003961 -0.000385 0.031024 0.000650
# 6 -0.003086 0.003314 -0.001026 -0.001765 0.000650 0.033945
#
#
# Mechanical properties :
#
#
# Convention : Reuss Voigt Hill
#
# Bulk Modulus (GPa) = 46.65294 51.95526 49.30410
# Shear Modulus (GPa) = 28.90467 31.67316 30.28892
#
# Velocity S-wave (km/s) = 3.82681 4.00588 3.91737
# Velocity P-wave (km/s) = 6.56982 6.90790 6.74098
#
# Compressibility (1/GPa) = 0.02143488
#
# Stress axis : x y z
#
# Youngs Moduli (GPa) = 99.21741 54.11893 72.32620
#
# Poissons Ratio (x) = 0.18521 0.23367
# Poissons Ratio (y) = 0.33955 0.27636
# Poissons Ratio (z) = 0.32054 0.20679
#
# Static dielectric constant tensor:
#      x y z
#    x 3.887930 0.056560 -0.021160 
#    y 0.056560 3.379320 -0.039210 
#    z -0.021160 -0.039210 3.750750 
# 
# 
# High freq. dielectric constant tensor:
#      x y z
#    x 1.785230 0.000420 0.009140 
#    y 0.000420 1.730770 -0.008610 
#    z 0.009140 -0.008610 1.784440 
# 
# From -- ./inp_files/312253.got.cif
#   From: 2010.06.25/outbox.cif.g09.slc.cpg/sg2_157_cif.got.tgz:312253.got - 2010.06.27 13:26:56.
