data_PCOD8006430
_publ_section_title
;
Structure prediction by ZEFSAII (Michael W. Deem and Ramdas Pophale) SiO2 
 PCOD8006430
Probable space group: P -1
;
_chemical_formula_sum "Si O2"
_cell_formula_units_Z 14
_cell_length_a 18.759705
_cell_length_b 9.082660
_cell_length_c 16.759077
_cell_angle_alpha 143.350547
_cell_angle_beta 23.821636
_cell_angle_gamma 128.968850
_cell_volume 619.645083
_symmetry_space_group_name_H-M "P -1"
_symmetry_group_IT_number 2
_symmetry_cell_setting 'triclinic'
loop_
_space_group_symop_operation_xyz
x,y,z
-x,-y,-z
loop_
_atom_site_type_symbol
_atom_site_label
_atom_site_fract_x
_atom_site_fract_y
_atom_site_fract_z
Si Si1 0.296723 0.215053 0.338621
Si Si2 0.961937 0.192169 0.199574
Si Si3 0.655586 0.600796 0.457064
Si Si4 0.315246 0.919267 0.446038
Si Si5 0.773140 0.144797 0.030493
Si Si6 0.851368 0.112272 0.557530
Si Si7 0.255287 0.300654 0.043072
O O1 0.186991 0.484485 0.515043
O O2 0.300896 0.337175 0.473250
O O3 0.186176 0.024253 0.383884
O O4 0.500000 0.000000 0.000000
O O5 0.867829 0.081421 0.317867
O O6 0.172225 0.186117 0.005027
O O7 0.000000 0.000000 0.000000
O O8 0.789239 0.283130 0.158829
O O9 0.430112 0.650250 0.711881
O O10 0.702713 0.776168 0.416896
O O11 0.314192 0.800898 0.305914
O O12 0.516195 0.753440 0.218839
O O13 0.773390 0.849443 0.914103
O O14 0.946801 0.117898 0.783500
O O15 0.877101 0.376823 0.673940
#
# Coordination Sequence:
#
# PCOD8006430 Si02
#       7
#     2   2   2   2   2   2   2
#     4  11  26  44  63  96 141 179 217 275 338 400
#     4  12  27  44  68  99 138 181 223 273 336 406
#     4   9  22  42  68  95 132 171 226 276 328 392
#     4  10  23  43  70  95 131 172 226 279 333 388
#     4  10  20  39  70 102 122 171 229 281 324 388
#     4  11  23  41  72  96 131 175 228 274 329 401
#     4  11  23  42  67 101 133 170 224 280 333 394
#
# _framework density 22.593577
#
# number of rings (size 3 to 8) (size 9 to 14) (size 15 to 20)
#    0.000    1.429    1.429    2.571    4.000    3.429 
#    2.571    0.000    0.000    0.000    0.000    0.000 
#    0.000    0.000    0.000    0.000    0.000    0.000 
#
# Total GULP energy -173475.713419 kJ/mol
# GULP energy per Si atom -12391.122387 kJ/mol
# Density = 2.254215 g / cm^3
# Si number density = 22.593577 Si / 1000 Ang^3
#
#
#
# Elastic Constant Matrix: (Units=GPa)
#
#
# Indices 1 2 3 4 5 6 
#
# 1 57.3479 33.0397 10.7178 -8.4172 -9.0704 15.8171
# 2 33.0397 114.7445 61.3323 -1.1267 9.4461 5.7318
# 3 10.7178 61.3323 104.4000 -6.1789 -4.2679 6.1665
# 4 -8.4172 -1.1267 -6.1789 34.9041 0.6638 1.6869
# 5 -9.0704 9.4461 -4.2679 0.6638 31.9805 -2.8938
# 6 15.8171 5.7318 6.1665 1.6869 -2.8938 39.5818
#
#
#
# Elastic Compliance Matrix: (Units=1/GPa)
#
#
# Indices 1 2 3 4 5 6 
#
# 1 0.028751 -0.011437 0.005285 0.007779 0.011156 -0.010172
# 2 -0.011437 0.018093 -0.010260 -0.003953 -0.009602 0.003015
# 3 0.005285 -0.010260 0.015706 0.003738 0.006297 -0.002772
# 4 0.007779 -0.003953 0.003738 0.031211 0.002841 -0.004241
# 5 0.011156 -0.009602 0.006297 0.002841 0.037924 -0.001397
# 6 -0.010172 0.003015 -0.002772 -0.004241 -0.001397 0.029403
#
#
# Mechanical properties :
#
#
# Convention : Reuss Voigt Hill
#
# Bulk Modulus (GPa) = 33.64130 54.07465 43.85798
# Shear Modulus (GPa) = 24.53135 32.72014 28.62574
#
# Velocity S-wave (km/s) = 3.29867 3.80966 3.56334
# Velocity P-wave (km/s) = 5.42498 6.58308 6.03189
#
# Compressibility (1/GPa) = 0.02972537
#
# Stress axis : x y z
#
# Youngs Moduli (GPa) = 34.78163 55.26901 63.67089
#
# Poissons Ratio (x) = 0.63212 -0.33649
# Poissons Ratio (y) = 0.39780 0.65325
# Poissons Ratio (z) = -0.18381 0.56705
#
# Static dielectric constant tensor:
#      x y z
#    x 4.039430 0.107980 -0.201350 
#    y 0.107980 4.539140 0.124030 
#    z -0.201350 0.124030 3.963140 
# 
# 
# High freq. dielectric constant tensor:
#      x y z
#    x 1.878350 0.016160 -0.011830 
#    y 0.016160 1.905560 0.007880 
#    z -0.011830 0.007880 1.887060 
# 
# From -- ./inp_files/577459.got.cif
#   From: 2010.06.25/outbox.cif.g09.slc.cpg/sg2_289_cif.got.tgz:577459.got - 2010.06.27 13:26:56.
