data_PCOD8006368
_publ_section_title
;
Structure prediction by ZEFSAII (Michael W. Deem and Ramdas Pophale) SiO2 
 PCOD8006368
Probable space group: P -1
;
_chemical_formula_sum "Si O2"
_cell_formula_units_Z 16
_cell_length_a 9.150996
_cell_length_b 14.857853
_cell_length_c 15.662489
_cell_angle_alpha 153.740805
_cell_angle_beta 90.144212
_cell_angle_gamma 71.513415
_cell_volume 661.975617
_symmetry_space_group_name_H-M "P -1"
_symmetry_group_IT_number 2
_symmetry_cell_setting 'triclinic'
loop_
_space_group_symop_operation_xyz
x,y,z
-x,-y,-z
loop_
_atom_site_type_symbol
_atom_site_label
_atom_site_fract_x
_atom_site_fract_y
_atom_site_fract_z
Si Si1 0.886981 0.488315 0.270534
Si Si2 0.662016 0.051032 0.912715
Si Si3 0.533376 0.030893 0.399729
Si Si4 0.332052 0.057321 0.860354
Si Si5 0.315102 0.618935 0.491780
Si Si6 0.605893 0.572860 0.113389
Si Si7 0.064949 0.713602 0.723031
Si Si8 0.105315 0.910808 0.175892
O O1 0.703410 0.789187 0.476714
O O2 0.848496 0.519124 0.399019
O O3 0.888845 0.251977 0.041280
O O4 0.107203 0.377434 0.155767
O O5 0.530695 0.343582 0.215441
O O6 0.514085 0.007165 0.858625
O O7 0.738375 0.062713 0.830374
O O8 0.863792 0.797646 0.754272
O O9 0.531614 0.217329 0.626936
O O10 0.662434 0.969291 0.265096
O O11 0.644510 0.724992 0.180848
O O12 0.347431 0.816582 0.694305
O O13 0.248275 0.549151 0.513479
O O14 0.133678 0.780918 0.556405
O O15 0.500000 0.500000 0.000000
O O16 0.824631 0.265392 0.885994
O O17 0.000000 0.000000 0.000000
#
# Coordination Sequence:
#
# PCOD8006368 Si02
#       8
#     2   2   2   2   2   2   2   2
#     4  10  21  42  63  88 132 169 209 259 315 370
#     4  11  23  38  63  96 125 165 219 257 306 371
#     4  10  23  41  65  91 126 170 200 256 329 365
#     4  11  23  39  63  94 125 162 216 264 301 373
#     4  10  22  41  65  88 127 174 206 255 326 361
#     4  10  20  39  68  95 122 161 209 255 312 386
#     4  11  21  42  63  92 130 173 212 260 309 373
#     4   9  19  40  61  88 128 164 204 256 316 378
#
# _framework density 24.170076000000002
#
# number of rings (size 3 to 8) (size 9 to 14) (size 15 to 20)
#    0.000    1.750    3.750    2.250    0.000    5.000 
#    0.000   12.500    0.000   14.250    0.000    0.000 
#    0.000    0.000    0.000    0.000    0.000    0.000 
#
# Total GULP energy -198388.392795 kJ/mol
# GULP energy per Si atom -12399.274550 kJ/mol
# Density = 2.411506 g / cm^3
# Si number density = 24.170076 Si / 1000 Ang^3
#
#
#
# Elastic Constant Matrix: (Units=GPa)
#
#
# Indices 1 2 3 4 5 6 
#
# 1 138.7790 42.5148 16.2851 4.6544 -5.1854 -13.1449
# 2 42.5148 151.6923 24.3735 11.2449 0.1147 -7.7248
# 3 16.2851 24.3735 44.4697 9.6397 -15.4311 -7.7169
# 4 4.6544 11.2449 9.6397 35.2972 -4.7811 2.5769
# 5 -5.1854 0.1147 -15.4311 -4.7811 37.6659 -7.5303
# 6 -13.1449 -7.7248 -7.7169 2.5769 -7.5303 31.9519
#
#
#
# Elastic Compliance Matrix: (Units=1/GPa)
#
#
# Indices 1 2 3 4 5 6 
#
# 1 0.008271 -0.002005 -0.000873 -0.000251 0.001365 0.003049
# 2 -0.002005 0.007907 -0.004125 -0.001407 -0.002233 -0.000322
# 3 -0.000873 -0.004125 0.033543 -0.006492 0.014969 0.010796
# 4 -0.000251 -0.001407 -0.006492 0.030956 0.000355 -0.004424
# 5 0.001365 -0.002233 0.014969 0.000355 0.035306 0.011929
# 6 0.003049 -0.000322 0.010796 -0.004424 0.011929 0.038249
#
#
# Mechanical properties :
#
#
# Convention : Reuss Voigt Hill
#
# Bulk Modulus (GPa) = 28.00019 55.69862 41.84940
# Shear Modulus (GPa) = 27.75596 37.76750 32.76173
#
# Velocity S-wave (km/s) = 3.39242 3.95723 3.68566
# Velocity P-wave (km/s) = 5.19177 6.63129 5.95519
#
# Compressibility (1/GPa) = 0.03571405
#
# Stress axis : x y z
#
# Youngs Moduli (GPa) = 120.91146 126.47672 29.81280
#
# Poissons Ratio (x) = 0.25357 0.02602
# Poissons Ratio (y) = 0.24241 0.12298
# Poissons Ratio (z) = 0.10552 0.52175
#
# Static dielectric constant tensor:
#      x y z
#    x 4.297810 -0.162230 -0.104050 
#    y -0.162230 4.584080 0.171200 
#    z -0.104050 0.171200 4.623160 
# 
# 
# High freq. dielectric constant tensor:
#      x y z
#    x 1.957360 -0.010860 0.008470 
#    y -0.010860 1.957140 0.005310 
#    z 0.008470 0.005310 1.962350 
# 
# From -- ./inp_files/505831.got.cif
#   From: 2010.06.25/outbox.cif.g09.slc.cpg/sg2_253_cif.got.tgz:505831.got - 2010.06.27 13:26:56.
