data_PCOD8006938
_publ_section_title
;
Structure prediction by ZEFSAII (Michael W. Deem and Ramdas Pophale) SiO2 
 PCOD8006938
Probable space group: P -1
;
_chemical_formula_sum "Si O2"
_cell_formula_units_Z 16
_cell_length_a 9.249925
_cell_length_b 15.046901
_cell_length_c 10.528391
_cell_angle_alpha 102.120401
_cell_angle_beta 122.733713
_cell_angle_gamma 39.192706
_cell_volume 716.148793
_symmetry_space_group_name_H-M "P -1"
_symmetry_group_IT_number 2
_symmetry_cell_setting 'triclinic'
loop_
_space_group_symop_operation_xyz
x,y,z
-x,-y,-z
loop_
_atom_site_type_symbol
_atom_site_label
_atom_site_fract_x
_atom_site_fract_y
_atom_site_fract_z
Si Si1 0.387403 0.613139 0.871595
Si Si2 0.598475 0.830970 0.868189
Si Si3 0.815126 0.885358 0.561666
Si Si4 0.320098 0.860479 0.510160
Si Si5 0.046264 0.163302 0.649798
Si Si6 0.818235 0.330379 0.841764
Si Si7 0.369421 0.824464 0.985297
Si Si8 0.276703 0.833572 0.217723
O O1 0.542212 0.513357 0.785249
O O2 0.470909 0.680155 0.958521
O O3 0.039554 0.756985 0.736251
O O4 0.500000 0.500000 0.000000
O O5 0.544972 0.784154 0.709339
O O6 0.576839 0.795436 0.986573
O O7 0.366644 0.010794 0.811311
O O8 0.915094 0.737970 0.977055
O O9 0.910336 0.796823 0.447254
O O10 0.500000 0.000000 0.500000
O O11 0.844003 0.977495 0.559710
O O12 0.469000 0.764999 0.417389
O O13 0.094635 0.877898 0.449540
O O14 0.865784 0.300248 0.704346
O O15 0.768307 0.253600 0.860378
O O16 0.424257 0.818216 0.160764
O O17 0.033596 0.987865 0.846072
#
# Coordination Sequence:
#
# PCOD8006938 Si02
#       8
#     2   2   2   2   2   2   2   2
#     4  12  25  42  64  98 145 177 218 273 362 394
#     4  11  21  37  68  99 134 165 235 280 327 393
#     4  11  24  40  68 100 131 176 230 278 326 406
#     4  10  20  40  65  94 128 175 223 273 322 400
#     4  10  21  41  67  95 132 177 228 271 332 401
#     4  11  24  40  66 101 136 177 214 291 337 396
#     4  11  21  38  65  94 133 178 228 269 332 415
#     4  10  21  39  65  94 127 185 227 267 334 406
#
# _framework density 22.341728
#
# number of rings (size 3 to 8) (size 9 to 14) (size 15 to 20)
#    0.000    1.250    5.000    2.625    3.500    2.000 
#    0.000    0.000    0.000    6.750    0.000    0.000 
#    0.000    0.000    0.000    0.000    0.000    0.000 
#
# Total GULP energy -198228.259993 kJ/mol
# GULP energy per Si atom -12389.266250 kJ/mol
# Density = 2.229088 g / cm^3
# Si number density = 22.341728 Si / 1000 Ang^3
#
#
#
# Elastic Constant Matrix: (Units=GPa)
#
#
# Indices 1 2 3 4 5 6 
#
# 1 82.1864 25.7317 58.8266 8.9558 -23.7619 -14.3415
# 2 25.7317 101.2772 21.0094 9.6641 5.1702 -6.2951
# 3 58.8266 21.0094 100.3151 7.8065 -6.3033 -17.7615
# 4 8.9558 9.6641 7.8065 29.2147 -5.5140 -7.6273
# 5 -23.7619 5.1702 -6.3033 -5.5140 35.5394 4.7857
# 6 -14.3415 -6.2951 -17.7615 -7.6273 4.7857 30.7372
#
#
#
# Elastic Compliance Matrix: (Units=1/GPa)
#
#
# Indices 1 2 3 4 5 6 
#
# 1 0.030204 -0.005391 -0.015213 0.000398 0.018144 0.001471
# 2 -0.005391 0.011747 0.000662 -0.003414 -0.005769 0.000324
# 3 -0.015213 0.000662 0.019244 -0.000800 -0.007673 0.005153
# 4 0.000398 -0.003414 -0.000800 0.038514 0.005557 0.007716
# 5 0.018144 -0.005769 -0.007673 0.005557 0.040897 -0.002138
# 6 0.001471 0.000324 0.005153 0.007716 -0.002138 0.038512
#
#
# Mechanical properties :
#
#
# Convention : Reuss Voigt Hill
#
# Bulk Modulus (GPa) = 46.92770 54.99046 50.95908
# Shear Modulus (GPa) = 22.11350 30.97900 26.54625
#
# Velocity S-wave (km/s) = 3.14950 3.72775 3.45076
# Velocity P-wave (km/s) = 5.85456 6.57228 6.22378
#
# Compressibility (1/GPa) = 0.02130937
#
# Stress axis : x y z
#
# Youngs Moduli (GPa) = 33.10851 85.13009 51.96418
#
# Poissons Ratio (x) = 0.45892 0.79055
# Poissons Ratio (y) = 0.17848 -0.03438
# Poissons Ratio (z) = 0.50369 -0.05632
#
# Static dielectric constant tensor:
#      x y z
#    x 4.043030 -0.150730 -0.407420 
#    y -0.150730 4.186050 0.432030 
#    z -0.407420 0.432030 4.079450 
# 
# 
# High freq. dielectric constant tensor:
#      x y z
#    x 1.877760 -0.008500 -0.025180 
#    y -0.008500 1.866920 0.035270 
#    z -0.025180 0.035270 1.867190 
# 
# From -- ./inp_files/397496.got.cif
#   From: 2010.06.25/outbox.cif.g09.slc.cpg/sg2_199_cif.got.tgz:397496.got - 2010.06.27 13:26:56.
