data_PCOD8006094
_publ_section_title
;
Structure prediction by ZEFSAII (Michael W. Deem and Ramdas Pophale) SiO2 
 PCOD8006094
Probable space group: P -1
;
_chemical_formula_sum "Si O2"
_cell_formula_units_Z 16
_cell_length_a 14.124394
_cell_length_b 11.605393
_cell_length_c 15.373649
_cell_angle_alpha 45.147814
_cell_angle_beta 150.918539
_cell_angle_gamma 116.290804
_cell_volume 750.329053
_symmetry_space_group_name_H-M "P -1"
_symmetry_group_IT_number 2
_symmetry_cell_setting 'triclinic'
loop_
_space_group_symop_operation_xyz
x,y,z
-x,-y,-z
loop_
_atom_site_type_symbol
_atom_site_label
_atom_site_fract_x
_atom_site_fract_y
_atom_site_fract_z
Si Si1 0.386039 0.743286 0.212944
Si Si2 0.510200 0.813118 0.453018
Si Si3 0.682705 0.907229 0.120053
Si Si4 0.578501 0.607360 0.123013
Si Si5 0.899748 0.867853 0.977863
Si Si6 0.886151 0.885215 0.754577
Si Si7 0.182746 0.764125 0.592540
Si Si8 0.367738 0.570207 0.559798
O O1 0.473039 0.702252 0.403293
O O2 0.555076 0.588595 0.366117
O O3 0.146342 0.753647 0.008788
O O4 0.375056 0.939339 0.081905
O O5 0.752879 0.794847 0.648570
O O6 0.471895 0.707593 0.559882
O O7 0.330161 0.038697 0.199160
O O8 0.933201 0.844734 0.389368
O O9 0.688330 0.731524 0.171494
O O10 0.500000 0.000000 0.000000
O O11 0.342025 0.740148 0.814423
O O12 0.744957 0.436449 0.285788
O O13 0.535742 0.523791 0.220294
O O14 0.093524 0.669900 0.278869
O O15 0.844636 0.868839 0.831666
O O16 0.000000 0.000000 0.000000
O O17 0.804773 0.097305 0.543652
#
# Coordination Sequence:
#
# PCOD8006094 Si02
#       8
#     2   2   2   2   2   2   2   2
#     4  11  23  43  63  91 131 168 209 265 311 377
#     4  11  23  40  67  95 126 171 211 254 320 382
#     4  11  23  44  66  92 125 172 214 257 326 375
#     4  11  23  45  65  97 128 167 214 266 319 371
#     4  10  20  39  65  92 126 167 201 264 314 368
#     4  11  22  42  67  94 127 168 214 257 320 374
#     4  10  24  43  69  94 128 165 217 270 310 379
#     4  11  23  42  64  94 137 164 207 265 315 377
#
# _framework density 21.323976999999999
#
# number of rings (size 3 to 8) (size 9 to 14) (size 15 to 20)
#    0.000    1.250    3.750    3.375    1.750    1.000 
#    9.000    0.000    0.000    0.000    0.000    0.000 
#    0.000    0.000    0.000    0.000    0.000    0.000 
#
# Total GULP energy -198343.129654 kJ/mol
# GULP energy per Si atom -12396.445603 kJ/mol
# Density = 2.127544 g / cm^3
# Si number density = 21.323977 Si / 1000 Ang^3
#
#
#
# Elastic Constant Matrix: (Units=GPa)
#
#
# Indices 1 2 3 4 5 6 
#
# 1 71.1058 17.7474 22.4773 16.2683 6.1803 -4.8329
# 2 17.7474 82.0058 33.4596 11.6228 9.6871 8.8666
# 3 22.4773 33.4596 89.8591 20.1056 -3.0418 -2.0680
# 4 16.2683 11.6228 20.1056 28.3253 1.5329 6.2457
# 5 6.1803 9.6871 -3.0418 1.5329 32.2656 -0.6959
# 6 -4.8329 8.8666 -2.0680 6.2457 -0.6959 40.4039
#
#
#
# Elastic Compliance Matrix: (Units=1/GPa)
#
#
# Indices 1 2 3 4 5 6 
#
# 1 0.017568 -0.001991 -0.001685 -0.008776 -0.002428 0.003767
# 2 -0.001991 0.016012 -0.005680 -0.000219 -0.005039 -0.004096
# 3 -0.001685 -0.005680 0.015871 -0.008913 0.004019 0.003304
# 4 -0.008776 -0.000219 -0.008913 0.048841 -0.001609 -0.009035
# 5 -0.002428 -0.005039 0.004019 -0.001609 0.033466 0.001846
# 6 0.003767 -0.004096 0.003304 -0.009035 0.001846 0.027697
#
#
# Mechanical properties :
#
#
# Convention : Reuss Voigt Hill
#
# Bulk Modulus (GPa) = 32.53147 43.37105 37.95126
# Shear Modulus (GPa) = 26.53743 31.48472 29.01107
#
# Velocity S-wave (km/s) = 3.53156 3.84669 3.69248
# Velocity P-wave (km/s) = 5.64961 6.33345 6.00128
#
# Compressibility (1/GPa) = 0.03073946
#
# Stress axis : x y z
#
# Youngs Moduli (GPa) = 56.92130 62.45408 63.00671
#
# Poissons Ratio (x) = 0.12436 0.10616
# Poissons Ratio (y) = 0.11334 0.35787
# Poissons Ratio (z) = 0.09591 0.35473
#
# Static dielectric constant tensor:
#      x y z
#    x 3.801150 0.081420 0.099850 
#    y 0.081420 3.644610 -0.127960 
#    z 0.099850 -0.127960 4.746560 
# 
# 
# High freq. dielectric constant tensor:
#      x y z
#    x 1.831110 -0.001840 -0.000060 
#    y -0.001840 1.832850 -0.005790 
#    z -0.000060 -0.005790 1.845180 
# 
# From -- ./inp_files/531744.got.cif
#   From: 2010.06.25/outbox.cif.g09.slc.cpg/sg2_266_cif.got.tgz:531744.got - 2010.06.27 13:26:56.
