data_PCOD8006467
_publ_section_title
;
Structure prediction by ZEFSAII (Michael W. Deem and Ramdas Pophale) SiO2 
 PCOD8006467
Probable space group: P -1
;
_chemical_formula_sum "Si O2"
_cell_formula_units_Z 16
_cell_length_a 18.382159
_cell_length_b 14.033555
_cell_length_c 11.164723
_cell_angle_alpha 51.192774
_cell_angle_beta 33.464911
_cell_angle_gamma 28.732483
_cell_volume 701.263007
_symmetry_space_group_name_H-M "P -1"
_symmetry_group_IT_number 2
_symmetry_cell_setting 'triclinic'
loop_
_space_group_symop_operation_xyz
x,y,z
-x,-y,-z
loop_
_atom_site_type_symbol
_atom_site_label
_atom_site_fract_x
_atom_site_fract_y
_atom_site_fract_z
Si Si1 0.133590 0.286757 0.931183
Si Si2 0.272932 0.573279 0.680887
Si Si3 0.246690 0.187325 0.596549
Si Si4 0.889783 0.180899 0.863966
Si Si5 0.928102 0.023206 0.712697
Si Si6 0.455779 0.866538 0.917739
Si Si7 0.726081 0.506264 0.002176
Si Si8 0.675895 0.134158 0.339498
O O1 0.296654 0.183969 0.670887
O O2 0.278484 0.117290 0.976343
O O3 0.000000 0.500000 0.000000
O O4 0.951002 0.338397 0.081212
O O5 0.449616 0.384450 0.489134
O O6 0.371306 0.492386 0.747114
O O7 0.168525 0.785254 0.626021
O O8 0.326998 0.247123 0.367141
O O9 0.974957 0.376122 0.788602
O O10 0.385534 0.955926 0.550923
O O11 0.867329 0.191250 0.742019
O O12 0.729437 0.407723 0.964577
O O13 0.818552 0.098774 0.070157
O O14 0.157174 0.005554 0.665096
O O15 0.695477 0.118131 0.959117
O O16 0.000000 0.000000 0.500000
O O17 0.544970 0.749418 0.016255
#
# Coordination Sequence:
#
# PCOD8006467 Si02
#       8
#     2   2   2   2   2   2   2   2
#     4  10  21  40  62  94 130 169 207 255 317 388
#     4  10  22  40  66  91 126 167 218 259 319 375
#     4  10  21  43  66  93 129 168 215 259 318 384
#     4  10  22  40  63  94 129 165 219 260 318 377
#     4  11  26  44  59  94 135 170 216 266 314 384
#     4  11  23  41  65  93 132 167 211 262 324 376
#     4  10  23  42  67  99 126 167 214 269 315 381
#     4  10  20  39  72  93 118 173 218 264 309 375
#
# _framework density 22.815977
#
# number of rings (size 3 to 8) (size 9 to 14) (size 15 to 20)
#    0.000    1.750    0.000    5.250    3.500    2.500 
#    6.750    5.625    0.000    0.000    0.000    0.000 
#    0.000    0.000    0.000    0.000    0.000    0.000 
#
# Total GULP energy -198246.635104 kJ/mol
# GULP energy per Si atom -12390.414694 kJ/mol
# Density = 2.276405 g / cm^3
# Si number density = 22.815977 Si / 1000 Ang^3
#
#
#
# Elastic Constant Matrix: (Units=GPa)
#
#
# Indices 1 2 3 4 5 6 
#
# 1 122.0657 64.1530 46.3178 -3.0360 23.7178 3.0281
# 2 64.1530 132.7322 26.3943 4.0543 22.2058 -8.2324
# 3 46.3178 26.3943 73.2823 -1.8302 16.1285 10.8864
# 4 -3.0360 4.0543 -1.8302 37.3804 -0.2190 6.4808
# 5 23.7178 22.2058 16.1285 -0.2190 39.4842 2.0450
# 6 3.0281 -8.2324 10.8864 6.4808 2.0450 25.2440
#
#
#
# Elastic Compliance Matrix: (Units=1/GPa)
#
#
# Indices 1 2 3 4 5 6 
#
# 1 0.013786 -0.005065 -0.006092 0.001497 -0.002893 -0.000828
# 2 -0.005065 0.011135 -0.001027 -0.002661 -0.003107 0.005617
# 3 -0.006092 -0.001027 0.019932 0.002036 -0.003456 -0.008442
# 4 0.001497 -0.002661 0.002036 0.028890 0.000412 -0.009376
# 5 -0.002893 -0.003107 -0.003456 0.000412 0.030316 -0.001737
# 6 -0.000828 0.005617 -0.008442 -0.009376 -0.001737 0.047733
#
#
# Mechanical properties :
#
#
# Convention : Reuss Voigt Hill
#
# Bulk Modulus (GPa) = 48.81332 66.86782 57.84057
# Shear Modulus (GPa) = 27.32455 33.16939 30.24697
#
# Velocity S-wave (km/s) = 3.46440 3.81698 3.64496
# Velocity P-wave (km/s) = 6.11911 6.98548 6.56660
#
# Compressibility (1/GPa) = 0.02048621
#
# Stress axis : x y z
#
# Youngs Moduli (GPa) = 72.53988 89.80395 50.17149
#
# Poissons Ratio (x) = 0.45483 0.30564
# Poissons Ratio (y) = 0.36739 0.05151
# Poissons Ratio (z) = 0.44190 0.09220
#
# Static dielectric constant tensor:
#      x y z
#    x 4.137290 -0.102420 -0.229410 
#    y -0.102420 4.008730 -0.007670 
#    z -0.229410 -0.007670 4.125380 
# 
# 
# High freq. dielectric constant tensor:
#      x y z
#    x 1.904740 -0.005170 -0.019220 
#    y -0.005170 1.886250 0.008920 
#    z -0.019220 0.008920 1.904740 
# 
# From -- ./inp_files/471718.got.cif
#   From: 2010.06.25/outbox.cif.g09.slc.cpg/sg2_236_cif.got.tgz:471718.got - 2010.06.27 13:26:56.
