data_PCOD8006005
_publ_section_title
;
Structure prediction by ZEFSAII (Michael W. Deem and Ramdas Pophale) SiO2 
 PCOD8006005
Probable space group: P -1
;
_chemical_formula_sum "Si O2"
_cell_formula_units_Z 16
_cell_length_a 5.449102
_cell_length_b 8.645643
_cell_length_c 22.260871
_cell_angle_alpha 54.725081
_cell_angle_beta 80.984142
_cell_angle_gamma 51.505300
_cell_volume 635.467610
_symmetry_space_group_name_H-M "P -1"
_symmetry_group_IT_number 2
_symmetry_cell_setting 'triclinic'
loop_
_space_group_symop_operation_xyz
x,y,z
-x,-y,-z
loop_
_atom_site_type_symbol
_atom_site_label
_atom_site_fract_x
_atom_site_fract_y
_atom_site_fract_z
Si Si1 0.323930 0.734572 0.612811
Si Si2 0.385836 0.779298 0.467901
Si Si3 0.892110 0.848860 0.015852
Si Si4 0.305366 0.369578 0.754986
Si Si5 0.954468 0.861749 0.875694
Si Si6 0.191685 0.097396 0.746431
Si Si7 0.918738 0.615430 0.830282
Si Si8 0.874772 0.839941 0.399205
O O1 0.497864 0.672938 0.555329
O O2 0.477417 0.462334 0.694692
O O3 0.383574 0.881216 0.622972
O O4 0.922560 0.917254 0.581300
O O5 0.699223 0.722559 0.436324
O O6 0.233192 0.673561 0.458713
O O7 0.033250 0.758335 0.963305
O O8 0.096230 0.599845 0.105400
O O9 0.500000 0.000000 0.000000
O O10 0.000000 0.000000 0.000000
O O11 0.113816 0.556636 0.775409
O O12 0.087475 0.356886 0.718622
O O13 0.561226 0.087326 0.834552
O O14 0.111293 0.982206 0.825194
O O15 0.091735 0.631467 0.877057
O O16 0.581131 0.889390 0.767359
O O17 0.034644 0.149395 0.674992
#
# Coordination Sequence:
#
# PCOD8006005 Si02
#       8
#     2   2   2   2   2   2   2   2
#     4   9  20  35  66  94 134 178 230 283 345 408
#     4   9  20  37  66  95 130 180 233 277 349 412
#     4  12  27  48  77 107 144 182 232 286 343 412
#     4  11  23  44  67 104 137 179 235 290 344 412
#     4  11  26  45  70 104 140 184 234 281 347 415
#     4  11  26  41  70 103 139 184 233 287 345 415
#     4  11  25  46  74  98 144 185 231 281 351 407
#     4  10  20  39  64  92 135 177 225 284 339 410
#
# _framework density 25.178307
#
# number of rings (size 3 to 8) (size 9 to 14) (size 15 to 20)
#    0.750    0.750    1.250    3.000    7.000    4.500 
#    0.000    1.250    0.000    0.000    0.000    0.000 
#    0.000    0.000    0.000    0.000    0.000    0.000 
#
# Total GULP energy -198367.420884 kJ/mol
# GULP energy per Si atom -12397.963805 kJ/mol
# Density = 2.512100 g / cm^3
# Si number density = 25.178307 Si / 1000 Ang^3
#
#
#
# Elastic Constant Matrix: (Units=GPa)
#
#
# Indices 1 2 3 4 5 6 
#
# 1 107.9806 33.3644 17.0196 7.4115 -20.2634 26.0580
# 2 33.3644 99.0021 30.8840 27.6445 0.4026 24.1699
# 3 17.0196 30.8840 127.7181 25.6629 -16.2969 11.0304
# 4 7.4115 27.6445 25.6629 54.6844 0.8789 1.4462
# 5 -20.2634 0.4026 -16.2969 0.8789 39.4994 0.1649
# 6 26.0580 24.1699 11.0304 1.4462 0.1649 45.5419
#
#
#
# Elastic Compliance Matrix: (Units=1/GPa)
#
#
# Indices 1 2 3 4 5 6 
#
# 1 0.012834 -0.002937 0.000469 -0.000429 0.006842 -0.005909
# 2 -0.002937 0.014663 -0.001758 -0.006009 -0.002225 -0.005477
# 3 0.000469 -0.001758 0.009626 -0.003721 0.004320 -0.001565
# 4 -0.000429 -0.006009 -0.003721 0.023069 -0.002222 0.003611
# 5 0.006842 -0.002225 0.004320 -0.002222 0.030697 -0.003821
# 6 -0.005909 -0.005477 -0.001565 0.003611 -0.003821 0.028524
#
#
# Mechanical properties :
#
#
# Convention : Reuss Voigt Hill
#
# Bulk Modulus (GPa) = 34.87690 55.24854 45.06272
# Shear Modulus (GPa) = 36.38471 44.84066 40.61269
#
# Velocity S-wave (km/s) = 3.80555 4.22468 4.02058
# Velocity P-wave (km/s) = 5.76122 6.76667 6.28408
#
# Compressibility (1/GPa) = 0.02867227
#
# Stress axis : x y z
#
# Youngs Moduli (GPa) = 77.91954 68.19906 103.88365
#
# Poissons Ratio (x) = 0.20030 -0.04877
# Poissons Ratio (y) = 0.22885 0.18261
# Poissons Ratio (z) = -0.03658 0.11988
#
# Static dielectric constant tensor:
#      x y z
#    x 4.283980 0.097370 0.184840 
#    y 0.097370 4.733270 0.046250 
#    z 0.184840 0.046250 4.450050 
# 
# 
# High freq. dielectric constant tensor:
#      x y z
#    x 1.992280 0.001670 -0.001010 
#    y 0.001670 2.022880 0.004170 
#    z -0.001010 0.004170 2.008600 
# 
# From -- ./inp_files/582337.got.cif
#   From: 2010.06.25/outbox.cif.g09.slc.cpg/sg2_292_cif.got.tgz:582337.got - 2010.06.27 13:26:56.
