data_PCOD8006922
_publ_section_title
;
Structure prediction by ZEFSAII (Michael W. Deem and Ramdas Pophale) SiO2 
 PCOD8006922
Probable space group: P -1
;
_chemical_formula_sum "Si O2"
_cell_formula_units_Z 16
_cell_length_a 12.186765
_cell_length_b 8.702002
_cell_length_c 11.817443
_cell_angle_alpha 36.881877
_cell_angle_beta 83.288615
_cell_angle_gamma 83.277361
_cell_volume 746.409152
_symmetry_space_group_name_H-M "P -1"
_symmetry_group_IT_number 2
_symmetry_cell_setting 'triclinic'
loop_
_space_group_symop_operation_xyz
x,y,z
-x,-y,-z
loop_
_atom_site_type_symbol
_atom_site_label
_atom_site_fract_x
_atom_site_fract_y
_atom_site_fract_z
Si Si1 0.440254 0.352175 0.191686
Si Si2 0.076141 0.290452 0.437628
Si Si3 0.417109 0.814357 0.059027
Si Si4 0.190328 0.754075 0.750740
Si Si5 0.729877 0.467276 0.603792
Si Si6 0.173968 0.737374 0.505466
Si Si7 0.186473 0.317285 0.178140
Si Si8 0.611320 0.994054 0.301962
O O1 0.466047 0.523178 0.199388
O O2 0.308700 0.348415 0.196342
O O3 0.495180 0.063795 0.341458
O O4 0.500000 0.500000 0.000000
O O5 0.150667 0.456218 0.412233
O O6 0.099795 0.366542 0.260662
O O7 0.949449 0.360710 0.439116
O O8 0.098313 0.984995 0.631306
O O9 0.312647 0.778196 0.176979
O O10 0.381663 0.944006 0.868366
O O11 0.500000 0.000000 0.000000
O O12 0.214399 0.677699 0.662954
O O13 0.302601 0.836693 0.743664
O O14 0.151060 0.510120 0.968471
O O15 0.742014 0.408046 0.504421
O O16 0.638249 0.696465 0.493985
O O17 0.177066 0.034535 0.297337
#
# Coordination Sequence:
#
# PCOD8006922 Si02
#       8
#     2   2   2   2   2   2   2   2
#     4  10  20  40  65  93 122 167 205 255 311 371
#     4  10  22  44  63  93 125 166 214 261 316 371
#     4  11  24  42  65  93 129 166 206 258 311 376
#     4  10  20  40  67  93 125 160 213 265 304 382
#     4  11  24  44  63  91 132 172 200 264 319 369
#     4  11  26  38  64  97 126 164 216 260 315 374
#     4  11  20  41  67  91 128 163 212 261 315 363
#     4  10  23  42  64  94 126 167 214 251 313 377
#
# _framework density 21.435963999999998
#
# number of rings (size 3 to 8) (size 9 to 14) (size 15 to 20)
#    0.000    1.500    3.750    1.875    3.500    5.000 
#    0.000    0.000    0.000    6.000    0.000    0.000 
#    0.000    0.000    0.000    0.000    0.000    0.000 
#
# Total GULP energy -198307.564870 kJ/mol
# GULP energy per Si atom -12394.222804 kJ/mol
# Density = 2.138718 g / cm^3
# Si number density = 21.435964 Si / 1000 Ang^3
#
#
#
# Elastic Constant Matrix: (Units=GPa)
#
#
# Indices 1 2 3 4 5 6 
#
# 1 87.8330 44.8887 35.0111 3.7891 -11.1190 10.1751
# 2 44.8887 120.9880 42.4401 12.4990 -10.4855 20.6280
# 3 35.0111 42.4401 140.1161 16.0376 -6.9562 13.1302
# 4 3.7891 12.4990 16.0376 17.3473 7.9054 4.8471
# 5 -11.1190 -10.4855 -6.9562 7.9054 27.8249 5.6591
# 6 10.1751 20.6280 13.1302 4.8471 5.6591 26.8496
#
#
#
# Elastic Compliance Matrix: (Units=1/GPa)
#
#
# Indices 1 2 3 4 5 6 
#
# 1 0.015167 -0.004095 -0.002126 0.000301 0.004419 -0.002548
# 2 -0.004095 0.012934 -0.000800 -0.008719 0.007126 -0.007922
# 3 -0.002126 -0.000800 0.009360 -0.008843 0.004199 -0.002446
# 4 0.000301 -0.008719 -0.008843 0.085170 -0.029949 0.001845
# 5 0.004419 0.007126 0.004199 -0.029949 0.052992 -0.014965
# 6 -0.002548 -0.007922 -0.002446 0.001845 -0.014965 0.048313
#
#
# Mechanical properties :
#
#
# Convention : Reuss Voigt Hill
#
# Bulk Modulus (GPa) = 42.70081 65.95741 54.32911
# Shear Modulus (GPa) = 20.34289 29.51083 24.92686
#
# Velocity S-wave (km/s) = 3.08394 3.71441 3.41376
# Velocity P-wave (km/s) = 5.71352 7.01656 6.39830
#
# Compressibility (1/GPa) = 0.02341876
#
# Stress axis : x y z
#
# Youngs Moduli (GPa) = 65.93204 77.31300 106.83451
#
# Poissons Ratio (x) = 0.31663 0.22711
# Poissons Ratio (y) = 0.27002 0.08550
# Poissons Ratio (z) = 0.14016 0.06188
#
# Static dielectric constant tensor:
#      x y z
#    x 4.317620 -0.434650 0.017220 
#    y -0.434650 4.566180 0.075610 
#    z 0.017220 0.075610 4.188020 
# 
# 
# High freq. dielectric constant tensor:
#      x y z
#    x 1.832320 0.005570 -0.014200 
#    y 0.005570 1.843710 0.010090 
#    z -0.014200 0.010090 1.847150 
# 
# From -- ./inp_files/416081.got.cif
#   From: 2010.06.25/outbox.cif.g09.slc.cpg/sg2_209_cif.got.tgz:416081.got - 2010.06.27 13:26:56.
