data_PCOD8006271
_publ_section_title
;
Structure prediction by ZEFSAII (Michael W. Deem and Ramdas Pophale) SiO2 
 PCOD8006271
Probable space group: P -1
;
_chemical_formula_sum "Si O2"
_cell_formula_units_Z 16
_cell_length_a 9.633450
_cell_length_b 9.261337
_cell_length_c 10.999051
_cell_angle_alpha 108.069088
_cell_angle_beta 97.334604
_cell_angle_gamma 66.153610
_cell_volume 853.280437
_symmetry_space_group_name_H-M "P -1"
_symmetry_group_IT_number 2
_symmetry_cell_setting 'triclinic'
loop_
_space_group_symop_operation_xyz
x,y,z
-x,-y,-z
loop_
_atom_site_type_symbol
_atom_site_label
_atom_site_fract_x
_atom_site_fract_y
_atom_site_fract_z
Si Si1 0.800983 0.133187 0.868004
Si Si2 0.828515 0.306448 0.455816
Si Si3 0.374931 0.604202 0.919545
Si Si4 0.671255 0.609738 0.356751
Si Si5 0.671133 0.184028 0.603643
Si Si6 0.854295 0.830941 0.427226
Si Si7 0.635091 0.061542 0.033715
Si Si8 0.124723 0.002505 0.766064
O O1 0.706839 0.194874 0.750828
O O2 0.977745 0.033457 0.839722
O O3 0.777387 0.293242 0.991942
O O4 0.728671 0.020355 0.905196
O O5 0.752514 0.491946 0.447472
O O6 0.743632 0.291772 0.564797
O O7 0.006243 0.257330 0.489725
O O8 0.811007 0.186268 0.319009
O O9 0.341128 0.491448 0.787930
O O10 0.429869 0.740127 0.898891
O O11 0.500000 0.500000 0.000000
O O12 0.508779 0.737189 0.416887
O O13 0.772055 0.709718 0.354773
O O14 0.736047 0.995259 0.518915
O O15 0.919457 0.875526 0.321912
O O16 0.747115 0.968941 0.132187
O O17 0.500000 0.000000 0.000000
#
# Coordination Sequence:
#
# PCOD8006271 Si02
#       8
#     2   2   2   2   2   2   2   2
#     4  10  20  39  67  84 123 159 206 242 311 367
#     4  11  21  42  62  91 121 168 204 255 309 364
#     4  10  22  39  64  84 123 165 193 251 324 352
#     4  12  23  40  61  92 130 158 206 261 311 352
#     4  11  21  40  64  90 121 168 206 247 311 371
#     4  11  24  38  66  91 124 166 210 252 299 371
#     4  10  23  38  64  93 115 155 212 255 294 361
#     4  11  20  41  66  87 123 163 210 246 308 368
#
# _framework density 18.751161
#
# number of rings (size 3 to 8) (size 9 to 14) (size 15 to 20)
#    0.750    0.500    5.000    2.250    3.500    0.000 
#    0.000    0.625    5.500    0.000    0.000    0.000 
#    0.000    0.000    0.000    0.000    0.000    0.000 
#
# Total GULP energy -198361.369515 kJ/mol
# GULP energy per Si atom -12397.585595 kJ/mol
# Density = 1.870848 g / cm^3
# Si number density = 18.751161 Si / 1000 Ang^3
#
#
#
# Elastic Constant Matrix: (Units=GPa)
#
#
# Indices 1 2 3 4 5 6 
#
# 1 131.3428 47.3747 52.4655 2.6186 3.5728 -1.8584
# 2 47.3747 82.0899 36.0555 -8.3461 11.9063 -7.8467
# 3 52.4655 36.0555 102.9002 -5.1126 -1.4194 1.1028
# 4 2.6186 -8.3461 -5.1126 21.8108 -0.8510 10.4112
# 5 3.5728 11.9063 -1.4194 -0.8510 27.7265 -0.4813
# 6 -1.8584 -7.8467 1.1028 10.4112 -0.4813 35.3380
#
#
#
# Elastic Compliance Matrix: (Units=1/GPa)
#
#
# Indices 1 2 3 4 5 6 
#
# 1 0.011211 -0.005079 -0.004177 -0.004726 0.000395 0.000990
# 2 -0.005079 0.018611 -0.003785 0.005474 -0.007324 0.002271
# 3 -0.004177 -0.003785 0.013414 0.003489 0.002915 -0.002467
# 4 -0.004726 0.005474 0.003489 0.056921 -0.000092 -0.015913
# 5 0.000395 -0.007324 0.002915 -0.000092 0.039287 -0.001134
# 6 0.000990 0.002271 -0.002467 -0.015913 -0.001134 0.033604
#
#
# Mechanical properties :
#
#
# Convention : Reuss Voigt Hill
#
# Bulk Modulus (GPa) = 58.29072 65.34714 61.81893
# Shear Modulus (GPa) = 24.40822 29.00420 26.70621
#
# Velocity S-wave (km/s) = 3.61181 3.93720 3.77801
# Velocity P-wave (km/s) = 6.96760 7.45614 7.21601
#
# Compressibility (1/GPa) = 0.01715539
#
# Stress axis : x y z
#
# Youngs Moduli (GPa) = 89.19440 53.73121 74.54900
#
# Poissons Ratio (x) = 0.27289 0.31137
# Poissons Ratio (y) = 0.45300 0.28217
# Poissons Ratio (z) = 0.37254 0.20338
#
# Static dielectric constant tensor:
#      x y z
#    x 3.293850 -0.130670 -0.044390 
#    y -0.130670 3.488330 -0.127170 
#    z -0.044390 -0.127170 3.503970 
# 
# 
# High freq. dielectric constant tensor:
#      x y z
#    x 1.721450 -0.014140 -0.000020 
#    y -0.014140 1.729390 -0.014770 
#    z -0.000020 -0.014770 1.732350 
# 
# From -- ./inp_files/382941.got.cif
#   From: 2010.06.25/outbox.cif.g09.slc.cpg/sg2_192_cif.got.tgz:382941.got - 2010.06.27 13:26:56.
