data_PCOD8006845
_publ_section_title
;
Structure prediction by ZEFSAII (Michael W. Deem and Ramdas Pophale) SiO2 
 PCOD8006845
Probable space group: P -1
;
_chemical_formula_sum "Si O2"
_cell_formula_units_Z 16
_cell_length_a 18.377644
_cell_length_b 8.708713
_cell_length_c 9.582502
_cell_angle_alpha 94.236444
_cell_angle_beta 63.923894
_cell_angle_gamma 142.671485
_cell_volume 720.432424
_symmetry_space_group_name_H-M "P -1"
_symmetry_group_IT_number 2
_symmetry_cell_setting 'triclinic'
loop_
_space_group_symop_operation_xyz
x,y,z
-x,-y,-z
loop_
_atom_site_type_symbol
_atom_site_label
_atom_site_fract_x
_atom_site_fract_y
_atom_site_fract_z
Si Si1 0.908457 0.876873 0.707261
Si Si2 0.580897 0.398777 0.832541
Si Si3 0.751218 0.176614 0.446132
Si Si4 0.160178 0.846720 0.872572
Si Si5 0.626292 0.290401 0.510266
Si Si6 0.904711 0.931979 0.193327
Si Si7 0.092435 0.777400 0.218798
Si Si8 0.350251 0.135818 0.220503
O O1 0.727565 0.566397 0.803485
O O2 0.946513 0.106218 0.748077
O O3 0.000000 0.000000 0.500000
O O4 0.977909 0.867662 0.759995
O O5 0.550915 0.259298 0.703409
O O6 0.590171 0.594351 0.803117
O O7 0.442729 0.165929 0.045515
O O8 0.712714 0.048659 0.313861
O O9 0.730081 0.323544 0.489576
O O10 0.931986 0.424957 0.327265
O O11 0.645002 0.920509 0.630965
O O12 0.138828 0.971056 0.817061
O O13 0.210836 0.946164 0.998277
O O14 0.000000 0.500000 0.000000
O O15 0.741197 0.585062 0.344712
O O16 0.500000 0.000000 0.500000
O O17 0.000000 0.000000 0.000000
O O18 0.175200 0.856617 0.294383
#
# Coordination Sequence:
#
# PCOD8006845 Si02
#       8
#     2   2   2   2   2   2   2   2
#     4  11  20  39  72  96 130 174 229 286 331 408
#     4  10  23  46  66  96 138 179 232 276 358 405
#     4  11  22  42  63 100 134 173 233 274 341 407
#     4  10  22  40  64 101 139 170 231 288 339 407
#     4  12  27  46  67 101 148 184 228 286 349 423
#     4  12  22  44  71 102 134 184 235 285 346 405
#     4  10  20  40  64  98 133 173 222 284 337 402
#     4  10  23  41  71  97 132 177 227 285 344 410
#
# _framework density 22.208884999999999
#
# number of rings (size 3 to 8) (size 9 to 14) (size 15 to 20)
#    0.000    1.250    3.750    1.875    3.500    1.500 
#    6.750    1.250    0.000    0.000    0.000    0.000 
#    0.000    0.000    0.000    0.000    0.000    0.000 
#
# Total GULP energy -198263.364772 kJ/mol
# GULP energy per Si atom -12391.460298 kJ/mol
# Density = 2.215834 g / cm^3
# Si number density = 22.208885 Si / 1000 Ang^3
#
#
#
# Elastic Constant Matrix: (Units=GPa)
#
#
# Indices 1 2 3 4 5 6 
#
# 1 61.3775 18.4747 24.0764 -2.2450 9.0315 -10.0400
# 2 18.4747 85.0328 37.9414 7.8381 1.9907 1.8957
# 3 24.0764 37.9414 182.4156 24.6636 1.3553 -13.5098
# 4 -2.2450 7.8381 24.6636 42.5334 -5.8073 -0.9701
# 5 9.0315 1.9907 1.3553 -5.8073 37.4910 2.3691
# 6 -10.0400 1.8957 -13.5098 -0.9701 2.3691 33.3584
#
#
#
# Elastic Compliance Matrix: (Units=1/GPa)
#
#
# Indices 1 2 3 4 5 6 
#
# 1 0.019795 -0.003792 -0.001654 0.002218 -0.004536 0.005890
# 2 -0.003792 0.013850 -0.002414 -0.001388 0.000238 -0.002963
# 3 -0.001654 -0.002414 0.006870 -0.003632 -0.000433 0.002347
# 4 0.002218 -0.001388 -0.003632 0.026502 0.003790 -0.000223
# 5 -0.004536 0.000238 -0.000433 0.003790 0.028575 -0.003473
# 6 0.005890 -0.002963 0.002347 -0.000223 -0.003473 0.033109
#
#
# Mechanical properties :
#
#
# Convention : Reuss Voigt Hill
#
# Bulk Modulus (GPa) = 40.33039 54.42345 47.37692
# Shear Modulus (GPa) = 32.74688 39.23212 35.98950
#
# Velocity S-wave (km/s) = 3.84408 4.20754 4.02991
# Velocity P-wave (km/s) = 6.15643 6.93996 6.55990
#
# Compressibility (1/GPa) = 0.02479520
#
# Stress axis : x y z
#
# Youngs Moduli (GPa) = 50.51798 72.20469 145.55243
#
# Poissons Ratio (x) = 0.27383 0.24071
# Poissons Ratio (y) = 0.19158 0.35131
# Poissons Ratio (z) = 0.08355 0.17428
#
# Static dielectric constant tensor:
#      x y z
#    x 3.623430 -0.096870 -0.084650 
#    y -0.096870 3.937330 0.330410 
#    z -0.084650 0.330410 4.511790 
# 
# 
# High freq. dielectric constant tensor:
#      x y z
#    x 1.868880 0.000060 -0.004060 
#    y 0.000060 1.859790 0.016950 
#    z -0.004060 0.016950 1.897530 
# 
# From -- ./inp_files/329157.got.cif
#   From: 2010.06.25/outbox.cif.g09.slc.cpg/sg2_165_cif.got.tgz:329157.got - 2010.06.27 13:26:56.
