data_PCOD8006394
_publ_section_title
;
Structure prediction by ZEFSAII (Michael W. Deem and Ramdas Pophale) SiO2 
 PCOD8006394
Probable space group: P -1
;
_chemical_formula_sum "Si O2"
_cell_formula_units_Z 14
_cell_length_a 29.805899
_cell_length_b 30.475871
_cell_length_c 9.158981
_cell_angle_alpha 147.701324
_cell_angle_beta 146.825731
_cell_angle_gamma 9.341738
_cell_volume 721.183587
_symmetry_space_group_name_H-M "P -1"
_symmetry_group_IT_number 2
_symmetry_cell_setting 'triclinic'
loop_
_space_group_symop_operation_xyz
x,y,z
-x,-y,-z
loop_
_atom_site_type_symbol
_atom_site_label
_atom_site_fract_x
_atom_site_fract_y
_atom_site_fract_z
Si Si1 0.284372 0.731732 0.942489
Si Si2 0.362830 0.559451 0.385144
Si Si3 0.058394 0.539088 0.753543
Si Si4 0.287699 0.445147 0.306880
Si Si5 0.397307 0.915282 0.098953
Si Si6 0.238655 0.958121 0.353109
Si Si7 0.176127 0.009129 0.986539
O O1 0.270233 0.680573 0.629587
O O2 0.500000 0.500000 0.000000
O O3 0.334275 0.774436 0.134105
O O4 0.000000 0.000000 0.000000
O O5 0.500000 0.500000 0.500000
O O6 0.110520 0.762388 0.179432
O O7 0.581551 0.279986 0.222117
O O8 0.324717 0.300886 0.702140
O O9 0.000000 0.500000 0.500000
O O10 0.135946 0.502765 0.023729
O O11 0.790445 0.841096 0.814250
O O12 0.493784 0.243254 0.439235
O O13 0.492521 0.263920 0.213818
O O14 0.048764 0.743090 0.508631
O O15 0.215337 0.054860 0.129191
O O16 0.193155 0.014979 0.218478
#
# Coordination Sequence:
#
# PCOD8006394 Si02
#       7
#     2   2   2   2   2   2   2
#     4  12  28  39  61  87 118 159 214 269 310 358
#     4  12  26  45  60  87 122 171 217 254 323 359
#     4  10  20  39  69 100 126 154 201 253 305 368
#     4  10  22  38  65  90 123 155 208 243 309 367
#     4  10  22  39  64  99 116 166 204 251 303 366
#     4  12  24  41  59  89 125 164 204 258 320 358
#     4  12  26  41  66  85 129 167 210 262 302 379
#
# _framework density 19.412531999999999
#
# number of rings (size 3 to 8) (size 9 to 14) (size 15 to 20)
#    0.857    0.000    2.857    4.286    8.000    0.000 
#    0.000    0.000    0.000    5.143    0.000    0.000 
#    0.000    0.000    0.000    0.000    0.000    0.000 
#
# Total GULP energy -173475.681629 kJ/mol
# GULP energy per Si atom -12391.120116 kJ/mol
# Density = 1.936835 g / cm^3
# Si number density = 19.412532 Si / 1000 Ang^3
#
#
#
# Elastic Constant Matrix: (Units=GPa)
#
#
# Indices 1 2 3 4 5 6 
#
# 1 99.5874 35.5175 49.5788 -1.9444 1.6580 1.8615
# 2 35.5175 145.4512 42.4193 -5.1314 1.0228 4.9638
# 3 49.5788 42.4193 92.5506 -10.6725 -1.3952 9.6191
# 4 -1.9444 -5.1314 -10.6725 36.5627 1.2132 -0.0510
# 5 1.6580 1.0228 -1.3952 1.2132 31.8430 -5.8130
# 6 1.8615 4.9638 9.6191 -0.0510 -5.8130 31.0320
#
#
#
# Elastic Compliance Matrix: (Units=1/GPa)
#
#
# Indices 1 2 3 4 5 6 
#
# 1 0.014114 -0.001434 -0.007248 -0.001542 -0.000674 0.001500
# 2 -0.001434 0.008089 -0.002878 0.000231 -0.000391 -0.000389
# 3 -0.007248 -0.002878 0.016934 0.004139 0.000270 -0.004297
# 4 -0.001542 0.000231 0.004139 0.028543 -0.001086 -0.001384
# 5 -0.000674 -0.000391 0.000270 -0.001086 0.032624 0.006129
# 6 0.001500 -0.000389 -0.004297 -0.001384 0.006129 0.034675
#
#
# Mechanical properties :
#
#
# Convention : Reuss Voigt Hill
#
# Bulk Modulus (GPa) = 62.42838 65.84672 64.13755
# Shear Modulus (GPa) = 30.59284 33.89242 32.24263
#
# Velocity S-wave (km/s) = 3.97411 4.18293 4.07986
# Velocity P-wave (km/s) = 7.29977 7.57117 7.43671
#
# Compressibility (1/GPa) = 0.01601836
#
# Stress axis : x y z
#
# Youngs Moduli (GPa) = 70.85194 123.62738 59.05111
#
# Poissons Ratio (x) = 0.17724 0.42798
# Poissons Ratio (y) = 0.10158 0.16996
# Poissons Ratio (z) = 0.51350 0.35583
#
# Static dielectric constant tensor:
#      x y z
#    x 3.227710 -0.039930 -0.247270 
#    y -0.039930 3.826960 -0.050710 
#    z -0.247270 -0.050710 3.383580 
# 
# 
# High freq. dielectric constant tensor:
#      x y z
#    x 1.729800 -0.003570 -0.008990 
#    y -0.003570 1.788180 -0.003370 
#    z -0.008990 -0.003370 1.745600 
# 
# From -- ./inp_files/342338.got.cif
#   From: 2010.06.25/outbox.cif.g09.slc.cpg/sg2_172_cif.got.tgz:342338.got - 2010.06.27 13:26:56.
