data_PCOD8006420
_publ_section_title
;
Structure prediction by ZEFSAII (Michael W. Deem and Ramdas Pophale) SiO2 
 PCOD8006420
Probable space group: P -1
;
_chemical_formula_sum "Si O2"
_cell_formula_units_Z 14
_cell_length_a 11.602952
_cell_length_b 9.000194
_cell_length_c 10.288022
_cell_angle_alpha 68.947053
_cell_angle_beta 126.878971
_cell_angle_gamma 131.972518
_cell_volume 637.323079
_symmetry_space_group_name_H-M "P -1"
_symmetry_group_IT_number 2
_symmetry_cell_setting 'triclinic'
loop_
_space_group_symop_operation_xyz
x,y,z
-x,-y,-z
loop_
_atom_site_type_symbol
_atom_site_label
_atom_site_fract_x
_atom_site_fract_y
_atom_site_fract_z
Si Si1 0.661231 0.828876 0.961698
Si Si2 0.008681 0.515171 0.265963
Si Si3 0.684739 0.039194 0.654390
Si Si4 0.720033 0.532952 0.173093
Si Si5 0.192701 0.016508 0.517167
Si Si6 0.185307 0.317380 0.549945
Si Si7 0.290425 0.898865 0.878310
O O1 0.457133 0.678957 0.929958
O O2 0.653182 0.890764 0.791824
O O3 0.753713 0.715902 0.053697
O O4 0.766611 0.011697 0.078240
O O5 0.897711 0.538830 0.293981
O O6 0.846894 0.344915 0.113478
O O7 0.165007 0.739403 0.251812
O O8 0.119030 0.435683 0.407084
O O9 0.500000 0.000000 0.500000
O O10 0.749499 0.995205 0.582583
O O11 0.668229 0.545997 0.282656
O O12 0.265335 0.245789 0.521911
O O13 0.263161 0.942977 0.698882
O O14 0.975654 0.877251 0.417835
O O15 0.500000 0.000000 0.000000
#
# Coordination Sequence:
#
# PCOD8006420 Si02
#       7
#     2   2   2   2   2   2   2
#     4  11  25  41  67  97 139 169 220 274 342 388
#     4  11  24  38  71  97 132 175 229 267 330 395
#     4  12  26  45  64 102 138 177 211 283 337 392
#     4  11  21  43  68  98 123 182 229 269 318 409
#     4  10  22  40  66  94 132 169 224 273 331 383
#     4  10  20  39  69  96 120 176 233 269 311 400
#     4  11  21  40  67  98 128 176 222 279 316 399
#
# _framework density 21.96688
#
# number of rings (size 3 to 8) (size 9 to 14) (size 15 to 20)
#    0.000    1.143    4.286    2.143    4.000    1.143 
#    0.000    4.286    0.000    0.000    0.000    0.000 
#    0.000    0.000    0.000    0.000    0.000    0.000 
#
# Total GULP energy -173438.883137 kJ/mol
# GULP energy per Si atom -12388.491653 kJ/mol
# Density = 2.191688 g / cm^3
# Si number density = 21.966880 Si / 1000 Ang^3
#
#
#
# Elastic Constant Matrix: (Units=GPa)
#
#
# Indices 1 2 3 4 5 6 
#
# 1 78.4535 51.8862 26.8897 -3.6475 -1.1022 -14.6253
# 2 51.8862 140.2672 45.6088 10.9125 -0.1638 -16.4724
# 3 26.8897 45.6088 101.0288 -0.8212 -5.0719 -6.5433
# 4 -3.6475 10.9125 -0.8212 35.8419 -1.1680 5.3734
# 5 -1.1022 -0.1638 -5.0719 -1.1680 38.4857 5.0548
# 6 -14.6253 -16.4724 -6.5433 5.3734 5.0548 30.3909
#
#
#
# Elastic Compliance Matrix: (Units=1/GPa)
#
#
# Indices 1 2 3 4 5 6 
#
# 1 0.018253 -0.005786 -0.001929 0.002849 -0.000297 0.004779
# 2 -0.005786 0.011134 -0.003353 -0.004624 -0.001166 0.003540
# 3 -0.001929 -0.003353 0.011975 0.001251 0.001633 -0.000660
# 4 0.002849 -0.004624 0.001251 0.030687 0.002029 -0.006629
# 5 -0.000297 -0.001166 0.001633 0.002029 0.026938 -0.005262
# 6 0.004779 0.003540 -0.000660 -0.006629 -0.005262 0.039028
#
#
# Mechanical properties :
#
#
# Convention : Reuss Voigt Hill
#
# Bulk Modulus (GPa) = 52.01134 63.16876 57.59005
# Shear Modulus (GPa) = 30.01953 33.96802 31.99377
#
# Velocity S-wave (km/s) = 3.70074 3.93660 3.82049
# Velocity P-wave (km/s) = 6.47991 7.03429 6.76278
#
# Compressibility (1/GPa) = 0.01922658
#
# Stress axis : x y z
#
# Youngs Moduli (GPa) = 54.78579 89.81620 83.50969
#
# Poissons Ratio (x) = 0.51964 0.16105
# Poissons Ratio (y) = 0.31697 0.28003
# Poissons Ratio (z) = 0.10566 0.30117
#
# Static dielectric constant tensor:
#      x y z
#    x 3.861210 -0.277240 0.157980 
#    y -0.277240 4.633980 0.427550 
#    z 0.157980 0.427550 3.874710 
# 
# 
# High freq. dielectric constant tensor:
#      x y z
#    x 1.846520 -0.027990 0.021010 
#    y -0.027990 1.879600 0.023730 
#    z 0.021010 0.023730 1.854410 
# 
# From -- ./inp_files/174891.got.cif
#   From: 2010.06.25/outbox.cif.g09.slc.cpg/sg2_88_cif.got.tgz:174891.got - 2010.06.27 13:26:56.
