data_PCOD8006777
_publ_section_title
;
Structure prediction by ZEFSAII (Michael W. Deem and Ramdas Pophale) SiO2 
 PCOD8006777
Probable space group: P -1
;
_chemical_formula_sum "Si O2"
_cell_formula_units_Z 14
_cell_length_a 11.298679
_cell_length_b 11.912539
_cell_length_c 6.980388
_cell_angle_alpha 51.691927
_cell_angle_beta 93.973213
_cell_angle_gamma 106.949531
_cell_volume 697.402460
_symmetry_space_group_name_H-M "P -1"
_symmetry_group_IT_number 2
_symmetry_cell_setting 'triclinic'
loop_
_space_group_symop_operation_xyz
x,y,z
-x,-y,-z
loop_
_atom_site_type_symbol
_atom_site_label
_atom_site_fract_x
_atom_site_fract_y
_atom_site_fract_z
Si Si1 0.610676 0.431905 0.552509
Si Si2 0.841954 0.666763 0.208724
Si Si3 0.241970 0.852549 0.739215
Si Si4 0.118897 0.812204 0.169758
Si Si5 0.242982 0.064260 0.188581
Si Si6 0.232402 0.624827 0.661479
Si Si7 0.521376 0.112074 0.061669
O O1 0.500000 0.500000 0.500000
O O2 0.741046 0.569702 0.459356
O O3 0.628333 0.376356 0.393861
O O4 0.589843 0.288017 0.837522
O O5 0.859733 0.549045 0.172387
O O6 0.969792 0.748841 0.246483
O O7 0.787264 0.780695 0.966005
O O8 0.235303 0.698134 0.790400
O O9 0.385006 0.933523 0.735279
O O10 0.196086 0.963798 0.479429
O O11 0.148126 0.811388 0.949560
O O12 0.186451 0.714272 0.396738
O O13 0.170950 0.981415 0.078811
O O14 0.390366 0.093004 0.165404
O O15 0.500000 0.000000 0.000000
#
# Coordination Sequence:
#
# PCOD8006777 Si02
#       7
#     2   2   2   2   2   2   2
#     4  10  20  40  64  87 124 160 198 254 316 352
#     4  10  22  40  63  91 128 161 205 256 301 367
#     4  11  22  39  63  92 123 162 206 252 302 363
#     4  11  21  41  65  89 123 170 208 246 302 358
#     4  11  23  39  61  95 125 160 210 252 299 369
#     4   9  21  40  63  92 120 157 211 248 298 371
#     4  12  20  40  67  89 119 162 205 251 309 364
#
# _framework density 20.074493
#
# number of rings (size 3 to 8) (size 9 to 14) (size 15 to 20)
#    0.857    0.571    4.286    2.143    0.000    1.143 
#    0.000    8.571    0.000    0.000    0.000    0.000 
#    0.000    0.000    0.000    0.000    0.000    0.000 
#
# Total GULP energy -173447.624832 kJ/mol
# GULP energy per Si atom -12389.116059 kJ/mol
# Density = 2.002880 g / cm^3
# Si number density = 20.074493 Si / 1000 Ang^3
#
#
#
# Elastic Constant Matrix: (Units=GPa)
#
#
# Indices 1 2 3 4 5 6 
#
# 1 93.6470 28.4144 31.7732 -1.6926 -10.0440 17.3124
# 2 28.4144 90.2851 54.9502 -10.9751 4.7885 1.3247
# 3 31.7732 54.9502 83.6206 2.2882 -4.4630 -7.3272
# 4 -1.6926 -10.9751 2.2882 33.0650 -2.2356 1.1350
# 5 -10.0440 4.7885 -4.4630 -2.2356 25.7411 -6.3983
# 6 17.3124 1.3247 -7.3272 1.1350 -6.3983 34.0576
#
#
#
# Elastic Compliance Matrix: (Units=1/GPa)
#
#
# Indices 1 2 3 4 5 6 
#
# 1 0.014716 -0.001324 -0.005286 0.001170 0.003183 -0.008007
# 2 -0.001324 0.022197 -0.015178 0.007996 -0.007876 -0.005202
# 3 -0.005286 -0.015178 0.025416 -0.006940 0.007129 0.010316
# 4 0.001170 0.007996 -0.006940 0.033546 -0.000204 -0.003555
# 5 0.003183 -0.007876 0.007129 -0.000204 0.044929 0.008669
# 6 -0.008007 -0.005202 0.010316 -0.003555 0.008669 0.037601
#
#
# Mechanical properties :
#
#
# Convention : Reuss Voigt Hill
#
# Bulk Modulus (GPa) = 53.32360 55.31426 54.31893
# Shear Modulus (GPa) = 21.90767 28.73374 25.32071
#
# Velocity S-wave (km/s) = 3.30710 3.78743 3.55538
# Velocity P-wave (km/s) = 6.41896 6.83670 6.63112
#
# Compressibility (1/GPa) = 0.01875342
#
# Stress axis : x y z
#
# Youngs Moduli (GPa) = 67.95223 45.05199 39.34579
#
# Poissons Ratio (x) = 0.05963 0.20797
# Poissons Ratio (y) = 0.08994 0.59720
# Poissons Ratio (z) = 0.35917 0.68381
#
# Static dielectric constant tensor:
#      x y z
#    x 3.666970 -0.008540 -0.003970 
#    y -0.008540 3.862460 -0.202650 
#    z -0.003970 -0.202650 3.450380 
# 
# 
# High freq. dielectric constant tensor:
#      x y z
#    x 1.784260 -0.003310 -0.000570 
#    y -0.003310 1.786250 -0.020590 
#    z -0.000570 -0.020590 1.765120 
# 
# From -- ./inp_files/65662.got.cif
#   From: 2010.06.25/outbox.cif.g09.slc.cpg/sg2_33_cif.got.tgz:65662.got - 2010.06.27 13:26:56.
