data_PCOD8006510
_publ_section_title
;
Structure prediction by ZEFSAII (Michael W. Deem and Ramdas Pophale) SiO2 
 PCOD8006510
Probable space group: P -1
;
_chemical_formula_sum "Si O2"
_cell_formula_units_Z 14
_cell_length_a 26.756803
_cell_length_b 4.990699
_cell_length_c 5.329704
_cell_angle_alpha 89.802377
_cell_angle_beta 114.402073
_cell_angle_gamma 117.152168
_cell_volume 561.454630
_symmetry_space_group_name_H-M "P -1"
_symmetry_group_IT_number 2
_symmetry_cell_setting 'triclinic'
loop_
_space_group_symop_operation_xyz
x,y,z
-x,-y,-z
loop_
_atom_site_type_symbol
_atom_site_label
_atom_site_fract_x
_atom_site_fract_y
_atom_site_fract_z
Si Si1 0.688405 0.549280 0.072800
Si Si2 0.874156 0.635668 0.942554
Si Si3 0.171421 0.251659 0.664254
Si Si4 0.600444 0.246954 0.288593
Si Si5 0.374085 0.110955 0.276587
Si Si6 0.931224 0.258960 0.263721
Si Si7 0.490857 0.284013 0.212663
O O1 0.763836 0.752461 0.239512
O O2 0.659000 0.555051 0.285018
O O3 0.666030 0.189185 0.980675
O O4 0.662104 0.690466 0.805480
O O5 0.824444 0.558784 0.071802
O O6 0.903075 0.412167 0.017995
O O7 0.932102 0.989042 0.100758
O O8 0.841027 0.594167 0.605350
O O9 0.114688 0.896772 0.588530
O O10 0.562490 0.338896 0.417983
O O11 0.625177 0.023148 0.447957
O O12 0.551710 0.073064 0.959989
O O13 0.449897 0.318801 0.355598
O O14 0.000000 0.500000 0.500000
O O15 0.500000 0.500000 0.000000
#
# Coordination Sequence:
#
# PCOD8006510 Si02
#       7
#     2   2   2   2   2   2   2
#     4  11  26  41  62  92 125 161 223 260 323 392
#     4  10  25  43  70 100 139 182 223 279 334 394
#     4  10  27  44  70  99 140 182 228 278 334 398
#     4  10  23  39  61  87 123 161 205 268 325 395
#     4  11  25  41  63  91 119 168 207 268 328 387
#     4  10  24  44  71 106 139 181 227 278 334 396
#     4  10  20  40  59  89 121 155 209 262 325 395
#
# _framework density 24.935227000000001
#
# number of rings (size 3 to 8) (size 9 to 14) (size 15 to 20)
#    0.857    0.857    1.429    0.857    8.000    1.714 
#    0.000    0.000    0.000    0.000    0.000    0.000 
#    0.000    0.000    0.000    0.000    0.000    0.000 
#
# Total GULP energy -173491.477696 kJ/mol
# GULP energy per Si atom -12392.248407 kJ/mol
# Density = 2.487847 g / cm^3
# Si number density = 24.935227 Si / 1000 Ang^3
#
#
#
# Elastic Constant Matrix: (Units=GPa)
#
#
# Indices 1 2 3 4 5 6 
#
# 1 92.3722 43.3217 42.1640 -4.1536 19.1256 26.4203
# 2 43.3217 81.0637 25.9883 -20.4423 14.7168 16.3054
# 3 42.1640 25.9883 138.5498 -36.2300 16.2605 23.4079
# 4 -4.1536 -20.4423 -36.2300 45.4051 -2.7656 10.7298
# 5 19.1256 14.7168 16.2605 -2.7656 43.0000 4.2052
# 6 26.4203 16.3054 23.4079 10.7298 4.2052 42.9402
#
#
#
# Elastic Compliance Matrix: (Units=1/GPa)
#
#
# Indices 1 2 3 4 5 6 
#
# 1 0.018262 -0.007929 -0.003928 -0.004154 -0.003733 -0.004681
# 2 -0.007929 0.021039 0.003787 0.013500 -0.003435 -0.008212
# 3 -0.003928 0.003787 0.013304 0.014043 -0.002747 -0.009514
# 4 -0.004154 0.013500 0.014043 0.043649 -0.003240 -0.020815
# 5 -0.003733 -0.003435 -0.002747 -0.003240 0.026599 0.003303
# 6 -0.004681 -0.008212 -0.009514 -0.020815 0.003303 0.039351
#
#
# Mechanical properties :
#
#
# Convention : Reuss Voigt Hill
#
# Bulk Modulus (GPa) = 27.42204 59.43707 43.42956
# Shear Modulus (GPa) = 26.24709 39.63650 32.94180
#
# Velocity S-wave (km/s) = 3.24792 3.99128 3.63863
# Velocity P-wave (km/s) = 5.00864 6.71779 5.92517
#
# Compressibility (1/GPa) = 0.03646701
#
# Stress axis : x y z
#
# Youngs Moduli (GPa) = 54.75832 47.53113 75.16341
#
# Poissons Ratio (x) = 0.37686 0.29522
# Poissons Ratio (y) = 0.43416 -0.28467
# Poissons Ratio (z) = 0.21508 -0.18002
#
# Static dielectric constant tensor:
#      x y z
#    x 4.534920 -0.018590 -0.067900 
#    y -0.018590 4.511480 -0.040540 
#    z -0.067900 -0.040540 4.315010 
# 
# 
# High freq. dielectric constant tensor:
#      x y z
#    x 1.981260 -0.007110 -0.005450 
#    y -0.007110 1.997820 -0.006590 
#    z -0.005450 -0.006590 1.992020 
# 
# From -- ./inp_files/120571.got.cif
#   From: 2010.06.25/outbox.cif.g09.slc.cpg/sg2_61_cif.got.tgz:120571.got - 2010.06.27 13:26:56.
