data_PCOD8006600
_publ_section_title
;
Structure prediction by ZEFSAII (Michael W. Deem and Ramdas Pophale) SiO2 
 PCOD8006600
Probable space group: P -1
;
_chemical_formula_sum "Si O2"
_cell_formula_units_Z 16
_cell_length_a 15.100231
_cell_length_b 11.703473
_cell_length_c 9.119445
_cell_angle_alpha 36.340784
_cell_angle_beta 116.352381
_cell_angle_gamma 120.400585
_cell_volume 821.647966
_symmetry_space_group_name_H-M "P -1"
_symmetry_group_IT_number 2
_symmetry_cell_setting 'triclinic'
loop_
_space_group_symop_operation_xyz
x,y,z
-x,-y,-z
loop_
_atom_site_type_symbol
_atom_site_label
_atom_site_fract_x
_atom_site_fract_y
_atom_site_fract_z
Si Si1 0.191584 0.305175 0.762437
Si Si2 0.878062 0.056455 0.087277
Si Si3 0.390919 0.539275 0.546745
Si Si4 0.745994 0.323908 0.210351
Si Si5 0.379969 0.446349 0.298255
Si Si6 0.788689 0.967733 0.427417
Si Si7 0.742944 0.260874 0.606032
Si Si8 0.108506 0.261905 0.053293
O O1 0.312364 0.341269 0.768570
O O2 0.170924 0.524687 0.521753
O O3 0.117395 0.164988 0.731958
O O4 0.168626 0.216644 0.000721
O O5 0.839209 0.061534 0.216691
O O6 0.987490 0.217367 0.980310
O O7 0.792980 0.092499 0.874076
O O8 0.376938 0.533997 0.367242
O O9 0.505325 0.548685 0.669330
O O10 0.360592 0.736743 0.381480
O O11 0.759925 0.146810 0.303241
O O12 0.714377 0.233694 0.441748
O O13 0.656816 0.412427 0.989253
O O14 0.850615 0.507461 0.102242
O O15 0.312233 0.216256 0.480149
O O16 0.875063 0.892347 0.653024
#
# Coordination Sequence:
#
# PCOD8006600 Si02
#       8
#     2   2   2   2   2   2   2   2
#     4   9  20  39  57  83 113 145 190 238 271 329
#     4  12  21  36  62  84 112 155 189 230 279 333
#     4   9  19  41  61  84 111 147 186 240 279 334
#     4  10  22  39  57  83 121 148 182 239 276 337
#     4  10  20  40  62  84 112 147 189 230 293 326
#     4  11  22  38  56  88 117 146 189 233 276 341
#     4   9  21  38  56  85 116 145 191 230 277 333
#     4  10  23  38  58  83 117 151 188 231 282 331
#
# _framework density 19.47306
#
# number of rings (size 3 to 8) (size 9 to 14) (size 15 to 20)
#    0.750    1.250    1.250    2.250    0.000    4.000 
#    2.250    2.500    0.000    0.000    0.000    0.000 
#    0.000    0.000    0.000    0.000    0.000    0.000 
#
# Total GULP energy -198314.555797 kJ/mol
# GULP energy per Si atom -12394.659737 kJ/mol
# Density = 1.942874 g / cm^3
# Si number density = 19.473060 Si / 1000 Ang^3
#
#
#
# Elastic Constant Matrix: (Units=GPa)
#
#
# Indices 1 2 3 4 5 6 
#
# 1 107.4263 35.0927 47.3123 16.4136 -10.7158 3.0265
# 2 35.0927 63.2332 2.7341 5.1272 -0.3816 -10.9045
# 3 47.3123 2.7341 73.2026 20.3113 -5.1768 -1.2833
# 4 16.4136 5.1272 20.3113 27.9178 -4.3452 -0.9314
# 5 -10.7158 -0.3816 -5.1768 -4.3452 24.2628 2.3415
# 6 3.0265 -10.9045 -1.2833 -0.9314 2.3415 33.2103
#
#
#
# Elastic Compliance Matrix: (Units=1/GPa)
#
#
# Indices 1 2 3 4 5 6 
#
# 1 0.018636 -0.010879 -0.011316 0.000041 0.006246 -0.006147
# 2 -0.010879 0.023374 0.006926 -0.003321 -0.004437 0.009153
# 3 -0.011316 0.006926 0.024045 -0.012345 -0.002361 0.004055
# 4 0.000041 -0.003321 -0.012345 0.046248 0.005680 -0.000675
# 5 0.006246 -0.004437 -0.002361 0.005680 0.044912 -0.005125
# 6 -0.006147 0.009153 0.004055 -0.000675 -0.005125 0.034176
#
#
# Mechanical properties :
#
#
# Convention : Reuss Voigt Hill
#
# Bulk Modulus (GPa) = 28.15489 46.01560 37.08525
# Shear Modulus (GPa) = 21.38873 27.65973 24.52423
#
# Velocity S-wave (km/s) = 3.31777 3.77292 3.55264
# Velocity P-wave (km/s) = 5.40061 6.53158 5.99284
#
# Compressibility (1/GPa) = 0.03551781
#
# Stress axis : x y z
#
# Youngs Moduli (GPa) = 53.65890 42.78344 41.58805
#
# Poissons Ratio (x) = 0.46544 0.47062
# Poissons Ratio (y) = 0.58375 -0.28806
# Poissons Ratio (z) = 0.60721 -0.29634
#
# Static dielectric constant tensor:
#      x y z
#    x 3.427820 -0.087240 -0.124030 
#    y -0.087240 3.590790 0.051910 
#    z -0.124030 0.051910 3.410450 
# 
# 
# High freq. dielectric constant tensor:
#      x y z
#    x 1.752030 -0.013900 -0.010310 
#    y -0.013900 1.764400 0.004180 
#    z -0.010310 0.004180 1.749940 
# 
# From -- ./inp_files/306332.got.cif
#   From: 2010.06.25/outbox.cif.g09.slc.cpg/sg2_154_cif.got.tgz:306332.got - 2010.06.27 13:26:56.
