data_PCOD8006984
_publ_section_title
;
Structure prediction by ZEFSAII (Michael W. Deem and Ramdas Pophale) SiO2 
 PCOD8006984
Probable space group: P -1
;
_chemical_formula_sum "Si O2"
_cell_formula_units_Z 16
_cell_length_a 14.320066
_cell_length_b 8.462579
_cell_length_c 14.867453
_cell_angle_alpha 56.265904
_cell_angle_beta 142.796948
_cell_angle_gamma 97.640046
_cell_volume 714.185514
_symmetry_space_group_name_H-M "P -1"
_symmetry_group_IT_number 2
_symmetry_cell_setting 'triclinic'
loop_
_space_group_symop_operation_xyz
x,y,z
-x,-y,-z
loop_
_atom_site_type_symbol
_atom_site_label
_atom_site_fract_x
_atom_site_fract_y
_atom_site_fract_z
Si Si1 0.265506 0.961546 0.541209
Si Si2 0.861679 0.874768 0.804510
Si Si3 0.630210 0.902813 0.883557
Si Si4 0.296737 0.154101 0.847101
Si Si5 0.235113 0.481700 0.127902
Si Si6 0.899499 0.399150 0.199462
Si Si7 0.897654 0.304293 0.425258
Si Si8 0.577857 0.255119 0.589947
O O1 0.480828 0.835479 0.787000
O O2 0.186056 0.813486 0.550437
O O3 0.266373 0.991164 0.425473
O O4 0.124513 0.225597 0.395512
O O5 0.834426 0.682987 0.881681
O O6 0.796596 0.073953 0.770851
O O7 0.092495 0.719000 0.006948
O O8 0.546326 0.119803 0.682884
O O9 0.652949 0.976309 0.976192
O O10 0.843798 0.659304 0.097657
O O11 0.223190 0.425010 0.716960
O O12 0.129906 0.155115 0.670123
O O13 0.500000 0.000000 0.000000
O O14 0.449906 0.315985 0.384376
O O15 0.233062 0.571496 0.996703
O O16 0.869118 0.294939 0.298807
O O17 0.500000 0.500000 0.500000
#
# Coordination Sequence:
#
# PCOD8006984 Si02
#       8
#     2   2   2   2   2   2   2   2
#     4  11  22  38  66  95 125 159 218 267 311 374
#     4  10  21  39  65  91 120 167 212 264 313 371
#     4  11  23  39  63  91 123 172 209 263 321 382
#     4  10  23  43  64  87 131 171 203 254 329 377
#     4  10  20  40  66  90 120 162 217 261 315 371
#     4  10  21  38  66  91 120 161 212 267 311 366
#     4  10  23  41  62  98 125 161 213 264 312 382
#     4  12  25  40  60  94 132 165 213 263 321 387
#
# _framework density 22.403141999999999
#
# number of rings (size 3 to 8) (size 9 to 14) (size 15 to 20)
#    0.000    1.500    2.500    2.250    0.000    6.500 
#    0.000    0.000    0.000    0.000    0.000    0.000 
#    0.000    0.000    0.000    0.000    0.000    0.000 
#
# Total GULP energy -198286.717527 kJ/mol
# GULP energy per Si atom -12392.919845 kJ/mol
# Density = 2.235215 g / cm^3
# Si number density = 22.403142 Si / 1000 Ang^3
#
#
#
# Elastic Constant Matrix: (Units=GPa)
#
#
# Indices 1 2 3 4 5 6 
#
# 1 118.3927 61.2539 59.0829 0.2534 -8.0016 -22.2569
# 2 61.2539 84.5781 39.3697 -18.0509 2.2868 -18.5657
# 3 59.0829 39.3697 112.4699 3.0183 -13.8021 -8.3756
# 4 0.2534 -18.0509 3.0183 32.3601 -13.8508 8.8957
# 5 -8.0016 2.2868 -13.8021 -13.8508 33.5811 -2.8921
# 6 -22.2569 -18.5657 -8.3756 8.8957 -2.8921 40.4354
#
#
#
# Elastic Compliance Matrix: (Units=1/GPa)
#
#
# Indices 1 2 3 4 5 6 
#
# 1 0.017397 -0.010729 -0.004744 -0.006884 0.000536 0.005220
# 2 -0.010729 0.024271 -0.003069 0.013575 0.000269 0.001635
# 3 -0.004744 -0.003069 0.012900 -0.000971 0.003906 -0.000856
# 4 -0.006884 0.013575 -0.000971 0.047393 0.015977 -0.007041
# 5 0.000536 0.000269 0.003906 0.015977 0.038121 0.000439
# 6 0.005220 0.001635 -0.000856 -0.007041 0.000439 0.029758
#
#
# Mechanical properties :
#
#
# Convention : Reuss Voigt Hill
#
# Bulk Modulus (GPa) = 57.19878 70.53929 63.86904
# Shear Modulus (GPa) = 23.50127 31.65760 27.57944
#
# Velocity S-wave (km/s) = 3.24237 3.76318 3.51244
# Velocity P-wave (km/s) = 6.29319 7.10188 6.70973
#
# Compressibility (1/GPa) = 0.01748289
#
# Stress axis : x y z
#
# Youngs Moduli (GPa) = 57.47984 41.20073 77.52164
#
# Poissons Ratio (x) = 0.44205 0.36778
# Poissons Ratio (y) = 0.61671 0.23794
# Poissons Ratio (z) = 0.27270 0.12646
#
# Static dielectric constant tensor:
#      x y z
#    x 4.042180 -0.392410 -0.099310 
#    y -0.392410 3.806650 -0.145200 
#    z -0.099310 -0.145200 4.256820 
# 
# 
# High freq. dielectric constant tensor:
#      x y z
#    x 1.881420 -0.036660 -0.011210 
#    y -0.036660 1.854880 -0.018790 
#    z -0.011210 -0.018790 1.902350 
# 
# From -- ./inp_files/528298.got.cif
#   From: 2010.06.25/outbox.cif.g09.slc.cpg/sg2_265_cif.got.tgz:528298.got - 2010.06.27 13:26:56.
