data_PCOD8006465
_publ_section_title
;
Structure prediction by ZEFSAII (Michael W. Deem and Ramdas Pophale) SiO2 
 PCOD8006465
Probable space group: P -1
;
_chemical_formula_sum "Si O2"
_cell_formula_units_Z 16
_cell_length_a 5.368670
_cell_length_b 23.250277
_cell_length_c 8.790052
_cell_angle_alpha 52.350426
_cell_angle_beta 119.960600
_cell_angle_gamma 130.707584
_cell_volume 649.137584
_symmetry_space_group_name_H-M "P -1"
_symmetry_group_IT_number 2
_symmetry_cell_setting 'triclinic'
loop_
_space_group_symop_operation_xyz
x,y,z
-x,-y,-z
loop_
_atom_site_type_symbol
_atom_site_label
_atom_site_fract_x
_atom_site_fract_y
_atom_site_fract_z
Si Si1 0.157770 0.722486 0.445348
Si Si2 0.288106 0.467077 0.334468
Si Si3 0.146033 0.194372 0.315564
Si Si4 0.061322 0.149374 0.852073
Si Si5 0.899915 0.056442 0.240074
Si Si6 0.070884 0.463550 0.732616
Si Si7 0.183303 0.949887 0.342685
Si Si8 0.800240 0.276232 0.904455
O O1 0.516762 0.749686 0.578189
O O2 0.136927 0.715003 0.269857
O O3 0.889812 0.633038 0.577488
O O4 0.059497 0.790851 0.354843
O O5 0.500000 0.500000 0.500000
O O6 0.536630 0.508074 0.199529
O O7 0.015161 0.497356 0.209919
O O8 0.180476 0.135411 0.294414
O O9 0.859919 0.130985 0.447601
O O10 0.053808 0.257602 0.102730
O O11 0.431507 0.200743 0.948711
O O12 0.043754 0.085039 0.821456
O O13 0.818179 0.094273 0.004707
O O14 0.568443 0.007933 0.320776
O O15 0.045862 0.997503 0.329681
O O16 0.000000 0.500000 0.500000
O O17 0.840005 0.363094 0.836577
#
# Coordination Sequence:
#
# PCOD8006465 Si02
#       8
#     2   2   2   2   2   2   2   2
#     4  12  25  47  74 108 151 194 246 307 368 446
#     4  10  20  39  72 103 141 194 238 289 369 432
#     4  12  28  50  74 112 148 200 248 308 382 444
#     4  12  26  46  78 112 144 200 258 306 376 448
#     4  12  27  49  75 106 150 197 251 316 377 445
#     4  10  20  39  72 103 141 194 238 289 369 432
#     4  12  27  49  75 106 150 197 251 316 377 445
#     4  12  25  47  74 108 151 194 246 307 368 446
#
# _framework density 24.648088999999999
#
# number of rings (size 3 to 8) (size 9 to 14) (size 15 to 20)
#    0.000    0.500    5.000    4.500    0.000    3.000 
#    0.000    1.250    0.000    0.000    0.000    0.000 
#    0.000    0.000    0.000    0.000    0.000    0.000 
#
# Total GULP energy -198357.490733 kJ/mol
# GULP energy per Si atom -12397.343171 kJ/mol
# Density = 2.459199 g / cm^3
# Si number density = 24.648089 Si / 1000 Ang^3
#
#
#
# Elastic Constant Matrix: (Units=GPa)
#
#
# Indices 1 2 3 4 5 6 
#
# 1 134.1047 19.4135 2.8182 -5.4672 0.8763 -7.1675
# 2 19.4135 94.3638 32.9641 -23.7283 12.8551 3.6642
# 3 2.8182 32.9641 50.7392 -2.7219 13.1410 -6.5952
# 4 -5.4672 -23.7283 -2.7219 25.2282 -2.1957 1.5395
# 5 0.8763 12.8551 13.1410 -2.1957 31.2246 -8.1845
# 6 -7.1675 3.6642 -6.5952 1.5395 -8.1845 34.8662
#
#
#
# Elastic Compliance Matrix: (Units=1/GPa)
#
#
# Indices 1 2 3 4 5 6 
#
# 1 0.007869 -0.002323 0.001132 -0.000425 0.000829 0.002289
# 2 -0.002323 0.020485 -0.012121 0.017530 -0.003759 -0.006580
# 3 0.001132 -0.012121 0.029506 -0.008902 -0.006526 0.005949
# 4 -0.000425 0.017530 -0.008902 0.055354 -0.001230 -0.006347
# 5 0.000829 -0.003759 -0.006526 -0.001230 0.038413 0.008402
# 6 0.002289 -0.006580 0.005949 -0.006347 0.008402 0.033221
#
#
# Mechanical properties :
#
#
# Convention : Reuss Voigt Hill
#
# Bulk Modulus (GPa) = 32.01355 43.28881 37.65118
# Shear Modulus (GPa) = 22.53424 33.19792 27.86608
#
# Velocity S-wave (km/s) = 3.02692 3.67396 3.36602
# Velocity P-wave (km/s) = 5.02322 5.96642 5.51502
#
# Compressibility (1/GPa) = 0.03123677
#
# Stress axis : x y z
#
# Youngs Moduli (GPa) = 127.08103 48.81575 33.89101
#
# Poissons Ratio (x) = 0.11341 -0.03837
# Poissons Ratio (y) = 0.29524 0.41079
# Poissons Ratio (z) = -0.14389 0.59169
#
# Static dielectric constant tensor:
#      x y z
#    x 5.245180 -0.189990 -0.158530 
#    y -0.189990 4.628340 -0.132660 
#    z -0.158530 -0.132660 4.396370 
# 
# 
# High freq. dielectric constant tensor:
#      x y z
#    x 1.981730 -0.004640 -0.008280 
#    y -0.004640 1.990600 -0.010640 
#    z -0.008280 -0.010640 1.974910 
# 
# From -- ./inp_files/141283.got.cif
#   From: 2010.06.25/outbox.cif.g09.slc.cpg/sg2_71_cif.got.tgz:141283.got - 2010.06.27 13:26:56.
