data_PCOD8006402
_publ_section_title
;
Structure prediction by ZEFSAII (Michael W. Deem and Ramdas Pophale) SiO2 
 PCOD8006402
Probable space group: P -1
;
_chemical_formula_sum "Si O2"
_cell_formula_units_Z 14
_cell_length_a 16.321339
_cell_length_b 13.233040
_cell_length_c 9.790132
_cell_angle_alpha 133.494492
_cell_angle_beta 57.453253
_cell_angle_gamma 155.136427
_cell_volume 618.476167
_symmetry_space_group_name_H-M "P -1"
_symmetry_group_IT_number 2
_symmetry_cell_setting 'triclinic'
loop_
_space_group_symop_operation_xyz
x,y,z
-x,-y,-z
loop_
_atom_site_type_symbol
_atom_site_label
_atom_site_fract_x
_atom_site_fract_y
_atom_site_fract_z
Si Si1 0.049356 0.416116 0.305714
Si Si2 0.589986 0.331311 0.719842
Si Si3 0.480351 0.795385 0.022948
Si Si4 0.852852 0.899732 0.942500
Si Si5 0.044124 0.166229 0.728656
Si Si6 0.829474 0.171164 0.858480
Si Si7 0.663806 0.101615 0.696389
O O1 0.224230 0.545939 0.346358
O O2 0.127441 0.551480 0.207625
O O3 0.000000 0.500000 0.500000
O O4 0.854531 0.066688 0.139800
O O5 0.638972 0.550794 0.828047
O O6 0.411895 0.052882 0.523604
O O7 0.512594 0.243014 0.861741
O O8 0.284468 0.484531 0.834498
O O9 0.685746 0.999918 0.960159
O O10 0.484192 0.968851 0.170462
O O11 0.929700 0.978596 0.793694
O O12 0.000000 0.000000 0.000000
O O13 0.945745 0.175208 0.755967
O O14 0.000000 0.000000 0.500000
O O15 0.693627 0.015649 0.697803
O O16 0.000000 0.500000 0.000000
#
# Coordination Sequence:
#
# PCOD8006402 Si02
#       7
#     2   2   2   2   2   2   2
#     4  10  20  39  69 103 139 180 233 289 352 417
#     4  10  23  43  72 101 142 183 232 298 355 412
#     4  11  23  49  72 101 146 184 237 303 351 415
#     4  10  20  44  71  97 140 185 232 285 355 416
#     4  12  27  46  72 104 147 188 234 298 356 422
#     4  12  27  46  73 100 139 192 240 286 358 430
#     4  11  23  43  70 106 137 188 237 288 357 416
#
# _framework density 22.636278999999998
#
# number of rings (size 3 to 8) (size 9 to 14) (size 15 to 20)
#    0.000    1.143    5.714    2.143    2.000    7.429 
#    0.000    1.429    0.000    0.000    0.000    0.000 
#    0.000    0.000    0.000    0.000    0.000    0.000 
#
# Total GULP energy -173534.893226 kJ/mol
# GULP energy per Si atom -12395.349516 kJ/mol
# Density = 2.258476 g / cm^3
# Si number density = 22.636279 Si / 1000 Ang^3
#
#
#
# Elastic Constant Matrix: (Units=GPa)
#
#
# Indices 1 2 3 4 5 6 
#
# 1 105.8197 47.3018 64.5912 -0.3092 -3.4872 -21.0575
# 2 47.3018 117.1250 58.3740 6.1018 -6.5233 -12.6798
# 3 64.5912 58.3740 169.6721 4.2837 -6.3437 -10.1297
# 4 -0.3092 6.1018 4.2837 28.3115 -1.4994 -2.0398
# 5 -3.4872 -6.5233 -6.3437 -1.4994 44.8371 0.3976
# 6 -21.0575 -12.6798 -10.1297 -2.0398 0.3976 35.0553
#
#
#
# Elastic Compliance Matrix: (Units=1/GPa)
#
#
# Indices 1 2 3 4 5 6 
#
# 1 0.014770 -0.003282 -0.004146 0.001976 0.000092 0.006601
# 2 -0.003282 0.011414 -0.002514 -0.001970 0.000972 0.001305
# 3 -0.004146 -0.002514 0.008312 -0.000812 0.000470 -0.001050
# 4 0.001976 -0.001970 -0.000812 0.036108 0.000939 0.002330
# 5 0.000092 0.000972 0.000470 0.000939 0.022546 0.000342
# 6 0.006601 0.001305 -0.001050 0.002330 0.000342 0.032792
#
#
# Mechanical properties :
#
#
# Convention : Reuss Voigt Hill
#
# Bulk Modulus (GPa) = 68.42965 81.46120 74.94543
# Shear Modulus (GPa) = 33.17919 36.46409 34.82164
#
# Velocity S-wave (km/s) = 3.83267 4.01792 3.92639
# Velocity P-wave (km/s) = 7.06268 7.58881 7.33047
#
# Compressibility (1/GPa) = 0.01461355
#
# Stress axis : x y z
#
# Youngs Moduli (GPa) = 67.70425 87.61084 120.30585
#
# Poissons Ratio (x) = 0.28753 0.49878
# Poissons Ratio (y) = 0.22220 0.30239
# Poissons Ratio (z) = 0.28070 0.22021
#
# Static dielectric constant tensor:
#      x y z
#    x 7.459890 -0.148190 1.807420 
#    y -0.148190 4.105220 0.199000 
#    z 1.807420 0.199000 5.120200 
# 
# 
# High freq. dielectric constant tensor:
#      x y z
#    x 1.901380 -0.011500 0.004370 
#    y -0.011500 1.890900 0.006320 
#    z 0.004370 0.006320 1.892560 
# 
# From -- ./inp_files/308494.got.cif
#   From: 2010.06.25/outbox.cif.g09.slc.cpg/sg2_155_cif.got.tgz:308494.got - 2010.06.27 13:26:56.
