data_PCOD8006057
_publ_section_title
;
Structure prediction by ZEFSAII (Michael W. Deem and Ramdas Pophale) SiO2 
 PCOD8006057
Probable space group: P -1
;
_chemical_formula_sum "Si O2"
_cell_formula_units_Z 16
_cell_length_a 8.435023
_cell_length_b 7.576595
_cell_length_c 16.962765
_cell_angle_alpha 102.597063
_cell_angle_beta 73.627747
_cell_angle_gamma 132.439609
_cell_volume 766.995118
_symmetry_space_group_name_H-M "P -1"
_symmetry_group_IT_number 2
_symmetry_cell_setting 'triclinic'
loop_
_space_group_symop_operation_xyz
x,y,z
-x,-y,-z
loop_
_atom_site_type_symbol
_atom_site_label
_atom_site_fract_x
_atom_site_fract_y
_atom_site_fract_z
Si Si1 0.098703 0.564593 0.678555
Si Si2 0.830278 0.505581 0.849618
Si Si3 0.802211 0.711686 0.274664
Si Si4 0.221895 0.921249 0.140018
Si Si5 0.193911 0.724382 0.445487
Si Si6 0.529039 0.464100 0.140621
Si Si7 0.670595 0.963764 0.406311
Si Si8 0.957426 0.768240 0.010377
O O1 0.237256 0.503242 0.693397
O O2 0.258508 0.804055 0.628035
O O3 0.993037 0.620097 0.763968
O O4 0.903533 0.324943 0.633420
O O5 0.652939 0.533327 0.867092
O O6 0.975420 0.650401 0.920818
O O7 0.713776 0.227769 0.848626
O O8 0.613476 0.599668 0.225311
O O9 0.793684 0.874565 0.350657
O O10 0.035483 0.879826 0.215489
O O11 0.435405 0.196718 0.140124
O O12 0.139830 0.838027 0.053891
O O13 0.264784 0.961533 0.502939
O O14 0.000000 0.500000 0.500000
O O15 0.409187 0.750811 0.414128
O O16 0.716877 0.581745 0.061729
O O17 0.000000 0.000000 0.000000
#
# Coordination Sequence:
#
# PCOD8006057 Si02
#       8
#     2   2   2   2   2   2   2   2
#     4  10  22  39  60  90 119 151 201 240 294 355
#     4  11  22  40  63  87 117 161 196 250 302 347
#     4  10  23  38  60  92 119 155 200 244 291 351
#     4  10  23  42  59  87 123 154 203 249 295 353
#     4   9  20  40  61  90 120 153 196 235 291 356
#     4  11  23  40  58  86 121 158 203 247 296 353
#     4  10  20  39  65  85 121 159 186 243 296 345
#     4  11  23  41  60  86 122 156 202 251 297 355
#
# _framework density 20.860628999999999
#
# number of rings (size 3 to 8) (size 9 to 14) (size 15 to 20)
#    0.000    1.750    1.250    2.250    1.750    5.000 
#    4.500    5.625    0.000    0.000    0.000    0.000 
#    0.000    0.000    0.000    0.000    0.000    0.000 
#
# Total GULP energy -198416.111514 kJ/mol
# GULP energy per Si atom -12401.006970 kJ/mol
# Density = 2.081315 g / cm^3
# Si number density = 20.860629 Si / 1000 Ang^3
#
#
#
# Elastic Constant Matrix: (Units=GPa)
#
#
# Indices 1 2 3 4 5 6 
#
# 1 39.6266 18.7149 17.7428 2.3812 4.0074 -4.3939
# 2 18.7149 98.7691 28.7000 -10.8631 -14.1825 -5.3893
# 3 17.7428 28.7000 114.4454 19.7687 -10.3795 2.3249
# 4 2.3812 -10.8631 19.7687 37.2183 -5.2571 2.6656
# 5 4.0074 -14.1825 -10.3795 -5.2571 15.9339 1.1449
# 6 -4.3939 -5.3893 2.3249 2.6656 1.1449 27.7166
#
#
#
# Elastic Compliance Matrix: (Units=1/GPa)
#
#
# Indices 1 2 3 4 5 6 
#
# 1 0.034387 -0.008749 -0.004170 -0.005978 -0.021524 0.005564
# 2 -0.008749 0.016150 -0.002669 0.009186 0.017841 0.000357
# 3 -0.004170 -0.002669 0.011500 -0.005880 0.004350 -0.001759
# 4 -0.005978 0.009186 -0.005880 0.035782 0.017859 -0.002847
# 5 -0.021524 0.017841 0.004350 0.017859 0.093201 -0.005876
# 6 0.005564 0.000357 -0.001759 -0.002847 -0.005876 0.037695
#
#
# Mechanical properties :
#
#
# Convention : Reuss Voigt Hill
#
# Bulk Modulus (GPa) = 32.40365 42.57296 37.48830
# Shear Modulus (GPa) = 18.50641 28.68599 23.59620
#
# Velocity S-wave (km/s) = 2.98173 3.71229 3.36688
# Velocity P-wave (km/s) = 5.23654 6.23116 5.75538
#
# Compressibility (1/GPa) = 0.03086072
#
# Stress axis : x y z
#
# Youngs Moduli (GPa) = 29.08055 61.92115 86.95933
#
# Poissons Ratio (x) = 0.54172 0.36261
# Poissons Ratio (y) = 0.25441 0.23214
# Poissons Ratio (z) = 0.12126 0.16530
#
# Static dielectric constant tensor:
#      x y z
#    x 3.595940 0.099370 0.174310 
#    y 0.099370 3.848980 0.210870 
#    z 0.174310 0.210870 4.182530 
# 
# 
# High freq. dielectric constant tensor:
#      x y z
#    x 1.802550 0.002520 0.002330 
#    y 0.002520 1.816760 0.007130 
#    z 0.002330 0.007130 1.835370 
# 
# From -- ./inp_files/495198.got.cif
#   From: 2010.06.25/outbox.cif.g09.slc.cpg/sg2_248_cif.got.tgz:495198.got - 2010.06.27 13:26:56.
