data_PCOD8006813
_publ_section_title
;
Structure prediction by ZEFSAII (Michael W. Deem and Ramdas Pophale) SiO2 
 PCOD8006813
Probable space group: P -1
;
_chemical_formula_sum "Si O2"
_cell_formula_units_Z 14
_cell_length_a 10.768324
_cell_length_b 7.624341
_cell_length_c 11.729854
_cell_angle_alpha 144.679385
_cell_angle_beta 88.951359
_cell_angle_gamma 92.105225
_cell_volume 556.291755
_symmetry_space_group_name_H-M "P -1"
_symmetry_group_IT_number 2
_symmetry_cell_setting 'triclinic'
loop_
_space_group_symop_operation_xyz
x,y,z
-x,-y,-z
loop_
_atom_site_type_symbol
_atom_site_label
_atom_site_fract_x
_atom_site_fract_y
_atom_site_fract_z
Si Si1 0.015543 0.830843 0.063030
Si Si2 0.830917 0.300156 0.807150
Si Si3 0.424542 0.257971 0.076730
Si Si4 0.367334 0.458116 0.902495
Si Si5 0.305876 0.802518 0.467941
Si Si6 0.133983 0.646800 0.589550
Si Si7 0.228023 0.787342 0.876393
O O1 0.120691 0.909871 0.202589
O O2 0.093211 0.893428 0.979117
O O3 0.893462 0.012290 0.187829
O O4 0.959365 0.487511 0.875539
O O5 0.777494 0.123660 0.603190
O O6 0.712747 0.489978 0.954745
O O7 0.492099 0.367926 0.012446
O O8 0.414177 0.567099 0.315151
O O9 0.500000 0.000000 0.000000
O O10 0.289648 0.094942 0.981254
O O11 0.304151 0.627134 0.887533
O O12 0.369315 0.102240 0.681860
O O13 0.212804 0.629699 0.465420
O O14 0.210449 0.536416 0.640848
O O15 0.000000 0.500000 0.500000
#
# Coordination Sequence:
#
# PCOD8006813 Si02
#       7
#     2   2   2   2   2   2   2
#     4  10  20  40  64  92 134 173 213 258 325 384
#     4  10  22  40  66  96 130 171 209 272 324 378
#     4  10  23  46  68  91 129 174 218 271 330 384
#     4  10  23  45  67  96 127 170 227 270 315 386
#     4  12  24  41  69  98 130 166 226 268 323 387
#     4  12  24  37  63 102 135 169 218 265 319 395
#     4  10  22  43  67  92 136 177 213 265 330 380
#
# _framework density 25.166647999999999
#
# number of rings (size 3 to 8) (size 9 to 14) (size 15 to 20)
#    0.000    1.429    1.429    3.429    2.000    1.143 
#    2.571    1.429    0.000    0.000    0.000    0.000 
#    0.000    0.000    0.000    0.000    0.000    0.000 
#
# Total GULP energy -173443.129706 kJ/mol
# GULP energy per Si atom -12388.794979 kJ/mol
# Density = 2.510937 g / cm^3
# Si number density = 25.166648 Si / 1000 Ang^3
#
#
#
# Elastic Constant Matrix: (Units=GPa)
#
#
# Indices 1 2 3 4 5 6 
#
# 1 104.2005 27.1956 4.2773 -6.7521 -4.5515 31.9426
# 2 27.1956 97.7058 14.8313 -20.6482 -8.4841 44.8020
# 3 4.2773 14.8313 68.6395 -18.8069 0.4203 15.6673
# 4 -6.7521 -20.6482 -18.8069 38.6353 1.0814 -5.7897
# 5 -4.5515 -8.4841 0.4203 1.0814 47.3065 0.6945
# 6 31.9426 44.8020 15.6673 -5.7897 0.6945 48.5767
#
#
#
# Elastic Compliance Matrix: (Units=1/GPa)
#
#
# Indices 1 2 3 4 5 6 
#
# 1 0.012353 0.001334 0.001753 0.002233 0.001503 -0.009674
# 2 0.001334 0.021016 0.002545 0.009597 0.003949 -0.019994
# 3 0.001753 0.002545 0.018367 0.009351 0.000370 -0.008314
# 4 0.002233 0.009597 0.009351 0.034537 0.001199 -0.009237
# 5 0.001503 0.003949 0.000370 0.001199 0.022033 -0.004922
# 6 -0.009674 -0.019994 -0.008314 -0.009237 -0.004922 0.047038
#
#
# Mechanical properties :
#
#
# Convention : Reuss Voigt Hill
#
# Bulk Modulus (GPa) = 15.87326 40.35047 28.11186
# Shear Modulus (GPa) = 30.28819 41.85314 36.07066
#
# Velocity S-wave (km/s) = 3.47292 4.08246 3.78997
# Velocity P-wave (km/s) = 4.73313 6.18790 5.50875
#
# Compressibility (1/GPa) = 0.06299904
#
# Stress axis : x y z
#
# Youngs Moduli (GPa) = 80.95462 47.58244 54.44418
#
# Poissons Ratio (x) = -0.06347 -0.09543
# Poissons Ratio (y) = -0.10798 -0.13855
# Poissons Ratio (z) = -0.14189 -0.12109
#
# Static dielectric constant tensor:
#      x y z
#    x 5.267600 0.078060 -0.175720 
#    y 0.078060 5.146200 0.130170 
#    z -0.175720 0.130170 4.732280 
# 
# 
# High freq. dielectric constant tensor:
#      x y z
#    x 2.033450 -0.001430 0.008920 
#    y -0.001430 2.028690 -0.018740 
#    z 0.008920 -0.018740 1.980570 
# 
# From -- ./inp_files/48309.got.cif
#   From: 2010.06.25/outbox.cif.g09.slc.cpg/sg2_25_cif.got.tgz:48309.got - 2010.06.27 13:26:56.
