data_PCOD8006055
_publ_section_title
;
Structure prediction by ZEFSAII (Michael W. Deem and Ramdas Pophale) SiO2 
 PCOD8006055
Probable space group: P -1
;
_chemical_formula_sum "Si O2"
_cell_formula_units_Z 16
_cell_length_a 8.749086
_cell_length_b 13.364336
_cell_length_c 12.674459
_cell_angle_alpha 70.111120
_cell_angle_beta 41.241314
_cell_angle_gamma 51.275181
_cell_volume 737.357440
_symmetry_space_group_name_H-M "P -1"
_symmetry_group_IT_number 2
_symmetry_cell_setting 'triclinic'
loop_
_space_group_symop_operation_xyz
x,y,z
-x,-y,-z
loop_
_atom_site_type_symbol
_atom_site_label
_atom_site_fract_x
_atom_site_fract_y
_atom_site_fract_z
Si Si1 0.667575 0.198865 0.093723
Si Si2 0.826827 0.628827 0.191064
Si Si3 0.711970 0.097413 0.681053
Si Si4 0.716605 0.476574 0.172498
Si Si5 0.336796 0.386282 0.375675
Si Si6 0.696425 0.248866 0.822378
Si Si7 0.667813 0.960036 0.191854
Si Si8 0.201792 0.244569 0.640439
O O1 0.462170 0.336965 0.211323
O O2 0.572876 0.106236 0.210997
O O3 0.618587 0.225527 0.985764
O O4 0.995594 0.133929 0.981117
O O5 0.493889 0.759212 0.319064
O O6 0.826124 0.500844 0.217166
O O7 0.951037 0.633542 0.237929
O O8 0.013634 0.635635 0.998877
O O9 0.784429 0.122124 0.751267
O O10 0.530334 0.035894 0.799859
O O11 0.000000 0.000000 0.500000
O O12 0.498579 0.441637 0.325667
O O13 0.573897 0.613772 0.133141
O O14 0.403635 0.263188 0.455435
O O15 0.000000 0.500000 0.500000
O O16 0.957992 0.260762 0.687107
O O17 0.621149 0.899421 0.342791
#
# Coordination Sequence:
#
# PCOD8006055 Si02
#       8
#     2   2   2   2   2   2   2   2
#     4  10  23  41  64  89 122 161 213 249 291 371
#     4   9  21  40  62  89 116 169 198 245 305 366
#     4  10  21  38  65  91 120 153 203 257 305 358
#     4  10  20  39  65  84 130 157 203 245 297 374
#     4  12  24  35  60  99 125 158 200 258 299 360
#     4  10  21  38  63  91 118 169 198 240 314 359
#     4   9  21  45  63  86 120 162 206 254 299 364
#     4  10  21  39  61  91 123 157 205 243 315 352
#
# _framework density 21.699109
#
# number of rings (size 3 to 8) (size 9 to 14) (size 15 to 20)
#    0.000    2.000    1.250    2.250    3.500    2.500 
#   11.250    0.000   19.250    0.000    0.000    0.000 
#    0.000    0.000    0.000    0.000    0.000    0.000 
#
# Total GULP energy -198288.260685 kJ/mol
# GULP energy per Si atom -12393.016293 kJ/mol
# Density = 2.164972 g / cm^3
# Si number density = 21.699109 Si / 1000 Ang^3
#
#
#
# Elastic Constant Matrix: (Units=GPa)
#
#
# Indices 1 2 3 4 5 6 
#
# 1 145.2557 23.7637 46.5291 -0.1969 -11.6489 34.2670
# 2 23.7637 76.7011 39.4617 -10.1959 -7.2599 13.4862
# 3 46.5291 39.4617 100.4077 1.1200 -6.4936 13.5150
# 4 -0.1969 -10.1959 1.1200 45.1434 7.8489 -3.4781
# 5 -11.6489 -7.2599 -6.4936 7.8489 36.0342 -3.7903
# 6 34.2670 13.4862 13.5150 -3.4781 -3.7903 28.9956
#
#
#
# Elastic Compliance Matrix: (Units=1/GPa)
#
#
# Indices 1 2 3 4 5 6 
#
# 1 0.010707 0.000511 -0.003531 -0.000948 0.001967 -0.011103
# 2 0.000511 0.017709 -0.006449 0.003541 0.001248 -0.005247
# 3 -0.003531 -0.006449 0.014129 -0.001887 0.000562 0.000434
# 4 -0.000948 0.003541 -0.001887 0.024046 -0.004897 0.002597
# 5 0.001967 0.001248 0.000562 -0.004897 0.029822 0.000144
# 6 -0.011103 -0.005247 0.000434 0.002597 0.000144 0.050178
#
#
# Mechanical properties :
#
#
# Convention : Reuss Voigt Hill
#
# Bulk Modulus (GPa) = 42.35807 60.20817 51.28312
# Shear Modulus (GPa) = 28.83559 36.20864 32.52212
#
# Velocity S-wave (km/s) = 3.64934 4.08937 3.87560
# Velocity P-wave (km/s) = 6.10900 7.07844 6.61151
#
# Compressibility (1/GPa) = 0.02360825
#
# Stress axis : x y z
#
# Youngs Moduli (GPa) = 93.39366 56.46990 70.77549
#
# Poissons Ratio (x) = -0.02888 0.24988
# Poissons Ratio (y) = -0.04777 0.45645
# Poissons Ratio (z) = 0.32974 0.36419
#
# Static dielectric constant tensor:
#      x y z
#    x 4.363820 0.321910 -0.060350 
#    y 0.321910 3.788750 -0.019060 
#    z -0.060350 -0.019060 3.740700 
# 
# 
# High freq. dielectric constant tensor:
#      x y z
#    x 1.869840 0.027450 -0.010160 
#    y 0.027450 1.831870 0.008250 
#    z -0.010160 0.008250 1.835150 
# 
# From -- ./inp_files/306154.got.cif
#   From: 2010.06.25/outbox.cif.g09.slc.cpg/sg2_154_cif.got.tgz:306154.got - 2010.06.27 13:26:56.
