data_PCOD8006332
_publ_section_title
;
Structure prediction by ZEFSAII (Michael W. Deem and Ramdas Pophale) SiO2 
 PCOD8006332
Probable space group: P -1
;
_chemical_formula_sum "Si O2"
_cell_formula_units_Z 14
_cell_length_a 11.315868
_cell_length_b 8.318880
_cell_length_c 11.873346
_cell_angle_alpha 140.534246
_cell_angle_beta 124.354586
_cell_angle_gamma 64.651159
_cell_volume 586.443046
_symmetry_space_group_name_H-M "P -1"
_symmetry_group_IT_number 2
_symmetry_cell_setting 'triclinic'
loop_
_space_group_symop_operation_xyz
x,y,z
-x,-y,-z
loop_
_atom_site_type_symbol
_atom_site_label
_atom_site_fract_x
_atom_site_fract_y
_atom_site_fract_z
Si Si1 0.154031 0.256657 0.885154
Si Si2 0.334565 0.547614 0.667980
Si Si3 0.868491 0.144348 0.150400
Si Si4 0.856610 0.377389 0.728279
Si Si5 0.411784 0.762313 0.607065
Si Si6 0.449584 0.305030 0.960547
Si Si7 0.830092 0.798171 0.750764
O O1 0.279205 0.271841 0.867095
O O2 0.003543 0.218366 0.716194
O O3 0.175284 0.043110 0.874445
O O4 0.154582 0.521097 0.095612
O O5 0.210048 0.595569 0.719209
O O6 0.330783 0.756429 0.680294
O O7 0.306441 0.276695 0.442596
O O8 0.487878 0.580699 0.827375
O O9 0.038083 0.180179 0.253126
O O10 0.806879 0.056569 0.947090
O O11 0.711637 0.212170 0.540422
O O12 0.865315 0.590223 0.751450
O O13 0.500000 0.500000 0.500000
O O14 0.507204 0.022969 0.803054
O O15 0.500000 0.500000 0.000000
#
# Coordination Sequence:
#
# PCOD8006332 Si02
#       7
#     2   2   2   2   2   2   2
#     4  10  21  43  62  97 138 177 225 279 357 399
#     4  11  23  41  67  95 135 183 229 282 344 415
#     4  10  20  39  67  98 133 175 232 282 340 415
#     4   9  21  40  69  97 131 175 221 289 341 413
#     4  11  24  45  73 100 133 185 238 280 345 418
#     4  12  28  44  65 100 142 185 227 294 343 411
#     4   9  21  38  64 102 127 173 224 289 338 404
#
# _framework density 23.872736
#
# number of rings (size 3 to 8) (size 9 to 14) (size 15 to 20)
#    0.000    1.714    1.429    1.714    8.000    1.714 
#    0.000    2.857    0.000    0.000    0.000    0.000 
#    0.000    0.000    0.000    0.000    0.000    0.000 
#
# Total GULP energy -173436.910564 kJ/mol
# GULP energy per Si atom -12388.350755 kJ/mol
# Density = 2.381840 g / cm^3
# Si number density = 23.872736 Si / 1000 Ang^3
#
#
#
# Elastic Constant Matrix: (Units=GPa)
#
#
# Indices 1 2 3 4 5 6 
#
# 1 107.4989 25.9524 23.4989 2.9253 2.6448 1.7292
# 2 25.9524 40.2874 43.5745 -4.6389 0.9057 -8.0101
# 3 23.4989 43.5745 169.3468 -8.6918 10.9766 -10.4820
# 4 2.9253 -4.6389 -8.6918 37.0135 -6.0677 12.4134
# 5 2.6448 0.9057 10.9766 -6.0677 38.5320 -1.7884
# 6 1.7292 -8.0101 -10.4820 12.4134 -1.7884 34.2022
#
#
#
# Elastic Compliance Matrix: (Units=1/GPa)
#
#
# Indices 1 2 3 4 5 6 
#
# 1 0.011295 -0.008264 0.000436 -0.001341 -0.001006 -0.001939
# 2 -0.008264 0.041637 -0.009233 0.001886 0.002831 0.006803
# 3 0.000436 -0.009233 0.008387 0.000382 -0.002135 0.000136
# 4 -0.001341 0.001886 0.000382 0.031755 0.004444 -0.010666
# 5 -0.001006 0.002831 -0.002135 0.004444 0.027257 -0.000128
# 6 -0.001939 0.006803 0.000136 -0.010666 -0.000128 0.034835
#
#
# Mechanical properties :
#
#
# Convention : Reuss Voigt Hill
#
# Bulk Modulus (GPa) = 36.76971 55.90941 46.33956
# Shear Modulus (GPa) = 25.20744 36.89004 31.04874
#
# Velocity S-wave (km/s) = 3.25300 3.93527 3.61029
# Velocity P-wave (km/s) = 5.43555 6.64222 6.06895
#
# Compressibility (1/GPa) = 0.02719629
#
# Stress axis : x y z
#
# Youngs Moduli (GPa) = 88.53630 24.01690 119.23724
#
# Poissons Ratio (x) = 0.19848 -0.05194
# Poissons Ratio (y) = 0.73169 1.10086
# Poissons Ratio (z) = -0.03856 0.22174
#
# Static dielectric constant tensor:
#      x y z
#    x 4.368970 -0.040260 -0.052800 
#    y -0.040260 3.833000 -0.061060 
#    z -0.052800 -0.061060 4.963820 
# 
# 
# High freq. dielectric constant tensor:
#      x y z
#    x 1.956380 -0.003510 -0.003920 
#    y -0.003510 1.896610 -0.005940 
#    z -0.003920 -0.005940 1.961690 
# 
# From -- ./inp_files/420202.got.cif
#   From: 2010.06.25/outbox.cif.g09.slc.cpg/sg2_211_cif.got.tgz:420202.got - 2010.06.27 13:26:56.
