data_PCOD8006448
_publ_section_title
;
Structure prediction by ZEFSAII (Michael W. Deem and Ramdas Pophale) SiO2 
 PCOD8006448
Probable space group: P -1
;
_chemical_formula_sum "Si O2"
_cell_formula_units_Z 16
_cell_length_a 30.086381
_cell_length_b 8.111030
_cell_length_c 6.765816
_cell_angle_alpha 62.288829
_cell_angle_beta 44.705736
_cell_angle_gamma 39.302722
_cell_volume 722.202370
_symmetry_space_group_name_H-M "P -1"
_symmetry_group_IT_number 2
_symmetry_cell_setting 'triclinic'
loop_
_space_group_symop_operation_xyz
x,y,z
-x,-y,-z
loop_
_atom_site_type_symbol
_atom_site_label
_atom_site_fract_x
_atom_site_fract_y
_atom_site_fract_z
Si Si1 0.971421 0.596942 0.758992
Si Si2 0.462644 0.821882 0.764382
Si Si3 0.276029 0.726844 0.240081
Si Si4 0.852756 0.337238 0.258927
Si Si5 0.542904 0.825797 0.156874
Si Si6 0.220724 0.119774 0.872576
Si Si7 0.996712 0.817710 0.871057
Si Si8 0.357523 0.719857 0.342983
O O1 0.998048 0.748603 0.673611
O O2 0.000000 0.500000 0.500000
O O3 0.864507 0.797057 0.010447
O O4 0.024871 0.326892 0.861295
O O5 0.468885 0.855766 0.491804
O O6 0.563239 0.576407 0.663727
O O7 0.422326 0.082520 0.862552
O O8 0.397573 0.785556 0.025386
O O9 0.212399 0.683006 0.438819
O O10 0.285475 0.751095 0.429511
O O11 0.374015 0.479894 0.982309
O O12 0.235636 0.989573 0.108196
O O13 0.796808 0.624253 0.180334
O O14 0.909389 0.288614 0.297736
O O15 0.916805 0.129208 0.996845
O O16 0.500000 0.000000 0.000000
O O17 0.308242 0.918480 0.571259
#
# Coordination Sequence:
#
# PCOD8006448 Si02
#       8
#     2   2   2   2   2   2   2   2
#     4  10  20  39  70  97 131 176 223 270 340 402
#     4  10  23  41  65  93 124 170 226 275 338 400
#     4  12  24  41  64  96 131 174 222 279 339 393
#     4  10  22  42  67  94 136 176 222 275 337 398
#     4  11  22  42  66  95 127 172 223 279 338 407
#     4  11  24  42  61  98 136 170 222 280 332 398
#     4   9  20  42  65  95 132 176 219 276 328 401
#     4  11  23  42  63  91 131 173 222 281 331 398
#
# _framework density 22.154456
#
# number of rings (size 3 to 8) (size 9 to 14) (size 15 to 20)
#    0.000    1.500    2.500    2.250    0.000    4.500 
#    0.000   15.000    0.000    0.000    0.000    0.000 
#    0.000    0.000    0.000    0.000    0.000    0.000 
#
# Total GULP energy -198418.269878 kJ/mol
# GULP energy per Si atom -12401.141867 kJ/mol
# Density = 2.210403 g / cm^3
# Si number density = 22.154456 Si / 1000 Ang^3
#
#
#
# Elastic Constant Matrix: (Units=GPa)
#
#
# Indices 1 2 3 4 5 6 
#
# 1 111.0193 27.3830 43.1832 -1.5647 10.7740 11.8559
# 2 27.3830 119.1755 27.0646 -6.3688 4.4928 8.2874
# 3 43.1832 27.0646 95.2602 -16.1180 4.7618 3.6179
# 4 -1.5647 -6.3688 -16.1180 35.2246 3.2707 5.6154
# 5 10.7740 4.4928 4.7618 3.2707 32.7432 3.5103
# 6 11.8559 8.2874 3.6179 5.6154 3.5103 28.3159
#
#
#
# Elastic Compliance Matrix: (Units=1/GPa)
#
#
# Indices 1 2 3 4 5 6 
#
# 1 0.011847 -0.001334 -0.004941 -0.001202 -0.002513 -0.003389
# 2 -0.001334 0.009322 -0.001733 0.001218 -0.000481 -0.002130
# 3 -0.004941 -0.001733 0.014325 0.006156 -0.000794 -0.000377
# 4 -0.001202 0.001218 0.006156 0.032745 -0.003216 -0.006735
# 5 -0.002513 -0.000481 -0.000794 -0.003216 0.032090 -0.002046
# 6 -0.003389 -0.002130 -0.000377 -0.006735 -0.002046 0.038996
#
#
# Mechanical properties :
#
#
# Convention : Reuss Voigt Hill
#
# Bulk Modulus (GPa) = 51.33523 57.85740 54.59632
# Shear Modulus (GPa) = 30.89603 34.44501 32.67052
#
# Velocity S-wave (km/s) = 3.73845 3.94733 3.84431
# Velocity P-wave (km/s) = 6.46966 6.85182 6.66348
#
# Compressibility (1/GPa) = 0.01947980
#
# Stress axis : x y z
#
# Youngs Moduli (GPa) = 84.40929 107.26863 69.80737
#
# Poissons Ratio (x) = 0.14309 0.34489
# Poissons Ratio (y) = 0.11260 0.12097
# Poissons Ratio (z) = 0.41703 0.18589
#
# Static dielectric constant tensor:
#      x y z
#    x 4.128590 0.049550 0.013430 
#    y 0.049550 4.213250 0.045830 
#    z 0.013430 0.045830 3.903300 
# 
# 
# High freq. dielectric constant tensor:
#      x y z
#    x 1.864770 0.009020 0.002920 
#    y 0.009020 1.884470 0.002470 
#    z 0.002920 0.002470 1.866220 
# 
# From -- ./inp_files/128227.got.cif
#   From: 2010.06.25/outbox.cif.g09.slc.cpg/sg2_65_cif.got.tgz:128227.got - 2010.06.27 13:26:56.
