data_PCOD8006542
_publ_section_title
;
Structure prediction by ZEFSAII (Michael W. Deem and Ramdas Pophale) SiO2 
 PCOD8006542
Probable space group: P -1
;
_chemical_formula_sum "Si O2"
_cell_formula_units_Z 16
_cell_length_a 13.002200
_cell_length_b 9.910641
_cell_length_c 15.591835
_cell_angle_alpha 60.994667
_cell_angle_beta 26.822810
_cell_angle_gamma 69.213038
_cell_volume 777.319737
_symmetry_space_group_name_H-M "P -1"
_symmetry_group_IT_number 2
_symmetry_cell_setting 'triclinic'
loop_
_space_group_symop_operation_xyz
x,y,z
-x,-y,-z
loop_
_atom_site_type_symbol
_atom_site_label
_atom_site_fract_x
_atom_site_fract_y
_atom_site_fract_z
Si Si1 0.051124 0.074399 0.699238
Si Si2 0.239959 0.513360 0.769037
Si Si3 0.728582 0.810591 0.102736
Si Si4 0.681148 0.614131 0.523650
Si Si5 0.081965 0.612858 0.682261
Si Si6 0.317673 0.955321 0.382573
Si Si7 0.553472 0.121919 0.998317
Si Si8 0.575772 0.630257 0.098382
O O1 0.206561 0.204454 0.602557
O O2 0.818167 0.133503 0.827207
O O3 0.202392 0.042204 0.515373
O O4 0.980156 0.915098 0.858151
O O5 0.457413 0.605997 0.631935
O O6 0.239190 0.602765 0.652646
O O7 0.257349 0.330273 0.799037
O O8 0.000000 0.500000 0.000000
O O9 0.569956 0.919845 0.232346
O O10 0.604449 0.742084 0.126865
O O11 0.873471 0.522406 0.372603
O O12 0.602259 0.531628 0.698768
O O13 0.151316 0.787344 0.536440
O O14 0.814026 0.577439 0.915376
O O15 0.361830 0.068626 0.231858
O O16 0.520649 0.290532 0.936005
O O17 0.500000 0.000000 0.000000
#
# Coordination Sequence:
#
# PCOD8006542 Si02
#       8
#     2   2   2   2   2   2   2   2
#     4  11  24  42  61  93 136 161 199 267 315 357
#     4  11  20  41  70  89 121 168 210 254 306 374
#     4  10  20  40  60  92 127 156 211 255 298 376
#     4  11  25  41  62  96 131 157 209 263 311 366
#     4  12  21  40  71  90 120 170 215 249 308 372
#     4  11  21  38  66  92 122 166 212 250 308 372
#     4  11  21  40  65  93 126 164 215 254 301 375
#     4  11  21  40  64  92 124 162 212 261 294 372
#
# _framework density 20.583551
#
# number of rings (size 3 to 8) (size 9 to 14) (size 15 to 20)
#    0.000    1.000    8.750    0.375    0.000    5.500 
#    0.000    4.375    0.000    0.000    0.000    0.000 
#    0.000    0.000    0.000    0.000    0.000    0.000 
#
# Total GULP energy -198352.421144 kJ/mol
# GULP energy per Si atom -12397.026321 kJ/mol
# Density = 2.053670 g / cm^3
# Si number density = 20.583551 Si / 1000 Ang^3
#
#
#
# Elastic Constant Matrix: (Units=GPa)
#
#
# Indices 1 2 3 4 5 6 
#
# 1 52.2100 18.5195 32.4539 3.1751 -7.9038 -15.5001
# 2 18.5195 72.0870 38.9840 4.4462 -11.4972 10.4103
# 3 32.4539 38.9840 113.8210 3.9907 3.0300 10.2002
# 4 3.1751 4.4462 3.9907 40.4790 5.1753 0.4062
# 5 -7.9038 -11.4972 3.0300 5.1753 25.2262 -1.6010
# 6 -15.5001 10.4103 10.2002 0.4062 -1.6010 32.5944
#
#
#
# Elastic Compliance Matrix: (Units=1/GPa)
#
#
# Indices 1 2 3 4 5 6 
#
# 1 0.036725 -0.004414 -0.011261 -0.003175 0.012963 0.023074
# 2 -0.004414 0.020303 -0.005259 -0.002398 0.008582 -0.006486
# 3 -0.011261 -0.005259 0.014765 0.001179 -0.008494 -0.008728
# 4 -0.003175 -0.002398 0.001179 0.026103 -0.007699 -0.001816
# 5 0.012963 0.008582 -0.008494 -0.007699 0.050765 0.008671
# 6 0.023074 -0.006486 -0.008728 -0.001816 0.008671 0.046905
#
#
# Mechanical properties :
#
#
# Convention : Reuss Voigt Hill
#
# Bulk Modulus (GPa) = 33.41615 46.44809 39.93212
# Shear Modulus (GPa) = 20.20958 29.53729 24.87343
#
# Velocity S-wave (km/s) = 3.13682 3.79224 3.48000
# Velocity P-wave (km/s) = 5.42118 6.46447 5.96568
#
# Compressibility (1/GPa) = 0.02992565
#
# Stress axis : x y z
#
# Youngs Moduli (GPa) = 27.22952 49.25327 67.72908
#
# Poissons Ratio (x) = 0.21739 0.76272
# Poissons Ratio (y) = 0.12018 0.35615
# Poissons Ratio (z) = 0.30664 0.25900
#
# Static dielectric constant tensor:
#      x y z
#    x 3.926200 -0.472360 0.250810 
#    y -0.472360 3.780460 0.113610 
#    z 0.250810 0.113610 4.128520 
# 
# 
# High freq. dielectric constant tensor:
#      x y z
#    x 1.773880 -0.027480 0.018540 
#    y -0.027480 1.795640 0.012530 
#    z 0.018540 0.012530 1.830670 
# 
# From -- ./inp_files/515290.got.cif
#   From: 2010.06.25/outbox.cif.g09.slc.cpg/sg2_258_cif.got.tgz:515290.got - 2010.06.27 13:26:56.
