data_PCOD8006000
_publ_section_title
;
Structure prediction by ZEFSAII (Michael W. Deem and Ramdas Pophale) SiO2 
 PCOD8006000
Probable space group: P -1
;
_chemical_formula_sum "Si O2"
_cell_formula_units_Z 16
_cell_length_a 9.436683
_cell_length_b 18.955347
_cell_length_c 19.898371
_cell_angle_alpha 26.608747
_cell_angle_beta 40.167911
_cell_angle_gamma 28.671684
_cell_volume 761.465787
_symmetry_space_group_name_H-M "P -1"
_symmetry_group_IT_number 2
_symmetry_cell_setting 'triclinic'
loop_
_space_group_symop_operation_xyz
x,y,z
-x,-y,-z
loop_
_atom_site_type_symbol
_atom_site_label
_atom_site_fract_x
_atom_site_fract_y
_atom_site_fract_z
Si Si1 0.599668 0.564242 0.848349
Si Si2 0.061119 0.928599 0.647921
Si Si3 0.127064 0.421316 0.850891
Si Si4 0.954500 0.786711 0.119704
Si Si5 0.248025 0.822026 0.211575
Si Si6 0.839133 0.295896 0.326442
Si Si7 0.165150 0.583085 0.358286
Si Si8 0.681600 0.025445 0.816678
O O1 0.326164 0.791257 0.722680
O O2 0.824921 0.585441 0.778494
O O3 0.764061 0.389644 0.878135
O O4 0.500000 0.500000 0.000000
O O5 0.084232 0.773187 0.719784
O O6 0.064145 0.091631 0.467716
O O7 0.750909 0.062564 0.686756
O O8 0.395762 0.359223 0.762337
O O9 0.112542 0.540459 0.820417
O O10 0.167718 0.218843 0.026845
O O11 0.671062 0.814095 0.179149
O O12 0.022043 0.739614 0.213491
O O13 0.862953 0.010713 0.950059
O O14 0.119730 0.711385 0.333197
O O15 0.159785 0.935884 0.218971
O O16 0.510129 0.391685 0.380585
O O17 0.000000 0.500000 0.500000
#
# Coordination Sequence:
#
# PCOD8006000 Si02
#       8
#     2   2   2   2   2   2   2   2
#     4  12  21  39  66  95 125 160 211 266 307 366
#     4  11  23  42  62  87 133 168 211 254 310 375
#     4  10  20  39  64  92 124 160 208 258 313 368
#     4  11  20  39  65  92 125 162 206 260 314 362
#     4  10  20  39  64  94 125 159 208 257 317 369
#     4  10  24  43  61  88 128 175 207 251 315 379
#     4  11  23  41  62  94 127 164 212 257 307 373
#     4  11  20  40  65  95 124 162 205 262 314 372
#
# _framework density 21.012105999999999
#
# number of rings (size 3 to 8) (size 9 to 14) (size 15 to 20)
#    0.000    1.250    5.000    1.875    0.000    1.000 
#    2.250    8.125    0.000    0.000    0.000    0.000 
#    0.000    0.000    0.000    0.000    0.000    0.000 
#
# Total GULP energy -198343.779913 kJ/mol
# GULP energy per Si atom -12396.486245 kJ/mol
# Density = 2.096428 g / cm^3
# Si number density = 21.012106 Si / 1000 Ang^3
#
#
#
# Elastic Constant Matrix: (Units=GPa)
#
#
# Indices 1 2 3 4 5 6 
#
# 1 135.0446 42.6967 61.9675 -2.1553 -12.3150 17.4471
# 2 42.6967 80.3780 36.4378 1.8426 -2.5053 9.5551
# 3 61.9675 36.4378 67.8153 4.1544 -0.7097 6.0756
# 4 -2.1553 1.8426 4.1544 24.7922 -1.2453 5.6564
# 5 -12.3150 -2.5053 -0.7097 -1.2453 41.3895 -10.3661
# 6 17.4471 9.5551 6.0756 5.6564 -10.3661 46.2875
#
#
#
# Elastic Compliance Matrix: (Units=1/GPa)
#
#
# Indices 1 2 3 4 5 6 
#
# 1 0.014258 -0.001729 -0.012039 0.004286 0.003251 -0.003233
# 2 -0.001729 0.016913 -0.007352 0.000260 -0.000092 -0.001927
# 3 -0.012039 -0.007352 0.029845 -0.006158 -0.003153 0.002184
# 4 0.004286 0.000260 -0.006158 0.043118 0.001004 -0.005905
# 5 0.003251 -0.000092 -0.003153 0.001004 0.026347 0.004985
# 6 -0.003233 -0.001927 0.002184 -0.005905 0.004985 0.024772
#
#
# Mechanical properties :
#
#
# Convention : Reuss Voigt Hill
#
# Bulk Modulus (GPa) = 53.25540 62.82685 58.04113
# Shear Modulus (GPa) = 24.53976 31.96958 28.25467
#
# Velocity S-wave (km/s) = 3.42114 3.90485 3.67097
# Velocity P-wave (km/s) = 6.40357 7.09195 6.75653
#
# Compressibility (1/GPa) = 0.01877744
#
# Stress axis : x y z
#
# Youngs Moduli (GPa) = 70.13447 59.12735 33.50636
#
# Poissons Ratio (x) = 0.10224 0.40337
# Poissons Ratio (y) = 0.12127 0.24632
# Poissons Ratio (z) = 0.84432 0.43468
#
# Static dielectric constant tensor:
#      x y z
#    x 4.031420 -0.060930 0.077280 
#    y -0.060930 3.904170 -0.102700 
#    z 0.077280 -0.102700 3.520960 
# 
# 
# High freq. dielectric constant tensor:
#      x y z
#    x 1.832490 0.001710 0.009330 
#    y 0.001710 1.825650 -0.009240 
#    z 0.009330 -0.009240 1.798490 
# 
# From -- ./inp_files/184246.got.cif
#   From: 2010.06.25/outbox.cif.g09.slc.cpg/sg2_93_cif.got.tgz:184246.got - 2010.06.27 13:26:56.
