data_PCOD8006258
_publ_section_title
;
Structure prediction by ZEFSAII (Michael W. Deem and Ramdas Pophale) SiO2 
 PCOD8006258
Probable space group: P -1
;
_chemical_formula_sum "Si O2"
_cell_formula_units_Z 16
_cell_length_a 13.995116
_cell_length_b 14.653329
_cell_length_c 13.476730
_cell_angle_alpha 34.739107
_cell_angle_beta 27.450934
_cell_angle_gamma 31.562933
_cell_volume 641.745241
_symmetry_space_group_name_H-M "P -1"
_symmetry_group_IT_number 2
_symmetry_cell_setting 'triclinic'
loop_
_space_group_symop_operation_xyz
x,y,z
-x,-y,-z
loop_
_atom_site_type_symbol
_atom_site_label
_atom_site_fract_x
_atom_site_fract_y
_atom_site_fract_z
Si Si1 0.819968 0.162088 0.396077
Si Si2 0.397215 0.641687 0.056267
Si Si3 0.462054 0.498230 0.340666
Si Si4 0.033437 0.765745 0.601180
Si Si5 0.694236 0.901278 0.053685
Si Si6 0.396597 0.257694 0.900178
Si Si7 0.464739 0.998499 0.672541
Si Si8 0.105934 0.113291 0.744538
O O1 0.583671 0.283439 0.441646
O O2 0.800314 0.208853 0.491386
O O3 0.878953 0.952471 0.517169
O O4 0.025882 0.193996 0.127160
O O5 0.500288 0.538417 0.156687
O O6 0.116826 0.710326 0.249623
O O7 0.500000 0.500000 0.000000
O O8 0.466683 0.803481 0.838041
O O9 0.186993 0.605035 0.526646
O O10 0.600246 0.557934 0.240747
O O11 0.860347 0.709478 0.865094
O O12 0.603250 0.102142 0.913032
O O13 0.610754 0.910667 0.233219
O O14 0.574615 0.797255 0.194519
O O15 0.719516 0.981298 0.425282
O O16 0.271303 0.143805 0.645221
O O17 0.000000 0.000000 0.000000
#
# Coordination Sequence:
#
# PCOD8006258 Si02
#       8
#     2   2   2   2   2   2   2   2
#     4  10  22  41  68  98 141 184 228 280 336 415
#     4  11  25  42  64  96 138 176 228 288 347 403
#     4  12  24  44  68  98 142 184 229 288 342 408
#     4  10  22  43  65  98 138 186 229 279 339 406
#     4  10  20  39  67 100 131 178 218 277 343 411
#     4  10  22  41  67  98 141 179 224 278 341 414
#     4  10  20  44  72  97 128 179 223 287 349 409
#     4   9  22  43  72  97 126 169 232 283 344 411
#
# _framework density 24.932010999999999
#
# number of rings (size 3 to 8) (size 9 to 14) (size 15 to 20)
#    0.000    1.750    2.500    0.375    5.250    2.500 
#    4.500    0.000    0.000    0.000    0.000    0.000 
#    0.000    0.000    0.000    0.000    0.000    0.000 
#
# Total GULP energy -198371.687428 kJ/mol
# GULP energy per Si atom -12398.230464 kJ/mol
# Density = 2.487526 g / cm^3
# Si number density = 24.932011 Si / 1000 Ang^3
#
#
#
# Elastic Constant Matrix: (Units=GPa)
#
#
# Indices 1 2 3 4 5 6 
#
# 1 93.5891 43.2592 41.0294 12.2632 29.7637 1.1873
# 2 43.2592 107.2093 35.4270 19.7929 8.6882 -15.6953
# 3 41.0294 35.4270 86.6071 16.1291 20.4221 0.0236
# 4 12.2632 19.7929 16.1291 34.4925 6.5377 4.6758
# 5 29.7637 8.6882 20.4221 6.5377 44.5871 3.6918
# 6 1.1873 -15.6953 0.0236 4.6758 3.6918 45.6785
#
#
#
# Elastic Compliance Matrix: (Units=1/GPa)
#
#
# Indices 1 2 3 4 5 6 
#
# 1 0.017805 -0.005434 -0.004254 0.000681 -0.008839 -0.001683
# 2 -0.005434 0.014120 -0.002659 -0.006144 0.002547 0.005417
# 3 -0.004254 -0.002659 0.016188 -0.003853 -0.003480 -0.000136
# 4 0.000681 -0.006144 -0.003853 0.035248 -0.002201 -0.005557
# 5 -0.008839 0.002547 -0.003480 -0.002201 0.029838 -0.001080
# 6 -0.001683 0.005417 -0.000136 -0.005557 -0.001080 0.024453
#
#
# Mechanical properties :
#
#
# Convention : Reuss Voigt Hill
#
# Bulk Modulus (GPa) = 42.70334 58.53741 50.62038
# Shear Modulus (GPa) = 29.38530 36.13095 32.75813
#
# Velocity S-wave (km/s) = 3.43682 3.81094 3.62871
# Velocity P-wave (km/s) = 5.73708 6.54936 6.15663
#
# Compressibility (1/GPa) = 0.02341737
#
# Stress axis : x y z
#
# Youngs Moduli (GPa) = 56.16411 70.82111 61.77510
#
# Poissons Ratio (x) = 0.38487 0.26280
# Poissons Ratio (y) = 0.30522 0.16427
# Poissons Ratio (z) = 0.23893 0.18832
#
# Static dielectric constant tensor:
#      x y z
#    x 4.541650 -0.176680 -0.053080 
#    y -0.176680 4.393990 0.276410 
#    z -0.053080 0.276410 4.663960 
# 
# 
# High freq. dielectric constant tensor:
#      x y z
#    x 1.987880 -0.011290 0.003730 
#    y -0.011290 1.974130 0.020660 
#    z 0.003730 0.020660 2.017470 
# 
# From -- ./inp_files/533662.got.cif
#   From: 2010.06.25/outbox.cif.g09.slc.cpg/sg2_267_cif.got.tgz:533662.got - 2010.06.27 13:26:56.
