data_PCOD8006391
_publ_section_title
;
Structure prediction by ZEFSAII (Michael W. Deem and Ramdas Pophale) SiO2 
 PCOD8006391
Probable space group: P -1
;
_chemical_formula_sum "Si O2"
_cell_formula_units_Z 16
_cell_length_a 8.399863
_cell_length_b 19.755635
_cell_length_c 5.185987
_cell_angle_alpha 70.824266
_cell_angle_beta 116.692592
_cell_angle_gamma 120.370809
_cell_volume 657.602849
_symmetry_space_group_name_H-M "P -1"
_symmetry_group_IT_number 2
_symmetry_cell_setting 'triclinic'
loop_
_space_group_symop_operation_xyz
x,y,z
-x,-y,-z
loop_
_atom_site_type_symbol
_atom_site_label
_atom_site_fract_x
_atom_site_fract_y
_atom_site_fract_z
Si Si1 0.451924 0.681519 0.933722
Si Si2 0.976717 0.447390 0.302059
Si Si3 0.338295 0.412766 0.530158
Si Si4 0.287987 0.939677 0.513093
Si Si5 0.365869 0.177081 0.797822
Si Si6 0.116139 0.860997 0.980959
Si Si7 0.773827 0.726619 0.720444
Si Si8 0.221324 0.084886 0.321630
O O1 0.233386 0.627028 0.752612
O O2 0.591050 0.732226 0.737156
O O3 0.566326 0.628546 0.160656
O O4 0.443509 0.742041 0.074098
O O5 0.000000 0.500000 0.500000
O O6 0.141179 0.414505 0.493207
O O7 0.000000 0.500000 0.000000
O O8 0.500000 0.500000 0.500000
O O9 0.277609 0.363427 0.280213
O O10 0.283303 0.893817 0.835689
O O11 0.500000 0.000000 0.500000
O O12 0.162964 0.991141 0.396528
O O13 0.207347 0.874086 0.313580
O O14 0.204764 0.214055 0.581770
O O15 0.380824 0.130263 0.610110
O O16 0.309945 0.116505 0.067077
O O17 0.981639 0.766131 0.973561
O O18 0.978803 0.906894 0.787057
#
# Coordination Sequence:
#
# PCOD8006391 Si02
#       8
#     2   2   2   2   2   2   2   2
#     4  11  23  45  75  98 148 179 233 292 352 415
#     4  12  28  46  69 107 140 180 238 291 343 417
#     4  11  24  45  74 104 141 190 235 285 352 414
#     4  12  26  43  64  98 137 178 221 288 341 400
#     4  10  20  39  68  99 129 170 224 281 336 405
#     4  11  22  43  69  94 132 174 231 273 337 415
#     4  10  23  42  71 103 132 181 226 287 350 412
#     4  11  21  41  70  97 124 174 235 267 334 414
#
# _framework density 24.330798000000001
#
# number of rings (size 3 to 8) (size 9 to 14) (size 15 to 20)
#    0.000    1.000    3.750    4.125    5.250    1.000 
#    4.500    0.000    0.000    0.000    0.000    0.000 
#    0.000    0.000    0.000    0.000    0.000    0.000 
#
# Total GULP energy -198265.378222 kJ/mol
# GULP energy per Si atom -12391.586139 kJ/mol
# Density = 2.427542 g / cm^3
# Si number density = 24.330798 Si / 1000 Ang^3
#
#
#
# Elastic Constant Matrix: (Units=GPa)
#
#
# Indices 1 2 3 4 5 6 
#
# 1 83.1342 19.4401 27.3364 15.6214 -9.2747 12.9819
# 2 19.4401 122.5230 50.1766 36.1369 -19.5675 4.4443
# 3 27.3364 50.1766 113.8713 22.4201 -29.2902 -2.8523
# 4 15.6214 36.1369 22.4201 53.2723 -3.3020 -4.0211
# 5 -9.2747 -19.5675 -29.2902 -3.3020 43.2635 6.8006
# 6 12.9819 4.4443 -2.8523 -4.0211 6.8006 39.8319
#
#
#
# Elastic Compliance Matrix: (Units=1/GPa)
#
#
# Indices 1 2 3 4 5 6 
#
# 1 0.014621 0.000390 -0.002506 -0.003793 0.002229 -0.005752
# 2 0.000390 0.012143 -0.003301 -0.006984 0.003277 -0.002983
# 3 -0.002506 -0.003301 0.012905 -0.001998 0.006427 0.000810
# 4 -0.003793 -0.006984 -0.001998 0.025593 -0.004184 0.005171
# 5 0.002229 0.003277 0.006427 -0.004184 0.030079 -0.006190
# 6 -0.005752 -0.002983 0.000810 0.005171 -0.006190 0.028950
#
#
# Mechanical properties :
#
#
# Convention : Reuss Voigt Hill
#
# Bulk Modulus (GPa) = 34.68025 57.04828 45.86427
# Shear Modulus (GPa) = 34.54562 42.11190 38.32876
#
# Velocity S-wave (km/s) = 3.77215 4.16481 3.97333
# Velocity P-wave (km/s) = 5.76687 6.82828 6.31989
#
# Compressibility (1/GPa) = 0.02883486
#
# Stress axis : x y z
#
# Youngs Moduli (GPa) = 68.39421 82.35026 77.49156
#
# Poissons Ratio (x) = -0.03209 0.19416
# Poissons Ratio (y) = -0.02665 0.25581
# Poissons Ratio (z) = 0.17137 0.27185
#
# Static dielectric constant tensor:
#      x y z
#    x 4.343590 -0.244610 -0.227260 
#    y -0.244610 4.442270 0.607920 
#    z -0.227260 0.607920 4.465440 
# 
# 
# High freq. dielectric constant tensor:
#      x y z
#    x 1.942040 -0.003950 -0.019140 
#    y -0.003950 1.986580 0.012820 
#    z -0.019140 0.012820 1.969890 
# 
# From -- ./inp_files/52809.got.cif
#   From: 2010.06.25/outbox.cif.g09.slc.cpg/sg2_27_cif.got.tgz:52809.got - 2010.06.27 13:26:56.
