data_PCOD8006092
_publ_section_title
;
Structure prediction by ZEFSAII (Michael W. Deem and Ramdas Pophale) SiO2 
 PCOD8006092
Probable space group: P -1
;
_chemical_formula_sum "Si O2"
_cell_formula_units_Z 14
_cell_length_a 11.469307
_cell_length_b 12.806775
_cell_length_c 10.004153
_cell_angle_alpha 36.126306
_cell_angle_beta 57.754630
_cell_angle_gamma 48.430882
_cell_volume 648.151175
_symmetry_space_group_name_H-M "P -1"
_symmetry_group_IT_number 2
_symmetry_cell_setting 'triclinic'
loop_
_space_group_symop_operation_xyz
x,y,z
-x,-y,-z
loop_
_atom_site_type_symbol
_atom_site_label
_atom_site_fract_x
_atom_site_fract_y
_atom_site_fract_z
Si Si1 0.679407 0.691744 0.984211
Si Si2 0.851421 0.273477 0.220180
Si Si3 0.943389 0.311905 0.598703
Si Si4 0.061039 0.266054 0.855346
Si Si5 0.583863 0.929177 0.161432
Si Si6 0.897232 0.865592 0.573019
Si Si7 0.632452 0.544642 0.437007
O O1 0.813026 0.744318 0.804886
O O2 0.512959 0.891696 0.857467
O O3 0.703055 0.497478 0.081935
O O4 0.704542 0.624432 0.193136
O O5 0.936268 0.231265 0.355108
O O6 0.794640 0.104539 0.413746
O O7 0.974969 0.243493 0.060476
O O8 0.951130 0.517548 0.368168
O O9 0.770457 0.346777 0.624566
O O10 0.981105 0.227090 0.813369
O O11 0.073689 0.157189 0.579834
O O12 0.241514 0.099322 0.918599
O O13 0.575276 0.719346 0.406727
O O14 0.500000 0.000000 0.000000
O O15 0.500000 0.500000 0.500000
#
# Coordination Sequence:
#
# PCOD8006092 Si02
#       7
#     2   2   2   2   2   2   2
#     4  11  21  38  61  89 126 158 202 263 307 359
#     4  11  22  36  64  93 122 160 212 262 300 374
#     4  10  20  39  65  92 124 167 207 258 305 377
#     4  10  21  40  65  91 124 166 213 250 314 369
#     4   9  20  36  59  87 124 164 201 254 307 363
#     4  11  22  36  63  94 122 161 213 253 317 360
#     4  10  21  36  63  94 125 162 210 253 310 375
#
# _framework density 21.599900000000002
#
# number of rings (size 3 to 8) (size 9 to 14) (size 15 to 20)
#    0.000    1.714    2.857    3.000    2.000    2.857 
#    0.000    0.714    0.000    1.714    0.000    0.000 
#    0.000    0.000    0.000    0.000    0.000    0.000 
#
# Total GULP energy -173455.403133 kJ/mol
# GULP energy per Si atom -12389.671652 kJ/mol
# Density = 2.155074 g / cm^3
# Si number density = 21.599900 Si / 1000 Ang^3
#
#
#
# Elastic Constant Matrix: (Units=GPa)
#
#
# Indices 1 2 3 4 5 6 
#
# 1 97.5223 41.7896 23.3814 -2.5628 15.9894 -2.7031
# 2 41.7896 165.6297 37.1654 -23.0256 0.7205 -0.7491
# 3 23.3814 37.1654 46.8565 -10.1286 -0.0723 8.4322
# 4 -2.5628 -23.0256 -10.1286 32.4150 10.3569 3.6545
# 5 15.9894 0.7205 -0.0723 10.3569 22.4937 -3.4504
# 6 -2.7031 -0.7491 8.4322 3.6545 -3.4504 23.8877
#
#
#
# Elastic Compliance Matrix: (Units=1/GPa)
#
#
# Indices 1 2 3 4 5 6 
#
# 1 0.014270 -0.002176 -0.005558 0.000895 -0.010213 0.001896
# 2 -0.002176 0.008243 -0.004693 0.004293 -0.000567 0.000930
# 3 -0.005558 -0.004693 0.032091 0.008343 -0.001728 -0.013630
# 4 0.000895 0.004293 0.008343 0.045656 -0.023783 -0.013129
# 5 -0.010213 -0.000567 -0.001728 -0.023783 0.064582 0.012403
# 6 0.001896 0.000930 -0.013630 -0.013129 0.012403 0.050718
#
#
# Mechanical properties :
#
#
# Convention : Reuss Voigt Hill
#
# Bulk Modulus (GPa) = 33.61314 57.18680 45.39997
# Shear Modulus (GPa) = 19.97360 29.60410 24.78885
#
# Velocity S-wave (km/s) = 3.04420 3.70613 3.39135
# Velocity P-wave (km/s) = 5.28694 6.69678 6.03318
#
# Compressibility (1/GPa) = 0.02975027
#
# Stress axis : x y z
#
# Youngs Moduli (GPa) = 70.07937 121.31527 31.16115
#
# Poissons Ratio (x) = 0.26394 0.17321
# Poissons Ratio (y) = 0.15247 0.14623
# Poissons Ratio (z) = 0.38953 0.56930
#
# Static dielectric constant tensor:
#      x y z
#    x 3.760660 0.059670 0.069930 
#    y 0.059670 4.734800 -0.427300 
#    z 0.069930 -0.427300 3.888220 
# 
# 
# High freq. dielectric constant tensor:
#      x y z
#    x 1.812250 0.004700 -0.011400 
#    y 0.004700 1.866490 -0.019740 
#    z -0.011400 -0.019740 1.831530 
# 
# From -- ./inp_files/188255.got.cif
#   From: 2010.06.25/outbox.cif.g09.slc.cpg/sg2_95_cif.got.tgz:188255.got - 2010.06.27 13:26:56.
