data_PCOD8006717
_publ_section_title
;
Structure prediction by ZEFSAII (Michael W. Deem and Ramdas Pophale) SiO2 
 PCOD8006717
Probable space group: P -1
;
_chemical_formula_sum "Si O2"
_cell_formula_units_Z 14
_cell_length_a 26.565526
_cell_length_b 25.900659
_cell_length_c 14.332867
_cell_angle_alpha 20.342935
_cell_angle_beta 158.367443
_cell_angle_gamma 169.100972
_cell_volume 642.331085
_symmetry_space_group_name_H-M "P -1"
_symmetry_group_IT_number 2
_symmetry_cell_setting 'triclinic'
loop_
_space_group_symop_operation_xyz
x,y,z
-x,-y,-z
loop_
_atom_site_type_symbol
_atom_site_label
_atom_site_fract_x
_atom_site_fract_y
_atom_site_fract_z
Si Si1 0.872151 0.476174 0.901088
Si Si2 0.794638 0.120848 0.472314
Si Si3 0.303642 0.624769 0.599083
Si Si4 0.924090 0.019261 0.244616
Si Si5 0.698018 0.921861 0.441216
Si Si6 0.417834 0.482435 0.173659
Si Si7 0.225942 0.782221 0.346551
O O1 0.571193 0.235953 0.763158
O O2 0.857685 0.356050 0.169459
O O3 0.072833 0.804911 0.699923
O O4 0.000000 0.500000 0.000000
O O5 0.035272 0.289365 0.667968
O O6 0.505523 0.833925 0.506869
O O7 0.801976 0.032894 0.538501
O O8 0.224048 0.707564 0.367073
O O9 0.445040 0.659806 0.862924
O O10 0.696913 0.713320 0.316530
O O11 0.000000 0.000000 0.500000
O O12 0.186574 0.280974 0.191788
O O13 0.811255 0.077497 0.973493
O O14 0.638957 0.697853 0.694029
O O15 0.000000 0.500000 0.500000
O O16 0.500000 0.000000 0.500000
#
# Coordination Sequence:
#
# PCOD8006717 Si02
#       7
#     2   2   2   2   2   2   2
#     4  10  20  40  63  90 131 181 224 274 334 388
#     4  11  23  39  64 102 133 171 231 276 318 409
#     4  12  24  40  69  98 133 178 231 275 335 420
#     4  12  26  47  72 104 138 172 238 297 342 418
#     4  11  23  41  67  95 141 184 213 278 347 403
#     4  12  26  45  68  98 139 184 221 276 363 409
#     4  12  23  46  72  96 130 185 225 280 356 401
#
# _framework density 21.795612999999999
#
# number of rings (size 3 to 8) (size 9 to 14) (size 15 to 20)
#    0.000    0.571    2.857    7.286    0.000    4.571 
#    0.000    0.000    0.000    0.000    0.000    0.000 
#    0.000    0.000    0.000    0.000    0.000    0.000 
#
# Total GULP energy -173625.259565 kJ/mol
# GULP energy per Si atom -12401.804255 kJ/mol
# Density = 2.174601 g / cm^3
# Si number density = 21.795613 Si / 1000 Ang^3
#
#
#
# Elastic Constant Matrix: (Units=GPa)
#
#
# Indices 1 2 3 4 5 6 
#
# 1 97.3961 27.7316 49.4282 -11.2495 -9.0109 -2.7535
# 2 27.7316 128.2008 26.4126 -1.6492 -14.4176 -2.2374
# 3 49.4282 26.4126 110.5828 -0.7397 -6.2373 -4.2391
# 4 -11.2495 -1.6492 -0.7397 38.3818 -7.8287 -5.4872
# 5 -9.0109 -14.4176 -6.2373 -7.8287 24.1601 -2.3755
# 6 -2.7535 -2.2374 -4.2391 -5.4872 -2.3755 41.6525
#
#
#
# Elastic Compliance Matrix: (Units=1/GPa)
#
#
# Indices 1 2 3 4 5 6 
#
# 1 0.014771 -0.001314 -0.005917 0.005379 0.005068 0.001301
# 2 -0.001314 0.008919 -0.001231 0.001079 0.004932 0.000690
# 3 -0.005917 -0.001231 0.011976 -0.001539 -0.000295 0.000542
# 4 0.005379 0.001079 -0.001539 0.030980 0.012790 0.005068
# 5 0.005068 0.004932 -0.000295 0.012790 0.050799 0.005152
# 6 0.001301 0.000690 0.000542 0.005068 0.005152 0.025148
#
#
# Mechanical properties :
#
#
# Convention : Reuss Voigt Hill
#
# Bulk Modulus (GPa) = 53.35760 60.36938 56.86349
# Shear Modulus (GPa) = 30.16343 36.34602 33.25473
#
# Velocity S-wave (km/s) = 3.72415 4.08804 3.91033
# Velocity P-wave (km/s) = 6.55945 7.07395 6.82155
#
# Compressibility (1/GPa) = 0.01874147
#
# Stress axis : x y z
#
# Youngs Moduli (GPa) = 67.69890 112.12354 83.50363
#
# Poissons Ratio (x) = 0.14737 0.49407
# Poissons Ratio (y) = 0.08898 0.10278
# Poissons Ratio (z) = 0.40056 0.13801
#
# Static dielectric constant tensor:
#      x y z
#    x 3.898020 -0.035370 0.148790 
#    y -0.035370 4.517280 -0.169370 
#    z 0.148790 -0.169370 3.944590 
# 
# 
# High freq. dielectric constant tensor:
#      x y z
#    x 1.855270 0.002060 -0.000020 
#    y 0.002060 1.882320 0.000820 
#    z -0.000020 0.000820 1.852110 
# 
# From -- ./inp_files/533833.got.cif
#   From: 2010.06.25/outbox.cif.g09.slc.cpg/sg2_267_cif.got.tgz:533833.got - 2010.06.27 13:26:56.
