data_PCOD8006803
_publ_section_title
;
Structure prediction by ZEFSAII (Michael W. Deem and Ramdas Pophale) SiO2 
 PCOD8006803
Probable space group: P -1
;
_chemical_formula_sum "Si O2"
_cell_formula_units_Z 12
_cell_length_a 13.870945
_cell_length_b 10.410713
_cell_length_c 7.489297
_cell_angle_alpha 47.382190
_cell_angle_beta 82.746133
_cell_angle_gamma 118.112329
_cell_volume 510.698354
_symmetry_space_group_name_H-M "P -1"
_symmetry_group_IT_number 2
_symmetry_cell_setting 'triclinic'
loop_
_space_group_symop_operation_xyz
x,y,z
-x,-y,-z
loop_
_atom_site_type_symbol
_atom_site_label
_atom_site_fract_x
_atom_site_fract_y
_atom_site_fract_z
Si Si1 0.225741 0.810678 0.802536
Si Si2 0.457751 0.740065 0.715106
Si Si3 0.623119 0.525085 0.396186
Si Si4 0.260721 0.528290 0.273093
Si Si5 0.968733 0.691873 0.899209
Si Si6 0.935036 0.008275 0.764816
O O1 0.089154 0.753043 0.934896
O O2 0.378004 0.126403 0.418016
O O3 0.261694 0.738109 0.036639
O O4 0.176224 0.622668 0.822051
O O5 0.405683 0.612621 0.652335
O O6 0.500000 0.000000 0.500000
O O7 0.325412 0.509752 0.101927
O O8 0.500000 0.500000 0.500000
O O9 0.633320 0.382079 0.672709
O O10 0.781875 0.849958 0.052026
O O11 0.088206 0.235482 0.629581
O O12 0.052186 0.857697 0.540762
O O13 0.908115 0.769275 0.950624
#
# Coordination Sequence:
#
# PCOD8006803 Si02
#       6
#     2   2   2   2   2   2
#     4   9  19  36  63  98 123 165 218 267 320 386
#     4  10  22  42  68  93 131 174 211 270 327 383
#     4  12  27  41  64 103 133 169 222 270 327 388
#     4  10  23  43  67  95 131 172 219 269 326 382
#     4   9  18  36  69  96 121 169 226 259 324 388
#     4  10  20  40  64  91 131 171 211 274 319 388
#
# _framework density 23.497237999999999
#
# number of rings (size 3 to 8) (size 9 to 14) (size 15 to 20)
#    0.000    2.000    0.000    4.500    4.667    3.333 
#    0.000    0.833    0.000    0.000    0.000    0.000 
#    0.000    0.000    0.000    0.000    0.000    0.000 
#
# Total GULP energy -148677.908218 kJ/mol
# GULP energy per Si atom -12389.825685 kJ/mol
# Density = 2.344376 g / cm^3
# Si number density = 23.497238 Si / 1000 Ang^3
#
#
#
# Elastic Constant Matrix: (Units=GPa)
#
#
# Indices 1 2 3 4 5 6 
#
# 1 123.6034 41.8148 45.0875 2.9276 -11.5636 28.4021
# 2 41.8148 98.4640 32.1824 7.7713 -12.3275 12.8845
# 3 45.0875 32.1824 105.2650 -9.1485 -42.9894 9.8529
# 4 2.9276 7.7713 -9.1485 31.8819 6.8186 -2.0668
# 5 -11.5636 -12.3275 -42.9894 6.8186 31.8291 -3.6560
# 6 28.4021 12.8845 9.8529 -2.0668 -3.6560 35.4681
#
#
#
# Elastic Compliance Matrix: (Units=1/GPa)
#
#
# Indices 1 2 3 4 5 6 
#
# 1 0.012687 -0.002875 -0.006134 -0.001598 -0.005372 -0.008058
# 2 -0.002875 0.012853 -0.002240 -0.003960 0.001548 -0.001816
# 3 -0.006134 -0.002240 0.025546 0.001888 0.031227 0.001958
# 4 -0.001598 -0.003960 0.001888 0.034657 -0.006583 0.003535
# 5 -0.005372 0.001548 0.031227 -0.006583 0.073916 0.002300
# 6 -0.008058 -0.001816 0.001958 0.003535 0.002300 0.035206
#
#
# Mechanical properties :
#
#
# Convention : Reuss Voigt Hill
#
# Bulk Modulus (GPa) = 34.97984 62.83351 48.90667
# Shear Modulus (GPa) = 22.03681 33.71902 27.87792
#
# Velocity S-wave (km/s) = 3.06575 3.79228 3.44820
# Velocity P-wave (km/s) = 5.23936 6.78041 6.05908
#
# Compressibility (1/GPa) = 0.02858790
#
# Stress axis : x y z
#
# Youngs Moduli (GPa) = 78.81808 77.80194 39.14541
#
# Poissons Ratio (x) = 0.22369 0.24011
# Poissons Ratio (y) = 0.22662 0.08770
# Poissons Ratio (z) = 0.48345 0.17430
#
# Static dielectric constant tensor:
#      x y z
#    x 4.468260 0.238360 -0.425470 
#    y 0.238360 3.906210 -0.200350 
#    z -0.425470 -0.200350 4.606800 
# 
# 
# High freq. dielectric constant tensor:
#      x y z
#    x 1.935600 0.018500 -0.025330 
#    y 0.018500 1.905800 -0.015440 
#    z -0.025330 -0.015440 1.930940 
# 
# From -- ./inp_files/304636.got.cif
#   From: 2010.06.25/outbox.cif.g09.slc.cpg/sg2_153_cif.got.tgz:304636.got - 2010.06.27 13:26:56.
