data_PCOD8006546
_publ_section_title
;
Structure prediction by ZEFSAII (Michael W. Deem and Ramdas Pophale) SiO2 
 PCOD8006546
Probable space group: P -1
;
_chemical_formula_sum "Si O2"
_cell_formula_units_Z 16
_cell_length_a 26.388453
_cell_length_b 16.056540
_cell_length_c 8.989637
_cell_angle_alpha 130.724445
_cell_angle_beta 130.562417
_cell_angle_gamma 16.307210
_cell_volume 805.320975
_symmetry_space_group_name_H-M "P -1"
_symmetry_group_IT_number 2
_symmetry_cell_setting 'triclinic'
loop_
_space_group_symop_operation_xyz
x,y,z
-x,-y,-z
loop_
_atom_site_type_symbol
_atom_site_label
_atom_site_fract_x
_atom_site_fract_y
_atom_site_fract_z
Si Si1 0.669864 0.667316 0.985919
Si Si2 0.988503 0.521995 0.828481
Si Si3 0.158090 0.808697 0.680753
Si Si4 0.657679 0.878278 0.584356
Si Si5 0.320323 0.395830 0.731757
Si Si6 0.033817 0.219081 0.074654
Si Si7 0.537877 0.716122 0.561164
Si Si8 0.826371 0.836317 0.502355
O O1 0.675685 0.552497 0.755915
O O2 0.674660 0.603643 0.081555
O O3 0.841544 0.482029 0.081541
O O4 0.500000 0.000000 0.000000
O O5 0.146917 0.208920 0.679650
O O6 0.796770 0.764258 0.699690
O O7 0.993448 0.641204 0.931460
O O8 0.000000 0.500000 0.000000
O O9 0.186715 0.687307 0.738372
O O10 0.342216 0.540186 0.622440
O O11 0.000000 0.000000 0.500000
O O12 0.119504 0.988157 0.878420
O O13 0.749209 0.618425 0.469840
O O14 0.528659 0.096580 0.733118
O O15 0.540947 0.058752 0.419137
O O16 0.156716 0.070054 0.277151
O O17 0.373618 0.900880 0.536652
O O18 0.000000 0.500000 0.500000
#
# Coordination Sequence:
#
# PCOD8006546 Si02
#       8
#     2   2   2   2   2   2   2   2
#     4  12  22  37  68 101 126 169 220 284 334 381
#     4  11  24  37  66 100 130 163 217 277 336 385
#     4  11  25  46  62  95 135 184 225 262 325 405
#     4  10  20  40  60  98 128 163 213 284 325 376
#     4  10  24  37  65  93 133 167 222 273 326 383
#     4  11  24  43  66  91 136 179 215 266 337 395
#     4  11  21  40  66  93 132 170 217 275 324 389
#     4  10  20  41  62  95 127 166 216 269 334 387
#
# _framework density 19.867853
#
# number of rings (size 3 to 8) (size 9 to 14) (size 15 to 20)
#    0.000    1.250    5.000    2.250    5.250    1.000 
#    0.000    0.000    0.000    1.500    0.000    0.000 
#    0.000    0.000    0.000    0.000    0.000    0.000 
#
# Total GULP energy -198298.151791 kJ/mol
# GULP energy per Si atom -12393.634487 kJ/mol
# Density = 1.982263 g / cm^3
# Si number density = 19.867853 Si / 1000 Ang^3
#
#
#
# Elastic Constant Matrix: (Units=GPa)
#
#
# Indices 1 2 3 4 5 6 
#
# 1 139.3818 51.3802 76.5244 -1.3026 -17.9681 -15.4765
# 2 51.3802 62.6636 37.9042 5.2629 -4.3454 -7.0515
# 3 76.5244 37.9042 146.3627 9.2960 -8.7239 5.4641
# 4 -1.3026 5.2629 9.2960 28.8011 -0.7056 2.0838
# 5 -17.9681 -4.3454 -8.7239 -0.7056 42.9171 -4.8473
# 6 -15.4765 -7.0515 5.4641 2.0838 -4.8473 35.9818
#
#
#
# Elastic Compliance Matrix: (Units=1/GPa)
#
#
# Indices 1 2 3 4 5 6 
#
# 1 0.014504 -0.007695 -0.005755 0.003601 0.004866 0.006051
# 2 -0.007695 0.023993 -0.002053 -0.004226 -0.001076 0.001804
# 3 -0.005755 -0.002053 0.010672 -0.003032 -0.001001 -0.004458
# 4 0.003601 -0.004226 -0.003032 0.036717 0.000975 -0.000814
# 5 0.004866 -0.001076 -0.001001 0.000975 0.025655 0.005434
# 6 0.006051 0.001804 -0.004458 -0.000814 0.005434 0.032204
#
#
# Mechanical properties :
#
#
# Convention : Reuss Voigt Hill
#
# Bulk Modulus (GPa) = 55.05851 75.55843 65.30847
# Shear Modulus (GPa) = 27.65392 33.71328 30.68360
#
# Velocity S-wave (km/s) = 3.73486 4.12378 3.93413
# Velocity P-wave (km/s) = 6.80965 7.79661 7.31979
#
# Compressibility (1/GPa) = 0.01816250
#
# Stress axis : x y z
#
# Youngs Moduli (GPa) = 68.94872 41.67862 93.70120
#
# Poissons Ratio (x) = 0.32072 0.53923
# Poissons Ratio (y) = 0.53057 0.19240
# Poissons Ratio (z) = 0.39678 0.08558
#
# Static dielectric constant tensor:
#      x y z
#    x 3.755950 -0.217860 -0.286340 
#    y -0.217860 3.511910 -0.030290 
#    z -0.286340 -0.030290 4.155440 
# 
# 
# High freq. dielectric constant tensor:
#      x y z
#    x 1.778280 -0.025500 -0.012570 
#    y -0.025500 1.751500 -0.000540 
#    z -0.012570 -0.000540 1.789590 
# 
# From -- ./inp_files/354599.got.cif
#   From: 2010.06.25/outbox.cif.g09.slc.cpg/sg2_178_cif.got.tgz:354599.got - 2010.06.27 13:26:56.
