data_PCOD8006441
_publ_section_title
;
Structure prediction by ZEFSAII (Michael W. Deem and Ramdas Pophale) SiO2 
 PCOD8006441
Probable space group: P -1
;
_chemical_formula_sum "Si O2"
_cell_formula_units_Z 14
_cell_length_a 11.198133
_cell_length_b 9.104531
_cell_length_c 11.803498
_cell_angle_alpha 40.026255
_cell_angle_beta 118.622071
_cell_angle_gamma 132.373930
_cell_volume 570.030304
_symmetry_space_group_name_H-M "P -1"
_symmetry_group_IT_number 2
_symmetry_cell_setting 'triclinic'
loop_
_space_group_symop_operation_xyz
x,y,z
-x,-y,-z
loop_
_atom_site_type_symbol
_atom_site_label
_atom_site_fract_x
_atom_site_fract_y
_atom_site_fract_z
Si Si1 0.893266 0.462374 0.644133
Si Si2 0.475220 0.448746 0.823145
Si Si3 0.143585 0.140512 0.735255
Si Si4 0.360407 0.689668 0.202975
Si Si5 0.305552 0.910848 0.836739
Si Si6 0.338826 0.138653 0.154423
Si Si7 0.881288 0.638573 0.058029
O O1 0.948116 0.714777 0.435383
O O2 0.803418 0.499338 0.688807
O O3 0.050104 0.458571 0.753033
O O4 0.767487 0.182772 0.688087
O O5 0.307734 0.372409 0.734655
O O6 0.605436 0.486316 0.765700
O O7 0.555514 0.735650 0.757756
O O8 0.448733 0.223801 0.039669
O O9 0.187235 0.022571 0.714722
O O10 0.029202 0.889736 0.911859
O O11 0.513532 0.857162 0.261504
O O12 0.334288 0.896732 0.994364
O O13 0.226716 0.618039 0.919614
O O14 0.229367 0.262099 0.002726
#
# Coordination Sequence:
#
# PCOD8006441 Si02
#       7
#     2   2   2   2   2   2   2
#     4  12  26  42  69 101 137 175 220 269 342 392
#     4  10  22  43  73  96 128 175 232 272 329 383
#     4  11  25  43  66 102 137 174 219 277 330 396
#     4  10  20  43  70  99 126 170 227 283 317 387
#     4  10  20  39  70  94 128 174 217 277 329 371
#     4  11  23  43  70  99 127 184 222 268 333 397
#     4  12  24  43  66  98 139 178 214 272 329 411
#
# _framework density 24.560098
#
# number of rings (size 3 to 8) (size 9 to 14) (size 15 to 20)
#    0.000    1.143    4.286    2.571    2.000    4.000 
#    0.000    1.429    0.000    0.000    0.000    0.000 
#    0.000    0.000    0.000    0.000    0.000    0.000 
#
# Total GULP energy -173539.859200 kJ/mol
# GULP energy per Si atom -12395.704229 kJ/mol
# Density = 2.450420 g / cm^3
# Si number density = 24.560098 Si / 1000 Ang^3
#
#
#
# Elastic Constant Matrix: (Units=GPa)
#
#
# Indices 1 2 3 4 5 6 
#
# 1 58.3981 30.6412 4.4958 7.1962 5.2883 -4.8011
# 2 30.6412 108.1843 10.6765 -2.5911 0.7507 -8.4904
# 3 4.4958 10.6765 83.6475 -0.0751 24.3667 -1.6272
# 4 7.1962 -2.5911 -0.0751 20.2612 -2.4741 7.1128
# 5 5.2883 0.7507 24.3667 -2.4741 20.9907 0.7659
# 6 -4.8011 -8.4904 -1.6272 7.1128 0.7659 33.3036
#
#
#
# Elastic Compliance Matrix: (Units=1/GPa)
#
#
# Indices 1 2 3 4 5 6 
#
# 1 0.023210 -0.006696 0.002686 -0.011948 -0.010300 0.004559
# 2 -0.006696 0.011512 -0.002404 0.004085 0.004516 0.000876
# 3 0.002686 -0.002404 0.018915 -0.004817 -0.023198 0.002261
# 4 -0.011948 0.004085 -0.004817 0.061114 0.016183 -0.014341
# 5 -0.010300 0.004516 -0.023198 0.016183 0.079156 -0.006744
# 6 0.004559 0.000876 0.002261 -0.014341 -0.006744 0.034236
#
#
# Mechanical properties :
#
#
# Convention : Reuss Voigt Hill
#
# Bulk Modulus (GPa) = 24.50481 37.98410 31.24445
# Shear Modulus (GPa) = 19.64060 28.53886 24.08973
#
# Velocity S-wave (km/s) = 2.83096 3.41251 3.13525
# Velocity P-wave (km/s) = 4.54807 5.57013 5.08484
#
# Compressibility (1/GPa) = 0.04080832
#
# Stress axis : x y z
#
# Youngs Moduli (GPa) = 43.08447 86.86236 52.86902
#
# Poissons Ratio (x) = 0.58161 -0.14198
# Poissons Ratio (y) = 0.28848 0.12711
# Poissons Ratio (z) = -0.11571 0.20884
#
# Static dielectric constant tensor:
#      x y z
#    x 4.667240 0.032620 0.196060 
#    y 0.032620 4.463040 0.008290 
#    z 0.196060 0.008290 3.910460 
# 
# 
# High freq. dielectric constant tensor:
#      x y z
#    x 1.991410 -0.004130 0.015890 
#    y -0.004130 1.982400 -0.004170 
#    z 0.015890 -0.004170 1.928920 
# 
# From -- ./inp_files/418772.got.cif
#   From: 2010.06.25/outbox.cif.g09.slc.cpg/sg2_210_cif.got.tgz:418772.got - 2010.06.27 13:26:56.
