data_PCOD8006153
_publ_section_title
;
Structure prediction by ZEFSAII (Michael W. Deem and Ramdas Pophale) SiO2 
 PCOD8006153
Probable space group: P -1
;
_chemical_formula_sum "Si O2"
_cell_formula_units_Z 14
_cell_length_a 20.999356
_cell_length_b 9.128194
_cell_length_c 5.235596
_cell_angle_alpha 104.524379
_cell_angle_beta 96.235374
_cell_angle_gamma 39.371489
_cell_volume 610.309034
_symmetry_space_group_name_H-M "P -1"
_symmetry_group_IT_number 2
_symmetry_cell_setting 'triclinic'
loop_
_space_group_symop_operation_xyz
x,y,z
-x,-y,-z
loop_
_atom_site_type_symbol
_atom_site_label
_atom_site_fract_x
_atom_site_fract_y
_atom_site_fract_z
Si Si1 0.508276 0.283602 0.291831
Si Si2 0.345061 0.436399 0.601916
Si Si3 0.355918 0.789701 0.323006
Si Si4 0.983648 0.432766 0.712396
Si Si5 0.191686 0.955275 0.630724
Si Si6 0.641280 0.784320 0.988889
Si Si7 0.769738 0.813075 0.945192
O O1 0.437345 0.381084 0.551757
O O2 0.446153 0.505953 0.165650
O O3 0.609078 0.184369 0.393680
O O4 0.535300 0.074087 0.077995
O O5 0.240697 0.723279 0.696313
O O6 0.340934 0.318592 0.326203
O O7 0.359258 0.337755 0.841422
O O8 0.255109 0.872326 0.362804
O O9 0.329432 0.959942 0.169115
O O10 0.000000 0.500000 0.500000
O O11 0.868911 0.577141 0.722901
O O12 0.072040 0.140866 0.612147
O O13 0.000000 0.500000 0.000000
O O14 0.197386 0.102920 0.845306
O O15 0.733169 0.735037 0.057857
#
# Coordination Sequence:
#
# PCOD8006153 Si02
#       7
#     2   2   2   2   2   2   2
#     4  10  22  41  63  94 129 172 219 260 316 374
#     4  11  27  42  65  90 135 173 214 257 321 377
#     4  10  20  39  65  98 124 163 217 276 310 366
#     4  10  21  38  69 100 124 157 211 268 323 374
#     4  10  22  43  65  97 125 165 215 267 319 380
#     4  12  25  44  61  94 133 174 211 262 315 381
#     4  11  23  40  71  93 129 164 216 267 322 376
#
# _framework density 22.939197
#
# number of rings (size 3 to 8) (size 9 to 14) (size 15 to 20)
#    0.000    1.429    2.857    1.714    4.000    1.714 
#    2.571    1.429    0.000    0.000    0.000    0.000 
#    0.000    0.000    0.000    0.000    0.000    0.000 
#
# Total GULP energy -173508.699949 kJ/mol
# GULP energy per Si atom -12393.478568 kJ/mol
# Density = 2.288699 g / cm^3
# Si number density = 22.939197 Si / 1000 Ang^3
#
#
#
# Elastic Constant Matrix: (Units=GPa)
#
#
# Indices 1 2 3 4 5 6 
#
# 1 59.2801 40.6362 1.9386 2.2063 -12.9182 4.3856
# 2 40.6362 136.4628 5.4531 7.3367 -12.1675 -10.7021
# 3 1.9386 5.4531 50.9226 -8.2115 -3.2753 3.8490
# 4 2.2063 7.3367 -8.2115 33.8125 7.7465 -2.8353
# 5 -12.9182 -12.1675 -3.2753 7.7465 34.4060 3.7280
# 6 4.3856 -10.7021 3.8490 -2.8353 3.7280 31.4459
#
#
#
# Elastic Compliance Matrix: (Units=1/GPa)
#
#
# Indices 1 2 3 4 5 6 
#
# 1 0.023839 -0.006829 0.000470 -0.002331 0.007847 -0.006847
# 2 -0.006829 0.009918 -0.001373 -0.001861 0.000773 0.004236
# 3 0.000470 -0.001373 0.020819 0.004894 0.000868 -0.002743
# 4 -0.002331 -0.001861 0.004894 0.033647 -0.008989 0.003192
# 5 0.007847 0.000773 0.000868 -0.008989 0.035030 -0.005901
# 6 -0.006847 0.004236 -0.002743 0.003192 -0.005901 0.035520
#
#
# Mechanical properties :
#
#
# Convention : Reuss Voigt Hill
#
# Bulk Modulus (GPa) = 25.56811 38.08014 31.82412
# Shear Modulus (GPa) = 26.69891 33.17540 29.93716
#
# Velocity S-wave (km/s) = 3.41530 3.80706 3.61649
# Velocity P-wave (km/s) = 5.16939 5.99679 5.59839
#
# Compressibility (1/GPa) = 0.03911122
#
# Stress axis : x y z
#
# Youngs Moduli (GPa) = 41.94892 100.82933 48.03277
#
# Poissons Ratio (x) = 0.68861 -0.02258
# Poissons Ratio (y) = 0.28649 0.06594
# Poissons Ratio (z) = -0.01972 0.13841
#
# Static dielectric constant tensor:
#      x y z
#    x 4.257720 -0.364780 -0.292620 
#    y -0.364780 4.779070 0.350180 
#    z -0.292620 0.350180 3.970460 
# 
# 
# High freq. dielectric constant tensor:
#      x y z
#    x 1.889350 -0.006440 -0.016900 
#    y -0.006440 1.917890 0.012680 
#    z -0.016900 0.012680 1.896550 
# 
# From -- ./inp_files/35441.got.cif
#   From: 2010.06.25/outbox.cif.g09.slc.cpg/sg2_18_cif.got.tgz:35441.got - 2010.06.27 13:26:56.
