data_PCOD8006398
_publ_section_title
;
Structure prediction by ZEFSAII (Michael W. Deem and Ramdas Pophale) SiO2 
 PCOD8006398
Probable space group: P -1
;
_chemical_formula_sum "Si O2"
_cell_formula_units_Z 16
_cell_length_a 16.878631
_cell_length_b 19.890009
_cell_length_c 11.588087
_cell_angle_alpha 21.470932
_cell_angle_beta 150.544030
_cell_angle_gamma 151.085261
_cell_volume 652.940848
_symmetry_space_group_name_H-M "P -1"
_symmetry_group_IT_number 2
_symmetry_cell_setting 'triclinic'
loop_
_space_group_symop_operation_xyz
x,y,z
-x,-y,-z
loop_
_atom_site_type_symbol
_atom_site_label
_atom_site_fract_x
_atom_site_fract_y
_atom_site_fract_z
Si Si1 0.949678 0.288784 0.131121
Si Si2 0.793415 0.882030 0.266094
Si Si3 0.814861 0.647618 0.033947
Si Si4 0.941494 0.066782 0.939375
Si Si5 0.161950 0.705685 0.259157
Si Si6 0.263785 0.651683 0.044192
Si Si7 0.427532 0.418720 0.360378
Si Si8 0.636167 0.191251 0.310645
O O1 0.015353 0.110883 0.462120
O O2 0.122240 0.477437 0.072887
O O3 0.834656 0.323300 0.827522
O O4 0.831703 0.233992 0.182846
O O5 0.652399 0.683500 0.455168
O O6 0.813150 0.883989 0.146627
O O7 0.744336 0.066472 0.949598
O O8 0.740254 0.428644 0.346602
O O9 0.888326 0.811260 0.965707
O O10 0.963071 0.640254 0.147566
O O11 0.670538 0.696472 0.695723
O O12 0.833817 0.210211 0.554078
O O13 0.000000 0.000000 0.000000
O O14 0.374646 0.566345 0.407195
O O15 0.385962 0.809121 0.856157
O O16 0.405078 0.625993 0.984395
O O17 0.500000 0.000000 0.500000
#
# Coordination Sequence:
#
# PCOD8006398 Si02
#       8
#     2   2   2   2   2   2   2   2
#     4  11  22  41  69 101 137 173 233 286 343 407
#     4  11  22  39  74  99 134 178 235 281 331 417
#     4  10  21  41  70  98 141 178 232 279 334 419
#     4  11  25  44  72 106 139 181 229 282 348 409
#     4  10  20  39  69 101 128 183 230 279 336 406
#     4  11  25  42  68 100 140 182 224 287 351 406
#     4  12  24  45  68 103 135 183 234 285 341 407
#     4  12  25  45  68 103 142 183 233 287 340 409
#
# _framework density 24.504518000000001
#
# number of rings (size 3 to 8) (size 9 to 14) (size 15 to 20)
#    0.000    1.000    2.500    5.250    3.500    1.000 
#    0.000    1.250    5.500    0.000    0.000    0.000 
#    0.000    0.000    0.000    0.000    0.000    0.000 
#
# Total GULP energy -198247.726106 kJ/mol
# GULP energy per Si atom -12390.482882 kJ/mol
# Density = 2.444874 g / cm^3
# Si number density = 24.504518 Si / 1000 Ang^3
#
#
#
# Elastic Constant Matrix: (Units=GPa)
#
#
# Indices 1 2 3 4 5 6 
#
# 1 117.2164 56.4223 37.8197 -1.6641 -14.0026 -25.8125
# 2 56.4223 82.6044 35.9019 0.0404 -8.7603 -5.7868
# 3 37.8197 35.9019 104.7941 -4.0888 -17.8820 7.0185
# 4 -1.6641 0.0404 -4.0888 40.6599 -3.6281 -1.9193
# 5 -14.0026 -8.7603 -17.8820 -3.6281 40.2567 5.3169
# 6 -25.8125 -5.7868 7.0185 -1.9193 5.3169 20.8035
#
#
#
# Elastic Compliance Matrix: (Units=1/GPa)
#
#
# Indices 1 2 3 4 5 6 
#
# 1 0.020628 -0.009882 -0.005816 0.001388 -0.000753 0.025128
# 2 -0.009882 0.019662 -0.002746 -0.000955 0.000333 -0.006039
# 3 -0.005816 -0.002746 0.014578 0.001077 0.005840 -0.014292
# 4 0.001388 -0.000955 0.001077 0.025126 0.002657 0.002732
# 5 -0.000753 0.000333 0.005840 0.002657 0.028796 -0.009926
# 6 0.025128 -0.006039 -0.014292 0.002732 -0.009926 0.085178
#
#
# Mechanical properties :
#
#
# Convention : Reuss Voigt Hill
#
# Bulk Modulus (GPa) = 55.61768 62.76696 59.19232
# Shear Modulus (GPa) = 21.11051 31.97541 26.54296
#
# Velocity S-wave (km/s) = 2.93831 3.61623 3.29475
# Velocity P-wave (km/s) = 5.85301 6.56553 6.21948
#
# Compressibility (1/GPa) = 0.01797989
#
# Stress axis : x y z
#
# Youngs Moduli (GPa) = 48.47799 50.86021 68.59709
#
# Poissons Ratio (x) = 0.50260 0.39898
# Poissons Ratio (y) = 0.47906 0.18834
# Poissons Ratio (z) = 0.28196 0.13964
#
# Static dielectric constant tensor:
#      x y z
#    x 4.310250 -0.064090 -0.294940 
#    y -0.064090 4.099660 0.202010 
#    z -0.294940 0.202010 4.944650 
# 
# 
# High freq. dielectric constant tensor:
#      x y z
#    x 1.957000 -0.010530 -0.021490 
#    y -0.010530 1.948050 0.008790 
#    z -0.021490 0.008790 1.993030 
# 
# From -- ./inp_files/467008.got.cif
#   From: 2010.06.25/outbox.cif.g09.slc.cpg/sg2_234_cif.got.tgz:467008.got - 2010.06.27 13:26:56.
