data_PCOD8006069
_publ_section_title
;
Structure prediction by ZEFSAII (Michael W. Deem and Ramdas Pophale) SiO2 
 PCOD8006069
Probable space group: P -1
;
_chemical_formula_sum "Si O2"
_cell_formula_units_Z 14
_cell_length_a 7.112356
_cell_length_b 9.391254
_cell_length_c 12.046231
_cell_angle_alpha 101.427341
_cell_angle_beta 104.943039
_cell_angle_gamma 66.009208
_cell_volume 706.268895
_symmetry_space_group_name_H-M "P -1"
_symmetry_group_IT_number 2
_symmetry_cell_setting 'triclinic'
loop_
_space_group_symop_operation_xyz
x,y,z
-x,-y,-z
loop_
_atom_site_type_symbol
_atom_site_label
_atom_site_fract_x
_atom_site_fract_y
_atom_site_fract_z
Si Si1 0.215199 0.851235 0.005402
Si Si2 0.994987 0.293473 0.400416
Si Si3 0.685255 0.167549 0.237241
Si Si4 0.242226 0.342748 0.262592
Si Si5 0.945490 0.679311 0.994517
Si Si6 0.364015 0.152481 0.833025
Si Si7 0.901242 0.614124 0.345451
O O1 0.395057 0.879203 0.108193
O O2 0.295266 0.806689 0.885998
O O3 0.162830 0.709746 0.030882
O O4 0.000000 0.000000 0.000000
O O5 0.206688 0.250708 0.351792
O O6 0.050383 0.278956 0.536793
O O7 0.884494 0.173036 0.335097
O O8 0.844705 0.474975 0.374181
O O9 0.485191 0.310974 0.276888
O O10 0.657317 0.006285 0.235606
O O11 0.158512 0.275680 0.134622
O O12 0.109265 0.530430 0.287023
O O13 0.779368 0.790982 0.072046
O O14 0.000000 0.500000 0.000000
O O15 0.289889 0.279737 0.743286
#
# Coordination Sequence:
#
# PCOD8006069 Si02
#       7
#     2   2   2   2   2   2   2
#     4  12  24  40  61  90 133 169 196 254 320 375
#     4   9  21  43  67  85 126 170 213 249 315 361
#     4  12  23  37  66  92 123 172 208 248 318 377
#     4  10  20  39  65  89 121 163 212 248 312 372
#     4  12  22  39  63  95 126 157 207 264 309 371
#     4  12  25  39  62 100 128 159 211 257 313 370
#     4   9  21  46  63  88 129 161 211 270 295 366
#
# _framework density 19.822478
#
# number of rings (size 3 to 8) (size 9 to 14) (size 15 to 20)
#    0.857    0.286    5.714    1.286    0.000    2.857 
#    0.000    0.714    0.000    0.000    0.000    0.000 
#    0.000    0.000    0.000    0.000    0.000    0.000 
#
# Total GULP energy -173549.882950 kJ/mol
# GULP energy per Si atom -12396.420211 kJ/mol
# Density = 1.977736 g / cm^3
# Si number density = 19.822478 Si / 1000 Ang^3
#
#
#
# Elastic Constant Matrix: (Units=GPa)
#
#
# Indices 1 2 3 4 5 6 
#
# 1 130.3560 43.2901 49.4888 4.0805 -0.5458 0.1372
# 2 43.2901 75.3473 26.4263 3.8537 1.0942 5.5780
# 3 49.4888 26.4263 129.6380 10.7631 4.3396 -5.6880
# 4 4.0805 3.8537 10.7631 25.6127 2.5996 4.3396
# 5 -0.5458 1.0942 4.3396 2.5996 15.9008 3.5581
# 6 0.1372 5.5780 -5.6880 4.3396 3.5581 35.9625
#
#
#
# Elastic Compliance Matrix: (Units=1/GPa)
#
#
# Indices 1 2 3 4 5 6 
#
# 1 0.010487 -0.004994 -0.003048 0.000197 0.001485 0.000082
# 2 -0.004994 0.016946 -0.001615 -0.000587 -0.000180 -0.002776
# 3 -0.003048 -0.001615 0.009693 -0.003498 -0.002621 0.002477
# 4 0.000197 -0.000587 -0.003498 0.041905 -0.004718 -0.005053
# 5 0.001485 -0.000180 -0.002621 -0.004718 0.065858 -0.006339
# 6 0.000082 -0.002776 0.002477 -0.005053 -0.006339 0.029866
#
#
# Mechanical properties :
#
#
# Convention : Reuss Voigt Hill
#
# Bulk Modulus (GPa) = 56.14033 63.75020 59.94526
# Shear Modulus (GPa) = 24.99931 29.90429 27.45180
#
# Velocity S-wave (km/s) = 3.55513 3.88829 3.72544
# Velocity P-wave (km/s) = 6.72570 7.23801 6.98655
#
# Compressibility (1/GPa) = 0.01781251
#
# Stress axis : x y z
#
# Youngs Moduli (GPa) = 95.35856 59.01236 103.16359
#
# Poissons Ratio (x) = 0.29470 0.31442
# Poissons Ratio (y) = 0.47620 0.16661
# Poissons Ratio (z) = 0.29063 0.09531
#
# Static dielectric constant tensor:
#      x y z
#    x 3.718960 -0.001270 -0.106470 
#    y -0.001270 3.541060 0.163260 
#    z -0.106470 0.163260 3.618310 
# 
# 
# High freq. dielectric constant tensor:
#      x y z
#    x 1.765080 0.002290 -0.009020 
#    y 0.002290 1.759500 0.015640 
#    z -0.009020 0.015640 1.772280 
# 
# From -- ./inp_files/80683.got.cif
#   From: 2010.06.25/outbox.cif.g09.slc.cpg/sg2_41_cif.got.tgz:80683.got - 2010.06.27 13:26:56.
