data_PCOD8006719
_publ_section_title
;
Structure prediction by ZEFSAII (Michael W. Deem and Ramdas Pophale) SiO2 
 PCOD8006719
Probable space group: P -1
;
_chemical_formula_sum "Si O2"
_cell_formula_units_Z 14
_cell_length_a 10.402612
_cell_length_b 21.955200
_cell_length_c 12.805865
_cell_angle_alpha 21.049382
_cell_angle_beta 137.204750
_cell_angle_gamma 144.547314
_cell_volume 604.384528
_symmetry_space_group_name_H-M "P -1"
_symmetry_group_IT_number 2
_symmetry_cell_setting 'triclinic'
loop_
_space_group_symop_operation_xyz
x,y,z
-x,-y,-z
loop_
_atom_site_type_symbol
_atom_site_label
_atom_site_fract_x
_atom_site_fract_y
_atom_site_fract_z
Si Si1 0.493527 0.642461 0.182694
Si Si2 0.334412 0.074159 0.589345
Si Si3 0.408344 0.946407 0.414097
Si Si4 0.118909 0.324717 0.061793
Si Si5 0.977973 0.536434 0.772839
Si Si6 0.183917 0.431345 0.601018
Si Si7 0.270329 0.697066 0.404483
O O1 0.500000 0.500000 0.500000
O O2 0.237203 0.561971 0.119322
O O3 0.649812 0.652266 0.164029
O O4 0.599632 0.865361 0.935931
O O5 0.292969 0.254984 0.288644
O O6 0.512697 0.105869 0.734771
O O7 0.433071 0.089968 0.507325
O O8 0.115597 0.861115 0.822133
O O9 0.500000 0.000000 0.500000
O O10 0.158832 0.754654 0.572494
O O11 0.212598 0.505969 0.747207
O O12 0.081854 0.398677 0.034909
O O13 0.865302 0.536818 0.596493
O O14 0.307293 0.645735 0.391551
O O15 0.944627 0.278299 0.759083
#
# Coordination Sequence:
#
# PCOD8006719 Si02
#       7
#     2   2   2   2   2   2   2
#     4  10  23  44  66  90 132 171 211 258 319 380
#     4  11  22  40  62  91 128 163 209 261 322 376
#     4  12  26  41  65  98 127 167 218 262 312 384
#     4  10  21  38  65  88 125 167 205 256 328 371
#     4  10  21  44  63  89 131 169 206 268 316 373
#     4   9  20  38  65  89 118 165 214 253 314 370
#     4  10  20  40  63  91 121 160 213 267 307 374
#
# _framework density 23.164061
#
# number of rings (size 3 to 8) (size 9 to 14) (size 15 to 20)
#    0.000    1.714    4.286    0.429    2.000    2.857 
#    5.143    9.286    0.000    0.000    0.000    0.000 
#    0.000    0.000    0.000    0.000    0.000    0.000 
#
# Total GULP energy -173485.901345 kJ/mol
# GULP energy per Si atom -12391.850096 kJ/mol
# Density = 2.311134 g / cm^3
# Si number density = 23.164061 Si / 1000 Ang^3
#
#
#
# Elastic Constant Matrix: (Units=GPa)
#
#
# Indices 1 2 3 4 5 6 
#
# 1 147.0916 65.4041 30.9657 -3.5919 49.9852 23.0483
# 2 65.4041 121.2059 33.4516 -33.6272 10.0337 -2.9937
# 3 30.9657 33.4516 94.3819 -18.7774 29.9868 12.6906
# 4 -3.5919 -33.6272 -18.7774 34.9843 1.1401 -3.0725
# 5 49.9852 10.0337 29.9868 1.1401 35.5921 8.4488
# 6 23.0483 -2.9937 12.6906 -3.0725 8.4488 40.4770
#
#
#
# Elastic Compliance Matrix: (Units=1/GPa)
#
#
# Indices 1 2 3 4 5 6 
#
# 1 0.026038 -0.015881 0.008665 -0.007785 -0.036360 -0.011719
# 2 -0.015881 0.021781 -0.006682 0.015983 0.018904 0.010017
# 3 0.008665 -0.006682 0.020402 0.005754 -0.026256 -0.005907
# 4 -0.007785 0.015983 0.005754 0.046973 -0.001762 0.007745
# 5 -0.036360 0.018904 -0.026256 -0.001762 0.093470 0.010690
# 6 -0.011719 0.010017 -0.005907 0.007745 0.010690 0.032328
#
#
# Mechanical properties :
#
#
# Convention : Reuss Voigt Hill
#
# Bulk Modulus (GPa) = 24.73831 69.14693 46.94262
# Shear Modulus (GPa) = 17.71387 37.73455 27.72421
#
# Velocity S-wave (km/s) = 2.76835 4.04048 3.46332
# Velocity P-wave (km/s) = 4.57396 7.18909 6.02512
#
# Compressibility (1/GPa) = 0.04042314
#
# Stress axis : x y z
#
# Youngs Moduli (GPa) = 38.40537 45.91114 49.01519
#
# Poissons Ratio (x) = 0.72913 -0.42471
# Poissons Ratio (y) = 0.60993 0.32754
# Poissons Ratio (z) = -0.33278 0.30680
#
# Static dielectric constant tensor:
#      x y z
#    x 5.667480 0.507690 0.578350 
#    y 0.507690 4.262950 -0.108870 
#    z 0.578350 -0.108870 4.180180 
# 
# 
# High freq. dielectric constant tensor:
#      x y z
#    x 1.930690 0.016650 0.014280 
#    y 0.016650 1.909800 -0.014700 
#    z 0.014280 -0.014700 1.897460 
# 
# From -- ./inp_files/524360.got.cif
#   From: 2010.06.25/outbox.cif.g09.slc.cpg/sg2_263_cif.got.tgz:524360.got - 2010.06.27 13:26:56.
