data_PCOD8006127
_publ_section_title
;
Structure prediction by ZEFSAII (Michael W. Deem and Ramdas Pophale) SiO2 
 PCOD8006127
Probable space group: P -1
;
_chemical_formula_sum "Si O2"
_cell_formula_units_Z 16
_cell_length_a 14.889253
_cell_length_b 17.197822
_cell_length_c 5.440641
_cell_angle_alpha 83.429573
_cell_angle_beta 81.987320
_cell_angle_gamma 149.147910
_cell_volume 627.811212
_symmetry_space_group_name_H-M "P -1"
_symmetry_group_IT_number 2
_symmetry_cell_setting 'triclinic'
loop_
_space_group_symop_operation_xyz
x,y,z
-x,-y,-z
loop_
_atom_site_type_symbol
_atom_site_label
_atom_site_fract_x
_atom_site_fract_y
_atom_site_fract_z
Si Si1 0.134479 0.892552 0.293743
Si Si2 0.297861 0.798516 0.623618
Si Si3 0.696248 0.379104 0.339034
Si Si4 0.199478 0.422024 0.156184
Si Si5 0.698734 0.861795 0.525700
Si Si6 0.904780 0.802753 0.038546
Si Si7 0.884736 0.280999 0.783084
Si Si8 0.422824 0.359288 0.986604
O O1 0.204654 0.877223 0.087047
O O2 0.014322 0.743338 0.578965
O O3 0.309793 0.073651 0.292084
O O4 0.983239 0.842096 0.264866
O O5 0.344404 0.743098 0.626798
O O6 0.202171 0.744287 0.415317
O O7 0.500000 0.000000 0.500000
O O8 0.161529 0.710421 0.946845
O O9 0.488541 0.263076 0.535751
O O10 0.873442 0.534208 0.408189
O O11 0.764552 0.466212 0.017870
O O12 0.196933 0.352930 0.971941
O O13 0.388007 0.545511 0.217556
O O14 0.679661 0.764251 0.702201
O O15 0.906120 0.023976 0.250860
O O16 0.743940 0.751029 0.120878
O O17 0.500000 0.500000 0.000000
#
# Coordination Sequence:
#
# PCOD8006127 Si02
#       8
#     2   2   2   2   2   2   2   2
#     4  11  23  40  68  95 137 183 229 296 351 423
#     4  12  28  48  74 107 143 188 234 297 355 425
#     4  11  23  45  70  99 139 183 234 286 353 425
#     4   9  20  41  62  96 134 180 231 287 352 416
#     4  10  23  42  65 101 135 181 231 288 354 417
#     4  10  20  39  65  94 133 177 230 285 354 416
#     4  12  26  48  73 105 145 187 238 291 357 422
#     4   9  19  39  67  94 136 181 231 294 346 422
#
# _framework density 25.485368000000001
#
# number of rings (size 3 to 8) (size 9 to 14) (size 15 to 20)
#    0.000    1.500    1.250    3.000    3.500    2.000 
#    6.750    0.000    0.000    0.000    0.000    0.000 
#    0.000    0.000    0.000    0.000    0.000    0.000 
#
# Total GULP energy -198250.040094 kJ/mol
# GULP energy per Si atom -12390.627506 kJ/mol
# Density = 2.542736 g / cm^3
# Si number density = 25.485368 Si / 1000 Ang^3
#
#
#
# Elastic Constant Matrix: (Units=GPa)
#
#
# Indices 1 2 3 4 5 6 
#
# 1 114.2916 44.7896 21.6128 -6.1666 45.6929 13.5539
# 2 44.7896 127.9982 25.9587 -7.7308 21.7263 2.8054
# 3 21.6128 25.9587 59.0080 -0.6746 25.8502 3.0021
# 4 -6.1666 -7.7308 -0.6746 42.2277 -1.2304 12.0697
# 5 45.6929 21.7263 25.8502 -1.2304 34.1048 -5.5251
# 6 13.5539 2.8054 3.0021 12.0697 -5.5251 53.4850
#
#
#
# Elastic Compliance Matrix: (Units=1/GPa)
#
#
# Indices 1 2 3 4 5 6 
#
# 1 0.029636 -0.003973 0.013375 0.006558 -0.049448 -0.014641
# 2 -0.003973 0.009639 -0.003771 0.000983 0.002192 0.000717
# 3 0.013375 -0.003771 0.032518 0.003455 -0.041677 -0.010102
# 4 0.006558 0.000983 0.003455 0.027177 -0.012564 -0.009338
# 5 -0.049448 0.002192 -0.041677 -0.012564 0.130343 0.031055
# 6 -0.014641 0.000717 -0.010102 -0.009338 0.031055 0.028252
#
#
# Mechanical properties :
#
#
# Convention : Reuss Voigt Hill
#
# Bulk Modulus (GPa) = 12.03997 54.00221 33.02109
# Shear Modulus (GPa) = 18.24903 39.89263 29.07083
#
# Velocity S-wave (km/s) = 2.67883 3.96070 3.38107
# Velocity P-wave (km/s) = 3.78189 6.49243 5.31293
#
# Compressibility (1/GPa) = 0.08305665
#
# Stress axis : x y z
#
# Youngs Moduli (GPa) = 33.74236 103.74413 30.75213
#
# Poissons Ratio (x) = 0.41214 -0.41131
# Poissons Ratio (y) = 0.13405 0.11596
# Poissons Ratio (z) = -0.45130 0.39119
#
# Static dielectric constant tensor:
#      x y z
#    x 5.097290 0.285420 0.136990 
#    y 0.285420 5.074340 -0.088790 
#    z 0.136990 -0.088790 4.266390 
# 
# 
# High freq. dielectric constant tensor:
#      x y z
#    x 2.032020 0.002560 0.018540 
#    y 0.002560 2.039100 -0.009280 
#    z 0.018540 -0.009280 1.988060 
# 
# From -- ./inp_files/99693.got.cif
#   From: 2010.06.25/outbox.cif.g09.slc.cpg/sg2_50_cif.got.tgz:99693.got - 2010.06.27 13:26:56.
