data_PCOD8006303
_publ_section_title
;
Structure prediction by ZEFSAII (Michael W. Deem and Ramdas Pophale) SiO2 
 PCOD8006303
Probable space group: P -1
;
_chemical_formula_sum "Si O2"
_cell_formula_units_Z 14
_cell_length_a 13.579978
_cell_length_b 11.224391
_cell_length_c 18.750280
_cell_angle_alpha 42.822295
_cell_angle_beta 158.335803
_cell_angle_gamma 146.497708
_cell_volume 570.176694
_symmetry_space_group_name_H-M "P -1"
_symmetry_group_IT_number 2
_symmetry_cell_setting 'triclinic'
loop_
_space_group_symop_operation_xyz
x,y,z
-x,-y,-z
loop_
_atom_site_type_symbol
_atom_site_label
_atom_site_fract_x
_atom_site_fract_y
_atom_site_fract_z
Si Si1 0.923134 0.804908 0.893358
Si Si2 0.800368 0.389798 0.485120
Si Si3 0.269113 0.803200 0.251186
Si Si4 0.854644 0.740959 0.133540
Si Si5 0.965813 0.819269 0.625666
Si Si6 0.335025 0.384859 0.350581
Si Si7 0.859624 0.168747 0.406985
O O1 0.595182 0.763164 0.726365
O O2 0.853770 0.703756 0.812467
O O3 0.193440 0.073887 0.958546
O O4 0.052673 0.696932 0.078271
O O5 0.000000 0.500000 0.500000
O O6 0.903785 0.244286 0.650336
O O7 0.879274 0.573577 0.514698
O O8 0.433804 0.692709 0.440433
O O9 0.027269 0.794605 0.149352
O O10 0.558222 0.057494 0.310116
O O11 0.500000 0.500000 0.000000
O O12 0.587834 0.650160 0.409832
O O13 0.958541 0.715284 0.742380
O O14 0.229378 0.848561 0.731116
O O15 0.041455 0.052991 0.587936
#
# Coordination Sequence:
#
# PCOD8006303 Si02
#       7
#     2   2   2   2   2   2   2
#     4  12  24  41  66  97 131 173 220 265 322 395
#     4  12  24  39  67 100 128 168 222 265 325 396
#     4  11  23  42  65  93 137 170 213 273 326 384
#     4  12  25  43  62  95 138 172 217 271 329 386
#     4   9  19  39  68  92 132 174 214 272 325 376
#     4  10  21  41  67  95 127 174 220 266 329 379
#     4  10  20  39  67  94 130 173 213 266 333 380
#
# _framework density 24.553791
#
# number of rings (size 3 to 8) (size 9 to 14) (size 15 to 20)
#    0.000    1.143    2.857    3.429    4.000    0.000 
#    0.000    7.143    0.000    0.000    0.000    0.000 
#    0.000    0.000    0.000    0.000    0.000    0.000 
#
# Total GULP energy -173461.571118 kJ/mol
# GULP energy per Si atom -12390.112223 kJ/mol
# Density = 2.449791 g / cm^3
# Si number density = 24.553791 Si / 1000 Ang^3
#
#
#
# Elastic Constant Matrix: (Units=GPa)
#
#
# Indices 1 2 3 4 5 6 
#
# 1 150.1902 14.5986 4.0821 5.9328 -12.1818 23.2486
# 2 14.5986 75.9185 2.1626 1.7064 -1.1420 3.6271
# 3 4.0821 2.1626 72.3643 -3.9959 -21.5052 10.0323
# 4 5.9328 1.7064 -3.9959 29.8178 10.7771 0.7971
# 5 -12.1818 -1.1420 -21.5052 10.7771 46.7741 6.1496
# 6 23.2486 3.6271 10.0323 0.7971 6.1496 42.1339
#
#
#
# Elastic Compliance Matrix: (Units=1/GPa)
#
#
# Indices 1 2 3 4 5 6 
#
# 1 0.007954 -0.001204 0.001320 -0.002619 0.003926 -0.005123
# 2 -0.001204 0.013446 -0.000285 -0.000583 0.000074 -0.000425
# 3 0.001320 -0.000285 0.017335 -0.001150 0.009384 -0.006179
# 4 -0.002619 -0.000583 -0.001150 0.037561 -0.010214 0.002549
# 5 0.003926 0.000074 0.009384 -0.010214 0.030205 -0.008622
# 6 -0.005123 -0.000425 -0.006179 0.002549 -0.008622 0.029279
#
#
# Mechanical properties :
#
#
# Convention : Reuss Voigt Hill
#
# Bulk Modulus (GPa) = 26.04500 37.79552 31.92026
# Shear Modulus (GPa) = 33.57526 42.25380 37.91453
#
# Velocity S-wave (km/s) = 3.70187 4.15283 3.93382
# Velocity P-wave (km/s) = 5.37607 6.19847 5.80186
#
# Compressibility (1/GPa) = 0.03839508
#
# Stress axis : x y z
#
# Youngs Moduli (GPa) = 125.71787 74.37008 57.68696
#
# Poissons Ratio (x) = 0.08958 -0.07612
# Poissons Ratio (y) = 0.15142 0.01646
# Poissons Ratio (z) = -0.16590 0.02122
#
# Static dielectric constant tensor:
#      x y z
#    x 4.858210 0.242170 0.017960 
#    y 0.242170 4.531360 0.112760 
#    z 0.017960 0.112760 4.120680 
# 
# 
# High freq. dielectric constant tensor:
#      x y z
#    x 2.003090 0.015720 0.003130 
#    y 0.015720 1.983760 0.003470 
#    z 0.003130 0.003470 1.935410 
# 
# From -- ./inp_files/241500.got.cif
#   From: 2010.06.25/outbox.cif.g09.slc.cpg/sg2_121_cif.got.tgz:241500.got - 2010.06.27 13:26:56.
