data_PCOD8006023
_publ_section_title
;
Structure prediction by ZEFSAII (Michael W. Deem and Ramdas Pophale) SiO2 
 PCOD8006023
Probable space group: P -1
;
_chemical_formula_sum "Si O2"
_cell_formula_units_Z 16
_cell_length_a 12.680205
_cell_length_b 9.841926
_cell_length_c 22.481881
_cell_angle_alpha 34.300863
_cell_angle_beta 27.367785
_cell_angle_gamma 41.839238
_cell_volume 726.135049
_symmetry_space_group_name_H-M "P -1"
_symmetry_group_IT_number 2
_symmetry_cell_setting 'triclinic'
loop_
_space_group_symop_operation_xyz
x,y,z
-x,-y,-z
loop_
_atom_site_type_symbol
_atom_site_label
_atom_site_fract_x
_atom_site_fract_y
_atom_site_fract_z
Si Si1 0.251185 0.433755 0.208979
Si Si2 0.360502 0.908432 0.158747
Si Si3 0.567656 0.094560 0.104251
Si Si4 0.973995 0.689941 0.846408
Si Si5 0.297863 0.351983 0.728766
Si Si6 0.509263 0.450229 0.197147
Si Si7 0.675027 0.067424 0.337724
Si Si8 0.237077 0.404371 0.602111
O O1 0.333782 0.205688 0.210494
O O2 0.404137 0.426581 0.193614
O O3 0.982119 0.412104 0.365027
O O4 0.273510 0.685327 0.071355
O O5 0.340910 0.622790 0.260311
O O6 0.505816 0.942147 0.132950
O O7 0.115811 0.056794 0.230829
O O8 0.500000 0.000000 0.000000
O O9 0.708243 0.914724 0.143302
O O10 0.099667 0.527649 0.791954
O O11 0.141794 0.750145 0.794702
O O12 0.762762 0.550566 0.028797
O O13 0.260593 0.326407 0.686845
O O14 0.542900 0.461966 0.579963
O O15 0.529048 0.192290 0.312228
O O16 0.500000 0.000000 0.500000
O O17 0.803670 0.830015 0.332672
#
# Coordination Sequence:
#
# PCOD8006023 Si02
#       8
#     2   2   2   2   2   2   2   2
#     4  11  24  44  67  99 132 163 220 281 320 383
#     4  10  20  39  64  95 129 168 206 261 323 390
#     4  11  23  41  67  99 128 167 222 270 329 383
#     4  11  22  43  69  97 129 173 214 272 327 385
#     4  11  25  45  67  95 130 181 217 263 333 392
#     4  11  24  43  68 100 130 174 215 267 336 382
#     4  12  25  44  64 100 136 170 218 267 321 390
#     4  11  26  45  65  92 137 175 217 269 324 391
#
# _framework density 22.034468
#
# number of rings (size 3 to 8) (size 9 to 14) (size 15 to 20)
#    0.000    1.000    3.750    3.375    5.250    1.000 
#    2.250    1.250    0.000    0.000    0.000    0.000 
#    0.000    0.000    0.000    0.000    0.000    0.000 
#
# Total GULP energy -198457.118737 kJ/mol
# GULP energy per Si atom -12403.569921 kJ/mol
# Density = 2.198432 g / cm^3
# Si number density = 22.034468 Si / 1000 Ang^3
#
#
#
# Elastic Constant Matrix: (Units=GPa)
#
#
# Indices 1 2 3 4 5 6 
#
# 1 90.1853 18.0819 40.6943 1.7433 1.5131 1.9394
# 2 18.0819 114.1495 32.8625 29.3443 6.5097 2.4290
# 3 40.6943 32.8625 71.7968 11.3830 4.3568 -12.1040
# 4 1.7433 29.3443 11.3830 26.2522 -2.2496 -3.5308
# 5 1.5131 6.5097 4.3568 -2.2496 21.1996 1.9965
# 6 1.9394 2.4290 -12.1040 -3.5308 1.9965 44.8113
#
#
#
# Elastic Compliance Matrix: (Units=1/GPa)
#
#
# Indices 1 2 3 4 5 6 
#
# 1 0.015575 -0.000633 -0.009737 0.003635 0.001758 -0.003062
# 2 -0.000633 0.014141 -0.003934 -0.014842 -0.004804 -0.002757
# 3 -0.009737 -0.003934 0.023347 -0.004514 -0.004011 0.006764
# 4 0.003635 -0.014842 -0.004514 0.057812 0.011031 0.003492
# 5 0.001758 -0.004804 -0.004011 0.011031 0.050731 -0.002290
# 6 -0.003062 -0.002757 0.006764 0.003492 -0.002290 0.024802
#
#
# Mechanical properties :
#
#
# Convention : Reuss Voigt Hill
#
# Bulk Modulus (GPa) = 40.89214 51.04547 45.96880
# Shear Modulus (GPa) = 22.40453 30.75213 26.57833
#
# Velocity S-wave (km/s) = 3.19218 3.73988 3.47683
# Velocity P-wave (km/s) = 5.67320 6.47035 6.08484
#
# Compressibility (1/GPa) = 0.02445458
#
# Stress axis : x y z
#
# Youngs Moduli (GPa) = 64.20528 70.71515 42.83183
#
# Poissons Ratio (x) = 0.04479 0.41706
# Poissons Ratio (y) = 0.04067 0.16850
# Poissons Ratio (z) = 0.62517 0.27819
#
# Static dielectric constant tensor:
#      x y z
#    x 3.972790 -0.094940 0.020590 
#    y -0.094940 5.267370 0.042780 
#    z 0.020590 0.042780 3.758820 
# 
# 
# High freq. dielectric constant tensor:
#      x y z
#    x 1.875850 0.002910 0.003240 
#    y 0.002910 1.889190 0.007950 
#    z 0.003240 0.007950 1.840530 
# 
# From -- ./inp_files/505468.got.cif
#   From: 2010.06.25/outbox.cif.g09.slc.cpg/sg2_253_cif.got.tgz:505468.got - 2010.06.27 13:26:56.
