data_PCOD8006482
_publ_section_title
;
Structure prediction by ZEFSAII (Michael W. Deem and Ramdas Pophale) SiO2 
 PCOD8006482
Probable space group: P -1
;
_chemical_formula_sum "Si O2"
_cell_formula_units_Z 16
_cell_length_a 20.690418
_cell_length_b 8.654892
_cell_length_c 8.501159
_cell_angle_alpha 70.588806
_cell_angle_beta 137.204669
_cell_angle_gamma 125.134440
_cell_volume 834.651271
_symmetry_space_group_name_H-M "P -1"
_symmetry_group_IT_number 2
_symmetry_cell_setting 'triclinic'
loop_
_space_group_symop_operation_xyz
x,y,z
-x,-y,-z
loop_
_atom_site_type_symbol
_atom_site_label
_atom_site_fract_x
_atom_site_fract_y
_atom_site_fract_z
Si Si1 0.210027 0.092054 0.987194
Si Si2 0.618099 0.525891 0.678245
Si Si3 0.042840 0.127576 0.882159
Si Si4 0.299328 0.848840 0.386073
Si Si5 0.352574 0.015232 0.745307
Si Si6 0.776061 0.578339 0.690297
Si Si7 0.183763 0.098204 0.569386
Si Si8 0.467786 0.864834 0.206675
O O1 0.305295 0.304177 0.126914
O O2 0.243069 0.936828 0.146674
O O3 0.097732 0.043826 0.891568
O O4 0.195047 0.098517 0.774023
O O5 0.500000 0.500000 0.500000
O O6 0.666860 0.570944 0.572278
O O7 0.611337 0.329796 0.778120
O O8 0.131156 0.341501 0.029975
O O9 0.932175 0.100191 0.609741
O O10 0.000000 0.000000 0.000000
O O11 0.247635 0.628417 0.327941
O O12 0.275180 0.862023 0.524051
O O13 0.434540 0.971598 0.562342
O O14 0.288931 0.111777 0.668158
O O15 0.469647 0.170104 0.817365
O O16 0.381688 0.923479 0.973043
O O17 0.816894 0.715828 0.562883
#
# Coordination Sequence:
#
# PCOD8006482 Si02
#       8
#     2   2   2   2   2   2   2   2
#     4  11  23  36  64  90 118 151 199 241 288 353
#     4  11  20  38  58  83 121 160 197 232 295 347
#     4   9  20  43  63  83 115 157 192 244 295 347
#     4  10  20  40  57  87 120 151 196 235 295 342
#     4   9  20  39  59  83 120 160 192 239 295 336
#     4  10  23  37  62  86 117 153 201 241 290 352
#     4  11  22  40  63  85 116 155 200 240 295 345
#     4   9  20  36  61  81 124 155 193 238 288 341
#
# _framework density 19.169682000000002
#
# number of rings (size 3 to 8) (size 9 to 14) (size 15 to 20)
#    0.750    1.250    1.250    3.375    3.500    1.500 
#    0.000    8.125    0.000    0.000    0.000    0.000 
#    0.000    0.000    0.000    0.000    0.000    0.000 
#
# Total GULP energy -198219.728185 kJ/mol
# GULP energy per Si atom -12388.733012 kJ/mol
# Density = 1.912605 g / cm^3
# Si number density = 19.169682 Si / 1000 Ang^3
#
#
#
# Elastic Constant Matrix: (Units=GPa)
#
#
# Indices 1 2 3 4 5 6 
#
# 1 87.5954 35.2453 40.6823 6.1776 -10.1571 2.8382
# 2 35.2453 116.4720 52.3017 0.6703 -6.1908 -6.3361
# 3 40.6823 52.3017 109.2317 -8.9003 -10.1239 0.3507
# 4 6.1776 0.6703 -8.9003 20.6111 1.4853 -2.5783
# 5 -10.1571 -6.1908 -10.1239 1.4853 27.8400 6.3274
# 6 2.8382 -6.3361 0.3507 -2.5783 6.3274 22.7777
#
#
#
# Elastic Compliance Matrix: (Units=1/GPa)
#
#
# Indices 1 2 3 4 5 6 
#
# 1 0.016023 -0.002619 -0.004867 -0.007798 0.005030 -0.004930
# 2 -0.002619 0.011706 -0.004818 -0.001139 -0.000903 0.003779
# 3 -0.004867 -0.004818 0.014072 0.007463 0.002024 -0.000668
# 4 -0.007798 -0.001139 0.007463 0.055527 -0.005228 0.008278
# 5 0.005030 -0.000903 0.002024 -0.005228 0.041532 -0.013038
# 6 -0.004930 0.003779 -0.000668 0.008278 -0.013038 0.050137
#
#
# Mechanical properties :
#
#
# Convention : Reuss Voigt Hill
#
# Bulk Modulus (GPa) = 58.16282 63.30639 60.73460
# Shear Modulus (GPa) = 22.79596 26.58377 24.68987
#
# Velocity S-wave (km/s) = 3.45217 3.72796 3.59272
# Velocity P-wave (km/s) = 6.80418 7.18514 6.99725
#
# Compressibility (1/GPa) = 0.01719312
#
# Stress axis : x y z
#
# Youngs Moduli (GPa) = 62.40879 85.42602 71.06168
#
# Poissons Ratio (x) = 0.22375 0.34586
# Poissons Ratio (y) = 0.16346 0.34238
# Poissons Ratio (z) = 0.30374 0.41159
#
# Static dielectric constant tensor:
#      x y z
#    x 3.402600 0.055630 -0.157840 
#    y 0.055630 3.450400 -0.210720 
#    z -0.157840 -0.210720 4.262640 
# 
# 
# High freq. dielectric constant tensor:
#      x y z
#    x 1.747150 0.008880 -0.000790 
#    y 0.008880 1.727750 0.003180 
#    z -0.000790 0.003180 1.747690 
# 
# From -- ./inp_files/341772.got.cif
#   From: 2010.06.25/outbox.cif.g09.slc.cpg/sg2_171_cif.got.tgz:341772.got - 2010.06.27 13:26:56.
