data_PCOD8006804
_publ_section_title
;
Structure prediction by ZEFSAII (Michael W. Deem and Ramdas Pophale) SiO2 
 PCOD8006804
Probable space group: P -1
;
_chemical_formula_sum "Si O2"
_cell_formula_units_Z 16
_cell_length_a 11.259262
_cell_length_b 9.549104
_cell_length_c 15.705380
_cell_angle_alpha 37.380877
_cell_angle_beta 106.158195
_cell_angle_gamma 124.688455
_cell_volume 790.118021
_symmetry_space_group_name_H-M "P -1"
_symmetry_group_IT_number 2
_symmetry_cell_setting 'triclinic'
loop_
_space_group_symop_operation_xyz
x,y,z
-x,-y,-z
loop_
_atom_site_type_symbol
_atom_site_label
_atom_site_fract_x
_atom_site_fract_y
_atom_site_fract_z
Si Si1 0.796677 0.333692 0.467527
Si Si2 0.714158 0.812934 0.958013
Si Si3 0.139521 0.312681 0.346653
Si Si4 0.262421 0.257824 0.816183
Si Si5 0.383477 0.582701 0.021309
Si Si6 0.142868 0.639410 0.025775
Si Si7 0.617285 0.722158 0.674070
Si Si8 0.869332 0.393291 0.637962
O O1 0.820977 0.615491 0.300830
O O2 0.766203 0.326529 0.565956
O O3 0.952166 0.360271 0.467764
O O4 0.659589 0.041643 0.533525
O O5 0.669923 0.543349 0.022854
O O6 0.849696 0.104457 0.799312
O O7 0.775363 0.777714 0.074711
O O8 0.568510 0.824439 0.940089
O O9 0.099708 0.432903 0.199118
O O10 0.280747 0.301267 0.361954
O O11 0.189326 0.520025 0.337056
O O12 0.000000 0.000000 0.500000
O O13 0.443828 0.485530 0.724001
O O14 0.190912 0.948065 0.912730
O O15 0.292771 0.706854 0.974431
O O16 0.347602 0.330863 0.198742
O O17 0.000000 0.500000 0.000000
#
# Coordination Sequence:
#
# PCOD8006804 Si02
#       8
#     2   2   2   2   2   2   2   2
#     4  11  24  40  61  90 127 160 199 248 306 356
#     4  10  20  40  64  92 113 156 209 251 288 359
#     4  11  23  42  65  89 119 160 208 245 295 366
#     4  11  25  40  62  91 124 160 198 252 306 354
#     4   9  21  39  65  88 120 157 202 247 303 353
#     4  11  26  41  61  90 128 159 194 252 311 355
#     4  10  21  42  64  87 122 163 201 248 301 357
#     4  11  23  39  65  88 119 162 207 242 300 360
#
# _framework density 20.250139000000001
#
# number of rings (size 3 to 8) (size 9 to 14) (size 15 to 20)
#    0.000    1.500    3.750    0.375    5.250    3.000 
#    0.000    0.625    0.000    0.000    0.000    0.000 
#    0.000    0.000    0.000    0.000    0.000    0.000 
#
# Total GULP energy -198380.821186 kJ/mol
# GULP energy per Si atom -12398.801324 kJ/mol
# Density = 2.020405 g / cm^3
# Si number density = 20.250139 Si / 1000 Ang^3
#
#
#
# Elastic Constant Matrix: (Units=GPa)
#
#
# Indices 1 2 3 4 5 6 
#
# 1 67.3446 40.5206 25.0756 9.5239 0.1201 -11.4396
# 2 40.5206 123.4048 53.4658 3.4391 0.3874 -18.7965
# 3 25.0756 53.4658 115.2306 -1.9134 5.0006 -6.1399
# 4 9.5239 3.4391 -1.9134 37.5544 -2.2410 -7.1802
# 5 0.1201 0.3874 5.0006 -2.2410 31.6999 -4.4723
# 6 -11.4396 -18.7965 -6.1399 -7.1802 -4.4723 27.2640
#
#
#
# Elastic Compliance Matrix: (Units=1/GPa)
#
#
# Indices 1 2 3 4 5 6 
#
# 1 0.019710 -0.005039 -0.001856 -0.003949 0.000482 0.003417
# 2 -0.005039 0.012586 -0.004464 0.001156 0.001513 0.006110
# 3 -0.001856 -0.004464 0.011178 0.001082 -0.001816 -0.001352
# 4 -0.003949 0.001156 0.001082 0.029201 0.002961 0.007560
# 5 0.000482 0.001513 -0.001816 0.002961 0.033013 0.007032
# 6 0.003417 0.006110 -0.001352 0.007560 0.007032 0.045165
#
#
# Mechanical properties :
#
#
# Convention : Reuss Voigt Hill
#
# Bulk Modulus (GPa) = 48.17709 60.45599 54.31654
# Shear Modulus (GPa) = 27.70255 31.76485 29.73370
#
# Velocity S-wave (km/s) = 3.70269 3.96488 3.83602
# Velocity P-wave (km/s) = 6.49018 7.13301 6.81917
#
# Compressibility (1/GPa) = 0.02075675
#
# Stress axis : x y z
#
# Youngs Moduli (GPa) = 50.73599 79.45516 89.46105
#
# Poissons Ratio (x) = 0.40036 0.16600
# Poissons Ratio (y) = 0.25565 0.39936
# Poissons Ratio (z) = 0.09414 0.35469
#
# Static dielectric constant tensor:
#      x y z
#    x 3.668940 -0.127690 -0.180420 
#    y -0.127690 3.700010 0.024170 
#    z -0.180420 0.024170 3.715820 
# 
# 
# High freq. dielectric constant tensor:
#      x y z
#    x 1.782530 -0.010320 -0.014260 
#    y -0.010320 1.797410 -0.004230 
#    z -0.014260 -0.004230 1.793880 
# 
# From -- ./inp_files/205339.got.cif
#   From: 2010.06.25/outbox.cif.g09.slc.cpg/sg2_103_cif.got.tgz:205339.got - 2010.06.27 13:26:56.
