data_PCOD8006406
_publ_section_title
;
Structure prediction by ZEFSAII (Michael W. Deem and Ramdas Pophale) SiO2 
 PCOD8006406
Probable space group: P -1
;
_chemical_formula_sum "Si O2"
_cell_formula_units_Z 16
_cell_length_a 14.843879
_cell_length_b 6.018237
_cell_length_c 17.793750
_cell_angle_alpha 80.273003
_cell_angle_beta 28.307309
_cell_angle_gamma 74.617004
_cell_volume 719.488184
_symmetry_space_group_name_H-M "P -1"
_symmetry_group_IT_number 2
_symmetry_cell_setting 'triclinic'
loop_
_space_group_symop_operation_xyz
x,y,z
-x,-y,-z
loop_
_atom_site_type_symbol
_atom_site_label
_atom_site_fract_x
_atom_site_fract_y
_atom_site_fract_z
Si Si1 0.399135 0.620127 0.642523
Si Si2 0.068841 0.259763 0.509161
Si Si3 0.279340 0.619101 0.961844
Si Si4 0.382843 0.359847 0.044019
Si Si5 0.421861 0.202990 0.355146
Si Si6 0.684455 0.727906 0.169270
Si Si7 0.249775 0.999391 0.251824
Si Si8 0.983908 0.031005 0.097409
O O1 0.500000 0.500000 0.500000
O O2 0.548993 0.672183 0.593893
O O3 0.272562 0.457818 0.783106
O O4 0.241792 0.858251 0.719475
O O5 0.195833 0.286011 0.488585
O O6 0.000000 0.500000 0.500000
O O7 0.884890 0.159938 0.676008
O O8 0.197895 0.059080 0.372922
O O9 0.442746 0.760097 0.817013
O O10 0.365740 0.391925 0.861791
O O11 0.261982 0.548574 0.064357
O O12 0.062415 0.777798 0.092431
O O13 0.231193 0.245192 0.207580
O O14 0.500000 0.500000 0.000000
O O15 0.527749 0.150478 0.904997
O O16 0.497492 0.924964 0.325788
O O17 0.876192 0.802535 0.996556
O O18 0.000000 0.000000 0.000000
#
# Coordination Sequence:
#
# PCOD8006406 Si02
#       8
#     2   2   2   2   2   2   2   2
#     4  11  24  41  63  94 131 169 209 278 341 383
#     4  11  22  42  67  91 131 176 219 269 324 400
#     4  10  21  36  67  97 118 167 222 271 324 389
#     4  11  22  42  64  94 137 169 213 277 332 382
#     4  10  21  39  64  93 120 169 225 259 326 408
#     4  10  20  39  69  86 122 163 218 270 319 394
#     4  10  23  38  65  95 129 174 219 268 333 390
#     4  11  20  41  66  95 120 165 228 263 319 407
#
# _framework density 22.238029999999998
#
# number of rings (size 3 to 8) (size 9 to 14) (size 15 to 20)
#    0.000    1.500    3.750    3.375    0.000    6.500 
#    0.000    7.500    0.000    0.000    0.000    0.000 
#    0.000    0.000    0.000    0.000    0.000    0.000 
#
# Total GULP energy -198281.656395 kJ/mol
# GULP energy per Si atom -12392.603525 kJ/mol
# Density = 2.218742 g / cm^3
# Si number density = 22.238030 Si / 1000 Ang^3
#
#
#
# Elastic Constant Matrix: (Units=GPa)
#
#
# Indices 1 2 3 4 5 6 
#
# 1 137.8416 60.4973 45.5910 6.0203 -6.3894 -15.7638
# 2 60.4973 115.4642 23.5811 -4.1872 -3.4863 -6.3824
# 3 45.5910 23.5811 81.9189 6.6523 0.1268 0.1252
# 4 6.0203 -4.1872 6.6523 42.4218 2.4289 -0.5937
# 5 -6.3894 -3.4863 0.1268 2.4289 33.6039 0.6544
# 6 -15.7638 -6.3824 0.1252 -0.5937 0.6544 34.3991
#
#
#
# Elastic Compliance Matrix: (Units=1/GPa)
#
#
# Indices 1 2 3 4 5 6 
#
# 1 0.011688 -0.004855 -0.005003 -0.001392 0.001752 0.004416
# 2 -0.004855 0.011426 -0.000743 0.001925 0.000127 -0.000071
# 3 -0.005003 -0.000743 0.015353 -0.001754 -0.000911 -0.002500
# 4 -0.001392 0.001925 -0.001754 0.024342 -0.001821 0.000181
# 5 0.001752 0.000127 -0.000911 -0.001821 0.030236 0.000223
# 6 0.004416 -0.000071 -0.002500 0.000181 0.000223 0.031089
#
#
# Mechanical properties :
#
#
# Convention : Reuss Voigt Hill
#
# Bulk Modulus (GPa) = 57.92740 66.06262 61.99501
# Shear Modulus (GPa) = 33.09243 35.78864 34.44054
#
# Velocity S-wave (km/s) = 3.86178 4.01602 3.93965
# Velocity P-wave (km/s) = 6.78158 7.16073 6.97373
#
# Compressibility (1/GPa) = 0.01726299
#
# Stress axis : x y z
#
# Youngs Moduli (GPa) = 85.56147 87.51858 65.13230
#
# Poissons Ratio (x) = 0.42493 0.32588
# Poissons Ratio (y) = 0.41543 0.04842
# Poissons Ratio (z) = 0.42809 0.06506
#
# Static dielectric constant tensor:
#      x y z
#    x 3.793410 -0.000460 0.114890 
#    y -0.000460 4.057300 0.058370 
#    z 0.114890 0.058370 3.723160 
# 
# 
# High freq. dielectric constant tensor:
#      x y z
#    x 1.864840 0.005820 -0.000750 
#    y 0.005820 1.893680 0.010230 
#    z -0.000750 0.010230 1.852250 
# 
# From -- ./inp_files/90731.got.cif
#   From: 2010.06.25/outbox.cif.g09.slc.cpg/sg2_46_cif.got.tgz:90731.got - 2010.06.27 13:26:56.
