data_PCOD8006041
_publ_section_title
;
Structure prediction by ZEFSAII (Michael W. Deem and Ramdas Pophale) SiO2 
 PCOD8006041
Probable space group: P -1
;
_chemical_formula_sum "Si O2"
_cell_formula_units_Z 14
_cell_length_a 8.520605
_cell_length_b 11.684924
_cell_length_c 11.777823
_cell_angle_alpha 134.048262
_cell_angle_beta 49.304493
_cell_angle_gamma 117.937960
_cell_volume 638.776394
_symmetry_space_group_name_H-M "P -1"
_symmetry_group_IT_number 2
_symmetry_cell_setting 'triclinic'
loop_
_space_group_symop_operation_xyz
x,y,z
-x,-y,-z
loop_
_atom_site_type_symbol
_atom_site_label
_atom_site_fract_x
_atom_site_fract_y
_atom_site_fract_z
Si Si1 0.217889 0.572716 0.982577
Si Si2 0.431515 0.451097 0.375504
Si Si3 0.763516 0.949644 0.091498
Si Si4 0.166926 0.154262 0.248765
Si Si5 0.296960 0.767005 0.546116
Si Si6 0.316560 0.249831 0.789807
Si Si7 0.956720 0.105715 0.702562
O O1 0.363650 0.593501 0.819074
O O2 0.310555 0.443100 0.935735
O O3 0.185381 0.748312 0.171778
O O4 0.000000 0.500000 0.000000
O O5 0.500000 0.500000 0.500000
O O6 0.274656 0.302534 0.362635
O O7 0.309011 0.590700 0.468005
O O8 0.737651 0.812746 0.103440
O O9 0.640251 0.105303 0.295965
O O10 0.696414 0.880397 0.952915
O O11 0.000000 0.000000 0.000000
O O12 0.931084 0.198083 0.365567
O O13 0.172926 0.000098 0.219198
O O14 0.452679 0.796160 0.387545
O O15 0.162909 0.177152 0.715551
O O16 0.000000 0.000000 0.500000
#
# Coordination Sequence:
#
# PCOD8006041 Si02
#       7
#     2   2   2   2   2   2   2
#     4   9  23  43  64  92 131 176 219 263 332 396
#     4  11  26  44  66  99 135 180 220 278 342 393
#     4  10  20  39  64  98 131 168 216 278 325 389
#     4  11  25  43  66 102 134 174 225 279 335 390
#     4  10  22  42  68  98 136 175 224 270 333 404
#     4  10  20  43  68  97 133 180 220 266 339 396
#     4  11  24  41  66 102 137 176 226 273 330 401
#
# _framework density 21.916903999999999
#
# number of rings (size 3 to 8) (size 9 to 14) (size 15 to 20)
#    0.000    1.714    2.857    0.857    8.000    2.857 
#    2.571    1.429    0.000    0.000    0.000    0.000 
#    0.000    0.000    0.000    0.000    0.000    0.000 
#
# Total GULP energy -173549.922727 kJ/mol
# GULP energy per Si atom -12396.423052 kJ/mol
# Density = 2.186702 g / cm^3
# Si number density = 21.916904 Si / 1000 Ang^3
#
#
#
# Elastic Constant Matrix: (Units=GPa)
#
#
# Indices 1 2 3 4 5 6 
#
# 1 53.6435 43.7806 46.2956 2.9342 11.3175 3.9294
# 2 43.7806 158.6479 82.7842 4.5797 1.3870 -5.4630
# 3 46.2956 82.7842 169.2068 10.3247 2.0103 -10.0089
# 4 2.9342 4.5797 10.3247 43.8161 -0.5283 2.6291
# 5 11.3175 1.3870 2.0103 -0.5283 37.0727 -4.4794
# 6 3.9294 -5.4630 -10.0089 2.6291 -4.4794 19.4222
#
#
#
# Elastic Compliance Matrix: (Units=1/GPa)
#
#
# Indices 1 2 3 4 5 6 
#
# 1 0.032714 -0.005879 -0.006845 0.000771 -0.011133 -0.014472
# 2 -0.005879 0.009522 -0.002902 -0.000064 0.001937 0.002828
# 3 -0.006845 -0.002902 0.009664 -0.001868 0.002416 0.006359
# 4 0.000771 -0.000064 -0.001868 0.023477 -0.000328 -0.004390
# 5 -0.011133 0.001937 0.002416 -0.000328 0.031537 0.011360
# 6 -0.014472 0.002828 0.006359 -0.004390 0.011360 0.061702
#
#
# Mechanical properties :
#
#
# Convention : Reuss Voigt Hill
#
# Bulk Modulus (GPa) = 48.43149 80.80212 64.61680
# Shear Modulus (GPa) = 24.18352 33.97138 29.07745
#
# Velocity S-wave (km/s) = 3.32538 3.94129 3.64636
# Velocity P-wave (km/s) = 6.07371 7.59336 6.87565
#
# Compressibility (1/GPa) = 0.02064772
#
# Stress axis : x y z
#
# Youngs Moduli (GPa) = 30.56780 105.01659 103.47684
#
# Poissons Ratio (x) = 0.61742 0.70831
# Poissons Ratio (y) = 0.17972 0.30029
# Poissons Ratio (z) = 0.20924 0.30476
#
# Static dielectric constant tensor:
#      x y z
#    x 3.672230 0.022600 -0.063730 
#    y 0.022600 4.284400 0.111800 
#    z -0.063730 0.111800 3.354020 
# 
# 
# High freq. dielectric constant tensor:
#      x y z
#    x 1.835510 0.002450 -0.009550 
#    y 0.002450 1.883520 0.005040 
#    z -0.009550 0.005040 1.874840 
# 
# From -- ./inp_files/239585.got.cif
#   From: 2010.06.25/outbox.cif.g09.slc.cpg/sg2_120_cif.got.tgz:239585.got - 2010.06.27 13:26:56.
