data_PCOD8006141
_publ_section_title
;
Structure prediction by ZEFSAII (Michael W. Deem and Ramdas Pophale) SiO2 
 PCOD8006141
Probable space group: P -1
;
_chemical_formula_sum "Si O2"
_cell_formula_units_Z 16
_cell_length_a 15.661826
_cell_length_b 8.363125
_cell_length_c 8.637971
_cell_angle_alpha 59.450201
_cell_angle_beta 74.448398
_cell_angle_gamma 113.594448
_cell_volume 715.986138
_symmetry_space_group_name_H-M "P -1"
_symmetry_group_IT_number 2
_symmetry_cell_setting 'triclinic'
loop_
_space_group_symop_operation_xyz
x,y,z
-x,-y,-z
loop_
_atom_site_type_symbol
_atom_site_label
_atom_site_fract_x
_atom_site_fract_y
_atom_site_fract_z
Si Si1 0.859240 0.574312 0.604947
Si Si2 0.341330 0.480858 0.420708
Si Si3 0.935918 0.964412 0.890102
Si Si4 0.324956 0.029132 0.691828
Si Si5 0.238856 0.944273 0.103279
Si Si6 0.544544 0.664505 0.049815
Si Si7 0.422611 0.645715 0.638831
Si Si8 0.791678 0.481739 0.032912
O O1 0.771625 0.557979 0.543216
O O2 0.854579 0.346925 0.683291
O O3 0.984981 0.826053 0.378455
O O4 0.828789 0.580364 0.792573
O O5 0.308999 0.218552 0.551761
O O6 0.443447 0.667438 0.154920
O O7 0.373976 0.601735 0.512821
O O8 0.824739 0.949721 0.966401
O O9 0.890183 0.702697 0.984444
O O10 0.000000 0.000000 0.000000
O O11 0.445405 0.097111 0.539048
O O12 0.219157 0.755490 0.814171
O O13 0.323471 0.007552 0.888794
O O14 0.324602 0.069794 0.153232
O O15 0.561313 0.550679 0.243374
O O16 0.500000 0.500000 0.000000
O O17 0.336530 0.608591 0.828727
#
# Coordination Sequence:
#
# PCOD8006141 Si02
#       8
#     2   2   2   2   2   2   2   2
#     4  11  26  43  66  98 130 175 224 272 327 385
#     4  11  21  41  65  96 137 177 215 261 330 393
#     4  12  25  48  71  91 127 177 227 274 332 381
#     4  10  20  39  65  96 130 171 215 269 325 390
#     4  11  22  45  68  96 135 171 219 272 329 391
#     4  11  21  38  66 100 136 178 210 268 331 394
#     4  11  19  40  65  95 139 174 214 263 328 393
#     4  11  23  41  65  96 129 168 217 277 325 387
#
# _framework density 22.346803000000001
#
# number of rings (size 3 to 8) (size 9 to 14) (size 15 to 20)
#    0.000    1.000    3.750    4.125    0.000    0.500 
#   11.250    6.875    0.000    0.000    0.000    0.000 
#    0.000    0.000    0.000    0.000    0.000    0.000 
#
# Total GULP energy -198272.871679 kJ/mol
# GULP energy per Si atom -12392.054480 kJ/mol
# Density = 2.229594 g / cm^3
# Si number density = 22.346803 Si / 1000 Ang^3
#
#
#
# Elastic Constant Matrix: (Units=GPa)
#
#
# Indices 1 2 3 4 5 6 
#
# 1 60.1876 29.1853 14.1685 -6.5130 0.0348 5.8729
# 2 29.1853 146.5334 47.7964 -19.7108 2.4569 12.0073
# 3 14.1685 47.7964 104.1920 -6.3494 -15.3288 -1.3456
# 4 -6.5130 -19.7108 -6.3494 42.4886 -6.0579 0.5214
# 5 0.0348 2.4569 -15.3288 -6.0579 33.1645 -1.1974
# 6 5.8729 12.0073 -1.3456 0.5214 -1.1974 27.1357
#
#
#
# Elastic Compliance Matrix: (Units=1/GPa)
#
#
# Indices 1 2 3 4 5 6 
#
# 1 0.018738 -0.002925 -0.001193 0.001342 -0.000212 -0.002855
# 2 -0.002925 0.009543 -0.004168 0.003089 -0.002209 -0.003953
# 3 -0.001193 -0.004168 0.012693 0.000657 0.006405 0.003002
# 4 0.001342 0.003089 0.000657 0.025973 0.004749 -0.001914
# 5 -0.000212 -0.002209 0.006405 0.004749 0.034244 0.002761
# 6 -0.002855 -0.003953 0.003002 -0.001914 0.002761 0.039526
#
#
# Mechanical properties :
#
#
# Convention : Reuss Voigt Hill
#
# Bulk Modulus (GPa) = 40.97839 54.80147 47.88993
# Shear Modulus (GPa) = 30.22575 35.20862 32.71718
#
# Velocity S-wave (km/s) = 3.68173 3.97363 3.83046
# Velocity P-wave (km/s) = 6.03745 6.75496 6.40625
#
# Compressibility (1/GPa) = 0.02440311
#
# Stress axis : x y z
#
# Youngs Moduli (GPa) = 53.36823 104.79021 78.78511
#
# Poissons Ratio (x) = 0.30651 0.09396
# Poissons Ratio (y) = 0.15610 0.32834
# Poissons Ratio (z) = 0.06364 0.43672
#
# Static dielectric constant tensor:
#      x y z
#    x 3.834130 -0.077140 -0.182150 
#    y -0.077140 4.090350 -0.297400 
#    z -0.182150 -0.297400 4.275810 
# 
# 
# High freq. dielectric constant tensor:
#      x y z
#    x 1.859100 -0.004930 -0.012300 
#    y -0.004930 1.884990 -0.011170 
#    z -0.012300 -0.011170 1.888070 
# 
# From -- ./inp_files/245344.got.cif
#   From: 2010.06.25/outbox.cif.g09.slc.cpg/sg2_123_cif.got.tgz:245344.got - 2010.06.27 13:26:56.
