data_PCOD8006577
_publ_section_title
;
Structure prediction by ZEFSAII (Michael W. Deem and Ramdas Pophale) SiO2 
 PCOD8006577
Probable space group: P -1
;
_chemical_formula_sum "Si O2"
_cell_formula_units_Z 16
_cell_length_a 12.174614
_cell_length_b 9.448467
_cell_length_c 14.240346
_cell_angle_alpha 47.799798
_cell_angle_beta 140.477385
_cell_angle_gamma 111.305136
_cell_volume 729.422143
_symmetry_space_group_name_H-M "P -1"
_symmetry_group_IT_number 2
_symmetry_cell_setting 'triclinic'
loop_
_space_group_symop_operation_xyz
x,y,z
-x,-y,-z
loop_
_atom_site_type_symbol
_atom_site_label
_atom_site_fract_x
_atom_site_fract_y
_atom_site_fract_z
Si Si1 0.936162 0.599760 0.265423
Si Si2 0.335107 0.628629 0.245356
Si Si3 0.291834 0.676090 0.395989
Si Si4 0.806651 0.235955 0.107219
Si Si5 0.699331 0.112375 0.507752
Si Si6 0.405239 0.420619 0.056412
Si Si7 0.868245 0.665009 0.771510
Si Si8 0.949175 0.796887 0.373072
O O1 0.768731 0.634259 0.068965
O O2 0.861252 0.729135 0.253272
O O3 0.092419 0.662458 0.288917
O O4 0.019279 0.364666 0.451752
O O5 0.296208 0.766401 0.252986
O O6 0.549276 0.543976 0.397437
O O7 0.270213 0.437059 0.318898
O O8 0.219720 0.751863 0.028416
O O9 0.341821 0.817260 0.443064
O O10 0.643315 0.395252 0.983126
O O11 0.997375 0.276423 0.240097
O O12 0.819281 0.006091 0.240698
O O13 0.861495 0.180188 0.543800
O O14 0.745288 0.871256 0.649131
O O15 0.529292 0.219665 0.279863
O O16 0.500000 0.500000 0.000000
O O17 0.000000 0.500000 0.000000
#
# Coordination Sequence:
#
# PCOD8006577 Si02
#       8
#     2   2   2   2   2   2   2   2
#     4  10  21  40  63  90 128 165 210 253 313 373
#     4  10  20  40  61  90 126 160 213 256 306 363
#     4  10  21  39  65  89 123 171 204 255 307 374
#     4  10  21  40  64  92 128 161 204 262 313 362
#     4  10  20  41  64  94 126 165 205 259 313 366
#     4  12  23  40  62  97 128 159 209 260 313 372
#     4   9  20  40  65  92 124 165 208 257 309 368
#     4   9  20  41  66  87 125 170 206 251 316 374
#
# _framework density 21.935172999999999
#
# number of rings (size 3 to 8) (size 9 to 14) (size 15 to 20)
#    0.000    2.000    2.500    0.750    0.000    1.000 
#    6.750   11.250    0.000    0.000    0.000    0.000 
#    0.000    0.000    0.000    0.000    0.000    0.000 
#
# Total GULP energy -198319.229920 kJ/mol
# GULP energy per Si atom -12394.951870 kJ/mol
# Density = 2.188525 g / cm^3
# Si number density = 21.935173 Si / 1000 Ang^3
#
#
#
# Elastic Constant Matrix: (Units=GPa)
#
#
# Indices 1 2 3 4 5 6 
#
# 1 66.9414 20.2134 31.4280 -0.8980 -1.4375 -19.3643
# 2 20.2134 77.2305 64.8632 -6.9096 -7.2797 -10.5874
# 3 31.4280 64.8632 129.9104 -2.0162 -0.4540 -14.5894
# 4 -0.8980 -6.9096 -2.0162 45.2769 -2.5413 3.3521
# 5 -1.4375 -7.2797 -0.4540 -2.5413 23.8020 3.7414
# 6 -19.3643 -10.5874 -14.5894 3.3521 3.7414 29.4369
#
#
#
# Elastic Compliance Matrix: (Units=1/GPa)
#
#
# Indices 1 2 3 4 5 6 
#
# 1 0.019993 -0.001473 -0.002831 -0.000870 -0.001193 0.011470
# 2 -0.001473 0.024111 -0.011528 0.003500 0.007335 0.000658
# 3 -0.002831 -0.011528 0.014297 -0.001524 -0.003861 0.001742
# 4 -0.000870 0.003500 -0.001524 0.022993 0.003945 -0.003189
# 5 -0.001193 0.007335 -0.003861 0.003945 0.045522 -0.006295
# 6 0.011470 0.000658 0.001742 -0.003189 -0.006295 0.043779
#
#
# Mechanical properties :
#
#
# Convention : Reuss Voigt Hill
#
# Bulk Modulus (GPa) = 37.40226 56.34350 46.87288
# Shear Modulus (GPa) = 23.66642 30.20832 26.93737
#
# Velocity S-wave (km/s) = 3.28826 3.71504 3.50815
# Velocity P-wave (km/s) = 5.61295 6.64411 6.15018
#
# Compressibility (1/GPa) = 0.02673636
#
# Stress axis : x y z
#
# Youngs Moduli (GPa) = 50.01785 41.47564 69.94648
#
# Poissons Ratio (x) = 0.06110 0.19800
# Poissons Ratio (y) = 0.07369 0.80634
# Poissons Ratio (z) = 0.14158 0.47813
#
# Static dielectric constant tensor:
#      x y z
#    x 3.862670 -0.043830 0.119240 
#    y -0.043830 4.291080 0.093650 
#    z 0.119240 0.093650 3.890820 
# 
# 
# High freq. dielectric constant tensor:
#      x y z
#    x 1.853090 -0.008250 0.008100 
#    y -0.008250 1.863160 0.009040 
#    z 0.008100 0.009040 1.859050 
# 
# From -- ./inp_files/515110.got.cif
#   From: 2010.06.25/outbox.cif.g09.slc.cpg/sg2_258_cif.got.tgz:515110.got - 2010.06.27 13:26:56.
