data_PCOD8006671
_publ_section_title
;
Structure prediction by ZEFSAII (Michael W. Deem and Ramdas Pophale) SiO2 
 PCOD8006671
Probable space group: P -1
;
_chemical_formula_sum "Si O2"
_cell_formula_units_Z 14
_cell_length_a 6.982535
_cell_length_b 7.446140
_cell_length_c 15.855336
_cell_angle_alpha 119.441521
_cell_angle_beta 123.522171
_cell_angle_gamma 85.017571
_cell_volume 578.826387
_symmetry_space_group_name_H-M "P -1"
_symmetry_group_IT_number 2
_symmetry_cell_setting 'triclinic'
loop_
_space_group_symop_operation_xyz
x,y,z
-x,-y,-z
loop_
_atom_site_type_symbol
_atom_site_label
_atom_site_fract_x
_atom_site_fract_y
_atom_site_fract_z
Si Si1 0.316158 0.040016 0.275729
Si Si2 0.531543 0.239576 0.532759
Si Si3 0.037860 0.418992 0.081106
Si Si4 0.340828 0.007963 0.090734
Si Si5 0.198099 0.992938 0.873065
Si Si6 0.465219 0.352051 0.717591
Si Si7 0.942371 0.515438 0.256211
O O1 0.406524 0.232927 0.409124
O O2 0.033999 0.936849 0.197863
O O3 0.361690 0.140491 0.214724
O O4 0.447552 0.852320 0.276218
O O5 0.404158 0.340548 0.599882
O O6 0.802816 0.369878 0.616471
O O7 0.500000 0.000000 0.500000
O O8 0.948960 0.551687 0.164954
O O9 0.318688 0.437480 0.167163
O O10 0.896718 0.176434 0.996051
O O11 0.000000 0.500000 0.000000
O O12 0.584769 0.931291 0.122690
O O13 0.293002 0.110133 0.012750
O O14 0.130016 0.735575 0.800877
O O15 0.240484 0.368190 0.720022
#
# Coordination Sequence:
#
# PCOD8006671 Si02
#       7
#     2   2   2   2   2   2   2
#     4  11  22  40  65  90 125 167 211 254 311 369
#     4   9  22  41  64  93 124 161 209 263 310 362
#     4  10  20  40  62  95 122 161 209 258 307 366
#     4  10  22  40  63  90 129 166 206 253 310 374
#     4  10  24  42  60  93 128 168 204 250 313 382
#     4  10  22  41  64  95 124 161 209 264 309 359
#     4  10  23  42  65  90 130 161 205 261 313 364
#
# _framework density 24.186872000000001
#
# number of rings (size 3 to 8) (size 9 to 14) (size 15 to 20)
#    0.000    2.000    1.429    0.429    0.000   14.857 
#    0.000    1.429    0.000    0.000    0.000    0.000 
#    0.000    0.000    0.000    0.000    0.000    0.000 
#
# Total GULP energy -173453.651764 kJ/mol
# GULP energy per Si atom -12389.546555 kJ/mol
# Density = 2.413182 g / cm^3
# Si number density = 24.186872 Si / 1000 Ang^3
#
#
#
# Elastic Constant Matrix: (Units=GPa)
#
#
# Indices 1 2 3 4 5 6 
#
# 1 158.5497 0.4499 67.9921 -13.5739 -12.4903 -7.0498
# 2 0.4499 39.8168 17.7575 2.9030 -4.4513 -2.9197
# 3 67.9921 17.7575 202.3334 -23.3440 -23.5305 5.0685
# 4 -13.5739 2.9030 -23.3440 31.8584 7.7925 2.3124
# 5 -12.4903 -4.4513 -23.5305 7.7925 30.6843 1.7561
# 6 -7.0498 -2.9197 5.0685 2.3124 1.7561 34.8219
#
#
#
# Elastic Compliance Matrix: (Units=1/GPa)
#
#
# Indices 1 2 3 4 5 6 
#
# 1 0.007614 0.001209 -0.002486 0.000924 0.001025 0.001892
# 2 0.001209 0.027483 -0.003134 -0.005310 0.003241 0.003194
# 3 -0.002486 -0.003134 0.006882 0.003693 0.002997 -0.002164
# 4 0.000924 -0.005310 0.003693 0.036834 -0.006751 -0.002901
# 5 0.001025 0.003241 0.002997 -0.006751 0.037570 -0.001403
# 6 0.001892 0.003194 -0.002164 -0.002901 -0.001403 0.029947
#
#
# Mechanical properties :
#
#
# Convention : Reuss Voigt Hill
#
# Bulk Modulus (GPa) = 30.16091 63.67767 46.91929
# Shear Modulus (GPa) = 30.08353 40.43962 35.26158
#
# Velocity S-wave (km/s) = 3.53057 4.09340 3.82236
# Velocity P-wave (km/s) = 5.39601 6.98039 6.23870
#
# Compressibility (1/GPa) = 0.03315550
#
# Stress axis : x y z
#
# Youngs Moduli (GPa) = 131.33877 36.38642 145.31520
#
# Poissons Ratio (x) = -0.04398 0.36128
# Poissons Ratio (y) = -0.15875 0.45540
# Poissons Ratio (z) = 0.32653 0.11403
#
# Static dielectric constant tensor:
#      x y z
#    x 4.621970 0.170070 -0.274820 
#    y 0.170070 3.999020 -0.142300 
#    z -0.274820 -0.142300 5.353460 
# 
# 
# High freq. dielectric constant tensor:
#      x y z
#    x 1.969740 0.011130 -0.012300 
#    y 0.011130 1.935140 0.006600 
#    z -0.012300 0.006600 1.979920 
# 
# From -- ./inp_files/433161.got.cif
#   From: 2010.06.25/outbox.cif.g09.slc.cpg/sg2_217_cif.got.tgz:433161.got - 2010.06.27 13:26:56.
