data_PCOD8006037
_publ_section_title
;
Structure prediction by ZEFSAII (Michael W. Deem and Ramdas Pophale) SiO2 
 PCOD8006037
Probable space group: P -1
;
_chemical_formula_sum "Si O2"
_cell_formula_units_Z 16
_cell_length_a 15.719360
_cell_length_b 8.543277
_cell_length_c 9.398283
_cell_angle_alpha 76.350592
_cell_angle_beta 36.118569
_cell_angle_gamma 84.873326
_cell_volume 711.580161
_symmetry_space_group_name_H-M "P -1"
_symmetry_group_IT_number 2
_symmetry_cell_setting 'triclinic'
loop_
_space_group_symop_operation_xyz
x,y,z
-x,-y,-z
loop_
_atom_site_type_symbol
_atom_site_label
_atom_site_fract_x
_atom_site_fract_y
_atom_site_fract_z
Si Si1 0.371808 0.450340 0.872405
Si Si2 0.544883 0.094166 0.061509
Si Si3 0.379150 0.265650 0.448701
Si Si4 0.934486 0.830489 0.200774
Si Si5 0.522769 0.825835 0.375970
Si Si6 0.832259 0.140696 0.750275
Si Si7 0.855699 0.810830 0.633663
Si Si8 0.218474 0.732013 0.911937
O O1 0.520533 0.555521 0.713763
O O2 0.423228 0.343307 0.699941
O O3 0.256357 0.558400 0.947406
O O4 0.284202 0.334642 0.137162
O O5 0.419615 0.190341 0.259304
O O6 0.584027 0.966218 0.153624
O O7 0.707670 0.210093 0.807748
O O8 0.500000 0.000000 0.000000
O O9 0.205354 0.266035 0.678265
O O10 0.419935 0.145169 0.544557
O O11 0.883333 0.868095 0.421031
O O12 0.058882 0.714943 0.056086
O O13 0.000000 0.000000 0.000000
O O14 0.346037 0.807824 0.613291
O O15 0.995473 0.248460 0.495276
O O16 0.832737 0.956654 0.736510
O O17 0.781555 0.143967 0.982776
#
# Coordination Sequence:
#
# PCOD8006037 Si02
#       8
#     2   2   2   2   2   2   2   2
#     4  11  23  44  69  99 138 180 231 271 340 418
#     4  12  23  39  65 102 131 172 234 283 328 395
#     4  11  24  41  69 100 133 182 222 279 346 393
#     4  11  25  42  66 100 136 174 229 285 335 395
#     4  11  23  43  70  96 135 182 230 278 329 412
#     4  10  20  39  64  97 128 176 223 275 335 388
#     4  10  23  40  66  99 137 175 222 282 338 403
#     4  10  22  43  67  99 130 182 227 269 344 406
#
# _framework density 22.485171000000001
#
# number of rings (size 3 to 8) (size 9 to 14) (size 15 to 20)
#    0.000    1.250    3.750    3.375    3.500    2.500 
#    0.000    2.500    0.000    0.000    0.000    0.000 
#    0.000    0.000    0.000    0.000    0.000    0.000 
#
# Total GULP energy -198221.444957 kJ/mol
# GULP energy per Si atom -12388.840310 kJ/mol
# Density = 2.243399 g / cm^3
# Si number density = 22.485171 Si / 1000 Ang^3
#
#
#
# Elastic Constant Matrix: (Units=GPa)
#
#
# Indices 1 2 3 4 5 6 
#
# 1 111.3640 21.0839 59.8744 -2.7260 -39.5680 10.6072
# 2 21.0839 71.2994 35.9163 2.5463 -3.8539 1.0732
# 3 59.8744 35.9163 134.6476 0.6314 -27.4373 6.4292
# 4 -2.7260 2.5463 0.6314 42.4015 3.7670 -7.7413
# 5 -39.5680 -3.8539 -27.4373 3.7670 52.2430 2.3353
# 6 10.6072 1.0732 6.4292 -7.7413 2.3353 26.9300
#
#
#
# Elastic Compliance Matrix: (Units=1/GPa)
#
#
# Indices 1 2 3 4 5 6 
#
# 1 0.015637 -0.001882 -0.004142 -0.000826 0.009865 -0.006188
# 2 -0.001882 0.016527 -0.004102 -0.000645 -0.002362 0.001081
# 3 -0.004142 -0.004102 0.010909 -0.000612 0.002387 -0.001193
# 4 -0.000826 -0.000645 -0.000612 0.025332 -0.003182 0.008055
# 5 0.009865 -0.002362 0.002387 -0.003182 0.028268 -0.007727
# 6 -0.006188 0.001081 -0.001193 0.008055 -0.007727 0.042798
#
#
# Mechanical properties :
#
#
# Convention : Reuss Voigt Hill
#
# Bulk Modulus (GPa) = 43.81602 61.22889 52.52246
# Shear Modulus (GPa) = 29.88132 37.67733 33.77932
#
# Velocity S-wave (km/s) = 3.64941 4.09791 3.88015
# Velocity P-wave (km/s) = 6.10627 7.04843 6.59420
#
# Compressibility (1/GPa) = 0.02282270
#
# Stress axis : x y z
#
# Youngs Moduli (GPa) = 63.95045 60.50686 91.66853
#
# Poissons Ratio (x) = 0.11386 0.37967
# Poissons Ratio (y) = 0.12034 0.37599
# Poissons Ratio (z) = 0.26487 0.24818
#
# Static dielectric constant tensor:
#      x y z
#    x 4.172540 0.075330 -0.437630 
#    y 0.075330 3.847320 0.200980 
#    z -0.437630 0.200980 4.579010 
# 
# 
# High freq. dielectric constant tensor:
#      x y z
#    x 1.873870 0.011350 -0.025390 
#    y 0.011350 1.864140 0.018120 
#    z -0.025390 0.018120 1.912400 
# 
# From -- ./inp_files/298490.got.cif
#   From: 2010.06.25/outbox.cif.g09.slc.cpg/sg2_150_cif.got.tgz:298490.got - 2010.06.27 13:26:56.
