data_PCOD8006704
_publ_section_title
;
Structure prediction by ZEFSAII (Michael W. Deem and Ramdas Pophale) SiO2 
 PCOD8006704
Probable space group: P -1
;
_chemical_formula_sum "Si O2"
_cell_formula_units_Z 16
_cell_length_a 8.906311
_cell_length_b 12.194005
_cell_length_c 14.880915
_cell_angle_alpha 80.937574
_cell_angle_beta 148.694230
_cell_angle_gamma 107.266479
_cell_volume 786.720562
_symmetry_space_group_name_H-M "P -1"
_symmetry_group_IT_number 2
_symmetry_cell_setting 'triclinic'
loop_
_space_group_symop_operation_xyz
x,y,z
-x,-y,-z
loop_
_atom_site_type_symbol
_atom_site_label
_atom_site_fract_x
_atom_site_fract_y
_atom_site_fract_z
Si Si1 0.791362 0.477870 0.309679
Si Si2 0.755639 0.114287 0.580727
Si Si3 0.391869 0.082649 0.230746
Si Si4 0.988314 0.656240 0.226889
Si Si5 0.087598 0.416153 0.985654
Si Si6 0.450162 0.744859 0.874756
Si Si7 0.555165 0.884579 0.074460
Si Si8 0.824137 0.148730 0.942903
O O1 0.891319 0.583693 0.277207
O O2 0.451287 0.461162 0.169647
O O3 0.823032 0.360244 0.294231
O O4 0.000000 0.500000 0.500000
O O5 0.678551 0.135816 0.435578
O O6 0.749458 0.224430 0.625554
O O7 0.089594 0.101615 0.753460
O O8 0.500000 0.000000 0.500000
O O9 0.448172 0.145048 0.154675
O O10 0.098235 0.103774 0.125787
O O11 0.334132 0.943227 0.205669
O O12 0.061602 0.579410 0.191680
O O13 0.717726 0.690282 0.036420
O O14 0.959603 0.280431 0.963368
O O15 0.000000 0.500000 0.000000
O O16 0.357179 0.784755 0.917827
O O17 0.430156 0.852030 0.113948
O O18 0.500000 0.000000 0.000000
#
# Coordination Sequence:
#
# PCOD8006704 Si02
#       8
#     2   2   2   2   2   2   2   2
#     4  11  23  43  65  91 123 168 222 261 310 379
#     4  11  24  39  67  94 126 163 217 265 324 376
#     4  11  21  41  67  93 124 169 213 265 318 388
#     4  10  22  41  65  90 124 172 214 255 315 394
#     4  11  24  41  64  94 127 171 212 261 323 380
#     4  10  20  40  63  89 122 169 211 251 324 381
#     4  11  23  41  61  96 127 168 208 263 320 389
#     4  11  23  39  67  90 133 165 217 258 327 380
#
# _framework density 20.337589999999999
#
# number of rings (size 3 to 8) (size 9 to 14) (size 15 to 20)
#    0.000    1.250    3.750    3.750    8.750    0.500 
#    0.000    3.125    0.000    0.000    0.000    0.000 
#    0.000    0.000    0.000    0.000    0.000    0.000 
#
# Total GULP energy -198265.304134 kJ/mol
# GULP energy per Si atom -12391.581508 kJ/mol
# Density = 2.029130 g / cm^3
# Si number density = 20.337590 Si / 1000 Ang^3
#
#
#
# Elastic Constant Matrix: (Units=GPa)
#
#
# Indices 1 2 3 4 5 6 
#
# 1 127.6422 60.2510 62.7468 10.9080 -12.8417 -5.6623
# 2 60.2510 126.8800 54.7605 26.3696 -15.8888 -1.9758
# 3 62.7468 54.7605 126.0050 19.9156 -30.2363 -7.9085
# 4 10.9080 26.3696 19.9156 34.3345 -1.3556 -8.3914
# 5 -12.8417 -15.8888 -30.2363 -1.3556 35.6002 6.9009
# 6 -5.6623 -1.9758 -7.9085 -8.3914 6.9009 45.2883
#
#
#
# Elastic Compliance Matrix: (Units=1/GPa)
#
#
# Indices 1 2 3 4 5 6 
#
# 1 0.011887 -0.004309 -0.004822 0.002553 -0.001869 0.001214
# 2 -0.004309 0.012524 -0.001513 -0.007780 0.002868 -0.002135
# 3 -0.004822 -0.001513 0.014048 -0.005234 0.009438 -0.000624
# 4 0.002553 -0.007780 -0.005234 0.038841 -0.006937 0.007320
# 5 -0.001869 0.002868 0.009438 -0.006937 0.037506 -0.005461
# 6 0.001214 -0.002135 -0.000624 0.007320 -0.005461 0.024219
#
#
# Mechanical properties :
#
#
# Convention : Reuss Voigt Hill
#
# Bulk Modulus (GPa) = 58.24346 81.78264 70.01305
# Shear Modulus (GPa) = 30.11400 36.56253 33.33827
#
# Velocity S-wave (km/s) = 3.85217 4.24462 4.05315
# Velocity P-wave (km/s) = 6.96320 8.02012 7.51027
#
# Compressibility (1/GPa) = 0.01716931
#
# Stress axis : x y z
#
# Youngs Moduli (GPa) = 84.12813 79.84958 71.18395
#
# Poissons Ratio (x) = 0.34408 0.34328
# Poissons Ratio (y) = 0.36251 0.10770
# Poissons Ratio (z) = 0.40570 0.12081
#
# Static dielectric constant tensor:
#      x y z
#    x 3.534690 -0.115530 -0.273060 
#    y -0.115530 4.047190 0.335140 
#    z -0.273060 0.335140 3.838680 
# 
# 
# High freq. dielectric constant tensor:
#      x y z
#    x 1.796470 -0.000120 -0.028060 
#    y -0.000120 1.808840 0.019550 
#    z -0.028060 0.019550 1.780060 
# 
# From -- ./inp_files/224127.got.cif
#   From: 2010.06.25/outbox.cif.g09.slc.cpg/sg2_113_cif.got.tgz:224127.got - 2010.06.27 13:26:56.
