data_PCOD8006401
_publ_section_title
;
Structure prediction by ZEFSAII (Michael W. Deem and Ramdas Pophale) SiO2 
 PCOD8006401
Probable space group: P -1
;
_chemical_formula_sum "Si O2"
_cell_formula_units_Z 16
_cell_length_a 13.222327
_cell_length_b 13.908270
_cell_length_c 11.913279
_cell_angle_alpha 45.940720
_cell_angle_beta 67.542065
_cell_angle_gamma 33.491329
_cell_volume 752.792139
_symmetry_space_group_name_H-M "P -1"
_symmetry_group_IT_number 2
_symmetry_cell_setting 'triclinic'
loop_
_space_group_symop_operation_xyz
x,y,z
-x,-y,-z
loop_
_atom_site_type_symbol
_atom_site_label
_atom_site_fract_x
_atom_site_fract_y
_atom_site_fract_z
Si Si1 0.021524 0.632530 0.363520
Si Si2 0.519202 0.447975 0.662052
Si Si3 0.499898 0.759234 0.520131
Si Si4 0.272321 0.625269 0.937878
Si Si5 0.086858 0.140438 0.005844
Si Si6 0.123778 0.232338 0.160115
Si Si7 0.875219 0.265781 0.319729
Si Si8 0.300229 0.892824 0.721282
O O1 0.262686 0.431927 0.427968
O O2 0.000000 0.500000 0.500000
O O3 0.890950 0.836411 0.354100
O O4 0.912179 0.768708 0.178249
O O5 0.500000 0.500000 0.500000
O O6 0.487844 0.613933 0.614068
O O7 0.341210 0.519164 0.694891
O O8 0.740646 0.155208 0.840486
O O9 0.397775 0.880787 0.589503
O O10 0.366246 0.987345 0.301010
O O11 0.188137 0.632739 0.862289
O O12 0.215222 0.838697 0.759081
O O13 0.136218 0.706779 0.031436
O O14 0.518814 0.337746 0.079502
O O15 0.126740 0.180399 0.071579
O O16 0.024211 0.239087 0.295605
O O17 0.000000 0.500000 0.000000
O O18 0.000000 0.000000 0.500000
#
# Coordination Sequence:
#
# PCOD8006401 Si02
#       8
#     2   2   2   2   2   2   2   2
#     4  12  30  47  68 101 145 193 241 290 353 433
#     4  12  22  41  72 110 141 176 237 306 359 413
#     4  12  25  48  73 105 141 186 238 295 355 427
#     4  10  20  39  69 102 130 173 228 293 357 408
#     4  11  24  45  68 103 143 184 233 301 354 420
#     4  11  26  46  72 101 142 194 235 288 362 432
#     4  11  20  40  67 100 136 179 235 286 351 416
#     4  11  23  42  72 101 136 180 232 288 356 418
#
# _framework density 21.254207999999998
#
# number of rings (size 3 to 8) (size 9 to 14) (size 15 to 20)
#    0.000    0.750    5.000    2.250    3.500    5.500 
#    0.000    1.250    0.000    0.000    0.000    0.000 
#    0.000    0.000    0.000    0.000    0.000    0.000 
#
# Total GULP energy -198269.959389 kJ/mol
# GULP energy per Si atom -12391.872462 kJ/mol
# Density = 2.120583 g / cm^3
# Si number density = 21.254208 Si / 1000 Ang^3
#
#
#
# Elastic Constant Matrix: (Units=GPa)
#
#
# Indices 1 2 3 4 5 6 
#
# 1 69.7670 47.1349 45.6657 -3.3510 -4.4432 -11.5500
# 2 47.1349 144.7412 58.3478 0.0385 -0.3692 -13.5061
# 3 45.6657 58.3478 138.5343 -5.9139 -8.1227 0.3669
# 4 -3.3510 0.0385 -5.9139 39.9632 0.6552 -3.1213
# 5 -4.4432 -0.3692 -8.1227 0.6552 36.5335 0.6468
# 6 -11.5500 -13.5061 0.3669 -3.1213 0.6468 30.3977
#
#
#
# Elastic Compliance Matrix: (Units=1/GPa)
#
#
# Indices 1 2 3 4 5 6 
#
# 1 0.022026 -0.004431 -0.005268 0.001565 0.001318 0.006597
# 2 -0.004431 0.009688 -0.002714 -0.000560 -0.001081 0.002619
# 3 -0.005268 -0.002714 0.010237 0.000792 0.001652 -0.003285
# 4 0.001565 -0.000560 0.000792 0.025506 -0.000149 0.002958
# 5 0.001318 -0.001081 0.001652 -0.000149 0.027902 -0.000608
# 6 0.006597 0.002619 -0.003285 0.002958 -0.000608 0.036924
#
#
# Mechanical properties :
#
#
# Convention : Reuss Voigt Hill
#
# Bulk Modulus (GPa) = 58.39051 72.81550 65.60301
# Shear Modulus (GPa) = 30.70950 34.83848 32.77399
#
# Velocity S-wave (km/s) = 3.80526 4.05301 3.93109
# Velocity P-wave (km/s) = 6.84389 7.49908 7.17896
#
# Compressibility (1/GPa) = 0.01712607
#
# Stress axis : x y z
#
# Youngs Moduli (GPa) = 45.40073 103.22529 97.68215
#
# Poissons Ratio (x) = 0.45736 0.51457
# Poissons Ratio (y) = 0.20116 0.26510
# Poissons Ratio (z) = 0.23916 0.28014
#
# Static dielectric constant tensor:
#      x y z
#    x 6.463960 0.508360 0.191480 
#    y 0.508360 4.296360 0.023500 
#    z 0.191480 0.023500 3.892970 
# 
# 
# High freq. dielectric constant tensor:
#      x y z
#    x 1.820140 -0.017220 0.015060 
#    y -0.017220 1.840940 0.003180 
#    z 0.015060 0.003180 1.848820 
# 
# From -- ./inp_files/455543.got.cif
#   From: 2010.06.25/outbox.cif.g09.slc.cpg/sg2_228_cif.got.tgz:455543.got - 2010.06.27 13:26:56.
