data_PCOD8006016
_publ_section_title
;
Structure prediction by ZEFSAII (Michael W. Deem and Ramdas Pophale) SiO2 
 PCOD8006016
Probable space group: P -1
;
_chemical_formula_sum "Si O2"
_cell_formula_units_Z 16
_cell_length_a 13.944736
_cell_length_b 9.252009
_cell_length_c 14.647916
_cell_angle_alpha 65.831911
_cell_angle_beta 147.382164
_cell_angle_gamma 91.847082
_cell_volume 717.455670
_symmetry_space_group_name_H-M "P -1"
_symmetry_group_IT_number 2
_symmetry_cell_setting 'triclinic'
loop_
_space_group_symop_operation_xyz
x,y,z
-x,-y,-z
loop_
_atom_site_type_symbol
_atom_site_label
_atom_site_fract_x
_atom_site_fract_y
_atom_site_fract_z
Si Si1 0.752869 0.206921 0.772214
Si Si2 0.871897 0.776136 0.621117
Si Si3 0.752689 0.153185 0.347916
Si Si4 0.808339 0.917072 0.282519
Si Si5 0.644377 0.637644 0.887951
Si Si6 0.567801 0.802568 0.226586
Si Si7 0.481467 0.047474 0.576821
Si Si8 0.509058 0.472627 0.670541
O O1 0.569221 0.171530 0.635269
O O2 0.733200 0.292131 0.836766
O O3 0.691536 0.370617 0.603022
O O4 0.000000 0.000000 0.000000
O O5 0.635509 0.855262 0.359711
O O6 0.792345 0.804441 0.655227
O O7 0.911792 0.937094 0.587192
O O8 0.091404 0.549419 0.827320
O O9 0.514416 0.327400 0.163279
O O10 0.913862 0.219297 0.460064
O O11 0.703423 0.109169 0.219196
O O12 0.749583 0.769972 0.305603
O O13 0.690412 0.012029 0.064550
O O14 0.577276 0.585665 0.754959
O O15 0.622785 0.836469 0.802440
O O16 0.583641 0.606905 0.311915
O O17 0.500000 0.000000 0.500000
#
# Coordination Sequence:
#
# PCOD8006016 Si02
#       8
#     2   2   2   2   2   2   2   2
#     4  11  26  43  66  93 132 173 211 267 322 383
#     4  10  22  40  64  93 132 168 213 269 312 386
#     4   9  20  42  64  95 126 172 217 258 327 386
#     4   9  19  40  70  90 130 172 212 271 323 387
#     4  11  24  39  68  94 130 173 214 265 320 386
#     4  10  20  39  64  94 126 172 208 264 332 369
#     4  11  23  43  63  96 126 171 220 256 324 385
#     4  11  24  43  61  98 132 166 219 264 321 385
#
# _framework density 22.301027999999999
#
# number of rings (size 3 to 8) (size 9 to 14) (size 15 to 20)
#    0.000    1.750    2.500    0.750    3.500    1.500 
#    0.000   13.750    0.000    0.000    0.000    0.000 
#    0.000    0.000    0.000    0.000    0.000    0.000 
#
# Total GULP energy -198270.792920 kJ/mol
# GULP energy per Si atom -12391.924558 kJ/mol
# Density = 2.225027 g / cm^3
# Si number density = 22.301028 Si / 1000 Ang^3
#
#
#
# Elastic Constant Matrix: (Units=GPa)
#
#
# Indices 1 2 3 4 5 6 
#
# 1 125.5063 34.5767 59.5466 -13.8152 6.4575 -1.7422
# 2 34.5767 69.1241 27.7457 -8.1169 4.3359 1.7597
# 3 59.5466 27.7457 101.3847 -12.4062 14.0372 -7.1980
# 4 -13.8152 -8.1169 -12.4062 37.2926 -7.8814 -0.0434
# 5 6.4575 4.3359 14.0372 -7.8814 31.6248 -9.4861
# 6 -1.7422 1.7597 -7.1980 -0.0434 -9.4861 54.5617
#
#
#
# Elastic Compliance Matrix: (Units=1/GPa)
#
#
# Indices 1 2 3 4 5 6 
#
# 1 0.011894 -0.003390 -0.005989 0.001917 0.001142 -0.000101
# 2 -0.003390 0.017450 -0.002603 0.001573 -0.000482 -0.001097
# 3 -0.005989 -0.002603 0.014935 0.001253 -0.004408 0.001098
# 4 0.001917 0.001573 0.001253 0.029690 0.006642 0.001354
# 5 0.001142 -0.000482 -0.004408 0.006642 0.036829 0.005879
# 6 -0.000101 -0.001097 0.001098 0.001354 0.005879 0.019528
#
#
# Mechanical properties :
#
#
# Convention : Reuss Voigt Hill
#
# Bulk Modulus (GPa) = 49.22365 59.97258 54.59812
# Shear Modulus (GPa) = 31.04432 36.30559 33.67495
#
# Velocity S-wave (km/s) = 3.73508 4.03920 3.89011
# Velocity P-wave (km/s) = 6.38133 6.97884 6.68676
#
# Compressibility (1/GPa) = 0.02031544
#
# Stress axis : x y z
#
# Youngs Moduli (GPa) = 84.07785 57.30637 66.95801
#
# Poissons Ratio (x) = 0.19424 0.40099
# Poissons Ratio (y) = 0.28498 0.17432
# Poissons Ratio (z) = 0.50351 0.14919
#
# Static dielectric constant tensor:
#      x y z
#    x 4.371590 0.183430 -0.075570 
#    y 0.183430 3.844590 -0.053730 
#    z -0.075570 -0.053730 3.696580 
# 
# 
# High freq. dielectric constant tensor:
#      x y z
#    x 1.898240 0.008900 -0.005990 
#    y 0.008900 1.871700 0.009160 
#    z -0.005990 0.009160 1.850540 
# 
# From -- ./inp_files/207244.got.cif
#   From: 2010.06.25/outbox.cif.g09.slc.cpg/sg2_104_cif.got.tgz:207244.got - 2010.06.27 13:26:56.
