data_PCOD8006102
_publ_section_title
;
Structure prediction by ZEFSAII (Michael W. Deem and Ramdas Pophale) SiO2 
 PCOD8006102
Probable space group: P -1
;
_chemical_formula_sum "Si O2"
_cell_formula_units_Z 16
_cell_length_a 9.491610
_cell_length_b 17.914727
_cell_length_c 8.549010
_cell_angle_alpha 138.846077
_cell_angle_beta 100.222354
_cell_angle_gamma 59.136952
_cell_volume 763.029020
_symmetry_space_group_name_H-M "P -1"
_symmetry_group_IT_number 2
_symmetry_cell_setting 'triclinic'
loop_
_space_group_symop_operation_xyz
x,y,z
-x,-y,-z
loop_
_atom_site_type_symbol
_atom_site_label
_atom_site_fract_x
_atom_site_fract_y
_atom_site_fract_z
Si Si1 0.989522 0.315999 0.037065
Si Si2 0.131719 0.451230 0.093340
Si Si3 0.140069 0.020910 0.484794
Si Si4 0.087669 0.700241 0.651215
Si Si5 0.407468 0.726509 0.714684
Si Si6 0.395088 0.529538 0.868833
Si Si7 0.515547 0.275740 0.935633
Si Si8 0.862547 0.973855 0.876291
O O1 0.942653 0.337035 0.243129
O O2 0.812554 0.390271 0.013332
O O3 0.081016 0.391340 0.130028
O O4 0.121483 0.151213 0.767875
O O5 0.138450 0.576748 0.349761
O O6 0.335081 0.329532 0.891981
O O7 0.000000 0.500000 0.000000
O O8 0.110775 0.052823 0.345827
O O9 0.336889 0.883208 0.338322
O O10 0.000000 0.000000 0.500000
O O11 0.246416 0.717040 0.713196
O O12 0.905187 0.838481 0.764842
O O13 0.531095 0.616598 0.433330
O O14 0.522941 0.704163 0.854281
O O15 0.328636 0.885015 0.893141
O O16 0.500000 0.500000 0.000000
O O17 0.413346 0.631583 0.929970
O O18 0.000000 0.000000 0.000000
#
# Coordination Sequence:
#
# PCOD8006102 Si02
#       8
#     2   2   2   2   2   2   2   2
#     4  12  25  40  62  95 127 166 215 259 322 376
#     4  12  26  43  63  90 132 174 211 258 320 389
#     4  11  21  39  66  96 129 159 215 272 312 376
#     4  11  21  41  65  89 128 169 212 265 316 381
#     4  10  20  39  65  93 123 162 214 262 318 373
#     4  12  23  35  62  94 124 159 211 271 306 361
#     4  11  22  42  66  90 127 170 208 257 324 374
#     4   9  20  33  61  93 124 165 201 258 327 365
#
# _framework density 20.969056999999999
#
# number of rings (size 3 to 8) (size 9 to 14) (size 15 to 20)
#    0.000    1.000    3.750    4.500    3.500    1.500 
#    0.000    0.000    0.000    4.500    0.000    0.000 
#    0.000    0.000    0.000    0.000    0.000    0.000 
#
# Total GULP energy -198364.106953 kJ/mol
# GULP energy per Si atom -12397.756685 kJ/mol
# Density = 2.092133 g / cm^3
# Si number density = 20.969057 Si / 1000 Ang^3
#
#
#
# Elastic Constant Matrix: (Units=GPa)
#
#
# Indices 1 2 3 4 5 6 
#
# 1 72.7997 22.3873 17.3361 15.1693 -5.0444 -11.2190
# 2 22.3873 99.4078 45.7345 15.9748 -0.7546 -15.7269
# 3 17.3361 45.7345 110.3847 12.9989 -19.7295 -17.0323
# 4 15.1693 15.9748 12.9989 34.6535 -1.9607 1.3785
# 5 -5.0444 -0.7546 -19.7295 -1.9607 21.7103 3.5746
# 6 -11.2190 -15.7269 -17.0323 1.3785 3.5746 35.3246
#
#
#
# Elastic Compliance Matrix: (Units=1/GPa)
#
#
# Indices 1 2 3 4 5 6 
#
# 1 0.016515 -0.002050 0.000148 -0.006367 0.002603 0.004389
# 2 -0.002050 0.014324 -0.005636 -0.004087 -0.006093 0.003784
# 3 0.000148 -0.005636 0.014311 -0.002282 0.012094 0.003303
# 4 -0.006367 -0.004087 -0.002282 0.034663 0.000480 -0.006343
# 5 0.002603 -0.006093 0.012094 0.000480 0.057804 -0.001923
# 6 0.004389 0.003784 0.003303 -0.006343 -0.001923 0.033422
#
#
# Mechanical properties :
#
#
# Convention : Reuss Voigt Hill
#
# Bulk Modulus (GPa) = 33.25294 50.38979 41.82136
# Shear Modulus (GPa) = 25.49184 31.47997 28.48590
#
# Velocity S-wave (km/s) = 3.49045 3.87881 3.68975
# Velocity P-wave (km/s) = 5.66894 6.64402 6.17575
#
# Compressibility (1/GPa) = 0.03007253
#
# Stress axis : x y z
#
# Youngs Moduli (GPa) = 60.55134 69.81515 69.87505
#
# Poissons Ratio (x) = 0.14312 -0.01033
# Poissons Ratio (y) = 0.12413 0.39384
# Poissons Ratio (z) = -0.00895 0.39351
#
# Static dielectric constant tensor:
#      x y z
#    x 3.618580 0.142070 0.048580 
#    y 0.142070 5.730710 1.013720 
#    z 0.048580 1.013720 4.205070 
# 
# 
# High freq. dielectric constant tensor:
#      x y z
#    x 1.788680 -0.006900 -0.003020 
#    y -0.006900 1.840710 0.013710 
#    z -0.003020 0.013710 1.829210 
# 
# From -- ./inp_files/205151.got.cif
#   From: 2010.06.25/outbox.cif.g09.slc.cpg/sg2_103_cif.got.tgz:205151.got - 2010.06.27 13:26:56.
