data_PCOD8006418
_publ_section_title
;
Structure prediction by ZEFSAII (Michael W. Deem and Ramdas Pophale) SiO2 
 PCOD8006418
Probable space group: P -1
;
_chemical_formula_sum "Si O2"
_cell_formula_units_Z 16
_cell_length_a 18.564521
_cell_length_b 8.785109
_cell_length_c 8.542394
_cell_angle_alpha 105.769166
_cell_angle_beta 114.135035
_cell_angle_gamma 127.801340
_cell_volume 692.487741
_symmetry_space_group_name_H-M "P -1"
_symmetry_group_IT_number 2
_symmetry_cell_setting 'triclinic'
loop_
_space_group_symop_operation_xyz
x,y,z
-x,-y,-z
loop_
_atom_site_type_symbol
_atom_site_label
_atom_site_fract_x
_atom_site_fract_y
_atom_site_fract_z
Si Si1 0.588043 0.530023 0.418770
Si Si2 0.290984 0.116505 0.093589
Si Si3 0.251260 0.321633 0.907293
Si Si4 0.962242 0.469025 0.138054
Si Si5 0.088553 0.295041 0.956439
Si Si6 0.193283 0.315712 0.512243
Si Si7 0.801809 0.355459 0.538198
Si Si8 0.451150 0.274206 0.784889
O O1 0.420475 0.220278 0.180135
O O2 0.644467 0.633865 0.674399
O O3 0.665243 0.519507 0.390289
O O4 0.620079 0.756372 0.434868
O O5 0.220604 0.090741 0.875778
O O6 0.184591 0.842496 0.025289
O O7 0.197757 0.354320 0.998321
O O8 0.174309 0.228135 0.649221
O O9 0.417282 0.615515 0.116116
O O10 0.951433 0.639866 0.192659
O O11 0.081992 0.585380 0.382122
O O12 0.000000 0.500000 0.000000
O O13 0.163184 0.496688 0.228024
O O14 0.943219 0.969279 0.784242
O O15 0.201294 0.519495 0.567437
O O16 0.655401 0.023443 0.315560
O O17 0.500000 0.500000 0.000000
#
# Coordination Sequence:
#
# PCOD8006418 Si02
#       8
#     2   2   2   2   2   2   2   2
#     4  10  20  39  69  94 132 178 225 274 328 398
#     4  10  21  39  66 101 129 174 229 274 331 394
#     4  11  25  42  65  97 144 177 219 282 339 393
#     4  10  21  40  66  96 129 166 221 277 329 394
#     4  11  23  42  67  99 135 172 227 286 328 397
#     4  12  23  42  66  99 141 183 217 272 345 400
#     4  11  24  41  71  97 127 180 234 271 333 406
#     4  11  23  45  68  97 135 178 224 277 334 400
#
# _framework density 23.105103
#
# number of rings (size 3 to 8) (size 9 to 14) (size 15 to 20)
#    0.000    1.250    1.250    6.000    0.000    2.000 
#    4.500    1.250    0.000    0.000    0.000    0.000 
#    0.000    0.000    0.000    0.000    0.000    0.000 
#
# Total GULP energy -198345.854414 kJ/mol
# GULP energy per Si atom -12396.615901 kJ/mol
# Density = 2.305252 g / cm^3
# Si number density = 23.105103 Si / 1000 Ang^3
#
#
#
# Elastic Constant Matrix: (Units=GPa)
#
#
# Indices 1 2 3 4 5 6 
#
# 1 123.9812 33.4970 34.2955 14.2899 33.0952 2.7120
# 2 33.4970 153.9086 49.7790 21.6350 18.5527 -6.1502
# 3 34.2955 49.7790 76.9009 11.3754 7.2061 -2.1246
# 4 14.2899 21.6350 11.3754 46.8835 3.1768 4.7960
# 5 33.0952 18.5527 7.2061 3.1768 35.1930 -3.6649
# 6 2.7120 -6.1502 -2.1246 4.7960 -3.6649 34.8667
#
#
#
# Elastic Compliance Matrix: (Units=1/GPa)
#
#
# Indices 1 2 3 4 5 6 
#
# 1 0.012410 0.000231 -0.004443 -0.001857 -0.010933 -0.002089
# 2 0.000231 0.008983 -0.005130 -0.002864 -0.003511 0.001279
# 3 -0.004443 -0.005130 0.018171 -0.001022 0.003363 0.001042
# 4 -0.001857 -0.002864 -0.001022 0.023768 0.000946 -0.003593
# 5 -0.010933 -0.003511 0.003363 0.000946 0.040245 0.004536
# 6 -0.002089 0.001279 0.001042 -0.003593 0.004536 0.030103
#
#
# Mechanical properties :
#
#
# Convention : Reuss Voigt Hill
#
# Bulk Modulus (GPa) = 47.89073 65.54818 56.71946
# Shear Modulus (GPa) = 31.38244 39.20328 35.29286
#
# Velocity S-wave (km/s) = 3.68944 4.12362 3.91255
# Velocity P-wave (km/s) = 6.23872 7.14867 6.70914
#
# Compressibility (1/GPa) = 0.02088087
#
# Stress axis : x y z
#
# Youngs Moduli (GPa) = 80.57843 111.31878 55.03339
#
# Poissons Ratio (x) = -0.02576 0.24451
# Poissons Ratio (y) = -0.01865 0.28233
# Poissons Ratio (z) = 0.35801 0.57108
#
# Static dielectric constant tensor:
#      x y z
#    x 4.323900 -0.146820 0.372260 
#    y -0.146820 4.435270 -0.325760 
#    z 0.372260 -0.325760 4.050380 
# 
# 
# High freq. dielectric constant tensor:
#      x y z
#    x 1.913340 0.004710 0.026250 
#    y 0.004710 1.918500 -0.012920 
#    z 0.026250 -0.012920 1.900760 
# 
# From -- ./inp_files/343669.got.cif
#   From: 2010.06.25/outbox.cif.g09.slc.cpg/sg2_172_cif.got.tgz:343669.got - 2010.06.27 13:26:56.
