data_PCOD8006873
_publ_section_title
;
Structure prediction by ZEFSAII (Michael W. Deem and Ramdas Pophale) SiO2 
 PCOD8006873
Probable space group: P -1
;
_chemical_formula_sum "Si O2"
_cell_formula_units_Z 16
_cell_length_a 8.954830
_cell_length_b 11.597178
_cell_length_c 15.242833
_cell_angle_alpha 117.425858
_cell_angle_beta 57.592301
_cell_angle_gamma 71.570313
_cell_volume 782.877602
_symmetry_space_group_name_H-M "P -1"
_symmetry_group_IT_number 2
_symmetry_cell_setting 'triclinic'
loop_
_space_group_symop_operation_xyz
x,y,z
-x,-y,-z
loop_
_atom_site_type_symbol
_atom_site_label
_atom_site_fract_x
_atom_site_fract_y
_atom_site_fract_z
Si Si1 0.725294 0.575135 0.244166
Si Si2 0.534888 0.936248 0.183708
Si Si3 0.815094 0.808557 0.334985
Si Si4 0.799458 0.080776 0.013814
Si Si5 0.225857 0.305394 0.308244
Si Si6 0.999039 0.218096 0.914699
Si Si7 0.066309 0.283453 0.169018
Si Si8 0.241699 0.956365 0.433546
O O1 0.887888 0.617017 0.233817
O O2 0.769530 0.462593 0.279499
O O3 0.419720 0.781288 0.389247
O O4 0.846960 0.431243 0.072066
O O5 0.709263 0.945768 0.187353
O O6 0.286519 0.141056 0.285459
O O7 0.427185 0.885215 0.265759
O O8 0.726828 0.774809 0.990051
O O9 0.964714 0.799698 0.206604
O O10 0.893228 0.837126 0.411705
O O11 0.500000 0.000000 0.500000
O O12 0.832751 0.177923 0.967810
O O13 0.875038 0.898067 0.887181
O O14 0.490215 0.249080 0.199712
O O15 0.000000 0.000000 0.000000
O O16 0.103239 0.346626 0.265944
O O17 0.000000 0.500000 0.500000
O O18 0.000000 0.000000 0.500000
#
# Coordination Sequence:
#
# PCOD8006873 Si02
#       8
#     2   2   2   2   2   2   2   2
#     4  10  21  40  66  91 124 168 223 251 320 393
#     4  10  20  40  65  87 130 174 207 261 331 376
#     4  10  21  37  62  93 125 168 206 258 327 381
#     4  11  20  42  66  97 126 172 222 262 320 382
#     4  11  25  41  66  96 133 167 217 269 328 381
#     4  11  20  38  72  93 124 171 221 268 308 393
#     4  10  23  41  69  92 126 174 212 264 321 397
#     4  11  25  41  62  94 134 167 213 271 328 379
#
# _framework density 20.437421000000001
#
# number of rings (size 3 to 8) (size 9 to 14) (size 15 to 20)
#    0.000    1.500    6.250    1.875    3.500    3.000 
#    0.000    2.500    0.000    0.000    0.000    0.000 
#    0.000    0.000    0.000    0.000    0.000    0.000 
#
# Total GULP energy -198237.716104 kJ/mol
# GULP energy per Si atom -12389.857256 kJ/mol
# Density = 2.039090 g / cm^3
# Si number density = 20.437421 Si / 1000 Ang^3
#
#
#
# Elastic Constant Matrix: (Units=GPa)
#
#
# Indices 1 2 3 4 5 6 
#
# 1 120.8847 38.5593 60.2194 -9.2686 2.4076 6.3173
# 2 38.5593 90.7037 51.6892 4.4674 -2.2838 9.7716
# 3 60.2194 51.6892 95.8912 -1.5883 12.1274 9.6638
# 4 -9.2686 4.4674 -1.5883 28.7096 -5.9442 -5.0756
# 5 2.4076 -2.2838 12.1274 -5.9442 37.1339 -0.1228
# 6 6.3173 9.7716 9.6638 -5.0756 -0.1228 40.4847
#
#
#
# Elastic Compliance Matrix: (Units=1/GPa)
#
#
# Indices 1 2 3 4 5 6 
#
# 1 0.012726 -0.001348 -0.007551 0.004499 0.002281 0.000713
# 2 -0.001348 0.016958 -0.008552 -0.003239 0.003397 -0.002237
# 3 -0.007551 -0.008552 0.020854 -0.001782 -0.007139 -0.001980
# 4 0.004499 -0.003239 -0.001782 0.038959 0.006345 0.005409
# 5 0.002281 0.003397 -0.007139 0.006345 0.030342 0.001416
# 6 0.000713 -0.002237 -0.001980 0.005409 0.001416 0.026284
#
#
# Mechanical properties :
#
#
# Convention : Reuss Voigt Hill
#
# Bulk Modulus (GPa) = 63.96048 67.60170 65.78109
# Shear Modulus (GPa) = 26.84738 31.73310 29.29024
#
# Velocity S-wave (km/s) = 3.62835 3.94470 3.78983
# Velocity P-wave (km/s) = 6.99406 7.34144 7.16986
#
# Compressibility (1/GPa) = 0.01563465
#
# Stress axis : x y z
#
# Youngs Moduli (GPa) = 78.57793 58.97050 47.95340
#
# Poissons Ratio (x) = 0.07948 0.36211
# Poissons Ratio (y) = 0.10591 0.41011
# Poissons Ratio (z) = 0.59336 0.50433
#
# Static dielectric constant tensor:
#      x y z
#    x 3.398540 -0.169370 -0.160980 
#    y -0.169370 4.243090 0.044120 
#    z -0.160980 0.044120 3.749480 
# 
# 
# High freq. dielectric constant tensor:
#      x y z
#    x 1.788480 -0.005540 0.011890 
#    y -0.005540 1.799050 0.004900 
#    z 0.011890 0.004900 1.788230 
# 
# From -- ./inp_files/499880.got.cif
#   From: 2010.06.25/outbox.cif.g09.slc.cpg/sg2_250_cif.got.tgz:499880.got - 2010.06.27 13:26:56.
