data_PCOD8006262
_publ_section_title
;
Structure prediction by ZEFSAII (Michael W. Deem and Ramdas Pophale) SiO2 
 PCOD8006262
Probable space group: P -1
;
_chemical_formula_sum "Si O2"
_cell_formula_units_Z 16
_cell_length_a 9.660392
_cell_length_b 11.433903
_cell_length_c 9.654895
_cell_angle_alpha 99.315015
_cell_angle_beta 134.266471
_cell_angle_gamma 77.878312
_cell_volume 746.474524
_symmetry_space_group_name_H-M "P -1"
_symmetry_group_IT_number 2
_symmetry_cell_setting 'triclinic'
loop_
_space_group_symop_operation_xyz
x,y,z
-x,-y,-z
loop_
_atom_site_type_symbol
_atom_site_label
_atom_site_fract_x
_atom_site_fract_y
_atom_site_fract_z
Si Si1 0.058034 0.292739 0.864942
Si Si2 0.820598 0.366323 0.978973
Si Si3 0.539037 0.479838 0.363660
Si Si4 0.950284 0.505955 0.625469
Si Si5 0.519398 0.235978 0.180198
Si Si6 0.303545 0.017946 0.657568
Si Si7 0.648303 0.158294 0.952189
Si Si8 0.945906 0.966346 0.243282
O O1 0.994518 0.376635 0.705598
O O2 0.972447 0.166957 0.774625
O O3 0.972545 0.357020 0.957095
O O4 0.288821 0.265868 0.026157
O O5 0.649336 0.473947 0.850081
O O6 0.719376 0.248427 0.908616
O O7 0.933407 0.397603 0.201241
O O8 0.500000 0.500000 0.500000
O O9 0.606220 0.341550 0.342281
O O10 0.719524 0.552071 0.474535
O O11 0.000000 0.500000 0.500000
O O12 0.579916 0.115061 0.285021
O O13 0.607510 0.222774 0.084413
O O14 0.132272 0.030720 0.426516
O O15 0.452721 0.112229 0.748696
O O16 0.204585 0.049032 0.741659
O O17 0.823143 0.047605 0.058794
#
# Coordination Sequence:
#
# PCOD8006262 Si02
#       8
#     2   2   2   2   2   2   2   2
#     4  12  22  45  70  95 138 182 218 279 349 398
#     4  12  28  44  66 100 146 180 219 280 345 405
#     4  12  25  45  69  98 137 180 223 276 343 411
#     4  12  27  45  71 103 132 177 236 282 337 398
#     4  11  21  41  73  94 129 177 230 278 334 395
#     4  10  20  39  67 102 128 173 228 282 330 392
#     4  11  23  43  63 101 134 176 225 280 331 394
#     4  10  21  39  69  97 134 172 227 279 330 399
#
# _framework density 21.434087000000002
#
# number of rings (size 3 to 8) (size 9 to 14) (size 15 to 20)
#    0.000    0.750    5.000    3.375    1.750    4.500 
#    0.000    0.625    0.000    0.000    0.000    0.000 
#    0.000    0.000    0.000    0.000    0.000    0.000 
#
# Total GULP energy -198428.511561 kJ/mol
# GULP energy per Si atom -12401.781973 kJ/mol
# Density = 2.138530 g / cm^3
# Si number density = 21.434087 Si / 1000 Ang^3
#
#
#
# Elastic Constant Matrix: (Units=GPa)
#
#
# Indices 1 2 3 4 5 6 
#
# 1 111.7078 32.9315 49.0427 -4.9012 -3.8072 0.1754
# 2 32.9315 104.2153 30.3397 14.2730 -5.5687 -0.2465
# 3 49.0427 30.3397 103.2015 11.8111 4.3111 -1.7143
# 4 -4.9012 14.2730 11.8111 27.4531 0.4316 9.3356
# 5 -3.8072 -5.5687 4.3111 0.4316 29.2227 -6.2169
# 6 0.1754 -0.2465 -1.7143 9.3356 -6.2169 28.4511
#
#
#
# Elastic Compliance Matrix: (Units=1/GPa)
#
#
# Indices 1 2 3 4 5 6 
#
# 1 0.013020 -0.003289 -0.006188 0.007591 0.001298 -0.002689
# 2 -0.003289 0.012179 -0.001226 -0.007504 0.002851 0.003137
# 3 -0.006188 -0.001226 0.013982 -0.007387 -0.002404 0.002768
# 4 0.007591 -0.007504 -0.007387 0.051111 -0.003977 -0.018197
# 5 0.001298 0.002851 -0.002404 -0.003977 0.037332 0.009334
# 6 -0.002689 0.003137 0.002768 -0.018197 0.009334 0.043369
#
#
# Mechanical properties :
#
#
# Convention : Reuss Voigt Hill
#
# Bulk Modulus (GPa) = 56.25566 60.41692 58.33629
# Shear Modulus (GPa) = 25.21136 30.81275 28.01205
#
# Velocity S-wave (km/s) = 3.43334 3.79563 3.61902
# Velocity P-wave (km/s) = 6.48228 6.88894 6.68870
#
# Compressibility (1/GPa) = 0.01777599
#
# Stress axis : x y z
#
# Youngs Moduli (GPa) = 76.80675 82.10731 71.51849
#
# Poissons Ratio (x) = 0.27008 0.44254
# Poissons Ratio (y) = 0.25264 0.08765
# Poissons Ratio (z) = 0.47526 0.10063
#
# Static dielectric constant tensor:
#      x y z
#    x 3.740560 -0.158300 0.236830 
#    y -0.158300 4.069960 0.065000 
#    z 0.236830 0.065000 3.965890 
# 
# 
# High freq. dielectric constant tensor:
#      x y z
#    x 1.835150 -0.008590 0.023160 
#    y -0.008590 1.845150 0.007570 
#    z 0.023160 0.007570 1.847830 
# 
# From -- ./inp_files/188216.got.cif
#   From: 2010.06.25/outbox.cif.g09.slc.cpg/sg2_95_cif.got.tgz:188216.got - 2010.06.27 13:26:56.
