data_PCOD8006689
_publ_section_title
;
Structure prediction by ZEFSAII (Michael W. Deem and Ramdas Pophale) SiO2 
 PCOD8006689
Probable space group: P -1
;
_chemical_formula_sum "Si O2"
_cell_formula_units_Z 16
_cell_length_a 7.675515
_cell_length_b 24.002421
_cell_length_c 18.902960
_cell_angle_alpha 156.802723
_cell_angle_beta 132.006827
_cell_angle_gamma 35.920264
_cell_volume 761.016080
_symmetry_space_group_name_H-M "P -1"
_symmetry_group_IT_number 2
_symmetry_cell_setting 'triclinic'
loop_
_space_group_symop_operation_xyz
x,y,z
-x,-y,-z
loop_
_atom_site_type_symbol
_atom_site_label
_atom_site_fract_x
_atom_site_fract_y
_atom_site_fract_z
Si Si1 0.758589 0.688727 0.957240
Si Si2 0.073114 0.810398 0.115655
Si Si3 0.172067 0.094802 0.987365
Si Si4 0.836520 0.187481 0.485814
Si Si5 0.772401 0.517243 0.903851
Si Si6 0.872328 0.929387 0.721260
Si Si7 0.317006 0.538952 0.425075
Si Si8 0.741917 0.517593 0.407932
O O1 0.841388 0.552116 0.885015
O O2 0.685312 0.623783 0.790690
O O3 0.041715 0.683512 0.008059
O O4 0.482835 0.901925 0.155748
O O5 0.416659 0.683588 0.026540
O O6 0.972700 0.998052 0.346580
O O7 0.807167 0.918370 0.107223
O O8 0.901726 0.317027 0.185413
O O9 0.500000 0.000000 0.000000
O O10 0.071043 0.986686 0.867924
O O11 0.854821 0.318403 0.692685
O O12 0.463597 0.315024 0.511022
O O13 0.080118 0.108019 0.393592
O O14 0.000000 0.500000 0.000000
O O15 0.969162 0.747259 0.577792
O O16 0.500000 0.500000 0.500000
O O17 0.469174 0.578077 0.454755
O O18 0.000000 0.500000 0.500000
#
# Coordination Sequence:
#
# PCOD8006689 Si02
#       8
#     2   2   2   2   2   2   2   2
#     4  12  24  46  66  99 140 172 230 290 328 414
#     4  11  25  42  70 100 134 176 227 278 345 396
#     4  11  20  37  61  92 131 180 223 269 325 401
#     4  10  20  45  66  95 132 176 220 276 337 401
#     4  12  25  49  77  97 133 179 222 290 352 401
#     4  10  20  40  63  86 137 179 214 271 334 383
#     4  11  24  37  58  94 136 182 225 272 333 393
#     4  11  20  36  61  87 132 180 227 265 329 397
#
# _framework density 21.024522999999999
#
# number of rings (size 3 to 8) (size 9 to 14) (size 15 to 20)
#    0.000    1.000    7.500    2.250    3.500    4.500 
#    0.000    0.625    0.000    0.000    0.000    0.000 
#    0.000    0.000    0.000    0.000    0.000    0.000 
#
# Total GULP energy -198219.675785 kJ/mol
# GULP energy per Si atom -12388.729737 kJ/mol
# Density = 2.097667 g / cm^3
# Si number density = 21.024523 Si / 1000 Ang^3
#
#
#
# Elastic Constant Matrix: (Units=GPa)
#
#
# Indices 1 2 3 4 5 6 
#
# 1 74.9007 25.2589 28.1585 1.0886 16.8417 -5.3853
# 2 25.2589 77.6435 41.0115 -17.3769 -0.0239 -8.5686
# 3 28.1585 41.0115 165.9761 3.2289 2.8016 -5.9512
# 4 1.0886 -17.3769 3.2289 30.6592 -4.4501 3.3722
# 5 16.8417 -0.0239 2.8016 -4.4501 28.1680 0.7197
# 6 -5.3853 -8.5686 -5.9512 3.3722 0.7197 18.7649
#
#
#
# Elastic Compliance Matrix: (Units=1/GPa)
#
#
# Indices 1 2 3 4 5 6 
#
# 1 0.019227 -0.006730 -0.001124 -0.006610 -0.012530 0.003757
# 2 -0.006730 0.020541 -0.004164 0.012855 0.006395 0.003572
# 3 -0.001124 -0.004164 0.007344 -0.003258 -0.000595 0.000713
# 4 -0.006610 0.012855 -0.003258 0.042667 0.011160 -0.005156
# 5 -0.012530 0.006395 -0.000595 0.011160 0.044938 -0.004594
# 6 0.003757 0.003572 0.000713 -0.005156 -0.004594 0.057330
#
#
# Mechanical properties :
#
#
# Convention : Reuss Voigt Hill
#
# Bulk Modulus (GPa) = 43.33502 56.37536 49.85519
# Shear Modulus (GPa) = 22.34403 30.45786 26.40094
#
# Velocity S-wave (km/s) = 3.26354 3.81029 3.54746
# Velocity P-wave (km/s) = 5.90401 6.79927 6.36739
#
# Compressibility (1/GPa) = 0.02307603
#
# Stress axis : x y z
#
# Youngs Moduli (GPa) = 52.01103 48.68271 136.17424
#
# Poissons Ratio (x) = 0.32762 0.15309
# Poissons Ratio (y) = 0.35002 0.56700
# Poissons Ratio (z) = 0.05847 0.20270
#
# Static dielectric constant tensor:
#      x y z
#    x 2.743270 -4.148190 -0.854650 
#    y -4.148190 -13.743370 -3.691500 
#    z -0.854650 -3.691500 3.643770 
# 
# 
# High freq. dielectric constant tensor:
#      x y z
#    x 1.800630 -0.009440 -0.001240 
#    y -0.009440 1.790850 0.014730 
#    z -0.001240 0.014730 1.856660 
# 
# From -- ./inp_files/533588.got.cif
#   From: 2010.06.25/outbox.cif.g09.slc.cpg/sg2_267_cif.got.tgz:533588.got - 2010.06.27 13:26:56.
