data_PCOD8006947
_publ_section_title
;
Structure prediction by ZEFSAII (Michael W. Deem and Ramdas Pophale) SiO2 
 PCOD8006947
Probable space group: P -1
;
_chemical_formula_sum "Si O2"
_cell_formula_units_Z 16
_cell_length_a 17.222131
_cell_length_b 8.723705
_cell_length_c 11.545009
_cell_angle_alpha 115.659246
_cell_angle_beta 57.105286
_cell_angle_gamma 149.059155
_cell_volume 746.665809
_symmetry_space_group_name_H-M "P -1"
_symmetry_group_IT_number 2
_symmetry_cell_setting 'triclinic'
loop_
_space_group_symop_operation_xyz
x,y,z
-x,-y,-z
loop_
_atom_site_type_symbol
_atom_site_label
_atom_site_fract_x
_atom_site_fract_y
_atom_site_fract_z
Si Si1 0.079671 0.453239 0.472891
Si Si2 0.294346 0.561561 0.799940
Si Si3 0.529424 0.423030 0.716902
Si Si4 0.970908 0.141561 0.018779
Si Si5 0.359616 0.471677 0.956583
Si Si6 0.797873 0.123457 0.317565
Si Si7 0.391774 0.745965 0.235690
Si Si8 0.767164 0.823887 0.449630
O O1 0.135220 0.589180 0.603159
O O2 0.235958 0.632020 0.330609
O O3 0.000000 0.500000 0.500000
O O4 0.943133 0.099756 0.461773
O O5 0.339956 0.512883 0.855952
O O6 0.247777 0.378518 0.667480
O O7 0.135373 0.439892 0.914286
O O8 0.444839 0.905313 0.755458
O O9 0.501322 0.544535 0.861931
O O10 0.628598 0.433262 0.711897
O O11 0.628598 0.633601 0.594771
O O12 0.355873 0.082756 0.708186
O O13 0.941212 0.235924 0.174090
O O14 0.809554 0.877871 0.983293
O O15 0.000000 0.000000 0.000000
O O16 0.406329 0.692272 0.077479
O O17 0.741324 0.936980 0.416835
#
# Coordination Sequence:
#
# PCOD8006947 Si02
#       8
#     2   2   2   2   2   2   2   2
#     4  10  25  38  64  93 128 163 210 272 307 371
#     4  11  22  37  69  96 123 168 215 259 314 375
#     4  11  24  41  67  91 134 172 204 259 322 380
#     4   9  17  36  65  93 117 164 209 263 306 364
#     4  10  22  41  66  90 128 170 214 254 313 379
#     4  10  20  40  65  95 128 162 215 259 313 378
#     4  12  26  42  59 100 134 163 212 267 314 370
#     4  11  21  40  66  91 125 169 217 253 319 375
#
# _framework density 21.428595000000001
#
# number of rings (size 3 to 8) (size 9 to 14) (size 15 to 20)
#    0.000    1.500    3.750    2.625    8.750    3.500 
#    0.000    3.750    0.000    0.000    0.000    0.000 
#    0.000    0.000    0.000    0.000    0.000    0.000 
#
# Total GULP energy -198366.624678 kJ/mol
# GULP energy per Si atom -12397.914042 kJ/mol
# Density = 2.137982 g / cm^3
# Si number density = 21.428595 Si / 1000 Ang^3
#
#
#
# Elastic Constant Matrix: (Units=GPa)
#
#
# Indices 1 2 3 4 5 6 
#
# 1 57.9320 16.5573 40.2309 -10.3281 -16.2932 1.4984
# 2 16.5573 127.7802 76.9610 18.0461 -13.5730 14.7563
# 3 40.2309 76.9610 154.9048 15.3126 -27.8925 14.7996
# 4 -10.3281 18.0461 15.3126 46.9781 8.4914 -1.1111
# 5 -16.2932 -13.5730 -27.8925 8.4914 23.2599 -1.5474
# 6 1.4984 14.7563 14.7996 -1.1111 -1.5474 17.5257
#
#
#
# Elastic Compliance Matrix: (Units=1/GPa)
#
#
# Indices 1 2 3 4 5 6 
#
# 1 0.024624 -0.000107 -0.005816 0.005944 0.008308 0.004007
# 2 -0.000107 0.012124 -0.004565 -0.003793 0.002487 -0.006365
# 3 -0.005816 -0.004565 0.013470 -0.006094 0.011211 -0.006430
# 4 0.005944 -0.003793 -0.006094 0.029016 -0.015398 0.008312
# 5 0.008308 0.002487 0.011211 -0.015398 0.068852 -0.007169
# 6 0.004007 -0.006365 -0.006430 0.008312 -0.007169 0.067400
#
#
# Mechanical properties :
#
#
# Convention : Reuss Voigt Hill
#
# Bulk Modulus (GPa) = 34.19860 67.56838 50.88349
# Shear Modulus (GPa) = 20.30792 31.34393 25.82593
#
# Velocity S-wave (km/s) = 3.08182 3.82870 3.47538
# Velocity P-wave (km/s) = 5.35326 7.15161 6.31676
#
# Compressibility (1/GPa) = 0.02924097
#
# Stress axis : x y z
#
# Youngs Moduli (GPa) = 40.61067 82.48009 74.24133
#
# Poissons Ratio (x) = 0.00884 0.43181
# Poissons Ratio (y) = 0.00435 0.33890
# Poissons Ratio (z) = 0.23620 0.37651
#
# Static dielectric constant tensor:
#      x y z
#    x 3.538340 0.385370 -0.201010 
#    y 0.385370 4.539180 0.112910 
#    z -0.201010 0.112910 4.127100 
# 
# 
# High freq. dielectric constant tensor:
#      x y z
#    x 1.808820 0.022210 -0.017950 
#    y 0.022210 1.843620 0.009370 
#    z -0.017950 0.009370 1.852610 
# 
# From -- ./inp_files/462343.got.cif
#   From: 2010.06.25/outbox.cif.g09.slc.cpg/sg2_232_cif.got.tgz:462343.got - 2010.06.27 13:26:56.
