data_PCOD8006404
_publ_section_title
;
Structure prediction by ZEFSAII (Michael W. Deem and Ramdas Pophale) SiO2 
 PCOD8006404
Probable space group: P -1
;
_chemical_formula_sum "Si O2"
_cell_formula_units_Z 14
_cell_length_a 8.980083
_cell_length_b 21.926663
_cell_length_c 5.244626
_cell_angle_alpha 104.515012
_cell_angle_beta 54.427390
_cell_angle_gamma 135.405789
_cell_volume 564.998487
_symmetry_space_group_name_H-M "P -1"
_symmetry_group_IT_number 2
_symmetry_cell_setting 'triclinic'
loop_
_space_group_symop_operation_xyz
x,y,z
-x,-y,-z
loop_
_atom_site_type_symbol
_atom_site_label
_atom_site_fract_x
_atom_site_fract_y
_atom_site_fract_z
Si Si1 0.404425 0.218291 0.648766
Si Si2 0.460838 0.031913 0.318966
Si Si3 0.897958 0.305620 0.501181
Si Si4 0.090979 0.122835 0.350940
Si Si5 0.666713 0.652861 0.183575
Si Si6 0.874174 0.200414 0.792172
Si Si7 0.083697 0.483369 0.649598
O O1 0.256346 0.156095 0.481017
O O2 0.392515 0.290066 0.774637
O O3 0.711085 0.272774 0.405768
O O4 0.274522 0.155722 0.962549
O O5 0.500000 0.000000 0.500000
O O6 0.684421 0.141549 0.169618
O O7 0.162991 0.987034 0.545270
O O8 0.500000 0.000000 0.000000
O O9 0.939398 0.380566 0.693017
O O10 0.743549 0.217466 0.744136
O O11 0.181917 0.347876 0.187849
O O12 0.948662 0.155712 0.517709
O O13 0.397628 0.550482 0.409418
O O14 0.853757 0.699694 0.291152
O O15 0.000000 0.500000 0.500000
O O16 0.000000 0.500000 0.000000
#
# Coordination Sequence:
#
# PCOD8006404 Si02
#       7
#     2   2   2   2   2   2   2
#     4  11  24  42  72 100 149 188 244 293 363 424
#     4  10  20  39  69 106 145 192 243 294 358 429
#     4  12  27  46  75 108 146 192 247 308 361 440
#     4  10  21  43  66 103 144 194 235 298 356 426
#     4  11  25  48  73 105 146 193 243 299 372 438
#     4  10  24  39  74 106 142 187 253 293 359 434
#     4  12  30  50  77 106 147 192 241 303 374 442
#
# _framework density 24.778828000000001
#
# number of rings (size 3 to 8) (size 9 to 14) (size 15 to 20)
#    0.000    1.143    2.857    3.000   12.000    0.571 
#    0.000    1.429    0.000    0.000    0.000    0.000 
#    0.000    0.000    0.000    0.000    0.000    0.000 
#
# Total GULP energy -173525.813503 kJ/mol
# GULP energy per Si atom -12394.700965 kJ/mol
# Density = 2.472243 g / cm^3
# Si number density = 24.778828 Si / 1000 Ang^3
#
#
#
# Elastic Constant Matrix: (Units=GPa)
#
#
# Indices 1 2 3 4 5 6 
#
# 1 154.2215 58.5559 62.5769 -11.0517 5.7729 21.1638
# 2 58.5559 68.7251 30.0476 -11.3576 -0.6985 18.7584
# 3 62.5769 30.0476 130.2956 -7.7867 18.3095 10.6546
# 4 -11.0517 -11.3576 -7.7867 37.4940 13.1683 -6.7179
# 5 5.7729 -0.6985 18.3095 13.1683 38.2666 -0.4397
# 6 21.1638 18.7584 10.6546 -6.7179 -0.4397 44.1358
#
#
#
# Elastic Compliance Matrix: (Units=1/GPa)
#
#
# Indices 1 2 3 4 5 6 
#
# 1 0.010852 -0.007427 -0.003363 0.000107 -0.000215 -0.001221
# 2 -0.007427 0.023557 -0.001348 0.003313 0.000991 -0.005611
# 3 -0.003363 -0.001348 0.010535 0.002718 -0.005493 0.000001
# 4 0.000107 0.003313 0.002718 0.033220 -0.012655 0.002815
# 5 -0.000215 0.000991 -0.005493 -0.012655 0.033159 -0.000588
# 6 -0.001221 -0.005611 0.000001 0.002815 -0.000588 0.026050
#
#
# Mechanical properties :
#
#
# Convention : Reuss Voigt Hill
#
# Bulk Modulus (GPa) = 48.38193 72.84477 60.61335
# Shear Modulus (GPa) = 29.66685 37.45008 33.55846
#
# Velocity S-wave (km/s) = 3.46391 3.89186 3.68410
# Velocity P-wave (km/s) = 5.96373 7.04679 6.52776
#
# Compressibility (1/GPa) = 0.02066887
#
# Stress axis : x y z
#
# Youngs Moduli (GPa) = 92.15015 42.44945 94.92243
#
# Poissons Ratio (x) = 0.31528 0.31919
# Poissons Ratio (y) = 0.68441 0.12795
# Poissons Ratio (z) = 0.30986 0.05722
#
# Static dielectric constant tensor:
#      x y z
#    x 4.540150 0.218050 -0.153120 
#    y 0.218050 5.026760 -0.503860 
#    z -0.153120 -0.503860 4.554020 
# 
# 
# High freq. dielectric constant tensor:
#      x y z
#    x 1.989320 0.014760 -0.005390 
#    y 0.014760 1.988370 -0.004860 
#    z -0.005390 -0.004860 1.987030 
# 
# From -- ./inp_files/55487.got.cif
#   From: 2010.06.25/outbox.cif.g09.slc.cpg/sg2_28_cif.got.tgz:55487.got - 2010.06.27 13:26:56.
