data_PCOD8006762
_publ_section_title
;
Structure prediction by ZEFSAII (Michael W. Deem and Ramdas Pophale) SiO2 
 PCOD8006762
Probable space group: P -1
;
_chemical_formula_sum "Si O2"
_cell_formula_units_Z 16
_cell_length_a 5.508455
_cell_length_b 17.991060
_cell_length_c 12.406527
_cell_angle_alpha 40.651996
_cell_angle_beta 116.106707
_cell_angle_gamma 96.927512
_cell_volume 669.781984
_symmetry_space_group_name_H-M "P -1"
_symmetry_group_IT_number 2
_symmetry_cell_setting 'triclinic'
loop_
_space_group_symop_operation_xyz
x,y,z
-x,-y,-z
loop_
_atom_site_type_symbol
_atom_site_label
_atom_site_fract_x
_atom_site_fract_y
_atom_site_fract_z
Si Si1 0.335964 0.940198 0.440071
Si Si2 0.881713 0.162347 0.054446
Si Si3 0.625509 0.175711 0.207979
Si Si4 0.316270 0.863202 0.192221
Si Si5 0.043736 0.369228 0.915418
Si Si6 0.900741 0.726742 0.736193
Si Si7 0.171837 0.352958 0.417511
Si Si8 0.911146 0.871262 0.292630
O O1 0.384556 0.929606 0.592008
O O2 0.614514 0.849746 0.532114
O O3 0.056766 0.907188 0.384926
O O4 0.233611 0.083852 0.221605
O O5 0.749473 0.115607 0.183677
O O6 0.769307 0.126476 0.961677
O O7 0.816603 0.306919 0.897967
O O8 0.824475 0.234453 0.246950
O O9 0.338785 0.292791 0.996283
O O10 0.481339 0.719828 0.415863
O O11 0.027622 0.916267 0.155305
O O12 0.556201 0.928884 0.175945
O O13 0.924137 0.510891 0.703109
O O14 0.109354 0.351553 0.074639
O O15 0.911271 0.640653 0.731617
O O16 0.000703 0.277101 0.529932
#
# Coordination Sequence:
#
# PCOD8006762 Si02
#       8
#     2   2   2   2   2   2   2   2
#     4  11  21  42  68  93 133 166 222 280 331 395
#     4  11  26  41  62  95 134 180 217 264 332 403
#     4  10  22  41  60  97 130 171 222 264 337 393
#     4  10  24  44  67 101 133 174 224 272 332 394
#     4  10  24  39  64  96 132 175 219 269 332 399
#     4  10  20  40  64 100 125 171 217 281 337 380
#     4  10  21  42  67  97 131 169 223 281 327 392
#     4  10  22  43  69 100 127 173 223 275 337 372
#
# _framework density 23.888370999999999
#
# number of rings (size 3 to 8) (size 9 to 14) (size 15 to 20)
#    0.750    1.000    2.500    0.750    1.750    9.500 
#    0.000    1.250    0.000    0.000    0.000    0.000 
#    0.000    0.000    0.000    0.000    0.000    0.000 
#
# Total GULP energy -198231.391035 kJ/mol
# GULP energy per Si atom -12389.461940 kJ/mol
# Density = 2.383400 g / cm^3
# Si number density = 23.888371 Si / 1000 Ang^3
#
#
#
# Elastic Constant Matrix: (Units=GPa)
#
#
# Indices 1 2 3 4 5 6 
#
# 1 90.2008 18.5272 20.1130 15.4867 0.9904 -8.8430
# 2 18.5272 105.1476 19.4675 15.3492 -9.9018 -2.7609
# 3 20.1130 19.4675 37.1197 19.0258 -21.6741 -0.0981
# 4 15.4867 15.3492 19.0258 50.7518 10.8322 0.0890
# 5 0.9904 -9.9018 -21.6741 10.8322 27.9247 5.9043
# 6 -8.8430 -2.7609 -0.0981 0.0890 5.9043 25.6289
#
#
#
# Elastic Compliance Matrix: (Units=1/GPa)
#
#
# Indices 1 2 3 4 5 6 
#
# 1 0.096849 -0.010988 -0.489761 0.268835 -0.523469 0.150019
# 2 -0.010988 0.011924 0.053956 -0.033940 0.063202 -0.016743
# 3 -0.489761 0.053956 2.840242 -1.577164 3.031497 -0.845211
# 4 0.268835 -0.033940 -1.577164 0.899967 -1.694239 0.470253
# 5 -0.523469 0.063202 3.031497 -1.694239 3.279740 -0.911896
# 6 0.150019 -0.016743 -0.845211 0.470253 -0.911896 0.294188
#
#
# Mechanical properties :
#
#
# Convention : Reuss Voigt Hill
#
# Bulk Modulus (GPa) = 0.48652 38.74262 19.61457
# Shear Modulus (GPa) = 0.55545 32.48512 16.52029
#
# Velocity S-wave (km/s) = 0.48273 3.69164 2.63261
# Velocity P-wave (km/s) = 0.71750 5.86723 4.17966
#
# Compressibility (1/GPa) = 2.05542648
#
# Stress axis : x y z
#
# Youngs Moduli (GPa) = 10.32539 83.86739 0.35208
#
# Poissons Ratio (x) = 0.92156 0.17244
# Poissons Ratio (y) = 0.11346 -0.01900
# Poissons Ratio (z) = 5.05698 -4.52513
#
# Static dielectric constant tensor:
#      x y z
#    x 4.303280 0.110850 0.067380 
#    y 0.110850 4.049050 0.029640 
#    z 0.067380 0.029640 4.279090 
# 
# 
# High freq. dielectric constant tensor:
#      x y z
#    x 1.948240 0.012640 0.003890 
#    y 0.012640 1.940520 0.006620 
#    z 0.003890 0.006620 1.947240 
# 
# From -- ./inp_files/370044.got.cif
#   From: 2010.06.25/outbox.cif.g09.slc.cpg/sg2_186_cif.got.tgz:370044.got - 2010.06.27 13:26:56.
