data_PCOD8006026
_publ_section_title
;
Structure prediction by ZEFSAII (Michael W. Deem and Ramdas Pophale) SiO2 
 PCOD8006026
Probable space group: P -1
;
_chemical_formula_sum "Si O2"
_cell_formula_units_Z 14
_cell_length_a 12.259375
_cell_length_b 9.676151
_cell_length_c 14.988508
_cell_angle_alpha 96.139582
_cell_angle_beta 29.154848
_cell_angle_gamma 113.392414
_cell_volume 671.018787
_symmetry_space_group_name_H-M "P -1"
_symmetry_group_IT_number 2
_symmetry_cell_setting 'triclinic'
loop_
_space_group_symop_operation_xyz
x,y,z
-x,-y,-z
loop_
_atom_site_type_symbol
_atom_site_label
_atom_site_fract_x
_atom_site_fract_y
_atom_site_fract_z
Si Si1 0.885427 0.242779 0.126393
Si Si2 0.702708 0.689250 0.914505
Si Si3 0.437426 0.309957 0.790020
Si Si4 0.880439 0.542838 0.195609
Si Si5 0.965461 0.000216 0.420466
Si Si6 0.332999 0.892838 0.454281
Si Si7 0.711608 0.630833 0.490657
O O1 0.956358 0.409056 0.144498
O O2 0.570936 0.057295 0.359957
O O3 0.113099 0.210249 0.982236
O O4 0.898772 0.291020 0.015258
O O5 0.023202 0.752552 0.715654
O O6 0.500000 0.500000 0.000000
O O7 0.542933 0.678441 0.116468
O O8 0.743529 0.832228 0.825079
O O9 0.541877 0.201731 0.676339
O O10 0.641268 0.506564 0.616364
O O11 0.901163 0.619732 0.283107
O O12 0.567488 0.424437 0.365660
O O13 0.889863 0.827362 0.414935
O O14 0.717314 0.019613 0.585544
O O15 0.000000 0.000000 0.500000
#
# Coordination Sequence:
#
# PCOD8006026 Si02
#       7
#     2   2   2   2   2   2   2
#     4  10  20  39  64  99 138 172 213 261 339 396
#     4  10  24  45  67  91 131 171 225 274 327 384
#     4  11  24  40  66 101 132 178 210 265 337 401
#     4   9  19  35  63  97 131 175 212 271 318 393
#     4  10  22  44  67  91 127 175 221 276 319 383
#     4  10  24  42  65  96 135 168 215 279 321 394
#     4  10  20  39  64  95 133 170 224 265 325 386
#
# _framework density 20.863797000000002
#
# number of rings (size 3 to 8) (size 9 to 14) (size 15 to 20)
#    0.857    1.143    1.429    1.286    4.000    1.143 
#    5.143    0.714    0.000    0.000    0.000    0.000 
#    0.000    0.000    0.000    0.000    0.000    0.000 
#
# Total GULP energy -173507.840687 kJ/mol
# GULP energy per Si atom -12393.417192 kJ/mol
# Density = 2.081631 g / cm^3
# Si number density = 20.863797 Si / 1000 Ang^3
#
#
#
# Elastic Constant Matrix: (Units=GPa)
#
#
# Indices 1 2 3 4 5 6 
#
# 1 62.6320 48.8538 25.7319 -6.9886 27.4935 -2.0189
# 2 48.8538 145.2099 55.7102 -2.9486 11.1900 3.2269
# 3 25.7319 55.7102 93.7254 -13.4969 13.7626 9.6058
# 4 -6.9886 -2.9486 -13.4969 42.8836 2.9620 -7.8826
# 5 27.4935 11.1900 13.7626 2.9620 37.4485 5.2721
# 6 -2.0189 3.2269 9.6058 -7.8826 5.2721 29.8859
#
#
#
# Elastic Compliance Matrix: (Units=1/GPa)
#
#
# Indices 1 2 3 4 5 6 
#
# 1 0.037048 -0.010563 0.000202 0.009150 -0.026339 0.010638
# 2 -0.010563 0.012008 -0.005502 -0.003534 0.006802 -0.002374
# 3 0.000202 -0.005502 0.015369 0.004326 -0.004148 -0.002459
# 4 0.009150 -0.003534 0.004326 0.028321 -0.010755 0.008976
# 5 -0.026339 0.006802 -0.004148 -0.010755 0.048144 -0.012510
# 6 0.010638 -0.002374 -0.002459 0.008976 -0.012510 0.039800
#
#
# Mechanical properties :
#
#
# Convention : Reuss Voigt Hill
#
# Bulk Modulus (GPa) = 30.58189 62.46211 46.52200
# Shear Modulus (GPa) = 22.38984 33.46171 27.92578
#
# Velocity S-wave (km/s) = 3.27944 4.00911 3.66249
# Velocity P-wave (km/s) = 5.38789 7.17173 6.34283
#
# Compressibility (1/GPa) = 0.03269909
#
# Stress axis : x y z
#
# Youngs Moduli (GPa) = 26.99195 83.27854 65.06811
#
# Poissons Ratio (x) = 0.87965 -0.01314
# Poissons Ratio (y) = 0.28511 0.35800
# Poissons Ratio (z) = -0.00545 0.45820
#
# Static dielectric constant tensor:
#      x y z
#    x 3.861750 -0.122230 0.205310 
#    y -0.122230 3.750360 0.010020 
#    z 0.205310 0.010020 3.905740 
# 
# 
# High freq. dielectric constant tensor:
#      x y z
#    x 1.798700 -0.005210 0.014040 
#    y -0.005210 1.823420 -0.003380 
#    z 0.014040 -0.003380 1.814920 
# 
# From -- ./inp_files/572677.got.cif
#   From: 2010.06.25/outbox.cif.g09.slc.cpg/sg2_287_cif.got.tgz:572677.got - 2010.06.27 13:26:56.
