data_PCOD8006020
_publ_section_title
;
Structure prediction by ZEFSAII (Michael W. Deem and Ramdas Pophale) SiO2 
 PCOD8006020
Probable space group: P -1
;
_chemical_formula_sum "Si O2"
_cell_formula_units_Z 16
_cell_length_a 8.987918
_cell_length_b 12.045381
_cell_length_c 15.026944
_cell_angle_alpha 39.620108
_cell_angle_beta 111.576343
_cell_angle_gamma 129.384921
_cell_volume 777.287176
_symmetry_space_group_name_H-M "P -1"
_symmetry_group_IT_number 2
_symmetry_cell_setting 'triclinic'
loop_
_space_group_symop_operation_xyz
x,y,z
-x,-y,-z
loop_
_atom_site_type_symbol
_atom_site_label
_atom_site_fract_x
_atom_site_fract_y
_atom_site_fract_z
Si Si1 0.103939 0.726777 0.928583
Si Si2 0.749798 0.526128 0.087351
Si Si3 0.545348 0.535167 0.348191
Si Si4 0.527947 0.177786 0.959986
Si Si5 0.629656 0.312027 0.364941
Si Si6 0.760568 0.020316 0.619950
Si Si7 0.593956 0.794784 0.901030
Si Si8 0.801254 0.836063 0.380109
O O1 0.184602 0.941909 0.754750
O O2 0.257558 0.713047 0.023744
O O3 0.000000 0.500000 0.000000
O O4 0.955628 0.721362 0.970132
O O5 0.782362 0.438517 0.238815
O O6 0.629613 0.328901 0.111190
O O7 0.622481 0.609225 0.039455
O O8 0.472823 0.648878 0.203860
O O9 0.655777 0.471503 0.348153
O O10 0.710724 0.706533 0.348252
O O11 0.352801 0.317924 0.482173
O O12 0.382208 0.091595 0.068577
O O13 0.500000 0.000000 0.000000
O O14 0.706822 0.187236 0.503881
O O15 0.402828 0.173656 0.361545
O O16 0.983781 0.111530 0.582972
O O17 0.747144 0.958362 0.759091
#
# Coordination Sequence:
#
# PCOD8006020 Si02
#       8
#     2   2   2   2   2   2   2   2
#     4  12  25  41  69 100 132 172 223 271 332 394
#     4  10  20  39  64  95 127 164 217 271 327 380
#     4  11  26  46  65  92 139 178 219 272 331 394
#     4  12  25  44  65  99 133 176 222 271 329 393
#     4  10  23  41  67  97 131 169 220 276 326 390
#     4  10  23  42  67  98 127 171 225 270 331 390
#     4  10  20  39  67  90 130 169 210 275 328 380
#     4  11  26  46  64  95 136 179 219 269 334 400
#
# _framework density 20.584413000000001
#
# number of rings (size 3 to 8) (size 9 to 14) (size 15 to 20)
#    0.000    1.250    5.000    0.000    5.250    2.000 
#    2.250    1.875    0.000    0.000    0.000    0.000 
#    0.000    0.000    0.000    0.000    0.000    0.000 
#
# Total GULP energy -198241.773456 kJ/mol
# GULP energy per Si atom -12390.110841 kJ/mol
# Density = 2.053756 g / cm^3
# Si number density = 20.584413 Si / 1000 Ang^3
#
#
#
# Elastic Constant Matrix: (Units=GPa)
#
#
# Indices 1 2 3 4 5 6 
#
# 1 67.3068 34.0288 30.3827 -0.8173 7.9495 -3.1595
# 2 34.0288 92.6280 39.8731 2.6753 10.6229 -18.7782
# 3 30.3827 39.8731 121.3318 -5.0782 10.2360 -7.4931
# 4 -0.8173 2.6753 -5.0782 27.9362 -0.8949 2.7350
# 5 7.9495 10.6229 10.2360 -0.8949 38.0051 -1.0217
# 6 -3.1595 -18.7782 -7.4931 2.7350 -1.0217 45.5079
#
#
#
# Elastic Compliance Matrix: (Units=1/GPa)
#
#
# Indices 1 2 3 4 5 6 
#
# 1 0.019303 -0.006080 -0.002773 0.000758 -0.001619 -0.001707
# 2 -0.006080 0.015954 -0.003302 -0.002939 -0.002213 0.005744
# 3 -0.002773 -0.003302 0.010207 0.002055 -0.001198 -0.000025
# 4 0.000758 -0.002939 0.002055 0.036797 0.000895 -0.003013
# 5 -0.001619 -0.002213 -0.001198 0.000895 0.027596 -0.000657
# 6 -0.001707 0.005744 -0.000025 -0.003013 -0.000657 0.024388
#
#
# Mechanical properties :
#
#
# Convention : Reuss Voigt Hill
#
# Bulk Modulus (GPa) = 47.27113 54.42620 50.84866
# Shear Modulus (GPa) = 30.19207 34.08864 32.14035
#
# Velocity S-wave (km/s) = 3.83396 4.07386 3.95573
# Velocity P-wave (km/s) = 6.52790 6.97326 6.75425
#
# Compressibility (1/GPa) = 0.02115456
#
# Stress axis : x y z
#
# Youngs Moduli (GPa) = 51.80466 62.67941 97.97320
#
# Poissons Ratio (x) = 0.38110 0.27165
# Poissons Ratio (y) = 0.31498 0.32351
# Poissons Ratio (z) = 0.14364 0.20697
#
# Static dielectric constant tensor:
#      x y z
#    x 2.559760 1.844080 -1.525380 
#    y 1.844080 0.804700 2.351700 
#    z -1.525380 2.351700 2.007830 
# 
# 
# High freq. dielectric constant tensor:
#      x y z
#    x 1.809470 -0.007570 0.006360 
#    y -0.007570 1.796360 0.009450 
#    z 0.006360 0.009450 1.816640 
# 
# From -- ./inp_files/187546.got.cif
#   From: 2010.06.25/outbox.cif.g09.slc.cpg/sg2_94_cif.got.tgz:187546.got - 2010.06.27 13:26:56.
