data_PCOD8006599
_publ_section_title
;
Structure prediction by ZEFSAII (Michael W. Deem and Ramdas Pophale) SiO2 
 PCOD8006599
Probable space group: P -1
;
_chemical_formula_sum "Si O2"
_cell_formula_units_Z 16
_cell_length_a 21.201545
_cell_length_b 17.645679
_cell_length_c 9.752140
_cell_angle_alpha 122.922749
_cell_angle_beta 45.143320
_cell_angle_gamma 159.300545
_cell_volume 809.726455
_symmetry_space_group_name_H-M "P -1"
_symmetry_group_IT_number 2
_symmetry_cell_setting 'triclinic'
loop_
_space_group_symop_operation_xyz
x,y,z
-x,-y,-z
loop_
_atom_site_type_symbol
_atom_site_label
_atom_site_fract_x
_atom_site_fract_y
_atom_site_fract_z
Si Si1 0.321868 0.360764 0.754157
Si Si2 0.383560 0.791781 0.133577
Si Si3 0.489526 0.712897 0.196826
Si Si4 0.195107 0.080589 0.857032
Si Si5 0.060366 0.829655 0.561080
Si Si6 0.351782 0.773200 0.478008
Si Si7 0.565291 0.773840 0.841299
Si Si8 0.844079 0.278310 0.773538
O O1 0.500000 0.500000 0.500000
O O2 0.328409 0.290985 0.792220
O O3 0.409660 0.537990 0.850775
O O4 0.046200 0.113686 0.886973
O O5 0.289374 0.707751 0.348811
O O6 0.208086 0.683558 0.201641
O O7 0.396587 0.698694 0.976981
O O8 0.649039 0.084507 0.001608
O O9 0.618090 0.774403 0.173098
O O10 0.490433 0.815177 0.357352
O O11 0.220265 0.425352 0.294002
O O12 0.643400 0.861377 0.966207
O O13 0.129572 0.942654 0.709075
O O14 0.139680 0.799218 0.416960
O O15 0.202182 0.014167 0.402680
O O16 0.096709 0.536123 0.712869
O O17 0.500000 0.000000 0.500000
#
# Coordination Sequence:
#
# PCOD8006599 Si02
#       8
#     2   2   2   2   2   2   2   2
#     4  11  23  42  63  91 119 151 202 249 298 358
#     4   9  19  35  57  84 113 157 198 228 290 349
#     4  10  23  41  59  91 122 156 198 241 300 357
#     4  11  24  40  65  90 117 157 199 244 303 353
#     4  10  20  40  64  86 124 159 192 250 292 348
#     4  10  21  34  54  85 122 150 190 242 284 342
#     4  10  20  40  62  83 126 159 193 253 297 344
#     4   9  19  35  58  85 113 157 197 229 289 348
#
# _framework density 19.75976
#
# number of rings (size 3 to 8) (size 9 to 14) (size 15 to 20)
#    0.000    2.000    2.500    0.375    1.750    3.000 
#    0.000    1.250    0.000    0.000    0.000    0.000 
#    0.000    0.000    0.000    0.000    0.000    0.000 
#
# Total GULP energy -198301.311793 kJ/mol
# GULP energy per Si atom -12393.831987 kJ/mol
# Density = 1.971479 g / cm^3
# Si number density = 19.759760 Si / 1000 Ang^3
#
#
#
# Elastic Constant Matrix: (Units=GPa)
#
#
# Indices 1 2 3 4 5 6 
#
# 1 146.9209 48.3231 39.9639 -3.7039 -13.7206 -4.5180
# 2 48.3231 83.3796 27.0272 -3.0063 -8.4792 -16.4999
# 3 39.9639 27.0272 98.9134 -18.8429 -1.6515 5.1507
# 4 -3.7039 -3.0063 -18.8429 21.8110 -6.0516 -0.9980
# 5 -13.7206 -8.4792 -1.6515 -6.0516 22.3590 1.3147
# 6 -4.5180 -16.4999 5.1507 -0.9980 1.3147 33.6993
#
#
#
# Elastic Compliance Matrix: (Units=1/GPa)
#
#
# Indices 1 2 3 4 5 6 
#
# 1 0.009228 -0.004280 -0.002486 -0.000129 0.003858 -0.000633
# 2 -0.004280 0.017604 -0.003464 0.000009 0.003300 0.008446
# 3 -0.002486 -0.003464 0.014581 0.011991 0.001717 -0.003970
# 4 -0.000129 0.000009 0.011991 0.060970 0.017354 -0.000717
# 5 0.003858 0.003300 0.001717 0.017354 0.053149 0.000311
# 6 -0.000633 0.008446 -0.003970 -0.000717 0.000311 0.034298
#
#
# Mechanical properties :
#
#
# Convention : Reuss Voigt Hill
#
# Bulk Modulus (GPa) = 47.72674 62.20468 54.96571
# Shear Modulus (GPa) = 23.01251 29.83384 26.42318
#
# Velocity S-wave (km/s) = 3.41635 3.88987 3.66077
# Velocity P-wave (km/s) = 6.30618 7.19191 6.76356
#
# Compressibility (1/GPa) = 0.02095261
#
# Stress axis : x y z
#
# Youngs Moduli (GPa) = 108.36753 56.80592 68.58445
#
# Poissons Ratio (x) = 0.24311 0.17051
# Poissons Ratio (y) = 0.46377 0.23758
# Poissons Ratio (z) = 0.26942 0.19678
#
# Static dielectric constant tensor:
#      x y z
#    x 3.231660 -0.297920 -0.349420 
#    y -0.297920 3.584670 0.014300 
#    z -0.349420 0.014300 3.832570 
# 
# 
# High freq. dielectric constant tensor:
#      x y z
#    x 1.764390 -0.032980 -0.007320 
#    y -0.032980 1.757860 -0.015850 
#    z -0.007320 -0.015850 1.785010 
# 
# From -- ./inp_files/348514.got.cif
#   From: 2010.06.25/outbox.cif.g09.slc.cpg/sg2_175_cif.got.tgz:348514.got - 2010.06.27 13:26:56.
