data_PCOD8006214
_publ_section_title
;
Structure prediction by ZEFSAII (Michael W. Deem and Ramdas Pophale) SiO2 
 PCOD8006214
Probable space group: P -1
;
_chemical_formula_sum "Si O2"
_cell_formula_units_Z 14
_cell_length_a 14.195545
_cell_length_b 9.816994
_cell_length_c 7.046468
_cell_angle_alpha 131.968430
_cell_angle_beta 78.880271
_cell_angle_gamma 128.269866
_cell_volume 530.415234
_symmetry_space_group_name_H-M "P -1"
_symmetry_group_IT_number 2
_symmetry_cell_setting 'triclinic'
loop_
_space_group_symop_operation_xyz
x,y,z
-x,-y,-z
loop_
_atom_site_type_symbol
_atom_site_label
_atom_site_fract_x
_atom_site_fract_y
_atom_site_fract_z
Si Si1 0.343696 0.898499 0.647910
Si Si2 0.530505 0.841651 0.549400
Si Si3 0.033673 0.370157 0.699183
Si Si4 0.242556 0.086695 0.465600
Si Si5 0.118898 0.142838 0.236629
Si Si6 0.079439 0.415873 0.140415
Si Si7 0.673508 0.715200 0.980727
O O1 0.436157 0.876216 0.714308
O O2 0.203792 0.625710 0.412835
O O3 0.419165 0.015606 0.533646
O O4 0.328818 0.080535 0.915718
O O5 0.663779 0.948662 0.704016
O O6 0.452617 0.553545 0.285669
O O7 0.079569 0.300565 0.446758
O O8 0.038082 0.582840 0.811775
O O9 0.116276 0.435866 0.920461
O O10 0.881704 0.161091 0.616589
O O11 0.205113 0.187396 0.420427
O O12 0.321335 0.282223 0.789916
O O13 0.201189 0.232522 0.096689
O O14 0.985859 0.853096 0.998135
#
# Coordination Sequence:
#
# PCOD8006214 Si02
#       7
#     2   2   2   2   2   2   2
#     4  10  21  40  66  96 123 169 217 258 319 369
#     4  10  22  40  67  91 125 172 215 257 315 373
#     4  10  21  40  64  97 125 168 213 256 323 374
#     4  10  20  44  64  90 128 162 218 257 303 383
#     4  11  26  40  66  98 130 167 208 258 329 374
#     4  10  20  39  66  93 130 164 213 265 310 381
#     4  11  24  43  62  99 131 164 214 259 311 390
#
# _framework density 26.394417000000001
#
# number of rings (size 3 to 8) (size 9 to 14) (size 15 to 20)
#    0.000    1.714    2.857    3.429    4.000    2.857 
#    0.000    0.714    0.000    0.000    0.000    0.000 
#    0.000    0.000    0.000    0.000    0.000    0.000 
#
# Total GULP energy -173453.180536 kJ/mol
# GULP energy per Si atom -12389.512895 kJ/mol
# Density = 2.633434 g / cm^3
# Si number density = 26.394417 Si / 1000 Ang^3
#
#
#
# Elastic Constant Matrix: (Units=GPa)
#
#
# Indices 1 2 3 4 5 6 
#
# 1 154.3223 33.5960 67.6281 -12.5399 -36.4695 43.6122
# 2 33.5960 87.8081 41.9845 6.1525 -26.8477 21.2177
# 3 67.6281 41.9845 106.3727 3.9750 -61.3030 16.2534
# 4 -12.5399 6.1525 3.9750 36.8599 2.3786 -2.9767
# 5 -36.4695 -26.8477 -61.3030 2.3786 65.9406 -9.9617
# 6 43.6122 21.2177 16.2534 -2.9767 -9.9617 31.1720
#
#
#
# Elastic Compliance Matrix: (Units=1/GPa)
#
#
# Indices 1 2 3 4 5 6 
#
# 1 0.014760 0.001865 -0.008781 0.004370 -0.002054 -0.017581
# 2 0.001865 0.016332 -0.005049 -0.002518 0.001435 -0.010875
# 3 -0.008781 -0.005049 0.027709 -0.005855 0.020140 0.007151
# 4 0.004370 -0.002518 -0.005855 0.029990 -0.005153 -0.000130
# 5 -0.002054 0.001435 0.020140 -0.005153 0.033779 0.001699
# 6 -0.017581 -0.010875 0.007151 -0.000130 0.001699 0.060881
#
#
# Mechanical properties :
#
#
# Convention : Reuss Voigt Hill
#
# Bulk Modulus (GPa) = 28.67713 70.54671 49.61192
# Shear Modulus (GPa) = 22.83058 40.48080 31.65569
#
# Velocity S-wave (km/s) = 2.94424 3.92048 3.46690
# Velocity P-wave (km/s) = 4.73777 6.87601 5.90449
#
# Compressibility (1/GPa) = 0.03487099
#
# Stress axis : x y z
#
# Youngs Moduli (GPa) = 67.75118 61.22904 36.08945
#
# Poissons Ratio (x) = -0.11420 0.31690
# Poissons Ratio (y) = -0.12636 0.18222
# Poissons Ratio (z) = 0.59492 0.30915
#
# Static dielectric constant tensor:
#      x y z
#    x 5.829840 0.234190 -0.292570 
#    y 0.234190 4.763060 0.060370 
#    z -0.292570 0.060370 4.779590 
# 
# 
# High freq. dielectric constant tensor:
#      x y z
#    x 2.092310 0.003630 -0.009900 
#    y 0.003630 2.041220 0.012310 
#    z -0.009900 0.012310 2.038870 
# 
# From -- ./inp_files/306980.got.cif
#   From: 2010.06.25/outbox.cif.g09.slc.cpg/sg2_154_cif.got.tgz:306980.got - 2010.06.27 13:26:56.
