data_PCOD8006705
_publ_section_title
;
Structure prediction by ZEFSAII (Michael W. Deem and Ramdas Pophale) SiO2 
 PCOD8006705
Probable space group: P -1
;
_chemical_formula_sum "Si O2"
_cell_formula_units_Z 14
_cell_length_a 24.814043
_cell_length_b 9.555039
_cell_length_c 15.669829
_cell_angle_alpha 142.085595
_cell_angle_beta 17.699316
_cell_angle_gamma 139.981375
_cell_volume 692.057231
_symmetry_space_group_name_H-M "P -1"
_symmetry_group_IT_number 2
_symmetry_cell_setting 'triclinic'
loop_
_space_group_symop_operation_xyz
x,y,z
-x,-y,-z
loop_
_atom_site_type_symbol
_atom_site_label
_atom_site_fract_x
_atom_site_fract_y
_atom_site_fract_z
Si Si1 0.015734 0.771238 0.104196
Si Si2 0.337411 0.355565 0.637218
Si Si3 0.664324 0.949789 0.670181
Si Si4 0.163404 0.945745 0.786196
Si Si5 0.876820 0.227760 0.876389
Si Si6 0.268918 0.207093 0.204519
Si Si7 0.356047 0.676181 0.238623
O O1 0.819620 0.860558 0.450648
O O2 0.131999 0.851303 0.049573
O O3 0.000000 0.500000 0.000000
O O4 0.110729 0.879850 0.929740
O O5 0.500000 0.500000 0.500000
O O6 0.389113 0.226788 0.410814
O O7 0.286274 0.181271 0.707832
O O8 0.180703 0.516763 0.927839
O O9 0.734214 0.192117 0.638554
O O10 0.500000 0.000000 0.000000
O O11 0.268890 0.739062 0.490769
O O12 0.000000 0.000000 0.000000
O O13 0.081273 0.239007 0.546089
O O14 0.744436 0.044878 0.938093
O O15 0.315227 0.404042 0.157507
O O16 0.432736 0.239056 0.039503
#
# Coordination Sequence:
#
# PCOD8006705 Si02
#       7
#     2   2   2   2   2   2   2
#     4  12  22  39  65  98 127 167 215 268 321 380
#     4  11  23  43  67  93 126 172 217 267 323 388
#     4  11  23  40  64  93 129 168 217 261 324 380
#     4  11  20  39  66  91 120 170 216 256 314 393
#     4  11  22  40  64  93 129 165 213 262 326 374
#     4  10  22  39  64  92 128 168 209 263 321 383
#     4  10  20  40  63  89 123 170 215 252 316 387
#
# _framework density 20.229541999999999
#
# number of rings (size 3 to 8) (size 9 to 14) (size 15 to 20)
#    0.000    1.143    4.286    4.286    0.000    2.286 
#    2.571    2.143    0.000    0.000    0.000    0.000 
#    0.000    0.000    0.000    0.000    0.000    0.000 
#
# Total GULP energy -173528.271175 kJ/mol
# GULP energy per Si atom -12394.876513 kJ/mol
# Density = 2.018350 g / cm^3
# Si number density = 20.229542 Si / 1000 Ang^3
#
#
#
# Elastic Constant Matrix: (Units=GPa)
#
#
# Indices 1 2 3 4 5 6 
#
# 1 77.2056 34.2600 22.1755 -3.6305 8.6841 -20.0780
# 2 34.2600 126.5394 35.9709 0.5256 8.0080 -11.3828
# 3 22.1755 35.9709 110.8945 4.2412 10.1449 -9.0726
# 4 -3.6305 0.5256 4.2412 36.8779 -3.1801 -8.3538
# 5 8.6841 8.0080 10.1449 -3.1801 33.3771 -1.1736
# 6 -20.0780 -11.3828 -9.0726 -8.3538 -1.1736 32.3439
#
#
#
# Elastic Compliance Matrix: (Units=1/GPa)
#
#
# Indices 1 2 3 4 5 6 
#
# 1 0.018161 -0.003358 -0.001590 0.004198 -0.002663 0.010634
# 2 -0.003358 0.009567 -0.002315 -0.000132 -0.000711 0.000573
# 3 -0.001590 -0.002315 0.010405 -0.001364 -0.002299 0.000681
# 4 0.004198 -0.000132 -0.001364 0.030192 0.002585 0.010069
# 5 -0.002663 -0.000711 -0.002299 0.002585 0.031744 -0.000729
# 6 0.010634 0.000573 0.000681 0.010069 -0.000729 0.040486
#
#
# Mechanical properties :
#
#
# Convention : Reuss Voigt Hill
#
# Bulk Modulus (GPa) = 42.35710 55.49470 48.92590
# Shear Modulus (GPa) = 30.68459 35.33529 33.00994
#
# Velocity S-wave (km/s) = 3.89886 4.18391 4.04390
# Velocity P-wave (km/s) = 6.42276 7.12967 6.78543
#
# Compressibility (1/GPa) = 0.02360880
#
# Stress axis : x y z
#
# Youngs Moduli (GPa) = 55.06209 104.52756 96.11152
#
# Poissons Ratio (x) = 0.35096 0.15278
# Poissons Ratio (y) = 0.18488 0.22248
# Poissons Ratio (z) = 0.08752 0.24196
#
# Static dielectric constant tensor:
#      x y z
#    x 0.977200 2.777000 -0.932290 
#    y 2.777000 0.581540 1.125950 
#    z -0.932290 1.125950 3.744260 
# 
# 
# High freq. dielectric constant tensor:
#      x y z
#    x 1.770500 -0.017960 -0.011510 
#    y -0.017960 1.799720 0.011180 
#    z -0.011510 0.011180 1.805050 
# 
# From -- ./inp_files/174908.got.cif
#   From: 2010.06.25/outbox.cif.g09.slc.cpg/sg2_88_cif.got.tgz:174908.got - 2010.06.27 13:26:56.
