data_PCOD8006677
_publ_section_title
;
Structure prediction by ZEFSAII (Michael W. Deem and Ramdas Pophale) SiO2 
 PCOD8006677
Probable space group: P -1
;
_chemical_formula_sum "Si O2"
_cell_formula_units_Z 16
_cell_length_a 15.716326
_cell_length_b 15.343696
_cell_length_c 11.853622
_cell_angle_alpha 134.130123
_cell_angle_beta 152.536023
_cell_angle_gamma 38.051077
_cell_volume 812.519921
_symmetry_space_group_name_H-M "P -1"
_symmetry_group_IT_number 2
_symmetry_cell_setting 'triclinic'
loop_
_space_group_symop_operation_xyz
x,y,z
-x,-y,-z
loop_
_atom_site_type_symbol
_atom_site_label
_atom_site_fract_x
_atom_site_fract_y
_atom_site_fract_z
Si Si1 0.755862 0.183723 0.158313
Si Si2 0.399996 0.480447 0.018417
Si Si3 0.521337 0.683632 0.244255
Si Si4 0.764245 0.973290 0.364282
Si Si5 0.655660 0.982082 0.997105
Si Si6 0.748541 0.709946 0.737743
Si Si7 0.232511 0.526947 0.099917
Si Si8 0.539943 0.302210 0.424465
O O1 0.638301 0.346924 0.209854
O O2 0.665897 0.182154 0.925046
O O3 0.009364 0.119522 0.391622
O O4 0.700933 0.096941 0.102716
O O5 0.412084 0.620247 0.139426
O O6 0.237450 0.507614 0.953308
O O7 0.323958 0.437663 0.774875
O O8 0.654515 0.732966 0.520800
O O9 0.598449 0.945535 0.213205
O O10 0.689648 0.137688 0.425950
O O11 0.782795 0.923057 0.211426
O O12 0.737965 0.852932 0.891303
O O13 0.612824 0.668567 0.621959
O O14 0.993254 0.582851 0.912180
O O15 0.389082 0.376474 0.206117
O O16 0.304478 0.638204 0.315944
#
# Coordination Sequence:
#
# PCOD8006677 Si02
#       8
#     2   2   2   2   2   2   2   2
#     4  10  20  40  63  83 115 164 193 241 296 343
#     4   9  20  41  60  87 117 155 207 243 284 355
#     4   9  21  42  59  88 124 152 203 253 276 359
#     4  10  21  40  60  87 122 157 193 247 302 341
#     4  10  22  38  59  92 120 150 204 245 284 371
#     4  11  22  40  59  89 130 152 192 252 299 340
#     4  11  21  37  64  89 117 165 191 242 315 342
#     4  10  22  38  58  93 124 148 205 246 285 374
#
# _framework density 19.691825000000001
#
# number of rings (size 3 to 8) (size 9 to 14) (size 15 to 20)
#    0.750    1.250    1.250    2.250    0.000    3.000 
#   11.250    2.500    0.000    0.000    0.000    0.000 
#    0.000    0.000    0.000    0.000    0.000    0.000 
#
# Total GULP energy -198354.298191 kJ/mol
# GULP energy per Si atom -12397.143637 kJ/mol
# Density = 1.964701 g / cm^3
# Si number density = 19.691825 Si / 1000 Ang^3
#
#
#
# Elastic Constant Matrix: (Units=GPa)
#
#
# Indices 1 2 3 4 5 6 
#
# 1 79.4625 13.8064 28.5557 -6.1283 -10.4568 -10.0316
# 2 13.8064 38.7186 19.6937 -9.2227 1.4487 -13.0941
# 3 28.5557 19.6937 95.4753 -13.1625 -7.4450 -12.9349
# 4 -6.1283 -9.2227 -13.1625 23.5183 -5.5774 -4.0820
# 5 -10.4568 1.4487 -7.4450 -5.5774 28.9141 6.4488
# 6 -10.0316 -13.0941 -12.9349 -4.0820 6.4488 25.6928
#
#
#
# Elastic Compliance Matrix: (Units=1/GPa)
#
#
# Indices 1 2 3 4 5 6 
#
# 1 0.015263 -0.002662 -0.002915 0.002880 0.004933 0.002354
# 2 -0.002662 0.039352 -0.002660 0.015708 -0.005390 0.021526
# 3 -0.002915 -0.002660 0.013826 0.007496 0.002990 0.004907
# 4 0.002880 0.015708 0.007496 0.059272 0.009152 0.020024
# 5 0.004933 -0.005390 0.002990 0.009152 0.040993 -0.008150
# 6 0.002354 0.021526 0.004907 0.020024 -0.008150 0.058509
#
#
# Mechanical properties :
#
#
# Convention : Reuss Voigt Hill
#
# Bulk Modulus (GPa) = 19.24264 37.52978 28.38621
# Shear Modulus (GPa) = 19.15628 25.73174 22.44401
#
# Velocity S-wave (km/s) = 3.12236 3.61878 3.37970
# Velocity P-wave (km/s) = 4.77409 6.04655 5.44760
#
# Compressibility (1/GPa) = 0.05196791
#
# Stress axis : x y z
#
# Youngs Moduli (GPa) = 65.51688 25.41141 72.32791
#
# Poissons Ratio (x) = 0.06765 0.21085
# Poissons Ratio (y) = 0.17441 0.19236
# Poissons Ratio (z) = 0.19100 0.06758
#
# Static dielectric constant tensor:
#      x y z
#    x 3.614540 0.013100 -0.112260 
#    y 0.013100 3.412020 0.037460 
#    z -0.112260 0.037460 3.498610 
# 
# 
# High freq. dielectric constant tensor:
#      x y z
#    x 1.774180 0.002520 -0.005690 
#    y 0.002520 1.756570 0.006140 
#    z -0.005690 0.006140 1.756340 
# 
# From -- ./inp_files/455013.got.cif
#   From: 2010.06.25/outbox.cif.g09.slc.cpg/sg2_228_cif.got.tgz:455013.got - 2010.06.27 13:26:56.
