data_PCOD8006011
_publ_section_title
;
Structure prediction by ZEFSAII (Michael W. Deem and Ramdas Pophale) SiO2 
 PCOD8006011
Probable space group: P -1
;
_chemical_formula_sum "Si O2"
_cell_formula_units_Z 16
_cell_length_a 9.631366
_cell_length_b 16.474415
_cell_length_c 12.941799
_cell_angle_alpha 155.151789
_cell_angle_beta 120.992899
_cell_angle_gamma 60.483911
_cell_volume 737.870154
_symmetry_space_group_name_H-M "P -1"
_symmetry_group_IT_number 2
_symmetry_cell_setting 'triclinic'
loop_
_space_group_symop_operation_xyz
x,y,z
-x,-y,-z
loop_
_atom_site_type_symbol
_atom_site_label
_atom_site_fract_x
_atom_site_fract_y
_atom_site_fract_z
Si Si1 0.516578 0.485562 0.656602
Si Si2 0.906867 0.913842 0.188958
Si Si3 0.360625 0.125328 0.471542
Si Si4 0.171634 0.633944 0.054959
Si Si5 0.642132 0.169646 0.477712
Si Si6 0.241055 0.451700 0.356331
Si Si7 0.435435 0.707856 0.090891
Si Si8 0.016209 0.274110 0.520079
O O1 0.585137 0.268547 0.461937
O O2 0.340223 0.479945 0.531074
O O3 0.641123 0.573580 0.727036
O O4 0.498956 0.609640 0.897124
O O5 0.059991 0.831711 0.219479
O O6 0.757898 0.977538 0.281352
O O7 0.853607 0.743758 0.895994
O O8 0.943953 0.106186 0.364005
O O9 0.485935 0.103404 0.400737
O O10 0.413268 0.277161 0.754755
O O11 0.183318 0.191638 0.434924
O O12 0.349572 0.919351 0.283406
O O13 0.270088 0.669039 0.237087
O O14 0.297033 0.589059 0.955354
O O15 0.058642 0.454502 0.818585
O O16 0.114158 0.640510 0.515317
#
# Coordination Sequence:
#
# PCOD8006011 Si02
#       8
#     2   2   2   2   2   2   2   2
#     4  11  22  43  64  90 123 166 214 258 306 360
#     4  11  22  42  63  93 130 162 205 257 309 365
#     4  10  21  38  64  97 129 158 205 249 314 383
#     4  10  22  39  65  95 132 157 201 255 312 380
#     4  11  22  39  64  98 123 168 204 250 315 374
#     4  10  25  44  63  88 124 166 216 263 296 360
#     4  10  20  39  64  93 128 165 199 257 310 371
#     4  11  21  42  64  89 128 167 200 258 313 358
#
# _framework density 21.684031999999998
#
# number of rings (size 3 to 8) (size 9 to 14) (size 15 to 20)
#    0.000    1.500    2.500    2.625    0.000    3.000 
#    9.000    6.250    0.000    0.000    0.000    0.000 
#    0.000    0.000    0.000    0.000    0.000    0.000 
#
# Total GULP energy -198414.098835 kJ/mol
# GULP energy per Si atom -12400.881177 kJ/mol
# Density = 2.163468 g / cm^3
# Si number density = 21.684032 Si / 1000 Ang^3
#
#
#
# Elastic Constant Matrix: (Units=GPa)
#
#
# Indices 1 2 3 4 5 6 
#
# 1 108.6085 50.1299 36.9679 -0.1887 -4.3964 -17.3677
# 2 50.1299 113.9901 32.5063 4.0309 13.1101 -13.4833
# 3 36.9679 32.5063 63.2831 14.3705 10.5141 7.6267
# 4 -0.1887 4.0309 14.3705 28.0961 6.0893 4.0358
# 5 -4.3964 13.1101 10.5141 6.0893 39.3050 2.3624
# 6 -17.3677 -13.4833 7.6267 4.0358 2.3624 35.0303
#
#
#
# Elastic Compliance Matrix: (Units=1/GPa)
#
#
# Indices 1 2 3 4 5 6 
#
# 1 0.015725 -0.003907 -0.009673 0.003503 0.004645 0.007682
# 2 -0.003907 0.012567 -0.004140 0.000548 -0.003846 0.003998
# 3 -0.009673 -0.004140 0.028269 -0.011310 -0.004855 -0.010913
# 4 0.003503 0.000548 -0.011310 0.042061 -0.003269 -0.000215
# 5 0.004645 -0.003846 -0.004855 -0.003269 0.029032 0.000298
# 6 0.007682 0.003998 -0.010913 -0.000215 0.000298 0.036275
#
#
# Mechanical properties :
#
#
# Convention : Reuss Voigt Hill
#
# Bulk Modulus (GPa) = 47.34230 58.34334 52.84282
# Shear Modulus (GPa) = 24.22354 31.57145 27.89749
#
# Velocity S-wave (km/s) = 3.34595 3.81987 3.59074
# Velocity P-wave (km/s) = 6.06691 6.81320 6.45086
#
# Compressibility (1/GPa) = 0.02112276
#
# Stress axis : x y z
#
# Youngs Moduli (GPa) = 63.59100 79.57086 35.37393
#
# Poissons Ratio (x) = 0.31087 0.34216
# Poissons Ratio (y) = 0.24844 0.14646
# Poissons Ratio (z) = 0.61509 0.32945
#
# Static dielectric constant tensor:
#      x y z
#    x 3.995470 -0.266900 0.077830 
#    y -0.266900 3.976800 0.276480 
#    z 0.077830 0.276480 3.696580 
# 
# 
# High freq. dielectric constant tensor:
#      x y z
#    x 1.860550 -0.019190 0.006850 
#    y -0.019190 1.851460 0.029360 
#    z 0.006850 0.029360 1.836970 
# 
# From -- ./inp_files/400126.got.cif
#   From: 2010.06.25/outbox.cif.g09.slc.cpg/sg2_201_cif.got.tgz:400126.got - 2010.06.27 13:26:56.
