data_PCOD8006742
_publ_section_title
;
Structure prediction by ZEFSAII (Michael W. Deem and Ramdas Pophale) SiO2 
 PCOD8006742
Probable space group: P -1
;
_chemical_formula_sum "Si O2"
_cell_formula_units_Z 16
_cell_length_a 15.259304
_cell_length_b 9.750988
_cell_length_c 14.022645
_cell_angle_alpha 116.232164
_cell_angle_beta 26.894531
_cell_angle_gamma 128.894851
_cell_volume 692.104722
_symmetry_space_group_name_H-M "P -1"
_symmetry_group_IT_number 2
_symmetry_cell_setting 'triclinic'
loop_
_space_group_symop_operation_xyz
x,y,z
-x,-y,-z
loop_
_atom_site_type_symbol
_atom_site_label
_atom_site_fract_x
_atom_site_fract_y
_atom_site_fract_z
Si Si1 0.379048 0.767538 0.189903
Si Si2 0.482896 0.819678 0.804406
Si Si3 0.227651 0.269827 0.145440
Si Si4 0.473330 0.389490 0.590287
Si Si5 0.017960 0.400129 0.862148
Si Si6 0.472187 0.441114 0.218298
Si Si7 0.147920 0.118315 0.689738
Si Si8 0.092128 0.430611 0.488933
O O1 0.244434 0.651475 0.382548
O O2 0.188432 0.657512 0.253090
O O3 0.450126 0.975254 0.187809
O O4 0.617449 0.775246 0.952850
O O5 0.543729 0.751394 0.821027
O O6 0.639138 0.807947 0.568683
O O7 0.203800 0.671191 0.012488
O O8 0.087040 0.313915 0.366632
O O9 0.399663 0.450803 0.969666
O O10 0.048219 0.101611 0.197339
O O11 0.500000 0.500000 0.500000
O O12 0.731820 0.437690 0.379668
O O13 0.392841 0.443960 0.780300
O O14 0.271530 0.172010 0.692224
O O15 0.017507 0.220647 0.833677
O O16 0.000000 0.500000 0.000000
O O17 0.206396 0.395121 0.457537
#
# Coordination Sequence:
#
# PCOD8006742 Si02
#       8
#     2   2   2   2   2   2   2   2
#     4  10  21  40  68  92 125 175 218 255 329 384
#     4  12  21  39  65 101 124 169 217 269 315 385
#     4  11  23  45  67  94 134 174 213 265 327 386
#     4  10  20  40  63  94 131 170 205 268 326 373
#     4  11  20  37  65  92 126 169 213 259 321 378
#     4  11  23  41  65  99 133 168 215 272 321 378
#     4  11  21  40  69  92 131 174 212 261 327 384
#     4  10  23  45  66  90 137 176 209 268 329 377
#
# _framework density 23.117889000000002
#
# number of rings (size 3 to 8) (size 9 to 14) (size 15 to 20)
#    0.000    1.250    6.250    2.250    0.000    1.000 
#    9.000    2.500    0.000    4.500    0.000    0.000 
#    0.000    0.000    0.000    0.000    0.000    0.000 
#
# Total GULP energy -198216.348551 kJ/mol
# GULP energy per Si atom -12388.521784 kJ/mol
# Density = 2.306527 g / cm^3
# Si number density = 23.117889 Si / 1000 Ang^3
#
#
#
# Elastic Constant Matrix: (Units=GPa)
#
#
# Indices 1 2 3 4 5 6 
#
# 1 104.2361 47.6481 17.7304 -6.8682 -28.5698 -8.3455
# 2 47.6481 138.3142 19.3465 -0.1483 -19.5382 -6.3079
# 3 17.7304 19.3465 69.8079 1.6711 -29.6333 -6.8247
# 4 -6.8682 -0.1483 1.6711 27.5341 14.4195 -12.5086
# 5 -28.5698 -19.5382 -29.6333 14.4195 42.7919 3.6432
# 6 -8.3455 -6.3079 -6.8247 -12.5086 3.6432 35.8252
#
#
#
# Elastic Compliance Matrix: (Units=1/GPa)
#
#
# Indices 1 2 3 4 5 6 
#
# 1 0.013345 -0.003550 0.001157 -0.000080 0.007958 0.001867
# 2 -0.003550 0.008794 -0.000779 -0.001805 0.001734 -0.000233
# 3 0.001157 -0.000779 0.023376 -0.013277 0.021267 -0.002213
# 4 -0.000080 -0.001805 -0.013277 0.065722 -0.034224 0.023562
# 5 0.007958 0.001734 0.021267 -0.034224 0.056713 -0.011506
# 6 0.001867 -0.000233 -0.002213 0.023562 -0.011506 0.037282
#
#
# Mechanical properties :
#
#
# Convention : Reuss Voigt Hill
#
# Bulk Modulus (GPa) = 25.52897 53.53425 39.53161
# Shear Modulus (GPa) = 22.25844 36.40579 29.33211
#
# Velocity S-wave (km/s) = 3.10631 3.97267 3.56589
# Velocity P-wave (km/s) = 4.89208 6.65208 5.83877
#
# Compressibility (1/GPa) = 0.03917118
#
# Stress axis : x y z
#
# Youngs Moduli (GPa) = 74.93501 113.71243 42.77801
#
# Poissons Ratio (x) = 0.40366 -0.04949
# Poissons Ratio (y) = 0.26601 0.03334
# Poissons Ratio (z) = -0.08670 0.08861
#
# Static dielectric constant tensor:
#      x y z
#    x 4.329560 0.222380 -0.607650 
#    y 0.222380 4.395100 0.022570 
#    z -0.607650 0.022570 4.500620 
# 
# 
# High freq. dielectric constant tensor:
#      x y z
#    x 1.906940 0.015730 -0.030810 
#    y 0.015730 1.908030 0.015990 
#    z -0.030810 0.015990 1.917320 
# 
# From -- ./inp_files/529968.got.cif
#   From: 2010.06.25/outbox.cif.g09.slc.cpg/sg2_265_cif.got.tgz:529968.got - 2010.06.27 13:26:56.
