data_PCOD8006971
_publ_section_title
;
Structure prediction by ZEFSAII (Michael W. Deem and Ramdas Pophale) SiO2 
 PCOD8006971
Probable space group: P -1
;
_chemical_formula_sum "Si O2"
_cell_formula_units_Z 12
_cell_length_a 9.694602
_cell_length_b 17.065978
_cell_length_c 12.325099
_cell_angle_alpha 27.714433
_cell_angle_beta 139.832765
_cell_angle_gamma 147.481924
_cell_volume 508.519997
_symmetry_space_group_name_H-M "P -1"
_symmetry_group_IT_number 2
_symmetry_cell_setting 'triclinic'
loop_
_space_group_symop_operation_xyz
x,y,z
-x,-y,-z
loop_
_atom_site_type_symbol
_atom_site_label
_atom_site_fract_x
_atom_site_fract_y
_atom_site_fract_z
Si Si1 0.964588 0.166341 0.853432
Si Si2 0.565367 0.785452 0.728927
Si Si3 0.820165 0.766306 0.322947
Si Si4 0.557579 0.140015 0.210737
Si Si5 0.754953 0.395676 0.820144
Si Si6 0.098826 0.387603 0.868213
O O1 0.177785 0.284963 0.741934
O O2 0.980677 0.328179 0.748164
O O3 0.685667 0.013808 0.821781
O O4 0.015437 0.013214 0.144036
O O5 0.508712 0.758676 0.856996
O O6 0.292549 0.630933 0.693338
O O7 0.672902 0.015590 0.477874
O O8 0.756067 0.722471 0.882449
O O9 0.909971 0.643067 0.599147
O O10 0.537895 0.696064 0.278753
O O11 0.769549 0.326721 0.034697
O O12 0.869280 0.309110 0.912153
#
# Coordination Sequence:
#
# PCOD8006971 Si02
#       6
#     2   2   2   2   2   2
#     4  10  20  40  66  86 112 157 202 235 282 356
#     4  10  23  42  60  84 120 160 195 233 293 359
#     4   9  19  36  60  88 117 152 196 239 287 348
#     4  10  22  42  64  83 115 162 200 231 286 361
#     4  10  21  36  58  90 120 149 193 248 292 334
#     4  11  23  38  60  91 120 147 194 252 294 332
#
# _framework density 23.597892000000002
#
# number of rings (size 3 to 8) (size 9 to 14) (size 15 to 20)
#    0.000    2.000    0.000    4.000    0.000    8.000 
#    0.000    6.667    0.000    0.000    0.000    0.000 
#    0.000    0.000    0.000    0.000    0.000    0.000 
#
# Total GULP energy -148718.226429 kJ/mol
# GULP energy per Si atom -12393.185536 kJ/mol
# Density = 2.354418 g / cm^3
# Si number density = 23.597892 Si / 1000 Ang^3
#
#
#
# Elastic Constant Matrix: (Units=GPa)
#
#
# Indices 1 2 3 4 5 6 
#
# 1 193.5274 33.1343 69.4824 -12.1076 -3.0523 -9.6653
# 2 33.1343 80.0341 3.9903 -25.0850 -10.3042 -24.2881
# 3 69.4824 3.9903 157.6938 -11.0340 -24.0724 -11.7914
# 4 -12.1076 -25.0850 -11.0340 20.1746 0.8305 0.4729
# 5 -3.0523 -10.3042 -24.0724 0.8305 34.2032 5.4192
# 6 -9.6653 -24.2881 -11.7914 0.4729 5.4192 29.7206
#
#
#
# Elastic Compliance Matrix: (Units=1/GPa)
#
#
# Indices 1 2 3 4 5 6 
#
# 1 0.007072 -0.005605 -0.004046 -0.004728 -0.003281 -0.003213
# 2 -0.005605 0.043639 0.009723 0.054883 0.012689 0.034510
# 3 -0.004046 0.009723 0.010904 0.015064 0.008422 0.009181
# 4 -0.004728 0.054883 0.015064 0.121482 0.016745 0.044304
# 5 -0.003281 0.012689 0.008422 0.016745 0.037408 0.005557
# 6 -0.003213 0.034510 0.009181 0.044304 0.005557 0.062728
#
#
# Mechanical properties :
#
#
# Convention : Reuss Voigt Hill
#
# Bulk Modulus (GPa) = 16.19194 71.60770 43.89982
# Shear Modulus (GPa) = 16.46497 38.46291 27.46394
#
# Velocity S-wave (km/s) = 2.64432 4.04162 3.41520
# Velocity P-wave (km/s) = 4.02489 7.22429 5.84766
#
# Compressibility (1/GPa) = 0.06175914
#
# Stress axis : x y z
#
# Youngs Moduli (GPa) = 141.41209 22.91525 91.70716
#
# Poissons Ratio (x) = 0.12844 0.37104
# Poissons Ratio (y) = 0.79264 -0.89169
# Poissons Ratio (z) = 0.57215 -0.22281
#
# Static dielectric constant tensor:
#      x y z
#    x 4.206540 -0.062550 -0.126280 
#    y -0.062550 4.189070 -0.083100 
#    z -0.126280 -0.083100 4.743900 
# 
# 
# High freq. dielectric constant tensor:
#      x y z
#    x 1.928700 0.005580 0.005680 
#    y 0.005580 1.927810 0.000960 
#    z 0.005680 0.000960 1.943690 
# 
# From -- ./inp_files/158147.got.cif
#   From: 2010.06.25/outbox.cif.g09.slc.cpg/sg2_80_cif.got.tgz:158147.got - 2010.06.27 13:26:56.
