data_PCOD8006552
_publ_section_title
;
Structure prediction by ZEFSAII (Michael W. Deem and Ramdas Pophale) SiO2 
 PCOD8006552
Probable space group: P -1
;
_chemical_formula_sum "Si O2"
_cell_formula_units_Z 16
_cell_length_a 15.521207
_cell_length_b 15.588760
_cell_length_c 8.574330
_cell_angle_alpha 61.386905
_cell_angle_beta 140.750246
_cell_angle_gamma 140.904720
_cell_volume 788.027225
_symmetry_space_group_name_H-M "P -1"
_symmetry_group_IT_number 2
_symmetry_cell_setting 'triclinic'
loop_
_space_group_symop_operation_xyz
x,y,z
-x,-y,-z
loop_
_atom_site_type_symbol
_atom_site_label
_atom_site_fract_x
_atom_site_fract_y
_atom_site_fract_z
Si Si1 0.607136 0.394863 0.331721
Si Si2 0.133953 0.954188 0.148003
Si Si3 0.051463 0.282115 0.418784
Si Si4 0.155698 0.780114 0.126234
Si Si5 0.854666 0.832398 0.134140
Si Si6 0.818870 0.354954 0.460438
Si Si7 0.666470 0.168131 0.124580
Si Si8 0.553930 0.203470 0.649242
O O1 0.737878 0.559946 0.381086
O O2 0.668269 0.360029 0.301006
O O3 0.645128 0.349779 0.578792
O O4 0.380256 0.308482 0.075409
O O5 0.202472 0.900600 0.185480
O O6 0.949015 0.832970 0.108495
O O7 0.317464 0.078330 0.408236
O O8 0.087053 0.022335 0.910737
O O9 0.060837 0.174257 0.584031
O O10 0.884109 0.246355 0.316750
O O11 0.012811 0.275984 0.185831
O O12 0.086626 0.657496 0.252919
O O13 0.352293 0.845670 0.254756
O O14 0.682948 0.211430 0.288656
O O15 0.000000 0.500000 0.500000
O O16 0.609002 0.232294 0.883884
O O17 0.500000 0.000000 0.000000
#
# Coordination Sequence:
#
# PCOD8006552 Si02
#       8
#     2   2   2   2   2   2   2   2
#     4  10  22  39  59  85 118 161 195 242 295 357
#     4  10  20  40  61  86 117 157 197 247 291 354
#     4  11  22  38  59  85 122 158 196 244 293 356
#     4  10  22  35  60  89 118 149 194 248 305 348
#     4  10  22  39  60  80 116 164 205 235 291 350
#     4  11  22  38  63  90 120 154 194 247 303 357
#     4  11  22  36  62  93 120 153 194 250 302 351
#     4   9  20  36  61  88 120 146 192 244 307 354
#
# _framework density 20.303864999999998
#
# number of rings (size 3 to 8) (size 9 to 14) (size 15 to 20)
#    0.000    1.750    1.250    3.000    1.750    7.000 
#    0.000    4.375    0.000    0.000    0.000    0.000 
#    0.000    0.000    0.000    0.000    0.000    0.000 
#
# Total GULP energy -198337.730689 kJ/mol
# GULP energy per Si atom -12396.108168 kJ/mol
# Density = 2.025765 g / cm^3
# Si number density = 20.303865 Si / 1000 Ang^3
#
#
#
# Elastic Constant Matrix: (Units=GPa)
#
#
# Indices 1 2 3 4 5 6 
#
# 1 61.5775 29.4768 38.3532 -3.0515 -5.5944 12.4940
# 2 29.4768 89.4608 44.4803 -3.8911 -4.7655 14.5390
# 3 38.3532 44.4803 123.6752 -24.8510 -9.9614 13.3554
# 4 -3.0515 -3.8911 -24.8510 39.9088 6.2021 2.6692
# 5 -5.5944 -4.7655 -9.9614 6.2021 29.5208 0.7075
# 6 12.4940 14.5390 13.3554 2.6692 0.7075 29.7348
#
#
#
# Elastic Compliance Matrix: (Units=1/GPa)
#
#
# Indices 1 2 3 4 5 6 
#
# 1 0.022535 -0.003967 -0.005211 -0.001943 0.002402 -0.005072
# 2 -0.003967 0.015057 -0.003945 -0.001141 0.000679 -0.003837
# 3 -0.005211 -0.003945 0.012932 0.007230 0.001277 -0.002369
# 4 -0.001943 -0.001141 0.007230 0.030278 -0.004366 -0.004487
# 5 0.002402 0.000679 0.001277 -0.004366 0.035845 -0.002376
# 6 -0.005072 -0.003837 -0.002369 -0.004487 -0.002376 0.039161
#
#
# Mechanical properties :
#
#
# Convention : Reuss Voigt Hill
#
# Bulk Modulus (GPa) = 41.18944 55.48155 48.33550
# Shear Modulus (GPa) = 26.29556 30.65975 28.47766
#
# Velocity S-wave (km/s) = 3.60266 3.89015 3.74916
# Velocity P-wave (km/s) = 6.13482 6.89656 6.52681
#
# Compressibility (1/GPa) = 0.02427806
#
# Stress axis : x y z
#
# Youngs Moduli (GPa) = 44.37528 66.41501 77.32711
#
# Poissons Ratio (x) = 0.26344 0.40295
# Poissons Ratio (y) = 0.17602 0.30508
# Poissons Ratio (z) = 0.23124 0.26203
#
# Static dielectric constant tensor:
#      x y z
#    x 3.688560 0.191430 -0.031120 
#    y 0.191430 3.654650 -0.303650 
#    z -0.031120 -0.303650 3.878420 
# 
# 
# High freq. dielectric constant tensor:
#      x y z
#    x 1.779610 0.018780 0.005340 
#    y 0.018780 1.791550 -0.018900 
#    z 0.005340 -0.018900 1.799330 
# 
# From -- ./inp_files/201973.got.cif
#   From: 2010.06.25/outbox.cif.g09.slc.cpg/sg2_101_cif.got.tgz:201973.got - 2010.06.27 13:26:56.
