data_PCOD8006925
_publ_section_title
;
Structure prediction by ZEFSAII (Michael W. Deem and Ramdas Pophale) SiO2 
 PCOD8006925
Probable space group: P -1
;
_chemical_formula_sum "Si O2"
_cell_formula_units_Z 16
_cell_length_a 11.974839
_cell_length_b 10.025314
_cell_length_c 9.531505
_cell_angle_alpha 86.706630
_cell_angle_beta 50.867165
_cell_angle_gamma 115.634826
_cell_volume 705.230411
_symmetry_space_group_name_H-M "P -1"
_symmetry_group_IT_number 2
_symmetry_cell_setting 'triclinic'
loop_
_space_group_symop_operation_xyz
x,y,z
-x,-y,-z
loop_
_atom_site_type_symbol
_atom_site_label
_atom_site_fract_x
_atom_site_fract_y
_atom_site_fract_z
Si Si1 0.307073 0.194499 0.096849
Si Si2 0.292450 0.222992 0.801400
Si Si3 0.445236 0.767145 0.617823
Si Si4 0.250767 0.858888 0.593893
Si Si5 0.037378 0.837789 0.017150
Si Si6 0.349595 0.652542 0.006103
Si Si7 0.832161 0.180857 0.809496
Si Si8 0.051261 0.284296 0.369803
O O1 0.131801 0.180460 0.288793
O O2 0.265530 0.013990 0.132977
O O3 0.378300 0.294256 0.883649
O O4 0.467508 0.303682 0.074837
O O5 0.436336 0.266175 0.567091
O O6 0.181471 0.283529 0.817018
O O7 0.132014 0.028512 0.978433
O O8 0.294249 0.737488 0.631172
O O9 0.562020 0.955001 0.577963
O O10 0.360804 0.648797 0.827699
O O11 0.150651 0.804588 0.527982
O O12 0.110216 0.850438 0.806068
O O13 0.092859 0.761427 0.094494
O O14 0.310493 0.777999 0.092782
O O15 0.184607 0.466721 0.189577
O O16 0.011409 0.291209 0.564039
#
# Coordination Sequence:
#
# PCOD8006925 Si02
#       8
#     2   2   2   2   2   2   2   2
#     4  11  24  43  68  93 125 167 220 262 304 375
#     4   9  19  35  64  95 120 157 206 271 308 356
#     4  10  22  38  66  97 123 165 211 266 309 372
#     4  10  20  40  65  93 125 162 218 258 309 374
#     4   9  17  37  62  93 123 150 215 265 305 359
#     4  12  26  44  60  96 137 165 205 265 324 374
#     4  11  24  42  69  93 119 174 219 259 306 377
#     4  12  26  43  64  93 133 172 204 261 325 377
#
# _framework density 22.687619000000002
#
# number of rings (size 3 to 8) (size 9 to 14) (size 15 to 20)
#    0.000    1.500    2.500    2.250    7.000    0.500 
#    0.000    0.625    0.000    0.000    0.000    0.000 
#    0.000    0.000    0.000    0.000    0.000    0.000 
#
# Total GULP energy -198322.607515 kJ/mol
# GULP energy per Si atom -12395.162970 kJ/mol
# Density = 2.263598 g / cm^3
# Si number density = 22.687619 Si / 1000 Ang^3
#
#
#
# Elastic Constant Matrix: (Units=GPa)
#
#
# Indices 1 2 3 4 5 6 
#
# 1 110.0604 15.8793 10.9730 -2.8617 -18.7846 0.9406
# 2 15.8793 26.1766 6.3820 2.4586 -3.8143 -6.2240
# 3 10.9730 6.3820 97.6766 5.9564 8.7013 -3.4637
# 4 -2.8617 2.4586 5.9564 27.7787 -2.1069 -1.9377
# 5 -18.7846 -3.8143 8.7013 -2.1069 38.8008 4.4301
# 6 0.9406 -6.2240 -3.4637 -1.9377 4.4301 16.8859
#
#
#
# Elastic Compliance Matrix: (Units=1/GPa)
#
#
# Indices 1 2 3 4 5 6 
#
# 1 0.011358 -0.006994 -0.001649 0.002250 0.005854 -0.004827
# 2 -0.006994 0.047124 -0.001421 -0.003429 -0.000588 0.017228
# 3 -0.001649 -0.001421 0.011106 -0.002539 -0.003859 0.002567
# 4 0.002250 -0.003429 -0.002539 0.037428 0.003177 0.001551
# 5 0.005854 -0.000588 -0.003859 0.003177 0.030615 -0.009002
# 6 -0.004827 0.017228 0.002567 0.001551 -0.009002 0.068906
#
#
# Mechanical properties :
#
#
# Convention : Reuss Voigt Hill
#
# Bulk Modulus (GPa) = 20.21822 33.37578 26.79700
# Shear Modulus (GPa) = 20.56332 30.07171 25.31752
#
# Velocity S-wave (km/s) = 3.01386 3.64465 3.34416
# Velocity P-wave (km/s) = 4.58716 5.69686 5.17186
#
# Compressibility (1/GPa) = 0.04946035
#
# Stress axis : x y z
#
# Youngs Moduli (GPa) = 88.04083 21.22065 90.04445
#
# Poissons Ratio (x) = 0.14842 0.14848
# Poissons Ratio (y) = 0.61577 0.12793
# Poissons Ratio (z) = 0.14517 0.03015
#
# Static dielectric constant tensor:
#      x y z
#    x 4.457530 0.049840 0.079400 
#    y 0.049840 3.733690 0.134480 
#    z 0.079400 0.134480 3.984160 
# 
# 
# High freq. dielectric constant tensor:
#      x y z
#    x 1.916090 -0.000070 0.001400 
#    y -0.000070 1.856810 0.016780 
#    z 0.001400 0.016780 1.897560 
# 
# From -- ./inp_files/262466.got.cif
#   From: 2010.06.25/outbox.cif.g09.slc.cpg/sg2_132_cif.got.tgz:262466.got - 2010.06.27 13:26:56.
