data_PCOD8006980
_publ_section_title
;
Structure prediction by ZEFSAII (Michael W. Deem and Ramdas Pophale) SiO2 
 PCOD8006980
Probable space group: P -1
;
_chemical_formula_sum "Si O2"
_cell_formula_units_Z 16
_cell_length_a 15.790986
_cell_length_b 11.935693
_cell_length_c 9.250755
_cell_angle_alpha 68.494539
_cell_angle_beta 76.629940
_cell_angle_gamma 135.543254
_cell_volume 743.097149
_symmetry_space_group_name_H-M "P -1"
_symmetry_group_IT_number 2
_symmetry_cell_setting 'triclinic'
loop_
_space_group_symop_operation_xyz
x,y,z
-x,-y,-z
loop_
_atom_site_type_symbol
_atom_site_label
_atom_site_fract_x
_atom_site_fract_y
_atom_site_fract_z
Si Si1 0.671377 0.405616 0.332416
Si Si2 0.710867 0.163236 0.751774
Si Si3 0.362739 0.684673 0.933522
Si Si4 0.183899 0.209019 0.736306
Si Si5 0.323940 0.895792 0.875039
Si Si6 0.908913 0.159655 0.004981
Si Si7 0.113758 0.229901 0.440597
Si Si8 0.978139 0.285274 0.602228
O O1 0.612047 0.346457 0.217043
O O2 0.667427 0.532050 0.353359
O O3 0.517575 0.139002 0.598903
O O4 0.873237 0.587747 0.164595
O O5 0.809468 0.414395 0.593131
O O6 0.864325 0.255638 0.592740
O O7 0.553207 0.967845 0.788118
O O8 0.635191 0.041533 0.999341
O O9 0.239743 0.658607 0.987519
O O10 0.289545 0.490772 0.158654
O O11 0.175836 0.251004 0.558343
O O12 0.215994 0.104083 0.759612
O O13 0.000000 0.000000 0.000000
O O14 0.177080 0.818330 0.915821
O O15 0.883112 0.121820 0.861711
O O16 0.976462 0.174325 0.543299
O O17 0.000000 0.000000 0.500000
#
# Coordination Sequence:
#
# PCOD8006980 Si02
#       8
#     2   2   2   2   2   2   2   2
#     4  11  23  42  63  94 135 173 210 270 322 387
#     4  10  22  41  67  98 128 169 214 270 331 380
#     4  12  25  40  64 100 133 166 216 271 329 384
#     4  10  20  40  66  88 129 176 216 261 317 392
#     4  11  23  41  67  94 126 168 219 272 319 386
#     4  10  22  41  68  94 122 176 223 258 324 387
#     4  12  23  40  67  97 128 172 218 264 328 386
#     4  10  20  40  69  96 129 167 218 269 321 395
#
# _framework density 21.531504999999999
#
# number of rings (size 3 to 8) (size 9 to 14) (size 15 to 20)
#    0.000    1.250    3.750    3.750    0.000    1.000 
#    4.500    0.625    0.000    0.000    0.000    0.000 
#    0.000    0.000    0.000    0.000    0.000    0.000 
#
# Total GULP energy -198297.697159 kJ/mol
# GULP energy per Si atom -12393.606072 kJ/mol
# Density = 2.148250 g / cm^3
# Si number density = 21.531505 Si / 1000 Ang^3
#
#
#
# Elastic Constant Matrix: (Units=GPa)
#
#
# Indices 1 2 3 4 5 6 
#
# 1 104.0392 50.9171 48.5490 -3.2385 15.3115 -16.1832
# 2 50.9171 130.5479 54.4169 13.3971 6.5369 -16.7681
# 3 48.5490 54.4169 108.4788 3.8323 23.0923 -5.4862
# 4 -3.2385 13.3971 3.8323 32.2590 1.3438 5.8912
# 5 15.3115 6.5369 23.0923 1.3438 35.5845 -3.3650
# 6 -16.1832 -16.7681 -5.4862 5.8912 -3.3650 26.0123
#
#
#
# Elastic Compliance Matrix: (Units=1/GPa)
#
#
# Indices 1 2 3 4 5 6 
#
# 1 0.014400 -0.003437 -0.004007 0.002546 -0.002589 0.004986
# 2 -0.003437 0.012316 -0.004759 -0.006235 0.003166 0.006619
# 3 -0.004007 -0.004759 0.014754 0.000780 -0.007344 -0.003575
# 4 0.002546 -0.006235 0.000780 0.035833 -0.002826 -0.010751
# 5 -0.002589 0.003166 -0.007344 -0.002826 0.033876 0.003904
# 6 0.004986 0.006619 -0.003575 -0.010751 0.003904 0.047998
#
#
# Mechanical properties :
#
#
# Convention : Reuss Voigt Hill
#
# Bulk Modulus (GPa) = 58.60511 72.31465 65.45988
# Shear Modulus (GPa) = 26.41752 31.38336 28.90044
#
# Velocity S-wave (km/s) = 3.50655 3.82194 3.66763
# Velocity P-wave (km/s) = 6.60847 7.28935 6.95725
#
# Compressibility (1/GPa) = 0.01706336
#
# Stress axis : x y z
#
# Youngs Moduli (GPa) = 69.44637 81.19769 67.78009
#
# Poissons Ratio (x) = 0.27910 0.27159
# Poissons Ratio (y) = 0.23870 0.32254
# Poissons Ratio (z) = 0.27826 0.38639
#
# Static dielectric constant tensor:
#      x y z
#    x 4.244070 -0.326770 0.195710 
#    y -0.326770 3.878020 -0.041390 
#    z 0.195710 -0.041390 4.045870 
# 
# 
# High freq. dielectric constant tensor:
#      x y z
#    x 1.842250 -0.017520 0.019610 
#    y -0.017520 1.830540 0.004910 
#    z 0.019610 0.004910 1.849660 
# 
# From -- ./inp_files/279604.got.cif
#   From: 2010.06.25/outbox.cif.g09.slc.cpg/sg2_140_cif.got.tgz:279604.got - 2010.06.27 13:26:56.
