data_PCOD8006032
_publ_section_title
;
Structure prediction by ZEFSAII (Michael W. Deem and Ramdas Pophale) SiO2 
 PCOD8006032
Probable space group: P -1
;
_chemical_formula_sum "Si O2"
_cell_formula_units_Z 14
_cell_length_a 6.083011
_cell_length_b 8.751571
_cell_length_c 17.285116
_cell_angle_alpha 58.497092
_cell_angle_beta 103.141493
_cell_angle_gamma 124.434527
_cell_volume 644.044950
_symmetry_space_group_name_H-M "P -1"
_symmetry_group_IT_number 2
_symmetry_cell_setting 'triclinic'
loop_
_space_group_symop_operation_xyz
x,y,z
-x,-y,-z
loop_
_atom_site_type_symbol
_atom_site_label
_atom_site_fract_x
_atom_site_fract_y
_atom_site_fract_z
Si Si1 0.571597 0.063278 0.737149
Si Si2 0.089505 0.413662 0.600235
Si Si3 0.849830 0.915567 0.393344
Si Si4 0.596068 0.837429 0.556751
Si Si5 0.265832 0.240841 0.125504
Si Si6 0.495899 0.283884 0.968037
Si Si7 0.684936 0.998262 0.113892
O O1 0.310205 0.989514 0.683604
O O2 0.548178 0.119264 0.809619
O O3 0.835841 0.274511 0.671804
O O4 0.582131 0.851490 0.792444
O O5 0.204097 0.278331 0.612687
O O6 0.332993 0.607856 0.616520
O O7 0.000000 0.500000 0.500000
O O8 0.724432 0.822796 0.491373
O O9 0.171940 0.087295 0.379439
O O10 0.500000 0.000000 0.500000
O O11 0.344697 0.467845 0.104938
O O12 0.301872 0.243871 0.034784
O O13 0.955158 0.080625 0.160868
O O14 0.332264 0.160419 0.911221
O O15 0.693007 0.201777 0.024088
#
# Coordination Sequence:
#
# PCOD8006032 Si02
#       7
#     2   2   2   2   2   2   2
#     4  11  24  40  61  93 137 170 210 275 324 382
#     4  12  23  43  68  89 126 171 223 269 330 383
#     4  11  23  42  65  92 123 167 219 275 326 387
#     4  11  23  41  68  94 116 163 226 271 325 391
#     4  10  20  40  64  94 131 168 209 262 321 380
#     4   9  20  38  68  94 122 170 216 253 314 398
#     4  10  20  39  64  96 129 167 213 261 320 379
#
# _framework density 21.737615000000002
#
# number of rings (size 3 to 8) (size 9 to 14) (size 15 to 20)
#    0.000    1.429    2.857    2.143    0.000    0.000 
#    0.000   14.286    0.000    0.000    0.000    0.000 
#    0.000    0.000    0.000    0.000    0.000    0.000 
#
# Total GULP energy -173601.971635 kJ/mol
# GULP energy per Si atom -12400.140831 kJ/mol
# Density = 2.168814 g / cm^3
# Si number density = 21.737615 Si / 1000 Ang^3
#
#
#
# Elastic Constant Matrix: (Units=GPa)
#
#
# Indices 1 2 3 4 5 6 
#
# 1 118.8365 75.1219 44.4249 -14.3668 11.4836 8.8998
# 2 75.1219 163.6641 55.8909 -23.4914 11.5242 4.7481
# 3 44.4249 55.8909 98.9109 -18.2789 8.1680 4.7000
# 4 -14.3668 -23.4914 -18.2789 10.9358 7.0462 1.7491
# 5 11.4836 11.5242 8.1680 7.0462 31.4091 4.3159
# 6 8.8998 4.7481 4.7000 1.7491 4.3159 42.2332
#
#
#
# Elastic Compliance Matrix: (Units=1/GPa)
#
#
# Indices 1 2 3 4 5 6 
#
# 1 0.013202 -0.003516 -0.001231 0.011645 -0.005531 -0.002167
# 2 -0.003516 0.012593 0.001174 0.031346 -0.010531 -0.001028
# 3 -0.001231 0.001174 0.019084 0.042262 -0.014108 -0.002305
# 4 0.011645 0.031346 0.042262 0.307364 -0.093802 -0.013825
# 5 -0.005531 -0.010531 -0.014108 -0.093802 0.062237 0.001444
# 6 -0.002167 -0.001028 -0.002305 -0.013825 0.001444 0.024932
#
#
# Mechanical properties :
#
#
# Convention : Reuss Voigt Hill
#
# Bulk Modulus (GPa) = 26.50111 81.36521 53.93316
# Shear Modulus (GPa) = 10.89001 30.64721 20.76861
#
# Velocity S-wave (km/s) = 2.24068 3.75890 3.09434
# Velocity P-wave (km/s) = 4.34879 7.50673 6.13445
#
# Compressibility (1/GPa) = 0.03773426
#
# Stress axis : x y z
#
# Youngs Moduli (GPa) = 75.74513 79.40748 52.39922
#
# Poissons Ratio (x) = 0.27916 0.06453
# Poissons Ratio (y) = 0.26628 -0.06153
# Poissons Ratio (z) = 0.09328 -0.09324
#
# Static dielectric constant tensor:
#      x y z
#    x 4.135420 -0.020370 -0.023820 
#    y -0.020370 3.929230 -0.028290 
#    z -0.023820 -0.028290 3.898480 
# 
# 
# High freq. dielectric constant tensor:
#      x y z
#    x 1.871960 -0.005820 -0.000590 
#    y -0.005820 1.842650 0.002430 
#    z -0.000590 0.002430 1.845710 
# 
# From -- ./inp_files/43927.got.cif
#   From: 2010.06.25/outbox.cif.g09.slc.cpg/sg2_22_cif.got.tgz:43927.got - 2010.06.27 13:26:56.
