data_PCOD8006744
_publ_section_title
;
Structure prediction by ZEFSAII (Michael W. Deem and Ramdas Pophale) SiO2 
 PCOD8006744
Probable space group: P -1
;
_chemical_formula_sum "Si O2"
_cell_formula_units_Z 16
_cell_length_a 12.576146
_cell_length_b 15.228545
_cell_length_c 21.878349
_cell_angle_alpha 153.724406
_cell_angle_beta 158.252859
_cell_angle_gamma 33.481677
_cell_volume 687.240930
_symmetry_space_group_name_H-M "P -1"
_symmetry_group_IT_number 2
_symmetry_cell_setting 'triclinic'
loop_
_space_group_symop_operation_xyz
x,y,z
-x,-y,-z
loop_
_atom_site_type_symbol
_atom_site_label
_atom_site_fract_x
_atom_site_fract_y
_atom_site_fract_z
Si Si1 0.342874 0.709596 0.279027
Si Si2 0.554440 0.845210 0.352013
Si Si3 0.249678 0.243451 0.293823
Si Si4 0.519310 0.050124 0.133342
Si Si5 0.311931 0.308333 0.076609
Si Si6 0.991817 0.018050 0.906795
Si Si7 0.184288 0.812394 0.500204
Si Si8 0.815009 0.573510 0.228815
O O1 0.542318 0.726161 0.335399
O O2 0.013629 0.666223 0.058182
O O3 0.368920 0.923177 0.458195
O O4 0.440611 0.521273 0.256028
O O5 0.242123 0.818037 0.136340
O O6 0.795866 0.750569 0.378612
O O7 0.592972 0.273493 0.485595
O O8 0.040557 0.425267 0.286043
O O9 0.191384 0.172535 0.287777
O O10 0.180625 0.077301 0.102745
O O11 0.661933 0.150670 0.330282
O O12 0.687421 0.853425 0.078755
O O13 0.505986 0.220304 0.180236
O O14 0.198770 0.974192 0.932632
O O15 0.948846 0.643094 0.279527
O O16 0.000000 0.000000 0.500000
O O17 0.500000 0.500000 0.000000
#
# Coordination Sequence:
#
# PCOD8006744 Si02
#       8
#     2   2   2   2   2   2   2   2
#     4  10  23  40  65  96 134 179 232 276 344 408
#     4  11  22  41  62  97 139 179 222 286 334 412
#     4  10  23  41  66  96 136 177 232 273 341 410
#     4  10  22  40  69  96 139 175 229 289 345 409
#     4  10  21  42  66  98 130 180 228 281 345 415
#     4  10  20  40  63  94 134 180 217 281 342 402
#     4  11  25  44  68 101 138 179 226 287 347 413
#     4  12  25  41  68 100 137 179 230 280 343 417
#
# _framework density 23.281500000000001
#
# number of rings (size 3 to 8) (size 9 to 14) (size 15 to 20)
#    0.000    1.500    2.500    1.875    5.250    1.000 
#    0.000    5.625    0.000    0.000    0.000    0.000 
#    0.000    0.000    0.000    0.000    0.000    0.000 
#
# Total GULP energy -198297.172766 kJ/mol
# GULP energy per Si atom -12393.573298 kJ/mol
# Density = 2.322851 g / cm^3
# Si number density = 23.281500 Si / 1000 Ang^3
#
#
#
# Elastic Constant Matrix: (Units=GPa)
#
#
# Indices 1 2 3 4 5 6 
#
# 1 99.1158 49.5360 34.6055 13.3546 39.9334 4.9306
# 2 49.5360 144.1930 31.4364 12.3150 26.8842 1.4238
# 3 34.6055 31.4364 79.3975 9.7238 34.1159 7.1090
# 4 13.3546 12.3150 9.7238 37.9813 2.4683 9.8171
# 5 39.9334 26.8842 34.1159 2.4683 39.5157 1.1659
# 6 4.9306 1.4238 7.1090 9.8171 1.1659 41.4072
#
#
#
# Elastic Compliance Matrix: (Units=1/GPa)
#
#
# Indices 1 2 3 4 5 6 
#
# 1 0.019100 -0.003077 0.001262 -0.004673 -0.017983 -0.000771
# 2 -0.003077 0.008695 -0.001283 -0.001480 -0.001626 0.000684
# 3 0.001262 -0.001283 0.021069 -0.003626 -0.018297 -0.002349
# 4 -0.004673 -0.001480 -0.003626 0.030521 0.007136 -0.006207
# 5 -0.017983 -0.001626 -0.018297 0.007136 0.059879 0.001961
# 6 -0.000771 0.000684 -0.002349 -0.006207 0.001961 0.026038
#
#
# Mechanical properties :
#
#
# Convention : Reuss Voigt Hill
#
# Bulk Modulus (GPa) = 23.43680 61.54023 42.48852
# Shear Modulus (GPa) = 26.92239 37.58940 32.25589
#
# Velocity S-wave (km/s) = 3.40426 4.02252 3.72623
# Velocity P-wave (km/s) = 5.05376 6.93287 6.06651
#
# Compressibility (1/GPa) = 0.04266794
#
# Stress axis : x y z
#
# Youngs Moduli (GPa) = 52.35664 115.01219 47.46355
#
# Poissons Ratio (x) = 0.35390 -0.05991
# Poissons Ratio (y) = 0.16111 0.06088
# Poissons Ratio (z) = -0.06608 0.14753
#
# Static dielectric constant tensor:
#      x y z
#    x 4.606720 0.004220 0.362050 
#    y 0.004220 4.146240 -0.084790 
#    z 0.362050 -0.084790 4.173540 
# 
# 
# High freq. dielectric constant tensor:
#      x y z
#    x 1.928410 0.001520 0.021800 
#    y 0.001520 1.922580 -0.004660 
#    z 0.021800 -0.004660 1.909780 
# 
# From -- ./inp_files/619775.got.cif
#   From: 2010.06.25/outbox.cif.g09.slc.cpg/sg2_310_cif.got.tgz:619775.got - 2010.06.27 13:26:56.
