data_PCOD8006714
_publ_section_title
;
Structure prediction by ZEFSAII (Michael W. Deem and Ramdas Pophale) SiO2 
 PCOD8006714
Probable space group: P -1
;
_chemical_formula_sum "Si O2"
_cell_formula_units_Z 16
_cell_length_a 16.752310
_cell_length_b 8.171218
_cell_length_c 17.340645
_cell_angle_alpha 98.892455
_cell_angle_beta 156.590633
_cell_angle_gamma 67.165123
_cell_volume 725.630602
_symmetry_space_group_name_H-M "P -1"
_symmetry_group_IT_number 2
_symmetry_cell_setting 'triclinic'
loop_
_space_group_symop_operation_xyz
x,y,z
-x,-y,-z
loop_
_atom_site_type_symbol
_atom_site_label
_atom_site_fract_x
_atom_site_fract_y
_atom_site_fract_z
Si Si1 0.381406 0.519368 0.478902
Si Si2 0.412691 0.166906 0.113673
Si Si3 0.125118 0.843154 0.028651
Si Si4 0.064639 0.047135 0.838553
Si Si5 0.540943 0.319911 0.922221
Si Si6 0.607802 0.642624 0.042462
Si Si7 0.959791 0.602514 0.792539
Si Si8 0.190417 0.274953 0.505367
O O1 0.500000 0.500000 0.500000
O O2 0.598898 0.369425 0.721629
O O3 0.237253 0.754212 0.405574
O O4 0.186922 0.463717 0.293249
O O5 0.679918 0.972177 0.377260
O O6 0.460491 0.180408 0.066710
O O7 0.206667 0.127204 0.931372
O O8 0.265367 0.399689 0.038964
O O9 0.941755 0.786521 0.834548
O O10 0.000000 0.000000 0.000000
O O11 0.167205 0.957754 0.008682
O O12 0.153705 0.847817 0.847425
O O13 0.500936 0.245158 0.962629
O O14 0.369501 0.325612 0.704193
O O15 0.461244 0.551667 0.877951
O O16 0.909436 0.443037 0.305383
O O17 0.819242 0.696164 0.592776
#
# Coordination Sequence:
#
# PCOD8006714 Si02
#       8
#     2   2   2   2   2   2   2   2
#     4  11  23  44  63  93 123 160 210 262 321 374
#     4   9  20  39  63  92 127 161 209 255 305 374
#     4  12  25  44  65  90 126 162 211 266 318 377
#     4  10  21  41  62  91 125 166 205 259 315 372
#     4  10  21  39  65  91 133 164 207 259 307 375
#     4  10  21  39  62  98 127 167 208 254 308 369
#     4  10  24  41  65  92 125 167 209 259 318 377
#     4  10  20  40  63  90 127 168 206 250 315 369
#
# _framework density 22.049786000000001
#
# number of rings (size 3 to 8) (size 9 to 14) (size 15 to 20)
#    0.000    1.750    1.250    3.375    0.000    5.000 
#    0.000   12.500    0.000    0.000    0.000    0.000 
#    0.000    0.000    0.000    0.000    0.000    0.000 
#
# Total GULP energy -198309.681566 kJ/mol
# GULP energy per Si atom -12394.355098 kJ/mol
# Density = 2.199960 g / cm^3
# Si number density = 22.049786 Si / 1000 Ang^3
#
#
#
# Elastic Constant Matrix: (Units=GPa)
#
#
# Indices 1 2 3 4 5 6 
#
# 1 161.0654 39.3171 47.3199 -18.6305 -6.4716 -5.3053
# 2 39.3171 86.5927 43.1968 -3.7888 -15.9146 -14.0426
# 3 47.3199 43.1968 120.1751 -27.8231 -8.7478 -8.2175
# 4 -18.6305 -3.7888 -27.8231 44.0365 3.5195 -1.0238
# 5 -6.4716 -15.9146 -8.7478 3.5195 25.9013 -8.3693
# 6 -5.3053 -14.0426 -8.2175 -1.0238 -8.3693 42.2319
#
#
#
# Elastic Compliance Matrix: (Units=1/GPa)
#
#
# Indices 1 2 3 4 5 6 
#
# 1 0.007534 -0.002726 -0.001604 0.001989 -0.000723 -0.000367
# 2 -0.002726 0.018436 -0.005035 -0.003520 0.011699 0.007041
# 3 -0.001604 -0.005035 0.012365 0.006717 -0.000008 0.000691
# 4 0.001989 -0.003520 0.006717 0.027743 -0.003018 0.000461
# 5 -0.000723 0.011699 -0.000008 -0.003018 0.050458 0.013724
# 6 -0.000367 0.007041 0.000691 0.000461 0.013724 0.028839
#
#
# Mechanical properties :
#
#
# Convention : Reuss Voigt Hill
#
# Bulk Modulus (GPa) = 51.01017 69.72231 60.36624
# Shear Modulus (GPa) = 29.30137 38.30056 33.80097
#
# Velocity S-wave (km/s) = 3.64933 4.17226 3.91952
# Velocity P-wave (km/s) = 6.39852 7.40941 6.92244
#
# Compressibility (1/GPa) = 0.01960393
#
# Stress axis : x y z
#
# Youngs Moduli (GPa) = 132.72646 54.24181 80.87665
#
# Poissons Ratio (x) = 0.14787 0.12973
# Poissons Ratio (y) = 0.36184 0.40723
# Poissons Ratio (z) = 0.21290 0.27312
#
# Static dielectric constant tensor:
#      x y z
#    x 4.129500 -0.007200 0.106810 
#    y -0.007200 4.009760 -0.232670 
#    z 0.106810 -0.232670 3.829420 
# 
# 
# High freq. dielectric constant tensor:
#      x y z
#    x 1.880530 0.002630 0.001860 
#    y 0.002630 1.869150 -0.016150 
#    z 0.001860 -0.016150 1.853660 
# 
# From -- ./inp_files/529817.got.cif
#   From: 2010.06.25/outbox.cif.g09.slc.cpg/sg2_265_cif.got.tgz:529817.got - 2010.06.27 13:26:56.
