data_PCOD8006858
_publ_section_title
;
Structure prediction by ZEFSAII (Michael W. Deem and Ramdas Pophale) SiO2 
 PCOD8006858
Probable space group: P -1
;
_chemical_formula_sum "Si O2"
_cell_formula_units_Z 16
_cell_length_a 20.407634
_cell_length_b 9.327977
_cell_length_c 6.885639
_cell_angle_alpha 52.491050
_cell_angle_beta 110.166010
_cell_angle_gamma 132.181075
_cell_volume 765.903813
_symmetry_space_group_name_H-M "P -1"
_symmetry_group_IT_number 2
_symmetry_cell_setting 'triclinic'
loop_
_space_group_symop_operation_xyz
x,y,z
-x,-y,-z
loop_
_atom_site_type_symbol
_atom_site_label
_atom_site_fract_x
_atom_site_fract_y
_atom_site_fract_z
Si Si1 0.089082 0.677275 0.063000
Si Si2 0.974314 0.063787 0.113858
Si Si3 0.594820 0.821970 0.482937
Si Si4 0.459242 0.662505 0.144893
Si Si5 0.120697 0.335420 0.367639
Si Si6 0.687199 0.471079 0.629196
Si Si7 0.721571 0.930936 0.202071
Si Si8 0.390897 0.993025 0.248881
O O1 0.115532 0.526408 0.305467
O O2 0.066066 0.801630 0.089916
O O3 0.000000 0.500000 0.000000
O O4 0.171619 0.877158 0.849793
O O5 0.057409 0.214392 0.217687
O O6 0.898217 0.833162 0.339757
O O7 0.000000 0.000000 0.000000
O O8 0.522858 0.790408 0.290494
O O9 0.558050 0.573256 0.730540
O O10 0.688566 0.950395 0.360640
O O11 0.610177 0.980716 0.544637
O O12 0.367158 0.611971 0.153727
O O13 0.507710 0.829082 0.872734
O O14 0.216798 0.451997 0.280462
O O15 0.691964 0.674401 0.364171
O O16 0.642010 0.263372 0.602449
O O17 0.674085 0.964558 0.953149
#
# Coordination Sequence:
#
# PCOD8006858 Si02
#       8
#     2   2   2   2   2   2   2   2
#     4  10  20  40  65  85 119 162 192 243 301 348
#     4  10  22  42  64  91 118 153 199 245 291 355
#     4   9  20  39  62  86 116 160 201 244 295 351
#     4   9  20  38  60  85 122 156 196 248 297 346
#     4  10  21  41  62  86 124 158 192 242 300 351
#     4  11  21  38  61  89 121 160 195 244 300 353
#     4  10  21  41  58  86 125 155 197 249 294 348
#     4  11  21  39  62  88 118 158 205 242 295 350
#
# _framework density 20.890350999999999
#
# number of rings (size 3 to 8) (size 9 to 14) (size 15 to 20)
#    0.000    2.000    2.500    1.500    0.000    1.000 
#    9.000    6.250    0.000    0.000    0.000    0.000 
#    0.000    0.000    0.000    0.000    0.000    0.000 
#
# Total GULP energy -198334.443810 kJ/mol
# GULP energy per Si atom -12395.902738 kJ/mol
# Density = 2.084280 g / cm^3
# Si number density = 20.890351 Si / 1000 Ang^3
#
#
#
# Elastic Constant Matrix: (Units=GPa)
#
#
# Indices 1 2 3 4 5 6 
#
# 1 148.8465 47.7212 34.2430 -8.7465 -15.2052 -8.4327
# 2 47.7212 85.7481 38.4765 -13.4041 -20.5708 -15.3524
# 3 34.2430 38.4765 45.4659 -0.5503 -12.9013 -10.1965
# 4 -8.7465 -13.4041 -0.5503 26.4875 -5.2289 -8.4234
# 5 -15.2052 -20.5708 -12.9013 -5.2289 34.0716 -10.9316
# 6 -8.4327 -15.3524 -10.1965 -8.4234 -10.9316 44.1952
#
#
#
# Elastic Compliance Matrix: (Units=1/GPa)
#
#
# Indices 1 2 3 4 5 6 
#
# 1 0.008683 -0.002061 -0.004079 0.002360 0.001730 0.000877
# 2 -0.002061 0.031844 -0.014899 0.025049 0.022116 0.017476
# 3 -0.004079 -0.014899 0.039418 -0.006325 0.004085 0.002946
# 4 0.002360 0.025049 -0.006325 0.066737 0.033208 0.028626
# 5 0.001730 0.022116 0.004085 0.033208 0.059764 0.030067
# 6 0.000877 0.017476 0.002946 0.028626 0.030067 0.042438
#
#
# Mechanical properties :
#
#
# Convention : Reuss Voigt Hill
#
# Bulk Modulus (GPa) = 26.40776 57.88243 42.14510
# Shear Modulus (GPa) = 16.46990 31.59217 24.03103
#
# Velocity S-wave (km/s) = 2.81089 3.89303 3.39535
# Velocity P-wave (km/s) = 4.81699 6.92643 5.96569
#
# Compressibility (1/GPa) = 0.03786765
#
# Stress axis : x y z
#
# Youngs Moduli (GPa) = 115.17370 31.40272 25.36887
#
# Poissons Ratio (x) = 0.06471 0.10349
# Poissons Ratio (y) = 0.23734 0.37797
# Poissons Ratio (z) = 0.46983 0.46786
#
# Static dielectric constant tensor:
#      x y z
#    x 4.219340 -0.077990 0.015820 
#    y -0.077990 3.805250 -0.475800 
#    z 0.015820 -0.475800 3.560100 
# 
# 
# High freq. dielectric constant tensor:
#      x y z
#    x 1.841360 -0.005640 -0.001790 
#    y -0.005640 1.814450 -0.035670 
#    z -0.001790 -0.035670 1.788150 
# 
# From -- ./inp_files/116677.got.cif
#   From: 2010.06.25/outbox.cif.g09.slc.cpg/sg2_59_cif.got.tgz:116677.got - 2010.06.27 13:26:56.
