data_PCOD8006289
_publ_section_title
;
Structure prediction by ZEFSAII (Michael W. Deem and Ramdas Pophale) SiO2 
 PCOD8006289
Probable space group: P -1
;
_chemical_formula_sum "Si O2"
_cell_formula_units_Z 14
_cell_length_a 9.150021
_cell_length_b 6.317280
_cell_length_c 14.916518
_cell_angle_alpha 97.345483
_cell_angle_beta 118.989565
_cell_angle_gamma 116.054586
_cell_volume 610.546086
_symmetry_space_group_name_H-M "P -1"
_symmetry_group_IT_number 2
_symmetry_cell_setting 'triclinic'
loop_
_space_group_symop_operation_xyz
x,y,z
-x,-y,-z
loop_
_atom_site_type_symbol
_atom_site_label
_atom_site_fract_x
_atom_site_fract_y
_atom_site_fract_z
Si Si1 0.875514 0.851572 0.232969
Si Si2 0.762291 0.577600 0.643827
Si Si3 0.279320 0.888332 0.895790
Si Si4 0.529373 0.267367 0.395527
Si Si5 0.160798 0.922197 0.043636
Si Si6 0.371131 0.636101 0.765035
Si Si7 0.854581 0.283816 0.782809
O O1 0.729062 0.872469 0.123482
O O2 0.067485 0.140723 0.334280
O O3 0.735825 0.672685 0.265125
O O4 0.950100 0.700855 0.192429
O O5 0.681893 0.360312 0.530377
O O6 0.575744 0.576545 0.628854
O O7 0.868313 0.531615 0.756269
O O8 0.237820 0.708159 0.787267
O O9 0.500000 0.000000 0.000000
O O10 0.133750 0.759295 0.935453
O O11 0.658940 0.333272 0.346738
O O12 0.357748 0.959847 0.334503
O O13 0.388255 0.193532 0.128736
O O14 0.143546 0.739809 0.110115
O O15 0.000000 0.000000 0.000000
#
# Coordination Sequence:
#
# PCOD8006289 Si02
#       7
#     2   2   2   2   2   2   2
#     4  11  22  40  58  90 133 164 209 261 313 379
#     4  10  21  40  66  94 124 170 211 264 317 372
#     4  10  22  40  62  89 128 167 207 256 322 370
#     4   9  21  40  65  94 128 163 217 262 313 376
#     4  10  20  41  67  95 122 165 218 260 311 371
#     4  10  23  40  63  92 129 168 202 267 316 380
#     4  10  20  39  67  93 127 163 214 267 309 374
#
# _framework density 22.930292000000001
#
# number of rings (size 3 to 8) (size 9 to 14) (size 15 to 20)
#    0.000    2.000    1.429    1.286    0.000    6.286 
#    2.571    8.571    0.000    0.000    0.000    0.000 
#    0.000    0.000    0.000    0.000    0.000    0.000 
#
# Total GULP energy -173494.271335 kJ/mol
# GULP energy per Si atom -12392.447952 kJ/mol
# Density = 2.287810 g / cm^3
# Si number density = 22.930292 Si / 1000 Ang^3
#
#
#
# Elastic Constant Matrix: (Units=GPa)
#
#
# Indices 1 2 3 4 5 6 
#
# 1 110.7942 39.3220 50.5731 -11.4145 -11.0846 7.1906
# 2 39.3220 113.2945 29.6899 -24.9282 -7.4175 23.3169
# 3 50.5731 29.6899 122.4585 -12.7607 -14.4717 3.8321
# 4 -11.4145 -24.9282 -12.7607 30.0523 -4.0282 2.1452
# 5 -11.0846 -7.4175 -14.4717 -4.0282 38.7765 -7.1564
# 6 7.1906 23.3169 3.8321 2.1452 -7.1564 36.7193
#
#
#
# Elastic Compliance Matrix: (Units=1/GPa)
#
#
# Indices 1 2 3 4 5 6 
#
# 1 0.012125 -0.002946 -0.004058 0.000626 0.001485 0.000172
# 2 -0.002946 0.014455 -0.000680 0.011383 0.001198 -0.008962
# 3 -0.004058 -0.000680 0.010643 0.002786 0.003073 0.000552
# 4 0.000626 0.011383 0.002786 0.045651 0.006469 -0.009048
# 5 0.001485 0.001198 0.003073 0.006469 0.028981 0.003898
# 6 0.000172 -0.008962 0.000552 -0.009048 0.003898 0.034122
#
#
# Mechanical properties :
#
#
# Convention : Reuss Voigt Hill
#
# Bulk Modulus (GPa) = 45.75421 65.07970 55.41695
# Shear Modulus (GPa) = 29.65088 36.24044 32.94566
#
# Velocity S-wave (km/s) = 3.59985 3.97981 3.79459
# Velocity P-wave (km/s) = 6.10537 7.04001 6.58928
#
# Compressibility (1/GPa) = 0.02185591
#
# Stress axis : x y z
#
# Youngs Moduli (GPa) = 82.47176 69.18223 93.95784
#
# Poissons Ratio (x) = 0.20378 0.38129
# Poissons Ratio (y) = 0.24292 0.06388
# Poissons Ratio (z) = 0.33468 0.04704
#
# Static dielectric constant tensor:
#      x y z
#    x 4.872040 -0.012100 -0.377770 
#    y -0.012100 4.138090 0.060910 
#    z -0.377770 0.060910 4.377100 
# 
# 
# High freq. dielectric constant tensor:
#      x y z
#    x 1.906860 0.012960 0.004380 
#    y 0.012960 1.908020 0.003340 
#    z 0.004380 0.003340 1.907570 
# 
# From -- ./inp_files/46563.got.cif
#   From: 2010.06.25/outbox.cif.g09.slc.cpg/sg2_24_cif.got.tgz:46563.got - 2010.06.27 13:26:56.
