data_PCOD8006909
_publ_section_title
;
Structure prediction by ZEFSAII (Michael W. Deem and Ramdas Pophale) SiO2 
 PCOD8006909
Probable space group: P -1
;
_chemical_formula_sum "Si O2"
_cell_formula_units_Z 16
_cell_length_a 5.285231
_cell_length_b 6.748372
_cell_length_c 24.692372
_cell_angle_alpha 96.843979
_cell_angle_beta 54.013881
_cell_angle_gamma 110.571639
_cell_volume 662.736808
_symmetry_space_group_name_H-M "P -1"
_symmetry_group_IT_number 2
_symmetry_cell_setting 'triclinic'
loop_
_space_group_symop_operation_xyz
x,y,z
-x,-y,-z
loop_
_atom_site_type_symbol
_atom_site_label
_atom_site_fract_x
_atom_site_fract_y
_atom_site_fract_z
Si Si1 0.573318 0.560489 0.291510
Si Si2 0.391894 0.744451 0.644925
Si Si3 0.212833 0.126516 0.266802
Si Si4 0.892866 0.565954 0.958557
Si Si5 0.336890 0.995704 0.876004
Si Si6 0.093319 0.823467 0.362774
Si Si7 0.673865 0.862602 0.504383
Si Si8 0.978930 0.248067 0.856642
O O1 0.665470 0.504352 0.338704
O O2 0.457941 0.315489 0.278007
O O3 0.282859 0.656816 0.332820
O O4 0.870083 0.707050 0.221428
O O5 0.400273 0.723074 0.577779
O O6 0.084791 0.796984 0.711355
O O7 0.713173 0.941744 0.628961
O O8 0.422021 0.103085 0.188417
O O9 0.038393 0.893357 0.310443
O O10 0.048351 0.461541 0.888910
O O11 0.500000 0.500000 0.000000
O O12 0.052145 0.818871 0.939542
O O13 0.000000 0.500000 0.000000
O O14 0.577716 0.147678 0.896103
O O15 0.152751 0.104615 0.861724
O O16 0.772620 0.726781 0.439669
O O17 0.500000 0.000000 0.500000
O O18 0.000000 0.000000 0.500000
#
# Coordination Sequence:
#
# PCOD8006909 Si02
#       8
#     2   2   2   2   2   2   2   2
#     4  11  24  40  65 103 137 181 242 301 354 421
#     4  10  23  38  65  93 138 186 236 301 359 423
#     4  11  22  40  66  97 138 183 237 300 355 414
#     4  12  28  51  78 110 151 187 231 293 351 427
#     4  12  27  46  76 107 145 191 242 290 355 428
#     4  10  21  41  63  93 133 182 237 293 362 422
#     4  10  20  40  65  91 133 186 235 291 365 429
#     4  12  27  47  75 109 145 193 240 290 359 425
#
# _framework density 24.142316000000001
#
# number of rings (size 3 to 8) (size 9 to 14) (size 15 to 20)
#    0.000    1.000    3.750    2.250    3.500    5.500 
#    0.000    0.625    0.000    0.000    0.000    0.000 
#    0.000    0.000    0.000    0.000    0.000    0.000 
#
# Total GULP energy -198282.733384 kJ/mol
# GULP energy per Si atom -12392.670836 kJ/mol
# Density = 2.408737 g / cm^3
# Si number density = 24.142316 Si / 1000 Ang^3
#
#
#
# Elastic Constant Matrix: (Units=GPa)
#
#
# Indices 1 2 3 4 5 6 
#
# 1 131.4298 28.8968 35.3294 -18.2096 4.7603 -38.9528
# 2 28.8968 100.5442 24.6430 -18.2609 9.8730 -27.1066
# 3 35.3294 24.6430 102.0927 -5.7936 11.8762 -16.6999
# 4 -18.2096 -18.2609 -5.7936 33.4780 -8.6195 4.6825
# 5 4.7603 9.8730 11.8762 -8.6195 34.2955 -5.9558
# 6 -38.9528 -27.1066 -16.6999 4.6825 -5.9558 40.6636
#
#
#
# Elastic Compliance Matrix: (Units=1/GPa)
#
#
# Indices 1 2 3 4 5 6 
#
# 1 0.011963 0.000863 -0.002544 0.005621 0.002238 0.010671
# 2 0.000863 0.013573 -0.001808 0.006297 -0.000368 0.008353
# 3 -0.002544 -0.001808 0.011549 -0.001336 -0.003328 0.000767
# 4 0.005621 0.006297 -0.001336 0.037441 0.008311 0.005940
# 5 0.002238 -0.000368 -0.003328 0.008311 0.032959 0.004402
# 6 0.010671 0.008353 0.000767 0.005940 0.004402 0.040658
#
#
# Mechanical properties :
#
#
# Convention : Reuss Voigt Hill
#
# Bulk Modulus (GPa) = 33.21573 56.86722 45.04148
# Shear Modulus (GPa) = 30.27442 38.03394 34.15418
#
# Velocity S-wave (km/s) = 3.54503 3.97344 3.76533
# Velocity P-wave (km/s) = 5.52670 6.68260 6.13195
#
# Compressibility (1/GPa) = 0.03010622
#
# Stress axis : x y z
#
# Youngs Moduli (GPa) = 83.59042 73.67712 86.59008
#
# Poissons Ratio (x) = -0.06361 0.22029
# Poissons Ratio (y) = -0.07217 0.15660
# Poissons Ratio (z) = 0.21266 0.13324
#
# Static dielectric constant tensor:
#      x y z
#    x 4.370530 0.042120 0.180880 
#    y 0.042120 4.379980 -0.110850 
#    z 0.180880 -0.110850 4.805680 
# 
# 
# High freq. dielectric constant tensor:
#      x y z
#    x 1.962500 -0.002820 0.005130 
#    y -0.002820 1.965190 -0.001070 
#    z 0.005130 -0.001070 1.973280 
# 
# From -- ./inp_files/12793.got.cif
#   From: 2010.06.25/outbox.cif.g09.slc.cpg/sg2_7_cif.got.tgz:12793.got - 2010.06.27 13:26:56.
