data_PCOD8006038
_publ_section_title
;
Structure prediction by ZEFSAII (Michael W. Deem and Ramdas Pophale) SiO2 
 PCOD8006038
Probable space group: P -1
;
_chemical_formula_sum "Si O2"
_cell_formula_units_Z 14
_cell_length_a 11.975796
_cell_length_b 18.295174
_cell_length_c 14.191517
_cell_angle_alpha 149.588549
_cell_angle_beta 130.949227
_cell_angle_gamma 27.745169
_cell_volume 651.478930
_symmetry_space_group_name_H-M "P -1"
_symmetry_group_IT_number 2
_symmetry_cell_setting 'triclinic'
loop_
_space_group_symop_operation_xyz
x,y,z
-x,-y,-z
loop_
_atom_site_type_symbol
_atom_site_label
_atom_site_fract_x
_atom_site_fract_y
_atom_site_fract_z
Si Si1 0.653713 0.066362 0.306289
Si Si2 0.901101 0.610323 0.672586
Si Si3 0.967659 0.690484 0.227897
Si Si4 0.215433 0.166926 0.504912
Si Si5 0.372680 0.735004 0.105506
Si Si6 0.282894 0.688713 0.332920
Si Si7 0.902479 0.296403 0.006733
O O1 0.415444 0.163715 0.241270
O O2 0.562842 0.310457 0.522585
O O3 0.716803 0.963302 0.333922
O O4 0.925600 0.820969 0.123678
O O5 0.000000 0.500000 0.500000
O O6 0.056193 0.391888 0.593121
O O7 0.957472 0.731690 0.861709
O O8 0.938729 0.718711 0.354793
O O9 0.230404 0.578141 0.231677
O O10 0.000000 0.500000 0.000000
O O11 0.500000 0.000000 0.500000
O O12 0.247891 0.982832 0.269446
O O13 0.596311 0.602061 0.158672
O O14 0.524865 0.503072 0.861316
O O15 0.122765 0.851738 0.143825
O O16 0.000000 0.000000 0.500000
#
# Coordination Sequence:
#
# PCOD8006038 Si02
#       7
#     2   2   2   2   2   2   2
#     4  11  23  43  66  97 134 172 217 263 332 396
#     4  12  26  45  64  94 135 178 211 267 340 390
#     4  11  22  39  65  99 128 167 221 272 317 375
#     4  12  24  41  65  96 129 170 222 272 319 384
#     4  11  22  39  68 100 130 162 229 271 318 379
#     4  10  20  39  64  97 129 168 216 265 323 390
#     4  11  22  40  68  98 128 173 214 272 324 386
#
# _framework density 21.489566
#
# number of rings (size 3 to 8) (size 9 to 14) (size 15 to 20)
#    0.000    0.857    4.286    4.714    6.000    0.000 
#    0.000    7.143    0.000    0.000    0.000    0.000 
#    0.000    0.000    0.000    0.000    0.000    0.000 
#
# Total GULP energy -173506.215487 kJ/mol
# GULP energy per Si atom -12393.301106 kJ/mol
# Density = 2.144065 g / cm^3
# Si number density = 21.489566 Si / 1000 Ang^3
#
#
#
# Elastic Constant Matrix: (Units=GPa)
#
#
# Indices 1 2 3 4 5 6 
#
# 1 136.8058 56.0315 40.2101 -5.4630 5.4014 -4.4128
# 2 56.0315 109.6262 24.9108 -13.2061 7.3285 -9.2662
# 3 40.2101 24.9108 109.6129 -19.2720 11.5025 -1.9634
# 4 -5.4630 -13.2061 -19.2720 33.2579 -0.8698 4.3944
# 5 5.4014 7.3285 11.5025 -0.8698 43.5832 -10.5507
# 6 -4.4128 -9.2662 -1.9634 4.3944 -10.5507 43.0646
#
#
#
# Elastic Compliance Matrix: (Units=1/GPa)
#
#
# Indices 1 2 3 4 5 6 
#
# 1 0.010022 -0.004688 -0.002988 -0.001959 0.000335 0.000164
# 2 -0.004688 0.012219 -0.000280 0.003693 -0.000957 0.001525
# 3 -0.002988 -0.000280 0.011653 0.006230 -0.002815 -0.001160
# 4 -0.001959 0.003693 0.006230 0.035194 -0.002102 -0.003228
# 5 0.000335 -0.000957 -0.002815 -0.002102 0.025241 0.006099
# 6 0.000164 0.001525 -0.001160 -0.003228 0.006099 0.025336
#
#
# Mechanical properties :
#
#
# Convention : Reuss Voigt Hill
#
# Bulk Modulus (GPa) = 55.61131 66.48328 61.04730
# Shear Modulus (GPa) = 35.31793 39.64066 37.47929
#
# Velocity S-wave (km/s) = 4.05840 4.29959 4.18074
# Velocity P-wave (km/s) = 6.92064 7.46012 7.19544
#
# Compressibility (1/GPa) = 0.01798195
#
# Stress axis : x y z
#
# Youngs Moduli (GPa) = 99.78462 81.83725 85.81765
#
# Poissons Ratio (x) = 0.38364 0.25640
# Poissons Ratio (y) = 0.46778 0.02405
# Poissons Ratio (z) = 0.29813 0.02294
#
# Static dielectric constant tensor:
#      x y z
#    x 3.628570 -0.310780 0.400480 
#    y -0.310780 3.983490 -0.458960 
#    z 0.400480 -0.458960 4.140830 
# 
# 
# High freq. dielectric constant tensor:
#      x y z
#    x 1.865480 -0.017720 0.007920 
#    y -0.017720 1.808000 -0.023830 
#    z 0.007920 -0.023830 1.849760 
# 
# From -- ./inp_files/523479.got.cif
#   From: 2010.06.25/outbox.cif.g09.slc.cpg/sg2_262_cif.got.tgz:523479.got - 2010.06.27 13:26:56.
