data_PCOD8006268
_publ_section_title
;
Structure prediction by ZEFSAII (Michael W. Deem and Ramdas Pophale) SiO2 
 PCOD8006268
Probable space group: P -1
;
_chemical_formula_sum "Si O2"
_cell_formula_units_Z 16
_cell_length_a 13.445378
_cell_length_b 8.817300
_cell_length_c 13.568669
_cell_angle_alpha 47.728602
_cell_angle_beta 52.127665
_cell_angle_gamma 88.922252
_cell_volume 693.474957
_symmetry_space_group_name_H-M "P -1"
_symmetry_group_IT_number 2
_symmetry_cell_setting 'triclinic'
loop_
_space_group_symop_operation_xyz
x,y,z
-x,-y,-z
loop_
_atom_site_type_symbol
_atom_site_label
_atom_site_fract_x
_atom_site_fract_y
_atom_site_fract_z
Si Si1 0.260185 0.558616 0.456872
Si Si2 0.900375 0.341574 0.843792
Si Si3 0.328634 0.366384 0.316785
Si Si4 0.565558 0.168629 0.074688
Si Si5 0.811566 0.522494 0.130637
Si Si6 0.804272 0.809824 0.180730
Si Si7 0.467955 0.797171 0.693760
Si Si8 0.911251 0.235909 0.282615
O O1 0.259045 0.463991 0.390166
O O2 0.300217 0.417167 0.570439
O O3 0.073583 0.459829 0.630610
O O4 0.418331 0.888659 0.226328
O O5 0.955394 0.536759 0.818041
O O6 0.762678 0.310124 0.873227
O O7 0.776843 0.022246 0.097726
O O8 0.434686 0.310208 0.335265
O O9 0.175538 0.065989 0.491034
O O10 0.436962 0.599218 0.064196
O O11 0.519138 0.107544 0.244530
O O12 0.761157 0.657324 0.169932
O O13 0.727338 0.467340 0.099455
O O14 0.770824 0.263726 0.330391
O O15 0.010650 0.730755 0.887946
O O16 0.000000 0.000000 0.000000
O O17 0.500000 0.000000 0.500000
#
# Coordination Sequence:
#
# PCOD8006268 Si02
#       8
#     2   2   2   2   2   2   2   2
#     4  11  25  47  71 103 146 191 237 292 354 427
#     4  11  24  44  75 106 142 189 234 295 361 422
#     4  12  28  47  71 102 146 194 231 296 359 422
#     4  12  28  51  70 105 148 189 241 291 356 431
#     4  11  21  38  68 104 137 176 232 298 348 412
#     4  10  20  39  67 105 140 178 230 295 358 405
#     4  12  25  45  72 105 135 183 242 294 354 417
#     4  11  21  41  70 102 142 177 239 295 346 421
#
# _framework density 23.072208
#
# number of rings (size 3 to 8) (size 9 to 14) (size 15 to 20)
#    0.000    0.750    5.000    3.750    5.250    1.500 
#    2.250    0.000    0.000    0.000    0.000    0.000 
#    0.000    0.000    0.000    0.000    0.000    0.000 
#
# Total GULP energy -198217.104763 kJ/mol
# GULP energy per Si atom -12388.569048 kJ/mol
# Density = 2.301969 g / cm^3
# Si number density = 23.072208 Si / 1000 Ang^3
#
#
#
# Elastic Constant Matrix: (Units=GPa)
#
#
# Indices 1 2 3 4 5 6 
#
# 1 86.6624 31.1917 44.4216 -4.3578 -1.6441 -13.7396
# 2 31.1917 114.9690 60.8276 -18.5465 -5.4762 9.3739
# 3 44.4216 60.8276 132.6503 -28.1100 17.6580 -8.5096
# 4 -4.3578 -18.5465 -28.1100 42.4639 -9.7501 -1.5129
# 5 -1.6441 -5.4762 17.6580 -9.7501 30.5506 0.7231
# 6 -13.7396 9.3739 -8.5096 -1.5129 0.7231 23.5824
#
#
#
# Elastic Compliance Matrix: (Units=1/GPa)
#
#
# Indices 1 2 3 4 5 6 
#
# 1 0.016095 -0.003202 -0.003922 -0.001599 0.001834 0.009076
# 2 -0.003202 0.014826 -0.006746 0.003063 0.007604 -0.010230
# 3 -0.003922 -0.006746 0.014414 0.004467 -0.008471 0.006143
# 4 -0.001599 0.003063 0.004467 0.029380 0.007231 0.001126
# 5 0.001834 0.007604 -0.008471 0.007231 0.041536 -0.005820
# 6 0.009076 -0.010230 0.006143 0.001126 -0.005820 0.054226
#
#
# Mechanical properties :
#
#
# Convention : Reuss Voigt Hill
#
# Bulk Modulus (GPa) = 56.83470 67.46263 62.14867
# Shear Modulus (GPa) = 24.49984 32.50878 28.50431
#
# Velocity S-wave (km/s) = 3.26218 3.75774 3.51869
# Velocity P-wave (km/s) = 6.23506 6.93763 6.59571
#
# Compressibility (1/GPa) = 0.01759488
#
# Stress axis : x y z
#
# Youngs Moduli (GPa) = 62.12935 67.44884 69.37862
#
# Poissons Ratio (x) = 0.21598 0.27213
# Poissons Ratio (y) = 0.19894 0.46800
# Poissons Ratio (z) = 0.24370 0.45499
#
# Static dielectric constant tensor:
#      x y z
#    x 4.761280 -0.130930 -0.034600 
#    y -0.130930 3.922240 -0.224330 
#    z -0.034600 -0.224330 4.534620 
# 
# 
# High freq. dielectric constant tensor:
#      x y z
#    x 1.900220 -0.000510 -0.010620 
#    y -0.000510 1.915210 -0.008860 
#    z -0.010620 -0.008860 1.916180 
# 
# From -- ./inp_files/529290.got.cif
#   From: 2010.06.25/outbox.cif.g09.slc.cpg/sg2_265_cif.got.tgz:529290.got - 2010.06.27 13:26:56.
