data_PCOD8006237
_publ_section_title
;
Structure prediction by ZEFSAII (Michael W. Deem and Ramdas Pophale) SiO2 
 PCOD8006237
Probable space group: P -1
;
_chemical_formula_sum "Si O2"
_cell_formula_units_Z 16
_cell_length_a 10.625359
_cell_length_b 8.521157
_cell_length_c 16.902817
_cell_angle_alpha 45.100914
_cell_angle_beta 142.586059
_cell_angle_gamma 134.581934
_cell_volume 622.132385
_symmetry_space_group_name_H-M "P -1"
_symmetry_group_IT_number 2
_symmetry_cell_setting 'triclinic'
loop_
_space_group_symop_operation_xyz
x,y,z
-x,-y,-z
loop_
_atom_site_type_symbol
_atom_site_label
_atom_site_fract_x
_atom_site_fract_y
_atom_site_fract_z
Si Si1 0.665916 0.722790 0.412254
Si Si2 0.680357 0.912274 0.767258
Si Si3 0.038008 0.662664 0.035459
Si Si4 0.330683 0.782243 0.777992
Si Si5 0.324939 0.643073 0.576828
Si Si6 0.197157 0.584660 0.300875
Si Si7 0.088899 0.369162 0.704958
Si Si8 0.611632 0.927755 0.006404
O O1 0.614349 0.566052 0.362279
O O2 0.451270 0.682416 0.370949
O O3 0.839800 0.643153 0.580375
O O4 0.765197 0.999888 0.342914
O O5 0.520750 0.832297 0.790357
O O6 0.545215 0.852730 0.637892
O O7 0.844286 0.767381 0.907600
O O8 0.833035 0.188467 0.748270
O O9 0.277324 0.856315 0.074193
O O10 0.046140 0.518798 0.170779
O O11 0.000000 0.500000 0.000000
O O12 0.137020 0.532525 0.751736
O O13 0.426641 0.745028 0.925285
O O14 0.200955 0.553199 0.628040
O O15 0.169745 0.738185 0.408612
O O16 0.197426 0.167318 0.834431
O O17 0.500000 0.000000 0.000000
#
# Coordination Sequence:
#
# PCOD8006237 Si02
#       8
#     2   2   2   2   2   2   2   2
#     4  10  20  39  66  95 136 176 222 278 344 400
#     4  10  22  41  74  95 139 180 222 288 348 397
#     4  12  26  45  70 105 142 180 231 288 349 412
#     4  10  22  44  72  98 138 182 232 290 341 407
#     4  10  22  43  66  95 144 171 229 284 340 406
#     4  10  22  41  64 100 134 179 225 273 350 414
#     4  10  24  43  67 102 131 188 231 275 349 414
#     4  12  26  46  71 103 140 183 235 286 343 416
#
# _framework density 25.717998999999999
#
# number of rings (size 3 to 8) (size 9 to 14) (size 15 to 20)
#    0.000    1.500    2.500    2.250    5.250    1.000 
#   13.500    0.000    0.000    0.000    0.000    0.000 
#    0.000    0.000    0.000    0.000    0.000    0.000 
#
# Total GULP energy -198396.586246 kJ/mol
# GULP energy per Si atom -12399.786640 kJ/mol
# Density = 2.565946 g / cm^3
# Si number density = 25.717999 Si / 1000 Ang^3
#
#
#
# Elastic Constant Matrix: (Units=GPa)
#
#
# Indices 1 2 3 4 5 6 
#
# 1 79.2205 28.3850 39.0172 10.0515 -2.4985 -34.9673
# 2 28.3850 143.4395 52.2400 20.1026 1.1719 -24.4325
# 3 39.0172 52.2400 153.1367 0.4121 -12.1816 -20.5360
# 4 10.0515 20.1026 0.4121 34.9904 -20.8424 4.6085
# 5 -2.4985 1.1719 -12.1816 -20.8424 43.0870 3.6309
# 6 -34.9673 -24.4325 -20.5360 4.6085 3.6309 47.9739
#
#
#
# Elastic Compliance Matrix: (Units=1/GPa)
#
#
# Indices 1 2 3 4 5 6 
#
# 1 0.024894 0.002993 -0.005486 -0.017587 -0.010364 0.019795
# 2 0.002993 0.011185 -0.004136 -0.013304 -0.008412 0.008022
# 3 -0.005486 -0.004136 0.009399 0.008314 0.006759 -0.003392
# 4 -0.017587 -0.013304 0.008314 0.065657 0.035562 -0.025034
# 5 -0.010364 -0.008412 0.006759 0.035562 0.043268 -0.015636
# 6 0.019795 0.008022 -0.003392 -0.025034 -0.015636 0.041494
#
#
# Mechanical properties :
#
#
# Convention : Reuss Voigt Hill
#
# Bulk Modulus (GPa) = 31.03605 68.34235 49.68920
# Shear Modulus (GPa) = 22.73796 42.28724 32.51260
#
# Velocity S-wave (km/s) = 2.97665 4.05935 3.55941
# Velocity P-wave (km/s) = 4.88958 6.97155 6.02124
#
# Compressibility (1/GPa) = 0.03222060
#
# Stress axis : x y z
#
# Youngs Moduli (GPa) = 40.16956 89.40354 106.39161
#
# Poissons Ratio (x) = -0.26757 0.58370
# Poissons Ratio (y) = -0.12022 0.44000
# Poissons Ratio (z) = 0.22038 0.36975
#
# Static dielectric constant tensor:
#      x y z
#    x 4.843090 -0.115810 -0.144630 
#    y -0.115810 5.091980 0.124540 
#    z -0.144630 0.124540 4.745170 
# 
# 
# High freq. dielectric constant tensor:
#      x y z
#    x 2.056980 -0.001000 0.001200 
#    y -0.001000 2.021820 0.004990 
#    z 0.001200 0.004990 2.045060 
# 
# From -- ./inp_files/566589.got.cif
#   From: 2010.06.25/outbox.cif.g09.slc.cpg/sg2_284_cif.got.tgz:566589.got - 2010.06.27 13:26:56.
