data_PCOD8006331
_publ_section_title
;
Structure prediction by ZEFSAII (Michael W. Deem and Ramdas Pophale) SiO2 
 PCOD8006331
Probable space group: P -1
;
_chemical_formula_sum "Si O2"
_cell_formula_units_Z 16
_cell_length_a 9.661170
_cell_length_b 10.037505
_cell_length_c 14.793320
_cell_angle_alpha 133.520647
_cell_angle_beta 98.279879
_cell_angle_gamma 111.697232
_cell_volume 779.256932
_symmetry_space_group_name_H-M "P -1"
_symmetry_group_IT_number 2
_symmetry_cell_setting 'triclinic'
loop_
_space_group_symop_operation_xyz
x,y,z
-x,-y,-z
loop_
_atom_site_type_symbol
_atom_site_label
_atom_site_fract_x
_atom_site_fract_y
_atom_site_fract_z
Si Si1 0.051061 0.847958 0.247229
Si Si2 0.354908 0.997095 0.039868
Si Si3 0.840689 0.772188 0.435968
Si Si4 0.611555 0.216719 0.538430
Si Si5 0.369880 0.935016 0.213495
Si Si6 0.019197 0.455728 0.726038
Si Si7 0.566522 0.531999 0.785253
Si Si8 0.338438 0.484637 0.018400
O O1 0.172131 0.843090 0.183446
O O2 0.009721 0.675068 0.244301
O O3 0.164133 0.126687 0.421032
O O4 0.861489 0.759683 0.145214
O O5 0.419372 0.063674 0.181319
O O6 0.342434 0.192893 0.093746
O O7 0.148560 0.740909 0.890356
O O8 0.500000 0.000000 0.000000
O O9 0.883079 0.591282 0.362052
O O10 0.651973 0.633613 0.298343
O O11 0.000000 0.000000 0.500000
O O12 0.601236 0.423813 0.655325
O O13 0.824316 0.344960 0.614820
O O14 0.500000 0.000000 0.500000
O O15 0.529330 0.117501 0.385078
O O16 0.359369 0.709072 0.090861
O O17 0.655651 0.514882 0.872956
O O18 0.500000 0.500000 0.000000
#
# Coordination Sequence:
#
# PCOD8006331 Si02
#       8
#     2   2   2   2   2   2   2   2
#     4  11  22  41  69 104 131 173 236 282 342 392
#     4  12  27  48  67  96 144 193 220 266 353 427
#     4  10  20  39  67  98 131 177 221 274 338 398
#     4  12  23  43  71 107 133 166 232 297 336 380
#     4  12  25  44  71  97 140 179 225 289 338 406
#     4  11  22  42  70  98 140 181 217 281 345 401
#     4  12  24  44  67  96 143 176 226 278 336 406
#     4  12  24  38  67 105 134 171 234 287 327 394
#
# _framework density 20.53238
#
# number of rings (size 3 to 8) (size 9 to 14) (size 15 to 20)
#    0.000    0.500    6.250    3.375    3.500    1.000 
#    0.000    0.625    0.000    0.000    0.000    0.000 
#    0.000    0.000    0.000    0.000    0.000    0.000 
#
# Total GULP energy -198444.039430 kJ/mol
# GULP energy per Si atom -12402.752464 kJ/mol
# Density = 2.048565 g / cm^3
# Si number density = 20.532380 Si / 1000 Ang^3
#
#
#
# Elastic Constant Matrix: (Units=GPa)
#
#
# Indices 1 2 3 4 5 6 
#
# 1 136.0674 16.1907 40.8872 -5.2582 6.9157 -0.3939
# 2 16.1907 52.5779 23.8073 -2.8237 4.7526 3.8621
# 3 40.8872 23.8073 120.0233 -2.2451 14.5136 -1.0966
# 4 -5.2582 -2.8237 -2.2451 28.6740 -8.5867 -7.2730
# 5 6.9157 4.7526 14.5136 -8.5867 54.4404 -1.6395
# 6 -0.3939 3.8621 -1.0966 -7.2730 -1.6395 23.6921
#
#
#
# Elastic Compliance Matrix: (Units=1/GPa)
#
#
# Indices 1 2 3 4 5 6 
#
# 1 0.008330 -0.001395 -0.002526 0.001351 -0.000030 0.000662
# 2 -0.001395 0.021491 -0.003722 0.000427 -0.000748 -0.003619
# 3 -0.002526 -0.003722 0.010185 -0.000480 -0.002123 0.000742
# 4 0.001351 0.000427 -0.000480 0.040367 0.006671 0.012784
# 5 -0.000030 -0.000748 -0.002123 0.006671 0.020160 0.003466
# 6 0.000662 -0.003619 0.000742 0.012784 0.003466 0.047008
#
#
# Mechanical properties :
#
#
# Convention : Reuss Voigt Hill
#
# Bulk Modulus (GPa) = 40.45352 52.27101 46.36227
# Shear Modulus (GPa) = 29.22821 36.54685 32.88753
#
# Velocity S-wave (km/s) = 3.77705 4.22354 4.00652
# Velocity P-wave (km/s) = 6.22628 7.02121 6.63566
#
# Compressibility (1/GPa) = 0.02471973
#
# Stress axis : x y z
#
# Youngs Moduli (GPa) = 120.04833 46.53164 98.18262
#
# Poissons Ratio (x) = 0.06489 0.24802
# Poissons Ratio (y) = 0.16742 0.36547
# Poissons Ratio (z) = 0.30326 0.17321
#
# Static dielectric constant tensor:
#      x y z
#    x 4.086990 -0.028240 -0.235660 
#    y -0.028240 3.439600 -0.062150 
#    z -0.235660 -0.062150 4.366950 
# 
# 
# High freq. dielectric constant tensor:
#      x y z
#    x 1.821730 -0.001360 -0.004280 
#    y -0.001360 1.765540 -0.003630 
#    z -0.004280 -0.003630 1.826270 
# 
# From -- ./inp_files/207012.got.cif
#   From: 2010.06.25/outbox.cif.g09.slc.cpg/sg2_104_cif.got.tgz:207012.got - 2010.06.27 13:26:56.
