data_PCOD8006611
_publ_section_title
;
Structure prediction by ZEFSAII (Michael W. Deem and Ramdas Pophale) SiO2 
 PCOD8006611
Probable space group: P -1
;
_chemical_formula_sum "Si O2"
_cell_formula_units_Z 16
_cell_length_a 14.679728
_cell_length_b 26.139180
_cell_length_c 8.998596
_cell_angle_alpha 31.744910
_cell_angle_beta 126.999924
_cell_angle_gamma 149.249919
_cell_volume 815.061957
_symmetry_space_group_name_H-M "P -1"
_symmetry_group_IT_number 2
_symmetry_cell_setting 'triclinic'
loop_
_space_group_symop_operation_xyz
x,y,z
-x,-y,-z
loop_
_atom_site_type_symbol
_atom_site_label
_atom_site_fract_x
_atom_site_fract_y
_atom_site_fract_z
Si Si1 0.540771 0.821105 0.821986
Si Si2 0.097468 0.840386 0.824675
Si Si3 0.631813 0.509539 0.179201
Si Si4 0.374581 0.494963 0.465697
Si Si5 0.085574 0.835552 0.170598
Si Si6 0.807975 0.310483 0.344067
Si Si7 0.663338 0.171528 0.840381
Si Si8 0.549924 0.823909 0.174665
O O1 0.398554 0.804531 0.656098
O O2 0.768066 0.992065 0.557621
O O3 0.458520 0.658337 0.093137
O O4 0.533867 0.828554 0.972669
O O5 0.108792 0.878332 0.914478
O O6 0.186961 0.795008 0.006852
O O7 0.866057 0.681614 0.932161
O O8 0.611703 0.506828 0.341183
O O9 0.543991 0.344112 0.450773
O O10 0.500000 0.500000 0.000000
O O11 0.500000 0.500000 0.500000
O O12 0.144813 0.321706 0.612880
O O13 0.171406 0.790182 0.406615
O O14 0.213599 0.005788 0.966959
O O15 0.795843 0.327151 0.467150
O O16 0.000000 0.500000 0.000000
O O17 0.565852 0.172054 0.864348
O O18 0.500000 0.000000 0.000000
#
# Coordination Sequence:
#
# PCOD8006611 Si02
#       8
#     2   2   2   2   2   2   2   2
#     4  11  22  38  61  94 123 153 200 253 301 354
#     4  10  21  41  64  87 124 163 202 241 300 371
#     4  10  25  45  60  86 123 160 208 257 302 348
#     4  10  23  41  62  85 116 157 208 252 296 357
#     4  10  20  40  62  87 122 162 196 242 300 369
#     4  11  20  37  62  89 126 158 198 236 296 374
#     4  11  20  39  63  91 125 160 196 239 302 377
#     4  11  23  40  62  91 127 156 196 257 305 350
#
# _framework density 19.630410000000001
#
# number of rings (size 3 to 8) (size 9 to 14) (size 15 to 20)
#    0.000    1.500    5.000    0.000    1.750    6.500 
#    2.250    5.000    0.000    0.000    0.000    0.000 
#    0.000    0.000    0.000    0.000    0.000    0.000 
#
# Total GULP energy -198403.408203 kJ/mol
# GULP energy per Si atom -12400.213013 kJ/mol
# Density = 1.958573 g / cm^3
# Si number density = 19.630410 Si / 1000 Ang^3
#
#
#
# Elastic Constant Matrix: (Units=GPa)
#
#
# Indices 1 2 3 4 5 6 
#
# 1 125.2093 53.0526 48.8403 -15.7594 -0.2973 16.3228
# 2 53.0526 120.7538 53.6476 -17.6021 10.2685 28.8419
# 3 48.8403 53.6476 114.1784 -18.9404 -22.5708 17.5227
# 4 -15.7594 -17.6021 -18.9404 36.4695 6.6673 0.3547
# 5 -0.2973 10.2685 -22.5708 6.6673 24.7660 -0.9060
# 6 16.3228 28.8419 17.5227 0.3547 -0.9060 33.2365
#
#
#
# Elastic Compliance Matrix: (Units=1/GPa)
#
#
# Indices 1 2 3 4 5 6 
#
# 1 0.010787 -0.002223 -0.003493 0.002304 -0.002812 -0.001628
# 2 -0.002223 0.017739 -0.007979 0.006637 -0.016829 -0.010625
# 3 -0.003493 -0.007979 0.017977 0.000409 0.019529 -0.000310
# 4 0.002304 0.006637 0.000409 0.034066 -0.011808 -0.007792
# 5 -0.002812 -0.016829 0.019529 -0.011808 0.068580 0.007685
# 6 -0.001628 -0.010625 -0.000310 -0.007792 0.007685 0.040563
#
#
# Mechanical properties :
#
#
# Convention : Reuss Voigt Hill
#
# Bulk Modulus (GPa) = 52.32366 74.58027 63.45196
# Shear Modulus (GPa) = 22.37387 32.53447 27.45417
#
# Velocity S-wave (km/s) = 3.37969 4.07547 3.74378
# Velocity P-wave (km/s) = 6.47626 7.76020 7.14712
#
# Compressibility (1/GPa) = 0.01911181
#
# Stress axis : x y z
#
# Youngs Moduli (GPa) = 92.70545 56.37171 55.62511
#
# Poissons Ratio (x) = 0.12534 0.19432
# Poissons Ratio (y) = 0.20612 0.44384
# Poissons Ratio (z) = 0.32386 0.44980
#
# Static dielectric constant tensor:
#      x y z
#    x 3.548850 0.103490 -0.196060 
#    y 0.103490 3.685960 -0.157920 
#    z -0.196060 -0.157920 3.863810 
# 
# 
# High freq. dielectric constant tensor:
#      x y z
#    x 1.756050 0.011200 -0.013470 
#    y 0.011200 1.764570 -0.006100 
#    z -0.013470 -0.006100 1.778310 
# 
# From -- ./inp_files/170862.got.cif
#   From: 2010.06.25/outbox.cif.g09.slc.cpg/sg2_86_cif.got.tgz:170862.got - 2010.06.27 13:26:56.
