data_PCOD8006917
_publ_section_title
;
Structure prediction by ZEFSAII (Michael W. Deem and Ramdas Pophale) SiO2 
 PCOD8006917
Probable space group: P -1
;
_chemical_formula_sum "Si O2"
_cell_formula_units_Z 16
_cell_length_a 22.393932
_cell_length_b 13.598545
_cell_length_c 7.243705
_cell_angle_alpha 142.901180
_cell_angle_beta 49.832065
_cell_angle_gamma 142.677276
_cell_volume 806.382792
_symmetry_space_group_name_H-M "P -1"
_symmetry_group_IT_number 2
_symmetry_cell_setting 'triclinic'
loop_
_space_group_symop_operation_xyz
x,y,z
-x,-y,-z
loop_
_atom_site_type_symbol
_atom_site_label
_atom_site_fract_x
_atom_site_fract_y
_atom_site_fract_z
Si Si1 0.269721 0.086502 0.643173
Si Si2 0.046063 0.172551 0.322956
Si Si3 0.215818 0.631210 0.653973
Si Si4 0.320160 0.864595 0.424312
Si Si5 0.184296 0.158629 0.255943
Si Si6 0.328010 0.610813 0.727516
Si Si7 0.473025 0.297946 0.656734
Si Si8 0.860809 0.122798 0.748088
O O1 0.387191 0.235050 0.584368
O O2 0.242138 0.877256 0.482407
O O3 0.211860 0.046418 0.511926
O O4 0.244611 0.194567 0.003521
O O5 0.142453 0.391334 0.384821
O O6 0.078689 0.099074 0.318211
O O7 0.970359 0.210593 0.605460
O O8 0.000000 0.000000 0.000000
O O9 0.279108 0.764979 0.554177
O O10 0.294069 0.679027 0.725592
O O11 0.149384 0.695809 0.957405
O O12 0.420998 0.099846 0.602700
O O13 0.340867 0.728289 0.064060
O O14 0.246233 0.368749 0.563583
O O15 0.167135 0.979903 0.148771
O O16 0.433518 0.663953 0.565435
O O17 0.500000 0.500000 0.000000
#
# Coordination Sequence:
#
# PCOD8006917 Si02
#       8
#     2   2   2   2   2   2   2   2
#     4  10  21  40  64  90 127 163 204 259 303 367
#     4  11  25  41  64  95 126 159 211 263 308 370
#     4  11  24  42  65  91 125 169 205 255 315 365
#     4  10  22  39  63  93 125 164 209 251 307 370
#     4  11  23  41  65  93 126 166 205 257 317 364
#     4  11  22  40  65  93 129 162 206 261 303 365
#     4  10  20  40  65  92 130 165 200 258 312 365
#     4  12  22  44  65  88 127 168 207 257 314 370
#
# _framework density 19.841694
#
# number of rings (size 3 to 8) (size 9 to 14) (size 15 to 20)
#    0.750    0.500    5.000    1.125    1.750    0.500 
#    0.000    3.125    0.000    0.000    0.000    0.000 
#    0.000    0.000    0.000    0.000    0.000    0.000 
#
# Total GULP energy -198310.811527 kJ/mol
# GULP energy per Si atom -12394.425720 kJ/mol
# Density = 1.979653 g / cm^3
# Si number density = 19.841694 Si / 1000 Ang^3
#
#
#
# Elastic Constant Matrix: (Units=GPa)
#
#
# Indices 1 2 3 4 5 6 
#
# 1 88.9894 17.7526 19.3976 -8.0272 -9.7006 18.1855
# 2 17.7526 64.8843 30.9671 6.3870 8.0609 8.1764
# 3 19.3976 30.9671 115.8771 4.3704 -13.9413 6.2530
# 4 -8.0272 6.3870 4.3704 33.0597 4.0586 -5.4936
# 5 -9.7006 8.0609 -13.9413 4.0586 34.5273 -3.0252
# 6 18.1855 8.1764 6.2530 -5.4936 -3.0252 28.4360
#
#
#
# Elastic Compliance Matrix: (Units=1/GPa)
#
#
# Indices 1 2 3 4 5 6 
#
# 1 0.014116 -0.003290 -0.000779 0.002566 0.003501 -0.007042
# 2 -0.003290 0.020903 -0.005624 -0.003819 -0.007999 -0.004258
# 3 -0.000779 -0.005624 0.010990 -0.001243 0.005683 0.000063
# 4 0.002566 -0.003819 -0.001243 0.033026 -0.002257 0.005871
# 5 0.003501 -0.007999 0.005683 -0.002257 0.034554 0.002052
# 6 -0.007042 -0.004258 0.000063 0.005871 0.002052 0.042233
#
#
# Mechanical properties :
#
#
# Convention : Reuss Voigt Hill
#
# Bulk Modulus (GPa) = 37.56301 45.10947 41.33624
# Shear Modulus (GPa) = 27.16176 32.64684 29.90430
#
# Velocity S-wave (km/s) = 3.70391 4.06071 3.88641
# Velocity P-wave (km/s) = 6.10446 6.69103 6.40446
#
# Compressibility (1/GPa) = 0.02662193
#
# Stress axis : x y z
#
# Youngs Moduli (GPa) = 70.84347 47.84061 90.98818
#
# Poissons Ratio (x) = 0.15741 0.07090
# Poissons Ratio (y) = 0.23310 0.51170
# Poissons Ratio (z) = 0.05520 0.26905
#
# Static dielectric constant tensor:
#      x y z
#    x 3.741890 0.097850 -0.225610 
#    y 0.097850 3.407870 0.072080 
#    z -0.225610 0.072080 3.772870 
# 
# 
# High freq. dielectric constant tensor:
#      x y z
#    x 1.780170 0.007330 -0.018800 
#    y 0.007330 1.757400 0.009550 
#    z -0.018800 0.009550 1.781350 
# 
# From -- ./inp_files/118899.got.cif
#   From: 2010.06.25/outbox.cif.g09.slc.cpg/sg2_60_cif.got.tgz:118899.got - 2010.06.27 13:26:56.
