data_PCOD8006685
_publ_section_title
;
Structure prediction by ZEFSAII (Michael W. Deem and Ramdas Pophale) SiO2 
 PCOD8006685
Probable space group: P -1
;
_chemical_formula_sum "Si O2"
_cell_formula_units_Z 16
_cell_length_a 15.524997
_cell_length_b 18.179785
_cell_length_c 8.586922
_cell_angle_alpha 57.262556
_cell_angle_beta 68.825127
_cell_angle_gamma 22.655171
_cell_volume 710.628704
_symmetry_space_group_name_H-M "P -1"
_symmetry_group_IT_number 2
_symmetry_cell_setting 'triclinic'
loop_
_space_group_symop_operation_xyz
x,y,z
-x,-y,-z
loop_
_atom_site_type_symbol
_atom_site_label
_atom_site_fract_x
_atom_site_fract_y
_atom_site_fract_z
Si Si1 0.629556 0.554588 0.364724
Si Si2 0.894119 0.429739 0.925339
Si Si3 0.714935 0.327523 0.776491
Si Si4 0.372116 0.057758 0.883513
Si Si5 0.897047 0.014256 0.832513
Si Si6 0.257552 0.257525 0.428143
Si Si7 0.260078 0.618451 0.823585
Si Si8 0.158002 0.461264 0.831613
O O1 0.597173 0.521528 0.573887
O O2 0.352643 0.823841 0.184010
O O3 0.778701 0.370500 0.344715
O O4 0.772023 0.519026 0.349686
O O5 0.727870 0.649655 0.694662
O O6 0.154361 0.188040 0.944249
O O7 0.744541 0.469120 0.975895
O O8 0.967736 0.393231 0.095539
O O9 0.817231 0.185238 0.720991
O O10 0.521673 0.439213 0.875188
O O11 0.935361 0.164087 0.930114
O O12 0.238999 0.239527 0.638082
O O13 0.500000 0.000000 0.000000
O O14 0.594191 0.803934 0.961443
O O15 0.042405 0.873293 0.736162
O O16 0.021498 0.441855 0.262533
O O17 0.500000 0.000000 0.500000
#
# Coordination Sequence:
#
# PCOD8006685 Si02
#       8
#     2   2   2   2   2   2   2   2
#     4  10  23  40  63  95 126 165 213 259 312 379
#     4  11  23  42  65  97 130 169 219 264 319 387
#     4  10  22  40  64  92 127 168 211 256 315 381
#     4  12  24  42  70  90 129 172 212 270 322 375
#     4  10  20  40  63  86 126 165 208 259 320 361
#     4  12  24  44  69  94 128 177 212 263 327 383
#     4  10  21  39  65  91 129 165 208 265 313 371
#     4  11  24  44  64  95 136 167 216 269 317 379
#
# _framework density 22.515274000000002
#
# number of rings (size 3 to 8) (size 9 to 14) (size 15 to 20)
#    0.000    1.250    2.500    4.125    0.000    4.000 
#    4.500    0.000    2.750    0.000    0.000    0.000 
#    0.000    0.000    0.000    0.000    0.000    0.000 
#
# Total GULP energy -198312.521206 kJ/mol
# GULP energy per Si atom -12394.532575 kJ/mol
# Density = 2.246403 g / cm^3
# Si number density = 22.515274 Si / 1000 Ang^3
#
#
#
# Elastic Constant Matrix: (Units=GPa)
#
#
# Indices 1 2 3 4 5 6 
#
# 1 67.9558 34.4875 46.0234 1.6133 -24.0197 -18.8945
# 2 34.4875 128.8186 34.3122 -3.3280 -13.7096 -7.5559
# 3 46.0234 34.3122 114.0317 1.9540 -24.2254 -26.7271
# 4 1.6133 -3.3280 1.9540 26.9197 -7.1804 -3.6418
# 5 -24.0197 -13.7096 -24.2254 -7.1804 28.0183 8.6017
# 6 -18.8945 -7.5559 -26.7271 -3.6418 8.6017 35.5520
#
#
#
# Elastic Compliance Matrix: (Units=1/GPa)
#
#
# Indices 1 2 3 4 5 6 
#
# 1 0.027545 -0.003828 -0.005057 0.003456 0.016277 0.006439
# 2 -0.003828 0.009204 -0.001346 0.001525 0.000795 -0.001126
# 3 -0.005057 -0.001346 0.013798 0.001415 0.005382 0.006242
# 4 0.003456 0.001525 0.001415 0.041384 0.014310 0.004002
# 5 0.016277 0.000795 0.005382 0.014310 0.058284 0.000230
# 6 0.006439 -0.001126 0.006242 0.004002 0.000230 0.036357
#
#
# Mechanical properties :
#
#
# Convention : Reuss Voigt Hill
#
# Bulk Modulus (GPa) = 33.23978 60.05027 46.64503
# Shear Modulus (GPa) = 23.03482 31.16352 27.09917
#
# Velocity S-wave (km/s) = 3.20202 3.72439 3.47304
# Velocity P-wave (km/s) = 5.33534 6.72485 6.06999
#
# Compressibility (1/GPa) = 0.03008443
#
# Stress axis : x y z
#
# Youngs Moduli (GPa) = 36.30446 108.64758 72.47571
#
# Poissons Ratio (x) = 0.41591 0.36653
# Poissons Ratio (y) = 0.13897 0.09753
# Poissons Ratio (z) = 0.18360 0.14621
#
# Static dielectric constant tensor:
#      x y z
#    x 3.997140 0.044570 -0.160170 
#    y 0.044570 4.348510 -0.008890 
#    z -0.160170 -0.008890 4.016260 
# 
# 
# High freq. dielectric constant tensor:
#      x y z
#    x 1.878890 0.001840 -0.012510 
#    y 0.001840 1.900600 0.003590 
#    z -0.012510 0.003590 1.872450 
# 
# From -- ./inp_files/337578.got.cif
#   From: 2010.06.25/outbox.cif.g09.slc.cpg/sg2_169_cif.got.tgz:337578.got - 2010.06.27 13:26:56.
