data_PCOD8006183
_publ_section_title
;
Structure prediction by ZEFSAII (Michael W. Deem and Ramdas Pophale) SiO2 
 PCOD8006183
Probable space group: P -1
;
_chemical_formula_sum "Si O2"
_cell_formula_units_Z 14
_cell_length_a 6.551390
_cell_length_b 19.113871
_cell_length_c 5.625284
_cell_angle_alpha 72.270749
_cell_angle_beta 102.401891
_cell_angle_gamma 126.521785
_cell_volume 538.683336
_symmetry_space_group_name_H-M "P -1"
_symmetry_group_IT_number 2
_symmetry_cell_setting 'triclinic'
loop_
_space_group_symop_operation_xyz
x,y,z
-x,-y,-z
loop_
_atom_site_type_symbol
_atom_site_label
_atom_site_fract_x
_atom_site_fract_y
_atom_site_fract_z
Si Si1 0.388184 0.396468 0.584056
Si Si2 0.352169 0.060622 0.209791
Si Si3 0.287249 0.659216 0.081573
Si Si4 0.321622 0.200566 0.295618
Si Si5 0.147124 0.871958 0.457213
Si Si6 0.240135 0.403236 0.041404
Si Si7 0.349916 0.812147 0.224146
O O1 0.500000 0.500000 0.500000
O O2 0.617232 0.381999 0.662594
O O3 0.239102 0.353859 0.338194
O O4 0.220045 0.356226 0.828276
O O5 0.236396 0.117529 0.183941
O O6 0.569098 0.087135 0.428666
O O7 0.133776 0.954278 0.278022
O O8 0.476051 0.088696 0.950497
O O9 0.252875 0.737046 0.077119
O O10 0.499011 0.702269 0.881818
O O11 0.996636 0.586120 0.002144
O O12 0.473614 0.202192 0.555284
O O13 0.061880 0.186381 0.335171
O O14 0.113218 0.806312 0.301143
O O15 0.500000 0.500000 0.000000
#
# Coordination Sequence:
#
# PCOD8006183 Si02
#       7
#     2   2   2   2   2   2   2
#     4  10  25  46  76 111 140 190 240 295 374 439
#     4   9  20  39  61  94 130 183 234 298 341 421
#     4  11  26  45  68 102 152 180 237 308 362 439
#     4  10  23  39  60  99 136 183 232 288 365 427
#     4  10  20  39  66  89 135 181 239 289 351 424
#     4  10  25  47  76 110 142 188 243 297 370 441
#     4  10  23  39  59  98 134 182 233 286 368 423
#
# _framework density 25.989293
#
# number of rings (size 3 to 8) (size 9 to 14) (size 15 to 20)
#    0.000    2.000    0.000    0.857    4.000   12.000 
#    0.000    0.000    0.000    0.000    0.000    0.000 
#    0.000    0.000    0.000    0.000    0.000    0.000 
#
# Total GULP energy -173476.049220 kJ/mol
# GULP energy per Si atom -12391.146373 kJ/mol
# Density = 2.593014 g / cm^3
# Si number density = 25.989293 Si / 1000 Ang^3
#
#
#
# Elastic Constant Matrix: (Units=GPa)
#
#
# Indices 1 2 3 4 5 6 
#
# 1 154.1721 34.5513 52.0987 -11.8826 -26.3670 8.8144
# 2 34.5513 51.8295 21.0351 -18.4377 -13.1295 -1.9100
# 3 52.0987 21.0351 164.0026 0.9980 -15.0157 -1.8055
# 4 -11.8826 -18.4377 0.9980 28.8958 -5.9720 -3.9334
# 5 -26.3670 -13.1295 -15.0157 -5.9720 52.8716 -1.2541
# 6 8.8144 -1.9100 -1.8055 -3.9334 -1.2541 29.5923
#
#
#
# Elastic Compliance Matrix: (Units=1/GPa)
#
#
# Indices 1 2 3 4 5 6 
#
# 1 0.008827 -0.003865 -0.002076 0.001481 0.002956 -0.002683
# 2 -0.003865 0.033019 -0.002314 0.022144 0.008269 0.006435
# 3 -0.002076 -0.002314 0.007088 -0.002468 0.000138 0.000579
# 4 0.001481 0.022144 -0.002468 0.052994 0.011721 0.008378
# 5 0.002956 0.008269 0.000138 0.011721 0.023857 0.002231
# 6 -0.002683 0.006435 0.000579 0.008378 0.002231 0.036251
#
#
# Mechanical properties :
#
#
# Convention : Reuss Voigt Hill
#
# Bulk Modulus (GPa) = 30.84186 65.04161 47.94173
# Shear Modulus (GPa) = 26.40548 39.75986 33.08267
#
# Velocity S-wave (km/s) = 3.19095 3.91558 3.57169
# Velocity P-wave (km/s) = 5.04670 6.74707 5.95786
#
# Compressibility (1/GPa) = 0.03242347
#
# Stress axis : x y z
#
# Youngs Moduli (GPa) = 113.28569 30.28564 141.08597
#
# Poissons Ratio (x) = 0.11705 0.29294
# Poissons Ratio (y) = 0.43783 0.32649
# Poissons Ratio (z) = 0.23522 0.07008
#
# Static dielectric constant tensor:
#      x y z
#    x 4.809870 -0.331950 -0.471600 
#    y -0.331950 4.715330 0.295240 
#    z -0.471600 0.295240 5.634400 
# 
# 
# High freq. dielectric constant tensor:
#      x y z
#    x 2.039750 -0.008340 -0.006950 
#    y -0.008340 2.023830 -0.006050 
#    z -0.006950 -0.006050 2.049130 
# 
# From -- ./inp_files/10176.got.cif
#   From: 2010.06.25/outbox.cif.g09.slc.cpg/sg2_6_cif.got.tgz:10176.got - 2010.06.27 13:26:56.
