data_PCOD8006221
_publ_section_title
;
Structure prediction by ZEFSAII (Michael W. Deem and Ramdas Pophale) SiO2 
 PCOD8006221
Probable space group: P -1
;
_chemical_formula_sum "Si O2"
_cell_formula_units_Z 16
_cell_length_a 16.226300
_cell_length_b 25.522573
_cell_length_c 18.849048
_cell_angle_alpha 161.285882
_cell_angle_beta 151.374880
_cell_angle_gamma 18.162981
_cell_volume 761.306719
_symmetry_space_group_name_H-M "P -1"
_symmetry_group_IT_number 2
_symmetry_cell_setting 'triclinic'
loop_
_space_group_symop_operation_xyz
x,y,z
-x,-y,-z
loop_
_atom_site_type_symbol
_atom_site_label
_atom_site_fract_x
_atom_site_fract_y
_atom_site_fract_z
Si Si1 0.463995 0.375635 0.209866
Si Si2 0.816969 0.155488 0.323117
Si Si3 0.647316 0.478144 0.969685
Si Si4 0.157129 0.468235 0.481007
Si Si5 0.404185 0.080355 0.289282
Si Si6 0.599755 0.217982 0.693002
Si Si7 0.220646 0.141578 0.005673
Si Si8 0.302452 0.712678 0.873557
O O1 0.695811 0.279199 0.312726
O O2 0.205797 0.670875 0.418367
O O3 0.512346 0.368204 0.154751
O O4 0.444625 0.195024 0.974311
O O5 0.132159 0.909881 0.231451
O O6 0.698629 0.073779 0.160975
O O7 0.553057 0.364169 0.774955
O O8 0.452149 0.673236 0.006845
O O9 0.618046 0.607822 0.185300
O O10 0.972629 0.261806 0.920026
O O11 0.362380 0.226083 0.377525
O O12 0.091591 0.387074 0.266098
O O13 0.309597 0.512126 0.620734
O O14 0.888432 0.735191 0.659063
O O15 0.599936 0.029827 0.427560
O O16 0.500000 0.000000 0.000000
O O17 0.000000 0.000000 0.000000
#
# Coordination Sequence:
#
# PCOD8006221 Si02
#       8
#     2   2   2   2   2   2   2   2
#     4  11  23  42  62  92 133 170 216 256 334 393
#     4  10  23  42  66  92 125 177 216 262 328 394
#     4  10  22  39  65  99 129 167 222 264 323 389
#     4  11  22  38  64  97 124 166 221 263 318 380
#     4  11  21  38  65  94 125 165 215 271 309 380
#     4  10  20  39  66  94 125 166 221 271 312 381
#     4  11  22  43  67  95 130 172 218 271 318 385
#     4  12  23  40  63  98 134 172 206 271 334 382
#
# _framework density 21.016496
#
# number of rings (size 3 to 8) (size 9 to 14) (size 15 to 20)
#    0.000    1.250    5.000    1.500    0.000    0.500 
#    2.250    8.125    0.000    0.000    0.000    0.000 
#    0.000    0.000    0.000    0.000    0.000    0.000 
#
# Total GULP energy -198219.711941 kJ/mol
# GULP energy per Si atom -12388.731996 kJ/mol
# Density = 2.096866 g / cm^3
# Si number density = 21.016496 Si / 1000 Ang^3
#
#
#
# Elastic Constant Matrix: (Units=GPa)
#
#
# Indices 1 2 3 4 5 6 
#
# 1 80.5487 45.9641 20.2494 -3.6867 5.8737 7.0709
# 2 45.9641 97.8973 12.7561 -8.4805 2.9115 5.3225
# 3 20.2494 12.7561 136.1685 -8.6495 7.6666 -4.0058
# 4 -3.6867 -8.4805 -8.6495 26.8813 3.2433 -1.0680
# 5 5.8737 2.9115 7.6666 3.2433 27.2061 -2.4918
# 6 7.0709 5.3225 -4.0058 -1.0680 -2.4918 25.2529
#
#
#
# Elastic Compliance Matrix: (Units=1/GPa)
#
#
# Indices 1 2 3 4 5 6 
#
# 1 0.017944 -0.007918 -0.001916 -0.000474 -0.002793 -0.003955
# 2 -0.007918 0.014269 0.000057 0.003444 -0.000305 -0.000666
# 3 -0.001916 0.000057 0.007952 0.002622 -0.001990 0.001700
# 4 -0.000474 0.003444 0.002622 0.039786 -0.005661 0.000947
# 5 -0.002793 -0.000305 -0.001990 -0.005661 0.039007 0.004140
# 6 -0.003955 -0.000666 0.001700 0.000947 0.004140 0.041565
#
#
# Mechanical properties :
#
#
# Convention : Reuss Voigt Hill
#
# Bulk Modulus (GPa) = 48.51806 52.50597 50.51201
# Shear Modulus (GPa) = 26.74543 31.57772 29.16157
#
# Velocity S-wave (km/s) = 3.57121 3.88044 3.72903
# Velocity P-wave (km/s) = 6.33566 6.71674 6.52898
#
# Compressibility (1/GPa) = 0.02061088
#
# Stress axis : x y z
#
# Youngs Moduli (GPa) = 55.72853 70.08341 125.75474
#
# Poissons Ratio (x) = 0.55494 0.24093
# Poissons Ratio (y) = 0.44128 -0.00720
# Poissons Ratio (z) = 0.10677 -0.00401
#
# Static dielectric constant tensor:
#      x y z
#    x 3.694580 0.057980 0.006460 
#    y 0.057980 3.673470 0.119180 
#    z 0.006460 0.119180 4.065990 
# 
# 
# High freq. dielectric constant tensor:
#      x y z
#    x 1.806840 0.003990 0.001690 
#    y 0.003990 1.817290 -0.006550 
#    z 0.001690 -0.006550 1.830550 
# 
# From -- ./inp_files/218335.got.cif
#   From: 2010.06.25/outbox.cif.g09.slc.cpg/sg2_110_cif.got.tgz:218335.got - 2010.06.27 13:26:56.
