data_PCOD8006778
_publ_section_title
;
Structure prediction by ZEFSAII (Michael W. Deem and Ramdas Pophale) SiO2 
 PCOD8006778
Probable space group: P -1
;
_chemical_formula_sum "Si O2"
_cell_formula_units_Z 16
_cell_length_a 14.736071
_cell_length_b 8.975170
_cell_length_c 10.975816
_cell_angle_alpha 42.326812
_cell_angle_beta 55.253863
_cell_angle_gamma 72.185305
_cell_volume 785.507855
_symmetry_space_group_name_H-M "P -1"
_symmetry_group_IT_number 2
_symmetry_cell_setting 'triclinic'
loop_
_space_group_symop_operation_xyz
x,y,z
-x,-y,-z
loop_
_atom_site_type_symbol
_atom_site_label
_atom_site_fract_x
_atom_site_fract_y
_atom_site_fract_z
Si Si1 0.042168 0.206203 0.433504
Si Si2 0.486988 0.338443 0.752725
Si Si3 0.263698 0.275911 0.845634
Si Si4 0.113772 0.523254 0.973234
Si Si5 0.635717 0.005181 0.759226
Si Si6 0.229082 0.036188 0.544767
Si Si7 0.708415 0.616857 0.505089
Si Si8 0.803411 0.196990 0.708080
O O1 0.137081 0.154773 0.481386
O O2 0.938762 0.247551 0.571214
O O3 0.090122 0.432635 0.183392
O O4 0.000000 0.000000 0.500000
O O5 0.395720 0.405234 0.687529
O O6 0.547149 0.166482 0.737557
O O7 0.575286 0.545404 0.619032
O O8 0.412654 0.223424 0.993164
O O9 0.187317 0.368656 0.944680
O O10 0.226030 0.320879 0.710767
O O11 0.248196 0.005841 0.037722
O O12 0.177322 0.781060 0.776641
O O13 0.000000 0.500000 0.000000
O O14 0.755546 0.132283 0.647901
O O15 0.662260 0.952044 0.632270
O O16 0.274172 0.166784 0.553634
O O17 0.757685 0.417363 0.653084
#
# Coordination Sequence:
#
# PCOD8006778 Si02
#       8
#     2   2   2   2   2   2   2   2
#     4  12  20  39  67  91 114 153 206 253 295 353
#     4   9  19  38  64  87 111 163 209 245 291 354
#     4  11  21  39  66  88 116 161 209 244 291 360
#     4  12  22  39  68  92 117 156 208 251 292 358
#     4   9  17  37  64  87 115 154 208 249 291 350
#     4  12  25  39  58  94 127 157 194 251 310 355
#     4  11  25  39  57  89 132 158 193 251 308 355
#     4  10  20  40  64  88 116 159 204 249 295 356
#
# _framework density 20.368988999999999
#
# number of rings (size 3 to 8) (size 9 to 14) (size 15 to 20)
#    0.000    1.250    3.750    4.125    0.000    2.000 
#    0.000    6.875    0.000    0.000    0.000    0.000 
#    0.000    0.000    0.000    0.000    0.000    0.000 
#
# Total GULP energy -198446.756753 kJ/mol
# GULP energy per Si atom -12402.922297 kJ/mol
# Density = 2.032263 g / cm^3
# Si number density = 20.368989 Si / 1000 Ang^3
#
#
#
# Elastic Constant Matrix: (Units=GPa)
#
#
# Indices 1 2 3 4 5 6 
#
# 1 80.9169 33.5281 33.5872 2.6567 -2.6425 -7.1244
# 2 33.5281 80.4240 49.2565 -8.3258 -11.5197 6.8810
# 3 33.5872 49.2565 102.6707 -5.7828 4.5315 1.3666
# 4 2.6567 -8.3258 -5.7828 29.5942 -12.3700 -4.8628
# 5 -2.6425 -11.5197 4.5315 -12.3700 30.2143 0.2798
# 6 -7.1244 6.8810 1.3666 -4.8628 0.2798 32.7477
#
#
#
# Elastic Compliance Matrix: (Units=1/GPa)
#
#
# Indices 1 2 3 4 5 6 
#
# 1 0.016537 -0.006534 -0.002459 -0.004060 -0.002380 0.004491
# 2 -0.006534 0.024824 -0.009742 0.011148 0.014962 -0.004703
# 3 -0.002459 -0.009742 0.015392 -0.002447 -0.007245 0.000568
# 4 -0.004060 0.011148 -0.002447 0.047278 0.023584 0.003695
# 5 -0.002380 0.014962 -0.007245 0.023584 0.049338 -0.000279
# 6 0.004491 -0.004703 0.000568 0.003695 -0.000279 0.033029
#
#
# Mechanical properties :
#
#
# Convention : Reuss Voigt Hill
#
# Bulk Modulus (GPa) = 51.85427 55.19504 53.52466
# Shear Modulus (GPa) = 21.71128 28.35389 25.03259
#
# Velocity S-wave (km/s) = 3.26835 3.73502 3.50945
# Velocity P-wave (km/s) = 6.30520 6.76438 6.53882
#
# Compressibility (1/GPa) = 0.01928481
#
# Stress axis : x y z
#
# Youngs Moduli (GPa) = 60.46985 40.28364 64.96782
#
# Poissons Ratio (x) = 0.26320 0.15974
# Poissons Ratio (y) = 0.39509 0.63290
# Poissons Ratio (z) = 0.14868 0.39244
#
# Static dielectric constant tensor:
#      x y z
#    x 3.686120 -0.219340 0.036010 
#    y -0.219340 3.471870 0.002190 
#    z 0.036010 0.002190 3.931620 
# 
# 
# High freq. dielectric constant tensor:
#      x y z
#    x 1.790340 -0.024060 0.004500 
#    y -0.024060 1.772400 0.004100 
#    z 0.004500 0.004100 1.815660 
# 
# From -- ./inp_files/398283.got.cif
#   From: 2010.06.25/outbox.cif.g09.slc.cpg/sg2_200_cif.got.tgz:398283.got - 2010.06.27 13:26:56.
