data_PCOD8006399
_publ_section_title
;
Structure prediction by ZEFSAII (Michael W. Deem and Ramdas Pophale) SiO2 
 PCOD8006399
Probable space group: P -1
;
_chemical_formula_sum "Si O2"
_cell_formula_units_Z 14
_cell_length_a 8.731186
_cell_length_b 8.412199
_cell_length_c 9.511986
_cell_angle_alpha 73.144875
_cell_angle_beta 72.260402
_cell_angle_gamma 74.437986
_cell_volume 624.304693
_symmetry_space_group_name_H-M "P -1"
_symmetry_group_IT_number 2
_symmetry_cell_setting 'triclinic'
loop_
_space_group_symop_operation_xyz
x,y,z
-x,-y,-z
loop_
_atom_site_type_symbol
_atom_site_label
_atom_site_fract_x
_atom_site_fract_y
_atom_site_fract_z
Si Si1 0.414299 0.927567 0.911384
Si Si2 0.463119 0.406758 0.172429
Si Si3 0.100409 0.919307 0.123513
Si Si4 0.199446 0.225276 0.713819
Si Si5 0.776365 0.507694 0.135199
Si Si6 0.153743 0.383864 0.410976
Si Si7 0.905152 0.732828 0.835338
O O1 0.533977 0.792545 0.815231
O O2 0.324201 0.077539 0.795620
O O3 0.280051 0.826161 0.041974
O O4 0.500000 0.000000 0.000000
O O5 0.611004 0.436124 0.225087
O O6 0.290298 0.480523 0.279692
O O7 0.500000 0.500000 0.000000
O O8 0.989237 0.799014 0.252764
O O9 0.136402 0.067301 0.177805
O O10 0.000000 0.000000 0.000000
O O11 0.185491 0.397329 0.759818
O O12 0.254924 0.254616 0.531528
O O13 0.923393 0.345959 0.115426
O O14 0.769116 0.635708 0.969125
O O15 0.083846 0.285663 0.330319
O O16 0.000000 0.500000 0.500000
#
# Coordination Sequence:
#
# PCOD8006399 Si02
#       7
#     2   2   2   2   2   2   2
#     4  11  23  43  69 106 136 177 234 290 336 410
#     4  12  26  43  73 101 134 185 237 280 345 415
#     4  10  20  39  69 101 132 179 232 276 337 407
#     4  11  24  44  68 100 146 181 222 289 348 401
#     4  11  21  39  71 101 131 183 238 281 327 413
#     4  12  27  47  66 104 146 179 226 293 352 406
#     4  11  21  40  70 102 138 181 232 277 341 414
#
# _framework density 22.424948000000001
#
# number of rings (size 3 to 8) (size 9 to 14) (size 15 to 20)
#    0.000    0.857    5.714    3.429    4.000    1.714 
#    0.000    0.000    0.000    0.000    0.000    0.000 
#    0.000    0.000    0.000    0.000    0.000    0.000 
#
# Total GULP energy -173491.342390 kJ/mol
# GULP energy per Si atom -12392.238742 kJ/mol
# Density = 2.237391 g / cm^3
# Si number density = 22.424948 Si / 1000 Ang^3
#
#
#
# Elastic Constant Matrix: (Units=GPa)
#
#
# Indices 1 2 3 4 5 6 
#
# 1 108.5885 28.8964 53.9286 1.2359 -17.2286 8.3056
# 2 28.8964 70.8931 28.0599 14.9445 -3.0494 11.7133
# 3 53.9286 28.0599 141.5896 6.1160 3.4056 5.1244
# 4 1.2359 14.9445 6.1160 32.7217 -2.2892 1.9373
# 5 -17.2286 -3.0494 3.4056 -2.2892 48.3126 1.6976
# 6 8.3056 11.7133 5.1244 1.9373 1.6976 36.6118
#
#
#
# Elastic Compliance Matrix: (Units=1/GPa)
#
#
# Indices 1 2 3 4 5 6 
#
# 1 0.013318 -0.003688 -0.004512 0.002468 0.005007 -0.001573
# 2 -0.003688 0.018696 -0.001796 -0.007815 -0.000222 -0.004470
# 3 -0.004512 -0.001796 0.009219 -0.000930 -0.002433 0.000470
# 4 0.002468 -0.007815 -0.000930 0.034346 0.002074 0.000157
# 5 0.005007 -0.000222 -0.002433 0.002074 0.022806 -0.001892
# 6 -0.001573 -0.004470 0.000470 0.000157 -0.001892 0.029114
#
#
# Mechanical properties :
#
#
# Convention : Reuss Voigt Hill
#
# Bulk Modulus (GPa) = 47.07698 60.31565 53.69632
# Shear Modulus (GPa) = 32.34783 37.54165 34.94474
#
# Velocity S-wave (km/s) = 3.80214 4.09602 3.95181
# Velocity P-wave (km/s) = 6.34931 7.02317 6.69472
#
# Compressibility (1/GPa) = 0.02124181
#
# Stress axis : x y z
#
# Youngs Moduli (GPa) = 75.08870 53.48739 108.47520
#
# Poissons Ratio (x) = 0.19724 0.48941
# Poissons Ratio (y) = 0.27690 0.19482
# Poissons Ratio (z) = 0.33878 0.09606
#
# Static dielectric constant tensor:
#      x y z
#    x 4.457700 -0.147570 -0.225780 
#    y -0.147570 3.614180 0.244910 
#    z -0.225780 0.244910 4.250580 
# 
# 
# High freq. dielectric constant tensor:
#      x y z
#    x 1.904860 0.004610 0.001110 
#    y 0.004610 1.873560 0.012150 
#    z 0.001110 0.012150 1.864500 
# 
# From -- ./inp_files/157867.got.cif
#   From: 2010.06.25/outbox.cif.g09.slc.cpg/sg2_79_cif.got.tgz:157867.got - 2010.06.27 13:26:56.
