data_PCOD8006769
_publ_section_title
;
Structure prediction by ZEFSAII (Michael W. Deem and Ramdas Pophale) SiO2 
 PCOD8006769
Probable space group: P -1
;
_chemical_formula_sum "Si O2"
_cell_formula_units_Z 16
_cell_length_a 21.033695
_cell_length_b 5.183623
_cell_length_c 7.568435
_cell_angle_alpha 66.961407
_cell_angle_beta 61.066639
_cell_angle_gamma 70.884204
_cell_volume 654.743073
_symmetry_space_group_name_H-M "P -1"
_symmetry_group_IT_number 2
_symmetry_cell_setting 'triclinic'
loop_
_space_group_symop_operation_xyz
x,y,z
-x,-y,-z
loop_
_atom_site_type_symbol
_atom_site_label
_atom_site_fract_x
_atom_site_fract_y
_atom_site_fract_z
Si Si1 0.236040 0.985096 0.993729
Si Si2 0.595028 0.477123 0.756382
Si Si3 0.238218 0.711231 0.447521
Si Si4 0.471897 0.864548 0.347932
Si Si5 0.839923 0.732157 0.466008
Si Si6 0.404652 0.841278 0.802258
Si Si7 0.158119 0.528975 0.093627
Si Si8 0.999377 0.678593 0.129399
O O1 0.199626 0.317320 0.946258
O O2 0.228860 0.854673 0.230500
O O3 0.189180 0.825799 0.961918
O O4 0.320771 0.957589 0.831055
O O5 0.676027 0.369399 0.597231
O O6 0.575261 0.815680 0.678829
O O7 0.539859 0.315803 0.761405
O O8 0.588777 0.401019 0.991662
O O9 0.201063 0.428991 0.582470
O O10 0.193840 0.932024 0.589155
O O11 0.447273 0.712731 0.600212
O O12 0.557895 0.896820 0.243004
O O13 0.819356 0.614930 0.711969
O O14 0.927410 0.659731 0.344843
O O15 0.070581 0.563144 0.181060
O O16 0.000000 0.500000 0.000000
O O17 0.000000 0.000000 0.000000
#
# Coordination Sequence:
#
# PCOD8006769 Si02
#       8
#     2   2   2   2   2   2   2   2
#     4   9  20  38  64  89 118 158 203 257 313 354
#     4  11  23  43  65  97 133 174 221 271 329 383
#     4   9  19  37  63  90 119 156 207 256 305 365
#     4  11  25  41  66 100 128 177 226 258 339 392
#     4  10  20  40  64  85 116 162 202 250 299 365
#     4  10  24  44  66  95 138 170 218 283 316 391
#     4  10  21  41  64  87 113 159 211 240 302 383
#     4  12  25  41  57  90 125 156 190 249 310 359
#
# _framework density 24.437066000000002
#
# number of rings (size 3 to 8) (size 9 to 14) (size 15 to 20)
#    0.000    1.750    0.000    3.375    0.000    8.000 
#   13.500    5.000    0.000    0.000    0.000    0.000 
#    0.000    0.000    0.000    0.000    0.000    0.000 
#
# Total GULP energy -198427.920049 kJ/mol
# GULP energy per Si atom -12401.745003 kJ/mol
# Density = 2.438145 g / cm^3
# Si number density = 24.437066 Si / 1000 Ang^3
#
#
#
# Elastic Constant Matrix: (Units=GPa)
#
#
# Indices 1 2 3 4 5 6 
#
# 1 126.8053 45.1556 38.6426 5.4966 -38.5361 7.1555
# 2 45.1556 143.9525 19.5850 2.2209 -16.2370 22.7909
# 3 38.6426 19.5850 74.5759 19.6613 -19.2044 3.4992
# 4 5.4966 2.2209 19.6613 23.2699 -6.4426 -13.4160
# 5 -38.5361 -16.2370 -19.2044 -6.4426 50.9135 0.6031
# 6 7.1555 22.7909 3.4992 -13.4160 0.6031 32.8295
#
#
#
# Elastic Compliance Matrix: (Units=1/GPa)
#
#
# Indices 1 2 3 4 5 6 
#
# 1 0.012243 -0.002639 -0.005045 0.004356 0.007057 0.001352
# 2 -0.002639 0.009089 0.001016 -0.005616 0.000670 -0.008150
# 3 -0.005045 0.001016 0.023688 -0.025537 0.002358 -0.012610
# 4 0.004356 -0.005616 -0.025537 0.088999 0.002638 0.041993
# 5 0.007057 0.000670 0.002358 0.002638 0.026439 -0.001662
# 6 0.001352 -0.008150 -0.012610 0.041993 -0.001662 0.054359
#
#
# Mechanical properties :
#
#
# Convention : Reuss Voigt Hill
#
# Bulk Modulus (GPa) = 31.56235 61.34446 46.45340
# Shear Modulus (GPa) = 20.94544 37.53260 29.23902
#
# Velocity S-wave (km/s) = 2.93083 3.92329 3.46280
# Velocity P-wave (km/s) = 4.93932 6.75874 5.91935
#
# Compressibility (1/GPa) = 0.03168332
#
# Stress axis : x y z
#
# Youngs Moduli (GPa) = 81.67911 110.02361 42.21495
#
# Poissons Ratio (x) = 0.29038 0.21299
# Poissons Ratio (y) = 0.21558 -0.04290
# Poissons Ratio (z) = 0.41211 -0.11182
#
# Static dielectric constant tensor:
#      x y z
#    x 3.822540 0.515220 0.345180 
#    y 0.515220 4.385720 -0.327090 
#    z 0.345180 -0.327090 3.892980 
# 
# 
# High freq. dielectric constant tensor:
#      x y z
#    x 1.979110 0.000050 -0.001890 
#    y 0.000050 1.979890 -0.000780 
#    z -0.001890 -0.000780 1.974390 
# 
# From -- ./inp_files/141439.got.cif
#   From: 2010.06.25/outbox.cif.g09.slc.cpg/sg2_71_cif.got.tgz:141439.got - 2010.06.27 13:26:56.
