data_PCOD8006111
_publ_section_title
;
Structure prediction by ZEFSAII (Michael W. Deem and Ramdas Pophale) SiO2 
 PCOD8006111
Probable space group: P -1
;
_chemical_formula_sum "Si O2"
_cell_formula_units_Z 16
_cell_length_a 18.346103
_cell_length_b 15.178871
_cell_length_c 8.546048
_cell_angle_alpha 53.808536
_cell_angle_beta 64.001422
_cell_angle_gamma 20.951676
_cell_volume 631.850416
_symmetry_space_group_name_H-M "P -1"
_symmetry_group_IT_number 2
_symmetry_cell_setting 'triclinic'
loop_
_space_group_symop_operation_xyz
x,y,z
-x,-y,-z
loop_
_atom_site_type_symbol
_atom_site_label
_atom_site_fract_x
_atom_site_fract_y
_atom_site_fract_z
Si Si1 0.718173 0.544834 0.160528
Si Si2 0.605809 0.067828 0.688273
Si Si3 0.607181 0.141722 0.069200
Si Si4 0.229204 0.296081 0.618917
Si Si5 0.166099 0.946854 0.909714
Si Si6 0.319592 0.515204 0.231886
Si Si7 0.732510 0.720804 0.741956
Si Si8 0.936835 0.820599 0.552149
O O1 0.496313 0.860127 0.135677
O O2 0.924018 0.269025 0.374701
O O3 0.613800 0.570910 0.137196
O O4 0.807021 0.521069 0.976706
O O5 0.380934 0.387357 0.474537
O O6 0.775600 0.774103 0.749456
O O7 0.756406 0.987096 0.658986
O O8 0.518756 0.226584 0.236879
O O9 0.756318 0.849492 0.189413
O O10 0.749650 0.073866 0.014997
O O11 0.132840 0.432405 0.388305
O O12 0.092592 0.535088 0.622905
O O13 0.467926 0.050925 0.630720
O O14 0.907637 0.250126 0.866317
O O15 0.195877 0.949106 0.699896
O O16 0.309976 0.658045 0.096845
#
# Coordination Sequence:
#
# PCOD8006111 Si02
#       8
#     2   2   2   2   2   2   2   2
#     4  11  26  42  62  99 146 174 212 268 338 396
#     4  12  23  43  65  96 137 180 218 269 332 392
#     4  11  24  44  68 101 131 173 219 280 323 389
#     4  10  21  40  66  99 134 173 225 268 324 388
#     4  11  24  43  77  95 121 174 229 280 320 388
#     4  11  23  46  74  95 124 170 236 275 321 383
#     4  10  20  39  65  93 134 182 210 278 319 386
#     4  12  25  42  69 101 135 179 218 268 333 397
#
# _framework density 25.32245
#
# number of rings (size 3 to 8) (size 9 to 14) (size 15 to 20)
#    0.000    1.000    5.000    0.750    5.250    3.500 
#    0.000    1.250    0.000    0.000    0.000    0.000 
#    0.000    0.000    0.000    0.000    0.000    0.000 
#
# Total GULP energy -198243.214393 kJ/mol
# GULP energy per Si atom -12390.200900 kJ/mol
# Density = 2.526482 g / cm^3
# Si number density = 25.322450 Si / 1000 Ang^3
#
#
#
# Elastic Constant Matrix: (Units=GPa)
#
#
# Indices 1 2 3 4 5 6 
#
# 1 162.5108 9.8937 50.7872 -7.4079 12.1773 -30.1194
# 2 9.8937 27.4887 7.1507 -4.4412 3.4720 -5.3390
# 3 50.7872 7.1507 61.6856 -4.7269 9.2361 0.4951
# 4 -7.4079 -4.4412 -4.7269 27.4091 -4.6467 2.0739
# 5 12.1773 3.4720 9.2361 -4.6467 37.4511 -1.6919
# 6 -30.1194 -5.3390 0.4951 2.0739 -1.6919 26.8162
#
#
#
# Elastic Compliance Matrix: (Units=1/GPa)
#
#
# Indices 1 2 3 4 5 6 
#
# 1 0.011695 0.001114 -0.009701 0.000508 -0.000843 0.013445
# 2 0.001114 0.040014 -0.004973 0.004950 -0.001833 0.008811
# 3 -0.009701 -0.004973 0.025441 0.001399 -0.003057 -0.012657
# 4 0.000508 0.004950 0.001399 0.038390 0.003740 -0.001203
# 5 -0.000843 -0.001833 -0.003057 0.003740 0.028375 0.000245
# 6 0.013445 0.008811 -0.012657 -0.001203 0.000245 0.054488
#
#
# Mechanical properties :
#
#
# Convention : Reuss Voigt Hill
#
# Bulk Modulus (GPa) = 19.98749 43.03868 31.51309
# Shear Modulus (GPa) = 20.64419 30.59218 25.61819
#
# Velocity S-wave (km/s) = 2.85836 3.47955 3.18414
# Velocity P-wave (km/s) = 4.33635 5.75988 5.09805
#
# Compressibility (1/GPa) = 0.05003128
#
# Stress axis : x y z
#
# Youngs Moduli (GPa) = 85.50318 24.99147 39.30619
#
# Poissons Ratio (x) = -0.02784 0.38131
# Poissons Ratio (y) = -0.09525 0.19545
# Poissons Ratio (z) = 0.82947 0.12427
#
# Static dielectric constant tensor:
#      x y z
#    x 4.897300 -0.287000 0.282960 
#    y -0.287000 4.330320 0.124570 
#    z 0.282960 0.124570 4.456480 
# 
# 
# High freq. dielectric constant tensor:
#      x y z
#    x 2.008870 -0.033120 0.017350 
#    y -0.033120 2.004940 0.011320 
#    z 0.017350 0.011320 1.990350 
# 
# From -- ./inp_files/348339.got.cif
#   From: 2010.06.25/outbox.cif.g09.slc.cpg/sg2_175_cif.got.tgz:348339.got - 2010.06.27 13:26:56.
