data_PCOD8006309
_publ_section_title
;
Structure prediction by ZEFSAII (Michael W. Deem and Ramdas Pophale) SiO2 
 PCOD8006309
Probable space group: P -1
;
_chemical_formula_sum "Si O2"
_cell_formula_units_Z 12
_cell_length_a 5.652470
_cell_length_b 8.590219
_cell_length_c 15.024790
_cell_angle_alpha 91.317840
_cell_angle_beta 118.399659
_cell_angle_gamma 125.409569
_cell_volume 475.523984
_symmetry_space_group_name_H-M "P -1"
_symmetry_group_IT_number 2
_symmetry_cell_setting 'triclinic'
loop_
_space_group_symop_operation_xyz
x,y,z
-x,-y,-z
loop_
_atom_site_type_symbol
_atom_site_label
_atom_site_fract_x
_atom_site_fract_y
_atom_site_fract_z
Si Si1 0.340854 0.619572 0.126480
Si Si2 0.628126 0.732514 0.525057
Si Si3 0.414111 0.124952 0.660934
Si Si4 0.668030 0.896412 0.033593
Si Si5 0.537334 0.690848 0.839004
Si Si6 0.214930 0.713897 0.612073
O O1 0.310507 0.710509 0.211447
O O2 0.663182 0.819463 0.129421
O O3 0.422413 0.476349 0.167547
O O4 0.000000 0.500000 0.000000
O O5 0.478337 0.730858 0.403304
O O6 0.310910 0.643854 0.541853
O O7 0.790507 0.613709 0.545765
O O8 0.988086 0.979446 0.611643
O O9 0.478219 0.966095 0.652839
O O10 0.420879 0.693766 0.918787
O O11 0.092138 0.068683 0.094746
O O12 0.500000 0.000000 0.000000
O O13 0.275207 0.645036 0.713357
#
# Coordination Sequence:
#
# PCOD8006309 Si02
#       6
#     2   2   2   2   2   2
#     4  12  24  43  64 101 136 173 225 276 338 401
#     4   9  20  39  70  96 125 179 226 270 336 396
#     4   9  21  38  66  93 134 173 223 275 332 397
#     4  11  23  44  64  87 135 183 224 271 330 402
#     4  11  25  39  66  95 132 178 225 277 334 399
#     4  10  20  39  67  95 128 172 225 274 334 395
#
# _framework density 25.235320000000002
#
# number of rings (size 3 to 8) (size 9 to 14) (size 15 to 20)
#    1.000    0.667    1.667    3.000    4.667    0.000 
#    3.000    1.667    0.000    0.000    0.000    0.000 
#    0.000    0.000    0.000    0.000    0.000    0.000 
#
# Total GULP energy -148731.500484 kJ/mol
# GULP energy per Si atom -12394.291707 kJ/mol
# Density = 2.517788 g / cm^3
# Si number density = 25.235320 Si / 1000 Ang^3
#
#
#
# Elastic Constant Matrix: (Units=GPa)
#
#
# Indices 1 2 3 4 5 6 
#
# 1 93.2140 51.9247 66.2996 16.0884 -3.1909 -18.9649
# 2 51.9247 123.2600 67.2855 -9.3149 0.9896 -30.3870
# 3 66.2996 67.2855 185.2025 -16.0567 -19.4628 -12.0103
# 4 16.0884 -9.3149 -16.0567 48.7036 -9.5934 3.6770
# 5 -3.1909 0.9896 -19.4628 -9.5934 40.7829 7.3062
# 6 -18.9649 -30.3870 -12.0103 3.6770 7.3062 45.8557
#
#
#
# Elastic Compliance Matrix: (Units=1/GPa)
#
#
# Indices 1 2 3 4 5 6 
#
# 1 0.021447 -0.004474 -0.007284 -0.011870 -0.005526 0.005830
# 2 -0.004474 0.013400 -0.002960 0.002023 -0.002782 0.006535
# 3 -0.007284 -0.002960 0.010111 0.006775 0.006624 -0.003924
# 4 -0.011870 0.002023 0.006775 0.029528 0.010239 -0.005793
# 5 -0.005526 -0.002782 0.006624 0.010239 0.031191 -0.008185
# 6 0.005830 0.006535 -0.003924 -0.005793 -0.008185 0.029290
#
#
# Mechanical properties :
#
#
# Convention : Reuss Voigt Hill
#
# Bulk Modulus (GPa) = 64.42371 85.85510 75.13941
# Shear Modulus (GPa) = 29.48519 41.47957 35.48238
#
# Velocity S-wave (km/s) = 3.42191 4.05867 3.75382
# Velocity P-wave (km/s) = 6.41851 7.48728 6.97340
#
# Compressibility (1/GPa) = 0.01552223
#
# Stress axis : x y z
#
# Youngs Moduli (GPa) = 46.62716 74.62890 98.89902
#
# Poissons Ratio (x) = 0.33389 0.72038
# Poissons Ratio (y) = 0.20861 0.29272
# Poissons Ratio (z) = 0.33963 0.22088
#
# Static dielectric constant tensor:
#      x y z
#    x 4.530340 0.163240 -0.237060 
#    y 0.163240 4.944080 0.223580 
#    z -0.237060 0.223580 5.029570 
# 
# 
# High freq. dielectric constant tensor:
#      x y z
#    x 2.004950 0.006600 -0.004370 
#    y 0.006600 2.041960 0.010110 
#    z -0.004370 0.010110 2.014150 
# 
# From -- ./inp_files/480602.got.cif
#   From: 2010.06.25/outbox.cif.g09.slc.cpg/sg2_241_cif.got.tgz:480602.got - 2010.06.27 13:26:56.
