data_PCOD8006633
_publ_section_title
;
Structure prediction by ZEFSAII (Michael W. Deem and Ramdas Pophale) SiO2 
 PCOD8006633
Probable space group: P -1
;
_chemical_formula_sum "Si O2"
_cell_formula_units_Z 16
_cell_length_a 11.022887
_cell_length_b 17.067638
_cell_length_c 7.456254
_cell_angle_alpha 56.593126
_cell_angle_beta 134.240913
_cell_angle_gamma 130.210135
_cell_volume 754.504582
_symmetry_space_group_name_H-M "P -1"
_symmetry_group_IT_number 2
_symmetry_cell_setting 'triclinic'
loop_
_space_group_symop_operation_xyz
x,y,z
-x,-y,-z
loop_
_atom_site_type_symbol
_atom_site_label
_atom_site_fract_x
_atom_site_fract_y
_atom_site_fract_z
Si Si1 0.848371 0.173108 0.789077
Si Si2 0.078992 0.522778 0.250172
Si Si3 0.208999 0.043564 0.094180
Si Si4 0.903343 0.670796 0.885815
Si Si5 0.508417 0.801833 0.567919
Si Si6 0.960232 0.692462 0.504383
Si Si7 0.510176 0.659425 0.461535
Si Si8 0.614644 0.731775 0.098762
O O1 0.767863 0.048239 0.871562
O O2 0.691474 0.201675 0.675226
O O3 0.892829 0.209072 0.581403
O O4 0.029371 0.231142 0.031545
O O5 0.021154 0.409704 0.422450
O O6 0.306579 0.579093 0.423396
O O7 0.000000 0.500000 0.000000
O O8 0.976328 0.588889 0.148209
O O9 0.344099 0.082666 0.360378
O O10 0.258586 0.143472 0.889642
O O11 0.000000 0.000000 0.000000
O O12 0.995414 0.708889 0.735045
O O13 0.674511 0.619773 0.701575
O O14 0.579166 0.767891 0.504287
O O15 0.484581 0.717796 0.808130
O O16 0.750005 0.677221 0.265657
O O17 0.484918 0.680333 0.200988
#
# Coordination Sequence:
#
# PCOD8006633 Si02
#       8
#     2   2   2   2   2   2   2   2
#     4  12  21  41  63  90 133 156 209 259 301 371
#     4  10  23  40  64  95 124 162 209 254 310 363
#     4  10  20  40  62  90 124 159 208 254 305 372
#     4  10  23  40  64  91 124 166 205 254 308 360
#     4  10  23  38  63  92 123 166 201 259 305 362
#     4  10  22  41  62  91 121 168 204 250 316 360
#     4  11  21  45  62  90 133 157 209 259 298 376
#     4   9  22  39  64  91 118 170 201 247 320 353
#
# _framework density 21.205967999999999
#
# number of rings (size 3 to 8) (size 9 to 14) (size 15 to 20)
#    0.750    1.000    2.500    1.875    3.500    5.000 
#    2.250    3.750    0.000    0.000    0.000    0.000 
#    0.000    0.000    0.000    0.000    0.000    0.000 
#
# Total GULP energy -198257.656872 kJ/mol
# GULP energy per Si atom -12391.103555 kJ/mol
# Density = 2.115770 g / cm^3
# Si number density = 21.205968 Si / 1000 Ang^3
#
#
#
# Elastic Constant Matrix: (Units=GPa)
#
#
# Indices 1 2 3 4 5 6 
#
# 1 70.3989 3.4386 16.4066 -5.6673 13.0359 -5.3916
# 2 3.4386 66.4376 15.0133 -1.8949 7.1160 -10.9376
# 3 16.4066 15.0133 78.3885 -0.1829 18.8849 -2.7753
# 4 -5.6673 -1.8949 -0.1829 36.7047 -3.1318 3.2204
# 5 13.0359 7.1160 18.8849 -3.1318 31.9854 0.9503
# 6 -5.3916 -10.9376 -2.7753 3.2204 0.9503 28.1055
#
#
#
# Elastic Compliance Matrix: (Units=1/GPa)
#
#
# Indices 1 2 3 4 5 6 
#
# 1 0.016037 0.000791 -0.002092 0.001769 -0.005398 0.003158
# 2 0.000791 0.016965 -0.002508 0.000170 -0.002795 0.006581
# 3 -0.002092 -0.002508 0.015602 -0.001100 -0.007925 0.000557
# 4 0.001769 0.000170 -0.001100 0.028017 0.002723 -0.003006
# 5 -0.005398 -0.002795 -0.007925 0.002723 0.039167 -0.004542
# 6 0.003158 0.006581 0.000557 -0.003006 -0.004542 0.039300
#
#
# Mechanical properties :
#
#
# Convention : Reuss Voigt Hill
#
# Bulk Modulus (GPa) = 24.39822 31.66024 28.02923
# Shear Modulus (GPa) = 28.34983 31.38356 29.86670
#
# Velocity S-wave (km/s) = 3.66030 3.85117 3.75695
# Velocity P-wave (km/s) = 5.42163 5.89387 5.66267
#
# Compressibility (1/GPa) = 0.04098660
#
# Stress axis : x y z
#
# Youngs Moduli (GPa) = 62.35436 58.94405 64.09594
#
# Poissons Ratio (x) = -0.04663 0.13408
# Poissons Ratio (y) = -0.04933 0.16076
# Poissons Ratio (z) = 0.13043 0.14784
#
# Static dielectric constant tensor:
#      x y z
#    x 3.703370 -0.418980 0.212580 
#    y -0.418980 4.805530 -0.351220 
#    z 0.212580 -0.351220 3.973240 
# 
# 
# High freq. dielectric constant tensor:
#      x y z
#    x 1.821730 -0.016750 0.016530 
#    y -0.016750 1.816470 0.000090 
#    z 0.016530 0.000090 1.833340 
# 
# From -- ./inp_files/276441.got.cif
#   From: 2010.06.25/outbox.cif.g09.slc.cpg/sg2_139_cif.got.tgz:276441.got - 2010.06.27 13:26:56.
