data_PCOD8006527
_publ_section_title
;
Structure prediction by ZEFSAII (Michael W. Deem and Ramdas Pophale) SiO2 
 PCOD8006527
Probable space group: P -1
;
_chemical_formula_sum "Si O2"
_cell_formula_units_Z 14
_cell_length_a 16.679679
_cell_length_b 8.394698
_cell_length_c 15.880602
_cell_angle_alpha 40.801245
_cell_angle_beta 35.915380
_cell_angle_gamma 65.006798
_cell_volume 739.521453
_symmetry_space_group_name_H-M "P -1"
_symmetry_group_IT_number 2
_symmetry_cell_setting 'triclinic'
loop_
_space_group_symop_operation_xyz
x,y,z
-x,-y,-z
loop_
_atom_site_type_symbol
_atom_site_label
_atom_site_fract_x
_atom_site_fract_y
_atom_site_fract_z
Si Si1 0.739004 0.788299 0.092136
Si Si2 0.427814 0.893794 0.844822
Si Si3 0.206272 0.276778 0.235792
Si Si4 0.035498 0.111140 0.286185
Si Si5 0.822029 0.770094 0.223356
Si Si6 0.761274 0.171613 0.531172
Si Si7 0.465958 0.178936 0.523015
O O1 0.786074 0.745670 0.163441
O O2 0.607656 0.496595 0.280952
O O3 0.674641 0.007163 0.052674
O O4 0.892950 0.917899 0.850324
O O5 0.599165 0.995877 0.692109
O O6 0.447688 0.035457 0.683301
O O7 0.346061 0.560500 0.040748
O O8 0.169269 0.328615 0.150866
O O9 0.249501 0.023895 0.301383
O O10 0.055635 0.181648 0.465225
O O11 0.909539 0.213645 0.330401
O O12 0.792580 0.478271 0.405312
O O13 0.699707 0.834616 0.351387
O O14 0.000000 0.000000 0.000000
O O15 0.500000 0.000000 0.500000
#
# Coordination Sequence:
#
# PCOD8006527 Si02
#       7
#     2   2   2   2   2   2   2
#     4  11  22  40  60  90 122 156 199 249 302 356
#     4  11  20  39  63  84 122 156 201 246 295 355
#     4   9  21  39  64  84 118 167 201 235 302 347
#     4   9  22  38  62  85 120 160 202 245 287 356
#     4  11  24  39  62  92 122 157 195 258 303 346
#     4  10  20  40  60  84 124 152 202 244 293 352
#     4  11  23  39  62  88 121 160 198 242 308 361
#
# _framework density 18.931162
#
# number of rings (size 3 to 8) (size 9 to 14) (size 15 to 20)
#    0.857    0.857    2.857    2.143    6.000    2.286 
#    0.000    0.714    0.000    0.000    0.000    0.000 
#    0.000    0.000    0.000    0.000    0.000    0.000 
#
# Total GULP energy -173445.394403 kJ/mol
# GULP energy per Si atom -12388.956743 kJ/mol
# Density = 1.888807 g / cm^3
# Si number density = 18.931162 Si / 1000 Ang^3
#
#
#
# Elastic Constant Matrix: (Units=GPa)
#
#
# Indices 1 2 3 4 5 6 
#
# 1 65.0597 58.6547 41.9573 3.4594 -24.5102 -16.6394
# 2 58.6547 154.5772 64.9714 4.9595 -9.7491 -14.9874
# 3 41.9573 64.9714 94.0553 -7.2937 -22.2191 -8.0541
# 4 3.4594 4.9595 -7.2937 47.2244 3.7140 -1.1948
# 5 -24.5102 -9.7491 -22.2191 3.7140 41.5790 1.3408
# 6 -16.6394 -14.9874 -8.0541 -1.1948 1.3408 27.0295
#
#
#
# Elastic Compliance Matrix: (Units=1/GPa)
#
#
# Indices 1 2 3 4 5 6 
#
# 1 0.037926 -0.009476 -0.005271 -0.003552 0.017135 0.015515
# 2 -0.009476 0.012006 -0.005519 -0.000993 -0.005613 -0.000587
# 3 -0.005271 -0.005519 0.018160 0.003349 0.005036 -0.000996
# 4 -0.003552 -0.000993 0.003349 0.022238 -0.002503 -0.000632
# 5 0.017135 -0.005613 0.005036 -0.002503 0.035522 0.007064
# 6 0.015515 -0.000587 -0.000996 -0.000632 0.007064 0.045547
#
#
# Mechanical properties :
#
#
# Convention : Reuss Voigt Hill
#
# Bulk Modulus (GPa) = 36.28731 71.65099 53.96915
# Shear Modulus (GPa) = 22.61225 33.04050 27.82638
#
# Velocity S-wave (km/s) = 3.45983 4.18221 3.83805
# Velocity P-wave (km/s) = 5.93044 7.82633 6.94340
#
# Compressibility (1/GPa) = 0.02755784
#
# Stress axis : x y z
#
# Youngs Moduli (GPa) = 26.36740 83.29244 55.06541
#
# Poissons Ratio (x) = 0.78931 0.29027
# Poissons Ratio (y) = 0.24987 0.30392
# Poissons Ratio (z) = 0.13899 0.45971
#
# Static dielectric constant tensor:
#      x y z
#    x 2.924780 0.248270 0.170870 
#    y 0.248270 2.957700 -0.276200 
#    z 0.170870 -0.276200 3.353160 
# 
# 
# High freq. dielectric constant tensor:
#      x y z
#    x 1.727610 -0.016050 -0.015730 
#    y -0.016050 1.726900 -0.004760 
#    z -0.015730 -0.004760 1.745060 
# 
# From -- ./inp_files/168827.got.cif
#   From: 2010.06.25/outbox.cif.g09.slc.cpg/sg2_85_cif.got.tgz:168827.got - 2010.06.27 13:26:56.
