data_PCOD8006571
_publ_section_title
;
Structure prediction by ZEFSAII (Michael W. Deem and Ramdas Pophale) SiO2 
 PCOD8006571
Probable space group: P -1
;
_chemical_formula_sum "Si O2"
_cell_formula_units_Z 16
_cell_length_a 11.122279
_cell_length_b 16.071350
_cell_length_c 10.641066
_cell_angle_alpha 64.247698
_cell_angle_beta 153.993432
_cell_angle_gamma 117.238656
_cell_volume 740.225592
_symmetry_space_group_name_H-M "P -1"
_symmetry_group_IT_number 2
_symmetry_cell_setting 'triclinic'
loop_
_space_group_symop_operation_xyz
x,y,z
-x,-y,-z
loop_
_atom_site_type_symbol
_atom_site_label
_atom_site_fract_x
_atom_site_fract_y
_atom_site_fract_z
Si Si1 0.632136 0.715420 0.064816
Si Si2 0.869263 0.243196 0.849905
Si Si3 0.045138 0.865435 0.750432
Si Si4 0.859623 0.189715 0.385785
Si Si5 0.758583 0.049537 0.786667
Si Si6 0.442673 0.337102 0.258686
Si Si7 0.728116 0.517682 0.305506
Si Si8 0.449254 0.018742 0.770232
O O1 0.351927 0.736172 0.853951
O O2 0.557342 0.704765 0.854580
O O3 0.733411 0.624472 0.284657
O O4 0.898806 0.795929 0.290388
O O5 0.866010 0.160837 0.796293
O O6 0.579470 0.278788 0.530066
O O7 0.892958 0.206968 0.037390
O O8 0.121338 0.328897 0.002179
O O9 0.988095 0.804119 0.610581
O O10 0.782126 0.914753 0.502144
O O11 0.325791 0.945754 0.928823
O O12 0.682080 0.087429 0.303679
O O13 0.683897 0.040618 0.868245
O O14 0.500000 0.000000 0.500000
O O15 0.000000 0.000000 0.000000
O O16 0.621906 0.442510 0.364640
O O17 0.000000 0.500000 0.500000
O O18 0.500000 0.500000 0.000000
#
# Coordination Sequence:
#
# PCOD8006571 Si02
#       8
#     2   2   2   2   2   2   2   2
#     4  11  24  38  61  98 123 149 199 259 326 353
#     4  11  23  38  60  87 118 165 209 239 293 374
#     4  11  23  44  61  85 123 167 220 246 297 348
#     4  12  24  39  66  90 121 162 208 270 290 358
#     4  11  23  36  53  83 127 159 188 252 305 349
#     4  11  22  39  64  90 122 158 198 244 303 399
#     4  10  20  40  61  89 126 159 189 245 317 379
#     4  11  23  40  60  86 118 171 214 248 301 355
#
# _framework density 21.615031999999999
#
# number of rings (size 3 to 8) (size 9 to 14) (size 15 to 20)
#    0.000    1.000    0.000    9.750    5.250    0.000 
#    0.000    0.000    0.000    4.500    0.000    0.000 
#    0.000    0.000    0.000    0.000    0.000    0.000 
#
# Total GULP energy -198234.392268 kJ/mol
# GULP energy per Si atom -12389.649517 kJ/mol
# Density = 2.156584 g / cm^3
# Si number density = 21.615032 Si / 1000 Ang^3
#
#
#
# Elastic Constant Matrix: (Units=GPa)
#
#
# Indices 1 2 3 4 5 6 
#
# 1 55.0653 21.2079 21.4161 -5.3767 20.7906 -11.4469
# 2 21.2079 66.5125 20.1600 -1.9876 3.8618 6.6708
# 3 21.4161 20.1600 133.4699 -3.5243 17.8057 -7.9840
# 4 -5.3767 -1.9876 -3.5243 41.4441 0.0766 8.8896
# 5 20.7906 3.8618 17.8057 0.0766 33.1213 1.3302
# 6 -11.4469 6.6708 -7.9840 8.8896 1.3302 22.9842
#
#
#
# Elastic Compliance Matrix: (Units=1/GPa)
#
#
# Indices 1 2 3 4 5 6 
#
# 1 0.036145 -0.012761 0.000501 -0.000883 -0.022412 0.023518
# 2 -0.012761 0.021123 -0.003006 0.002275 0.007755 -0.014859
# 3 0.000501 -0.003006 0.008781 -0.000304 -0.004867 0.004572
# 4 -0.000883 0.002275 -0.000304 0.026569 0.000854 -0.011531
# 5 -0.022412 0.007755 -0.004867 0.000854 0.046699 -0.018137
# 6 0.023518 -0.014859 0.004572 -0.011531 -0.018137 0.066631
#
#
# Mechanical properties :
#
#
# Convention : Reuss Voigt Hill
#
# Bulk Modulus (GPa) = 28.15570 42.29062 35.22316
# Shear Modulus (GPa) = 20.13548 32.32750 26.23149
#
# Velocity S-wave (km/s) = 3.05544 3.87150 3.48742
# Velocity P-wave (km/s) = 5.04994 6.29226 5.70502
#
# Compressibility (1/GPa) = 0.03551679
#
# Stress axis : x y z
#
# Youngs Moduli (GPa) = 27.66667 47.34244 113.88521
#
# Poissons Ratio (x) = 0.60412 -0.05708
# Poissons Ratio (y) = 0.35304 0.34237
# Poissons Ratio (z) = -0.01387 0.14232
#
# Static dielectric constant tensor:
#      x y z
#    x 3.912080 -0.262380 -0.037640 
#    y -0.262380 2.559340 0.285660 
#    z -0.037640 0.285660 4.049140 
# 
# 
# High freq. dielectric constant tensor:
#      x y z
#    x 1.832410 0.006980 0.008250 
#    y 0.006980 1.844670 0.012170 
#    z 0.008250 0.012170 1.873230 
# 
# From -- ./inp_files/437276.got.cif
#   From: 2010.06.25/outbox.cif.g09.slc.cpg/sg2_219_cif.got.tgz:437276.got - 2010.06.27 13:26:56.
