data_PCOD8006622
_publ_section_title
;
Structure prediction by ZEFSAII (Michael W. Deem and Ramdas Pophale) SiO2 
 PCOD8006622
Probable space group: P -1
;
_chemical_formula_sum "Si O2"
_cell_formula_units_Z 16
_cell_length_a 15.198970
_cell_length_b 8.601886
_cell_length_c 15.091704
_cell_angle_alpha 145.893940
_cell_angle_beta 127.954800
_cell_angle_gamma 50.011280
_cell_volume 831.717395
_symmetry_space_group_name_H-M "P -1"
_symmetry_group_IT_number 2
_symmetry_cell_setting 'triclinic'
loop_
_space_group_symop_operation_xyz
x,y,z
-x,-y,-z
loop_
_atom_site_type_symbol
_atom_site_label
_atom_site_fract_x
_atom_site_fract_y
_atom_site_fract_z
Si Si1 0.901983 0.844496 0.357684
Si Si2 0.641662 0.145500 0.302408
Si Si3 0.917571 0.771997 0.527351
Si Si4 0.435491 0.204098 0.429737
Si Si5 0.944684 0.766961 0.155545
Si Si6 0.691646 0.162302 0.143467
Si Si7 0.531718 0.164261 0.886254
Si Si8 0.675123 0.806255 0.461453
O O1 0.905829 0.669593 0.369618
O O2 0.923399 0.657518 0.190656
O O3 0.775705 0.083293 0.384748
O O4 0.000000 0.000000 0.500000
O O5 0.573278 0.467011 0.447102
O O6 0.629053 0.133356 0.183028
O O7 0.587974 0.910839 0.202324
O O8 0.792694 0.885811 0.551758
O O9 0.000000 0.500000 0.500000
O O10 0.968608 0.040703 0.690387
O O11 0.342664 0.203169 0.448669
O O12 0.401647 0.030609 0.245900
O O13 0.568554 0.051619 0.468596
O O14 0.824207 0.957011 0.126633
O O15 0.000000 0.500000 0.000000
O O16 0.687160 0.493573 0.278940
O O17 0.618922 0.069442 0.977701
O O18 0.500000 0.500000 0.000000
#
# Coordination Sequence:
#
# PCOD8006622 Si02
#       8
#     2   2   2   2   2   2   2   2
#     4   9  21  39  65  88 119 159 206 250 299 365
#     4  10  22  40  63  87 119 163 207 243 303 367
#     4  11  21  39  68  86 115 163 211 245 305 361
#     4  10  22  38  62  89 122 155 204 253 296 365
#     4  10  22  41  58  91 122 157 201 258 304 355
#     4  10  21  40  60  82 126 162 196 247 311 362
#     4  12  23  37  59  91 125 158 198 248 309 356
#     4  10  20  40  62  89 119 160 205 253 301 360
#
# _framework density 19.237304000000002
#
# number of rings (size 3 to 8) (size 9 to 14) (size 15 to 20)
#    0.000    1.750    2.500    1.500    1.750    3.000 
#    4.500    0.625    0.000    0.000    0.000    0.000 
#    0.000    0.000    0.000    0.000    0.000    0.000 
#
# Total GULP energy -198384.072791 kJ/mol
# GULP energy per Si atom -12399.004549 kJ/mol
# Density = 1.919352 g / cm^3
# Si number density = 19.237304 Si / 1000 Ang^3
#
#
#
# Elastic Constant Matrix: (Units=GPa)
#
#
# Indices 1 2 3 4 5 6 
#
# 1 125.0452 58.7263 59.3285 -1.5235 -4.6509 -5.6036
# 2 58.7263 120.0364 59.0622 -3.7909 -10.4327 1.8117
# 3 59.3285 59.0622 120.4621 0.2019 -18.4128 0.8324
# 4 -1.5235 -3.7909 0.2019 39.7657 0.8192 -1.1138
# 5 -4.6509 -10.4327 -18.4128 0.8192 35.5810 -0.6703
# 6 -5.6036 1.8117 0.8324 -1.1138 -0.6703 31.4847
#
#
#
# Elastic Compliance Matrix: (Units=1/GPa)
#
#
# Indices 1 2 3 4 5 6 
#
# 1 0.011884 -0.003923 -0.004212 0.000206 -0.001736 0.002423
# 2 -0.003923 0.012333 -0.003953 0.000990 0.001011 -0.001247
# 3 -0.004212 -0.003953 0.013096 -0.000731 0.005069 -0.000786
# 4 0.000206 0.000990 -0.000731 0.025291 -0.000627 0.000880
# 5 -0.001736 0.001011 0.005069 -0.000627 0.030815 0.000133
# 6 0.002423 -0.001247 -0.000786 0.000880 0.000133 0.032319
#
#
# Mechanical properties :
#
#
# Convention : Reuss Voigt Hill
#
# Bulk Modulus (GPa) = 76.12296 79.97529 78.04913
# Shear Modulus (GPa) = 32.40579 33.92808 33.16693
#
# Velocity S-wave (km/s) = 4.10875 4.20415 4.15673
# Velocity P-wave (km/s) = 7.88451 8.07650 7.98108
#
# Compressibility (1/GPa) = 0.01313664
#
# Stress axis : x y z
#
# Youngs Moduli (GPa) = 84.14410 81.08275 76.36034
#
# Poissons Ratio (x) = 0.31805 0.32165
# Poissons Ratio (y) = 0.33006 0.30189
# Poissons Ratio (z) = 0.35444 0.32056
#
# Static dielectric constant tensor:
#      x y z
#    x 3.786050 0.179350 -0.237200 
#    y 0.179350 3.649890 -0.171530 
#    z -0.237200 -0.171530 3.323870 
# 
# 
# High freq. dielectric constant tensor:
#      x y z
#    x 1.762130 0.004090 -0.008760 
#    y 0.004090 1.756070 -0.015600 
#    z -0.008760 -0.015600 1.732430 
# 
# From -- ./inp_files/177435.got.cif
#   From: 2010.06.25/outbox.cif.g09.slc.cpg/sg2_89_cif.got.tgz:177435.got - 2010.06.27 13:26:56.
