data_PCOD8006591
_publ_section_title
;
Structure prediction by ZEFSAII (Michael W. Deem and Ramdas Pophale) SiO2 
 PCOD8006591
Probable space group: P -1
;
_chemical_formula_sum "Si O2"
_cell_formula_units_Z 16
_cell_length_a 11.250837
_cell_length_b 13.084567
_cell_length_c 14.203727
_cell_angle_alpha 149.331124
_cell_angle_beta 106.589766
_cell_angle_gamma 53.058423
_cell_volume 701.783073
_symmetry_space_group_name_H-M "P -1"
_symmetry_group_IT_number 2
_symmetry_cell_setting 'triclinic'
loop_
_space_group_symop_operation_xyz
x,y,z
-x,-y,-z
loop_
_atom_site_type_symbol
_atom_site_label
_atom_site_fract_x
_atom_site_fract_y
_atom_site_fract_z
Si Si1 0.771383 0.064527 0.395536
Si Si2 0.527559 0.712779 0.858845
Si Si3 0.933771 0.035735 0.700039
Si Si4 0.534699 0.142760 0.250844
Si Si5 0.269866 0.072571 0.531854
Si Si6 0.313651 0.471320 0.824072
Si Si7 0.150010 0.692617 0.657381
Si Si8 0.182519 0.943239 0.022558
O O1 0.658735 0.385293 0.665470
O O2 0.690096 0.074419 0.288081
O O3 0.975829 0.902699 0.298340
O O4 0.760146 0.902882 0.342682
O O5 0.499635 0.706009 0.735882
O O6 0.338401 0.925627 0.041398
O O7 0.607755 0.834875 0.999198
O O8 0.875434 0.905115 0.528979
O O9 0.090911 0.788021 0.611894
O O10 0.758433 0.334928 0.945576
O O11 0.347894 0.359442 0.440778
O O12 0.234845 0.338200 0.697698
O O13 0.471755 0.773732 0.313310
O O14 0.245534 0.667762 0.872670
O O15 0.147882 0.911904 0.882728
O O16 0.994305 0.750350 0.725020
#
# Coordination Sequence:
#
# PCOD8006591 Si02
#       8
#     2   2   2   2   2   2   2   2
#     4  12  23  43  66  90 132 166 209 263 312 369
#     4  11  22  39  64  97 125 164 211 252 318 382
#     4  11  24  41  65  93 127 168 205 261 317 370
#     4  11  23  40  65  97 127 167 206 258 317 377
#     4  11  24  44  66  91 123 167 217 259 309 372
#     4  10  23  45  65  91 124 165 212 265 310 368
#     4  10  20  40  61  95 128 161 205 257 317 369
#     4  10  20  41  66  93 127 167 205 262 319 371
#
# _framework density 22.799067999999998
#
# number of rings (size 3 to 8) (size 9 to 14) (size 15 to 20)
#    0.000    1.250    3.750    1.875    0.000    3.000 
#   20.250    0.000    0.000    0.000    0.000    0.000 
#    0.000    0.000    0.000    0.000    0.000    0.000 
#
# Total GULP energy -198390.527689 kJ/mol
# GULP energy per Si atom -12399.407981 kJ/mol
# Density = 2.274718 g / cm^3
# Si number density = 22.799068 Si / 1000 Ang^3
#
#
#
# Elastic Constant Matrix: (Units=GPa)
#
#
# Indices 1 2 3 4 5 6 
#
# 1 123.5331 35.4313 26.1143 -9.4680 -3.6183 -6.5012
# 2 35.4313 66.5377 21.4448 -9.1800 11.7325 -6.4618
# 3 26.1143 21.4448 53.6469 -15.8512 -2.4208 -1.9578
# 4 -9.4680 -9.1800 -15.8512 17.3905 0.9834 -1.9735
# 5 -3.6183 11.7325 -2.4208 0.9834 35.5635 -4.0055
# 6 -6.5012 -6.4618 -1.9578 -1.9735 -4.0055 25.6393
#
#
#
# Elastic Compliance Matrix: (Units=1/GPa)
#
#
# Indices 1 2 3 4 5 6 
#
# 1 0.010256 -0.004804 -0.002714 0.000613 0.002611 0.001638
# 2 -0.004804 0.021555 -0.005062 0.004927 -0.007743 0.002997
# 3 -0.002714 -0.005062 0.028758 0.022166 0.003010 0.002408
# 4 0.000613 0.004927 0.022166 0.081756 -0.001281 0.009183
# 5 0.002611 -0.007743 0.003010 -0.001281 0.031605 0.003779
# 6 0.001638 0.002997 0.002408 0.009183 0.003779 0.041654
#
#
# Mechanical properties :
#
#
# Convention : Reuss Voigt Hill
#
# Bulk Modulus (GPa) = 28.24061 45.52207 36.88134
# Shear Modulus (GPa) = 19.79840 26.43382 23.11611
#
# Velocity S-wave (km/s) = 2.95004 3.40873 3.18764
# Velocity P-wave (km/s) = 4.90074 5.95840 5.45526
#
# Compressibility (1/GPa) = 0.03541000
#
# Stress axis : x y z
#
# Youngs Moduli (GPa) = 97.50385 46.39378 34.77280
#
# Poissons Ratio (x) = 0.22285 0.09436
# Poissons Ratio (y) = 0.46836 0.17603
# Poissons Ratio (z) = 0.26459 0.23486
#
# Static dielectric constant tensor:
#      x y z
#    x 4.229200 0.017540 -0.301320 
#    y 0.017540 3.847850 -0.041410 
#    z -0.301320 -0.041410 3.980810 
# 
# 
# High freq. dielectric constant tensor:
#      x y z
#    x 1.911190 -0.004920 -0.018910 
#    y -0.004920 1.882320 -0.008760 
#    z -0.018910 -0.008760 1.892920 
# 
# From -- ./inp_files/521925.got.cif
#   From: 2010.06.25/outbox.cif.g09.slc.cpg/sg2_261_cif.got.tgz:521925.got - 2010.06.27 13:26:56.
