data_PCOD8006896
_publ_section_title
;
Structure prediction by ZEFSAII (Michael W. Deem and Ramdas Pophale) SiO2 
 PCOD8006896
Probable space group: P -1
;
_chemical_formula_sum "Si O2"
_cell_formula_units_Z 16
_cell_length_a 14.661416
_cell_length_b 12.221065
_cell_length_c 10.939913
_cell_angle_alpha 48.252566
_cell_angle_beta 121.942299
_cell_angle_gamma 150.331260
_cell_volume 717.372632
_symmetry_space_group_name_H-M "P -1"
_symmetry_group_IT_number 2
_symmetry_cell_setting 'triclinic'
loop_
_space_group_symop_operation_xyz
x,y,z
-x,-y,-z
loop_
_atom_site_type_symbol
_atom_site_label
_atom_site_fract_x
_atom_site_fract_y
_atom_site_fract_z
Si Si1 0.326860 0.106636 0.764564
Si Si2 0.635779 0.306557 0.702931
Si Si3 0.964124 0.365772 0.692832
Si Si4 0.612628 0.564735 0.918892
Si Si5 0.994094 0.129682 0.739216
Si Si6 0.389476 0.042915 0.103054
Si Si7 0.950005 0.278946 0.358276
Si Si8 0.647083 0.573917 0.339327
O O1 0.538933 0.285749 0.760797
O O2 0.307203 0.261211 0.640640
O O3 0.209536 0.921512 0.704213
O O4 0.270940 0.977359 0.952941
O O5 0.605219 0.365597 0.513791
O O6 0.855257 0.531542 0.715070
O O7 0.538887 0.040685 0.813690
O O8 0.035737 0.282766 0.771111
O O9 0.000000 0.500000 0.500000
O O10 0.065347 0.567263 0.724547
O O11 0.745202 0.111111 0.759823
O O12 0.538253 0.572610 0.744706
O O13 0.832499 0.836363 0.881279
O O14 0.500000 0.500000 0.000000
O O15 0.568523 0.342778 0.036788
O O16 0.936355 0.154384 0.557191
O O17 0.178929 0.239625 0.768932
#
# Coordination Sequence:
#
# PCOD8006896 Si02
#       8
#     2   2   2   2   2   2   2   2
#     4  11  22  39  61  95 131 160 209 259 312 371
#     4  10  21  41  62  89 130 162 208 257 304 368
#     4   9  18  38  62  87 124 161 203 258 303 367
#     4  11  22  41  63  90 129 165 200 256 317 367
#     4  10  20  40  65  90 128 165 208 255 308 372
#     4  10  22  40  62  94 128 162 206 260 315 370
#     4   9  21  38  64  94 122 170 208 250 317 369
#     4  10  24  40  64  96 122 166 214 254 308 377
#
# _framework density 22.303611
#
# number of rings (size 3 to 8) (size 9 to 14) (size 15 to 20)
#    0.000    2.000    1.250    2.250    0.000    7.500 
#    2.250    3.125    0.000    0.000    0.000    0.000 
#    0.000    0.000    0.000    0.000    0.000    0.000 
#
# Total GULP energy -198311.617783 kJ/mol
# GULP energy per Si atom -12394.476111 kJ/mol
# Density = 2.225285 g / cm^3
# Si number density = 22.303611 Si / 1000 Ang^3
#
#
#
# Elastic Constant Matrix: (Units=GPa)
#
#
# Indices 1 2 3 4 5 6 
#
# 1 139.5233 24.4106 11.6868 -9.5788 4.7671 -9.1480
# 2 24.4106 59.1647 10.2330 -7.3093 6.0435 -17.1259
# 3 11.6868 10.2330 77.4964 -17.8668 7.1248 -2.5993
# 4 -9.5788 -7.3093 -17.8668 24.8439 -4.6476 -2.5887
# 5 4.7671 6.0435 7.1248 -4.6476 37.9417 -11.4148
# 6 -9.1480 -17.1259 -2.5993 -2.5887 -11.4148 34.3135
#
#
#
# Elastic Compliance Matrix: (Units=1/GPa)
#
#
# Indices 1 2 3 4 5 6 
#
# 1 0.007865 -0.002667 -0.000317 0.002120 0.000030 0.000911
# 2 -0.002667 0.021992 -0.000796 0.006217 0.001061 0.011026
# 3 -0.000317 -0.000796 0.015698 0.010847 -0.001104 0.001158
# 4 0.002120 0.006217 0.010847 0.053000 0.006392 0.010615
# 5 0.000030 0.001061 -0.001104 0.006392 0.030509 0.011085
# 6 0.000911 0.011026 0.001158 0.010615 0.011085 0.039465
#
#
# Mechanical properties :
#
#
# Convention : Reuss Voigt Hill
#
# Bulk Modulus (GPa) = 26.32075 40.98279 33.65177
# Shear Modulus (GPa) = 26.48941 34.74339 30.61640
#
# Velocity S-wave (km/s) = 3.45000 3.95111 3.70903
# Velocity P-wave (km/s) = 5.26277 6.26338 5.78475
#
# Compressibility (1/GPa) = 0.03799284
#
# Stress axis : x y z
#
# Youngs Moduli (GPa) = 127.14896 45.47195 63.70275
#
# Poissons Ratio (x) = 0.12129 0.02021
# Poissons Ratio (y) = 0.33916 0.05071
# Poissons Ratio (z) = 0.04034 0.03620
#
# Static dielectric constant tensor:
#      x y z
#    x 4.405430 -0.301590 -0.053870 
#    y -0.301590 3.973500 -0.308110 
#    z -0.053870 -0.308110 4.063900 
# 
# 
# High freq. dielectric constant tensor:
#      x y z
#    x 1.892580 -0.013400 -0.006670 
#    y -0.013400 1.849600 -0.021350 
#    z -0.006670 -0.021350 1.882980 
# 
# From -- ./inp_files/451122.got.cif
#   From: 2010.06.25/outbox.cif.g09.slc.cpg/sg2_226_cif.got.tgz:451122.got - 2010.06.27 13:26:56.
