data_PCOD8006416
_publ_section_title
;
Structure prediction by ZEFSAII (Michael W. Deem and Ramdas Pophale) SiO2 
 PCOD8006416
Probable space group: P -1
;
_chemical_formula_sum "Si O2"
_cell_formula_units_Z 16
_cell_length_a 8.606637
_cell_length_b 10.156458
_cell_length_c 15.660165
_cell_angle_alpha 137.735769
_cell_angle_beta 95.981757
_cell_angle_gamma 107.972065
_cell_volume 748.109969
_symmetry_space_group_name_H-M "P -1"
_symmetry_group_IT_number 2
_symmetry_cell_setting 'triclinic'
loop_
_space_group_symop_operation_xyz
x,y,z
-x,-y,-z
loop_
_atom_site_type_symbol
_atom_site_label
_atom_site_fract_x
_atom_site_fract_y
_atom_site_fract_z
Si Si1 0.745480 0.506262 0.479539
Si Si2 0.660969 0.554111 0.811574
Si Si3 0.337578 0.040846 0.528474
Si Si4 0.838111 0.170459 0.401843
Si Si5 0.744251 0.246406 0.932279
Si Si6 0.144818 0.673761 0.211435
Si Si7 0.331344 0.237163 0.261346
Si Si8 0.598316 0.737213 0.063571
O O1 0.735239 0.298589 0.432730
O O2 0.560756 0.384988 0.350315
O O3 0.751037 0.690555 0.633125
O O4 0.932918 0.644416 0.497386
O O5 0.798443 0.468545 0.794244
O O6 0.732551 0.719021 0.811358
O O7 0.440385 0.326173 0.674763
O O8 0.678737 0.711690 0.967999
O O9 0.224723 0.926686 0.553877
O O10 0.187285 0.907303 0.377305
O O11 0.500000 0.000000 0.500000
O O12 0.776234 0.955772 0.229889
O O13 0.727137 0.235850 0.823355
O O14 0.553700 0.203670 0.938862
O O15 0.768674 0.045775 0.872619
O O16 0.922160 0.507756 0.096666
O O17 0.500000 0.500000 0.000000
#
# Coordination Sequence:
#
# PCOD8006416 Si02
#       8
#     2   2   2   2   2   2   2   2
#     4  10  24  42  68  95 134 172 224 271 330 390
#     4  11  24  41  66  97 129 174 216 266 332 389
#     4  10  20  39  69  94 128 166 220 268 319 385
#     4  11  22  43  69  99 127 178 223 271 326 390
#     4  11  24  43  67  95 132 174 217 270 330 393
#     4  10  23  41  67  97 126 171 224 264 321 396
#     4  11  25  44  66  97 135 174 219 274 331 388
#     4  12  22  43  66  93 133 171 214 271 333 391
#
# _framework density 21.387229999999999
#
# number of rings (size 3 to 8) (size 9 to 14) (size 15 to 20)
#    0.000    1.250    3.750    2.250    5.250    2.000 
#    4.500    1.250    0.000    0.000    0.000    0.000 
#    0.000    0.000    0.000    0.000    0.000    0.000 
#
# Total GULP energy -198467.341829 kJ/mol
# GULP energy per Si atom -12404.208864 kJ/mol
# Density = 2.133855 g / cm^3
# Si number density = 21.387230 Si / 1000 Ang^3
#
#
#
# Elastic Constant Matrix: (Units=GPa)
#
#
# Indices 1 2 3 4 5 6 
#
# 1 50.4835 4.0827 3.3575 -5.9852 -0.8925 3.4110
# 2 4.0827 76.6659 3.8320 -2.8539 3.7004 -8.2148
# 3 3.3575 3.8320 118.7810 -9.6379 -3.9747 6.7520
# 4 -5.9852 -2.8539 -9.6379 35.3354 -3.3815 -3.9343
# 5 -0.8925 3.7004 -3.9747 -3.3815 25.9738 2.5031
# 6 3.4110 -8.2148 6.7520 -3.9343 2.5031 29.4515
#
#
#
# Elastic Compliance Matrix: (Units=1/GPa)
#
#
# Indices 1 2 3 4 5 6 
#
# 1 0.020491 -0.001300 -0.000088 0.003219 0.001528 -0.002415
# 2 -0.001300 0.013779 -0.000664 0.000980 -0.002414 0.004482
# 3 -0.000088 -0.000664 0.008810 0.002291 0.001936 -0.002053
# 4 0.003219 0.000980 0.002291 0.030272 0.003966 0.003082
# 5 0.001528 -0.002414 0.001936 0.003966 0.040111 -0.004173
# 6 -0.002415 0.004482 -0.002053 0.003082 -0.004173 0.036721
#
#
# Mechanical properties :
#
#
# Convention : Reuss Voigt Hill
#
# Bulk Modulus (GPa) = 25.65513 29.83051 27.74282
# Shear Modulus (GPa) = 29.88993 33.79602 31.84298
#
# Velocity S-wave (km/s) = 3.74245 3.97948 3.86278
# Velocity P-wave (km/s) = 5.54041 5.92394 5.73538
#
# Compressibility (1/GPa) = 0.03897855
#
# Stress axis : x y z
#
# Youngs Moduli (GPa) = 48.80128 72.57301 113.50539
#
# Poissons Ratio (x) = 0.09431 0.00995
# Poissons Ratio (y) = 0.06342 0.07535
# Poissons Ratio (z) = 0.00428 0.04818
#
# Static dielectric constant tensor:
#      x y z
#    x 3.787750 -0.017830 -0.097440 
#    y -0.017830 3.742190 0.027090 
#    z -0.097440 0.027090 4.390140 
# 
# 
# High freq. dielectric constant tensor:
#      x y z
#    x 1.827450 0.000920 -0.000840 
#    y 0.000920 1.833150 0.004630 
#    z -0.000840 0.004630 1.854710 
# 
# From -- ./inp_files/223823.got.cif
#   From: 2010.06.25/outbox.cif.g09.slc.cpg/sg2_112_cif.got.tgz:223823.got - 2010.06.27 13:26:56.
