data_PCOD8006217
_publ_section_title
;
Structure prediction by ZEFSAII (Michael W. Deem and Ramdas Pophale) SiO2 
 PCOD8006217
Probable space group: P -1
;
_chemical_formula_sum "Si O2"
_cell_formula_units_Z 14
_cell_length_a 9.003124
_cell_length_b 12.333694
_cell_length_c 10.471062
_cell_angle_alpha 52.029417
_cell_angle_beta 63.874971
_cell_angle_gamma 49.048892
_cell_volume 690.941298
_symmetry_space_group_name_H-M "P -1"
_symmetry_group_IT_number 2
_symmetry_cell_setting 'triclinic'
loop_
_space_group_symop_operation_xyz
x,y,z
-x,-y,-z
loop_
_atom_site_type_symbol
_atom_site_label
_atom_site_fract_x
_atom_site_fract_y
_atom_site_fract_z
Si Si1 0.942907 0.887056 0.173973
Si Si2 0.379214 0.998445 0.167874
Si Si3 0.918878 0.717711 0.063581
Si Si4 0.350898 0.453502 0.138680
Si Si5 0.391880 0.360098 0.704695
Si Si6 0.316286 0.572333 0.343526
Si Si7 0.470970 0.924589 0.692291
O O1 0.885893 0.795136 0.160802
O O2 0.127696 0.756738 0.282461
O O3 0.760979 0.995662 0.258147
O O4 0.000000 0.000000 0.000000
O O5 0.426748 0.815074 0.290324
O O6 0.436512 0.040022 0.248878
O O7 0.500000 0.000000 0.000000
O O8 0.150102 0.138244 0.121281
O O9 0.778544 0.647625 0.153670
O O10 0.143575 0.573760 0.058500
O O11 0.325436 0.477419 0.282221
O O12 0.424087 0.269029 0.215001
O O13 0.500000 0.500000 0.000000
O O14 0.290546 0.482046 0.536705
O O15 0.484689 0.426915 0.720466
O O16 0.500000 0.000000 0.500000
#
# Coordination Sequence:
#
# PCOD8006217 Si02
#       7
#     2   2   2   2   2   2   2
#     4  11  22  40  68  94 124 177 226 258 320 402
#     4  10  20  39  67  93 119 167 225 261 304 394
#     4  10  22  39  70  88 119 173 226 254 308 404
#     4  11  26  41  60  95 137 166 207 272 339 381
#     4  10  20  39  66  94 117 161 226 266 305 370
#     4  10  23  39  65  90 129 166 216 265 317 390
#     4  12  25  41  65 101 136 165 214 284 333 376
#
# _framework density 20.262214
#
# number of rings (size 3 to 8) (size 9 to 14) (size 15 to 20)
#    0.000    1.429    2.857    3.429    8.000    1.714 
#    0.000    0.000    0.000    5.143    0.000    0.000 
#    0.000    0.000    0.000    0.000    0.000    0.000 
#
# Total GULP energy -173607.207803 kJ/mol
# GULP energy per Si atom -12400.514843 kJ/mol
# Density = 2.021610 g / cm^3
# Si number density = 20.262214 Si / 1000 Ang^3
#
#
#
# Elastic Constant Matrix: (Units=GPa)
#
#
# Indices 1 2 3 4 5 6 
#
# 1 70.0755 20.9914 33.3329 -0.3213 5.0991 -15.9009
# 2 20.9914 114.1717 45.6168 -13.1537 1.9787 -16.6505
# 3 33.3329 45.6168 109.0950 -19.1254 11.8556 -16.6425
# 4 -0.3213 -13.1537 -19.1254 39.0072 -1.0415 3.9388
# 5 5.0991 1.9787 11.8556 -1.0415 39.0929 -1.2403
# 6 -15.9009 -16.6505 -16.6425 3.9388 -1.2403 42.0729
#
#
#
# Elastic Compliance Matrix: (Units=1/GPa)
#
#
# Indices 1 2 3 4 5 6 
#
# 1 0.017978 -0.001038 -0.004784 -0.003048 -0.000772 0.004754
# 2 -0.001038 0.010947 -0.003702 0.001653 0.000822 0.002345
# 3 -0.004784 -0.003702 0.013661 0.005169 -0.003145 0.001554
# 4 -0.003048 0.001653 0.005169 0.028807 -0.000523 -0.001165
# 5 -0.000772 0.000822 -0.003145 -0.000523 0.026567 -0.000378
# 6 0.004754 0.002345 0.001554 -0.001165 -0.000378 0.027206
#
#
# Mechanical properties :
#
#
# Convention : Reuss Voigt Hill
#
# Bulk Modulus (GPa) = 42.48640 54.80270 48.64455
# Shear Modulus (GPa) = 32.88181 36.92800 34.90490
#
# Velocity S-wave (km/s) = 4.03279 4.27371 4.15500
# Velocity P-wave (km/s) = 6.53439 7.17344 6.86136
#
# Compressibility (1/GPa) = 0.02353694
#
# Stress axis : x y z
#
# Youngs Moduli (GPa) = 55.62375 91.34994 73.20108
#
# Poissons Ratio (x) = 0.09486 0.35020
# Poissons Ratio (y) = 0.05776 0.27098
# Poissons Ratio (z) = 0.26611 0.33817
#
# Static dielectric constant tensor:
#      x y z
#    x 3.929300 -0.131320 0.025530 
#    y -0.131320 3.937570 -0.419930 
#    z 0.025530 -0.419930 4.396570 
# 
# 
# High freq. dielectric constant tensor:
#      x y z
#    x 1.799950 -0.000120 0.014990 
#    y -0.000120 1.797010 -0.025460 
#    z 0.014990 -0.025460 1.783550 
# 
# From -- ./inp_files/159741.got.cif
#   From: 2010.06.25/outbox.cif.g09.slc.cpg/sg2_80_cif.got.tgz:159741.got - 2010.06.27 13:26:56.
