data_PCOD8006707
_publ_section_title
;
Structure prediction by ZEFSAII (Michael W. Deem and Ramdas Pophale) SiO2 
 PCOD8006707
Probable space group: P -1
;
_chemical_formula_sum "Si O2"
_cell_formula_units_Z 16
_cell_length_a 15.725637
_cell_length_b 15.086636
_cell_length_c 8.073528
_cell_angle_alpha 64.066287
_cell_angle_beta 90.614790
_cell_angle_gamma 145.183482
_cell_volume 722.587317
_symmetry_space_group_name_H-M "P -1"
_symmetry_group_IT_number 2
_symmetry_cell_setting 'triclinic'
loop_
_space_group_symop_operation_xyz
x,y,z
-x,-y,-z
loop_
_atom_site_type_symbol
_atom_site_label
_atom_site_fract_x
_atom_site_fract_y
_atom_site_fract_z
Si Si1 0.289341 0.375217 0.514472
Si Si2 0.362856 0.144723 0.351653
Si Si3 0.575256 0.534386 0.211759
Si Si4 0.770506 0.340907 0.955721
Si Si5 0.501146 0.771517 0.052609
Si Si6 0.752260 0.193231 0.387757
Si Si7 0.236474 0.776022 0.271555
Si Si8 0.095329 0.023516 0.360034
O O1 0.373833 0.383878 0.377714
O O2 0.284126 0.324706 0.738509
O O3 0.423049 0.616433 0.320801
O O4 0.060673 0.162964 0.638080
O O5 0.520460 0.365324 0.294571
O O6 0.147248 0.975944 0.495317
O O7 0.349083 0.015175 0.504599
O O8 0.427733 0.223825 0.097326
O O9 0.693993 0.712063 0.921244
O O10 0.686263 0.362240 0.919376
O O11 0.673205 0.187076 0.914680
O O12 0.011906 0.584453 0.762168
O O13 0.697893 0.217422 0.229965
O O14 0.695252 0.038149 0.908105
O O15 0.669195 0.145642 0.604995
O O16 0.000000 0.500000 0.500000
O O17 0.000000 0.000000 0.500000
#
# Coordination Sequence:
#
# PCOD8006707 Si02
#       8
#     2   2   2   2   2   2   2   2
#     4  11  24  42  66  94 133 168 218 271 331 392
#     4  11  22  40  64  94 129 166 221 262 325 390
#     4  11  24  43  63  97 131 168 216 278 326 391
#     4  10  20  40  63  89 129 166 213 264 330 376
#     4  11  22  39  66  92 126 171 217 261 321 398
#     4   9  21  38  63  92 124 167 214 267 314 399
#     4   9  20  38  60  88 127 165 207 268 323 373
#     4  12  22  41  69  90 129 177 213 270 332 386
#
# _framework density 22.142652999999999
#
# number of rings (size 3 to 8) (size 9 to 14) (size 15 to 20)
#    0.000    1.500    2.500    2.625    1.750    2.000 
#    2.250    0.000   11.000    0.000    0.000    0.000 
#    0.000    0.000    0.000    0.000    0.000    0.000 
#
# Total GULP energy -198271.957253 kJ/mol
# GULP energy per Si atom -12391.997328 kJ/mol
# Density = 2.209226 g / cm^3
# Si number density = 22.142653 Si / 1000 Ang^3
#
#
#
# Elastic Constant Matrix: (Units=GPa)
#
#
# Indices 1 2 3 4 5 6 
#
# 1 83.1378 19.1778 7.7705 10.0874 4.6430 -9.0029
# 2 19.1778 84.6201 20.0604 -10.6703 -5.2570 -18.1419
# 3 7.7705 20.0604 59.3597 13.3700 10.4134 -15.9145
# 4 10.0874 -10.6703 13.3700 38.3915 -8.3741 -3.9205
# 5 4.6430 -5.2570 10.4134 -8.3741 29.2401 0.0405
# 6 -9.0029 -18.1419 -15.9145 -3.9205 0.0405 38.0138
#
#
#
# Elastic Compliance Matrix: (Units=1/GPa)
#
#
# Indices 1 2 3 4 5 6 
#
# 1 0.014310 -0.004956 0.002993 -0.007410 -0.006353 0.001519
# 2 -0.004956 0.018375 -0.008858 0.012372 0.010781 0.005152
# 3 0.002993 -0.008858 0.027612 -0.015792 -0.016433 0.006430
# 4 -0.007410 0.012372 -0.015792 0.041690 0.020962 0.001815
# 5 -0.006353 0.010781 -0.016433 0.020962 0.049004 -0.001129
# 6 0.001519 0.005152 0.006430 0.001815 -0.001129 0.032005
#
#
# Mechanical properties :
#
#
# Convention : Reuss Voigt Hill
#
# Bulk Modulus (GPa) = 25.87016 35.68166 30.77591
# Shear Modulus (GPa) = 22.98613 33.13635 28.06124
#
# Velocity S-wave (km/s) = 3.22544 3.87265 3.56377
# Velocity P-wave (km/s) = 5.05767 6.01215 5.55545
#
# Compressibility (1/GPa) = 0.03865458
#
# Stress axis : x y z
#
# Youngs Moduli (GPa) = 69.88020 54.42230 36.21673
#
# Poissons Ratio (x) = 0.26972 -0.10838
# Poissons Ratio (y) = 0.34633 0.32079
# Poissons Ratio (z) = -0.20912 0.48205
#
# Static dielectric constant tensor:
#      x y z
#    x 3.835450 -0.093480 -0.151790 
#    y -0.093480 4.069190 -0.000730 
#    z -0.151790 -0.000730 4.092510 
# 
# 
# High freq. dielectric constant tensor:
#      x y z
#    x 1.864220 -0.004490 -0.008250 
#    y -0.004490 1.879240 -0.004160 
#    z -0.008250 -0.004160 1.873660 
# 
# From -- ./inp_files/312778.got.cif
#   From: 2010.06.25/outbox.cif.g09.slc.cpg/sg2_157_cif.got.tgz:312778.got - 2010.06.27 13:26:56.
