data_PCOD8006411
_publ_section_title
;
Structure prediction by ZEFSAII (Michael W. Deem and Ramdas Pophale) SiO2 
 PCOD8006411
Probable space group: P -1
;
_chemical_formula_sum "Si O2"
_cell_formula_units_Z 14
_cell_length_a 9.369568
_cell_length_b 9.214363
_cell_length_c 7.966953
_cell_angle_alpha 86.469808
_cell_angle_beta 69.487668
_cell_angle_gamma 66.276676
_cell_volume 587.242553
_symmetry_space_group_name_H-M "P -1"
_symmetry_group_IT_number 2
_symmetry_cell_setting 'triclinic'
loop_
_space_group_symop_operation_xyz
x,y,z
-x,-y,-z
loop_
_atom_site_type_symbol
_atom_site_label
_atom_site_fract_x
_atom_site_fract_y
_atom_site_fract_z
Si Si1 0.037019 0.650352 0.783408
Si Si2 0.836047 0.705848 0.333006
Si Si3 0.304805 0.199250 0.247817
Si Si4 0.506267 0.107360 0.643159
Si Si5 0.429683 0.674965 0.939532
Si Si6 0.935125 0.171530 0.923797
Si Si7 0.359647 0.668691 0.581978
O O1 0.048217 0.473582 0.757521
O O2 0.179262 0.672714 0.611180
O O3 0.854685 0.775715 0.799606
O O4 0.068711 0.688175 0.958166
O O5 0.758828 0.715755 0.550671
O O6 0.683994 0.767492 0.255588
O O7 0.938131 0.819422 0.273562
O O8 0.423571 0.266267 0.095736
O O9 0.412169 0.009141 0.227015
O O10 0.623235 0.198534 0.551653
O O11 0.500000 0.000000 0.500000
O O12 0.381196 0.700379 0.763575
O O13 0.500000 0.500000 0.000000
O O14 0.248036 0.782031 0.088752
O O15 0.000000 0.000000 0.000000
O O16 0.500000 0.500000 0.500000
#
# Coordination Sequence:
#
# PCOD8006411 Si02
#       7
#     2   2   2   2   2   2   2
#     4  11  24  40  65  98 132 166 219 265 323 383
#     4  11  21  42  71  91 127 177 218 261 318 389
#     4  11  23  42  69 100 127 168 221 268 319 380
#     4  10  20  39  69  92 130 167 214 262 323 375
#     4  11  23  43  67  93 131 169 213 264 324 384
#     4  11  26  44  64  93 137 173 211 265 334 379
#     4  11  21  42  66  98 125 170 218 264 316 386
#
# _framework density 23.840233999999999
#
# number of rings (size 3 to 8) (size 9 to 14) (size 15 to 20)
#    0.000    1.143    4.286    2.571    6.000    2.857 
#    2.571    1.429    0.000    0.000    0.000    0.000 
#    0.000    0.000    0.000    0.000    0.000    0.000 
#
# Total GULP energy -173525.007505 kJ/mol
# GULP energy per Si atom -12394.643393 kJ/mol
# Density = 2.378597 g / cm^3
# Si number density = 23.840234 Si / 1000 Ang^3
#
#
#
# Elastic Constant Matrix: (Units=GPa)
#
#
# Indices 1 2 3 4 5 6 
#
# 1 170.5467 36.1127 32.0222 -26.7657 -47.4776 -20.1415
# 2 36.1127 104.7623 19.3856 -40.3628 -17.8923 -6.3017
# 3 32.0222 19.3856 48.1101 -20.9527 -31.6689 5.3852
# 4 -26.7657 -40.3628 -20.9527 44.1563 17.6746 -3.8571
# 5 -47.4776 -17.8923 -31.6689 17.6746 44.5980 -4.6943
# 6 -20.1415 -6.3017 5.3852 -3.8571 -4.6943 48.7740
#
#
#
# Elastic Compliance Matrix: (Units=1/GPa)
#
#
# Indices 1 2 3 4 5 6 
#
# 1 0.009604 -0.000672 0.001057 0.001957 0.010448 0.004923
# 2 -0.000672 0.015265 0.000256 0.013735 0.000442 0.002795
# 3 0.001057 0.000256 0.042373 0.009996 0.027272 -0.000794
# 4 0.001957 0.013735 0.009996 0.042148 -0.001520 0.004666
# 5 0.010448 0.000442 0.027272 -0.001520 0.054372 0.006473
# 6 0.004923 0.002795 -0.000794 0.004666 0.006473 0.023977
#
#
# Mechanical properties :
#
#
# Convention : Reuss Voigt Hill
#
# Bulk Modulus (GPa) = 14.59328 55.38445 34.98887
# Shear Modulus (GPa) = 23.88932 43.23223 33.56078
#
# Velocity S-wave (km/s) = 3.16897 4.26304 3.75605
# Velocity P-wave (km/s) = 4.41864 6.89299 5.78954
#
# Compressibility (1/GPa) = 0.06852469
#
# Stress axis : x y z
#
# Youngs Moduli (GPa) = 104.11816 65.50871 23.59989
#
# Poissons Ratio (x) = 0.04400 -0.02494
# Poissons Ratio (y) = 0.06993 -0.00604
# Poissons Ratio (z) = -0.11003 -0.01676
#
# Static dielectric constant tensor:
#      x y z
#    x 5.024410 -0.431100 -0.478700 
#    y -0.431100 4.473310 -0.165800 
#    z -0.478700 -0.165800 4.327020 
# 
# 
# High freq. dielectric constant tensor:
#      x y z
#    x 1.954840 -0.009180 -0.030620 
#    y -0.009180 1.950100 -0.009460 
#    z -0.030620 -0.009460 1.929240 
# 
# From -- ./inp_files/157981.got.cif
#   From: 2010.06.25/outbox.cif.g09.slc.cpg/sg2_79_cif.got.tgz:157981.got - 2010.06.27 13:26:56.
