data_PCOD8006347
_publ_section_title
;
Structure prediction by ZEFSAII (Michael W. Deem and Ramdas Pophale) SiO2 
 PCOD8006347
Probable space group: P -1
;
_chemical_formula_sum "Si O2"
_cell_formula_units_Z 14
_cell_length_a 7.882270
_cell_length_b 9.422117
_cell_length_c 9.277336
_cell_angle_alpha 80.679700
_cell_angle_beta 100.398598
_cell_angle_gamma 110.904885
_cell_volume 629.502266
_symmetry_space_group_name_H-M "P -1"
_symmetry_group_IT_number 2
_symmetry_cell_setting 'triclinic'
loop_
_space_group_symop_operation_xyz
x,y,z
-x,-y,-z
loop_
_atom_site_type_symbol
_atom_site_label
_atom_site_fract_x
_atom_site_fract_y
_atom_site_fract_z
Si Si1 0.568893 0.683976 0.476681
Si Si2 0.991228 0.592224 0.840819
Si Si3 0.190067 0.162338 0.262018
Si Si4 0.073588 0.151466 0.686707
Si Si5 0.708557 0.888854 0.019511
Si Si6 0.314627 0.797124 0.978840
Si Si7 0.800550 0.306427 0.706118
O O1 0.500000 0.500000 0.500000
O O2 0.626324 0.762085 0.628544
O O3 0.753706 0.757802 0.399793
O O4 0.400548 0.732182 0.386523
O O5 0.868573 0.698807 0.827479
O O6 0.915430 0.488793 0.704841
O O7 0.201349 0.703050 0.839849
O O8 0.000000 0.500000 0.000000
O O9 0.230886 0.075871 0.142484
O O10 0.027310 0.028495 0.342268
O O11 0.147446 0.165296 0.860477
O O12 0.919241 0.231625 0.639437
O O13 0.676564 0.030063 0.074223
O O14 0.505332 0.763235 0.011181
O O15 0.215972 0.750657 0.124033
#
# Coordination Sequence:
#
# PCOD8006347 Si02
#       7
#     2   2   2   2   2   2   2
#     4  12  28  50  68  99 147 184 234 286 346 423
#     4  10  21  39  67 100 140 175 224 285 341 406
#     4  12  24  45  70 105 140 182 231 288 344 412
#     4  12  25  46  76 101 138 185 234 288 350 404
#     4  11  21  39  73 106 134 176 227 293 345 398
#     4  10  20  39  68 106 141 170 229 290 341 405
#     4  11  23  46  69  99 139 187 229 283 347 416
#
# _framework density 22.239792999999999
#
# number of rings (size 3 to 8) (size 9 to 14) (size 15 to 20)
#    0.000    0.857    5.714    2.571    0.000    2.286 
#    2.571    2.857    0.000    0.000    0.000    0.000 
#    0.000    0.000    0.000    0.000    0.000    0.000 
#
# Total GULP energy -173466.265833 kJ/mol
# GULP energy per Si atom -12390.447560 kJ/mol
# Density = 2.218917 g / cm^3
# Si number density = 22.239793 Si / 1000 Ang^3
#
#
#
# Elastic Constant Matrix: (Units=GPa)
#
#
# Indices 1 2 3 4 5 6 
#
# 1 139.7993 51.6429 35.5867 0.5046 31.2076 5.1529
# 2 51.6429 117.7984 31.7692 8.9076 11.3845 11.4930
# 3 35.5867 31.7692 68.9678 7.4028 16.4177 11.4240
# 4 0.5046 8.9076 7.4028 26.5652 10.9930 11.1602
# 5 31.2076 11.3845 16.4177 10.9930 36.1972 2.8920
# 6 5.1529 11.4930 11.4240 11.1602 2.8920 34.2281
#
#
#
# Elastic Compliance Matrix: (Units=1/GPa)
#
#
# Indices 1 2 3 4 5 6 
#
# 1 0.011173 -0.003744 -0.002377 0.005773 -0.009071 -0.000747
# 2 -0.003744 0.011135 -0.003178 -0.003166 0.002230 -0.001271
# 3 -0.002377 -0.003178 0.019201 -0.000188 -0.005245 -0.004479
# 4 0.005773 -0.003166 -0.000188 0.052863 -0.018721 -0.015398
# 5 -0.009071 0.002230 -0.005245 -0.018721 0.042419 0.004887
# 6 -0.000747 -0.001271 -0.004479 -0.015398 0.004887 0.035858
#
#
# Mechanical properties :
#
#
# Convention : Reuss Voigt Hill
#
# Bulk Modulus (GPa) = 43.64816 62.72923 53.18869
# Shear Modulus (GPa) = 25.14031 33.23587 29.18809
#
# Velocity S-wave (km/s) = 3.36582 3.86998 3.62667
# Velocity P-wave (km/s) = 5.89693 6.94522 6.44243
#
# Compressibility (1/GPa) = 0.02291047
#
# Stress axis : x y z
#
# Youngs Moduli (GPa) = 89.50266 89.80321 52.08172
#
# Poissons Ratio (x) = 0.33624 0.12380
# Poissons Ratio (y) = 0.33511 0.16552
# Poissons Ratio (z) = 0.21275 0.28540
#
# Static dielectric constant tensor:
#      x y z
#    x 4.291420 0.730050 0.469750 
#    y 0.730050 4.903860 0.326070 
#    z 0.469750 0.326070 3.942600 
# 
# 
# High freq. dielectric constant tensor:
#      x y z
#    x 1.874710 0.017950 0.029750 
#    y 0.017950 1.885240 0.005650 
#    z 0.029750 0.005650 1.861110 
# 
# From -- ./inp_files/158197.got.cif
#   From: 2010.06.25/outbox.cif.g09.slc.cpg/sg2_80_cif.got.tgz:158197.got - 2010.06.27 13:26:56.
