data_PCOD8006030
_publ_section_title
;
Structure prediction by ZEFSAII (Michael W. Deem and Ramdas Pophale) SiO2 
 PCOD8006030
Probable space group: P -1
;
_chemical_formula_sum "Si O2"
_cell_formula_units_Z 14
_cell_length_a 9.826402
_cell_length_b 15.919515
_cell_length_c 16.312812
_cell_angle_alpha 143.218324
_cell_angle_beta 27.033258
_cell_angle_gamma 141.067226
_cell_volume 674.702010
_symmetry_space_group_name_H-M "P -1"
_symmetry_group_IT_number 2
_symmetry_cell_setting 'triclinic'
loop_
_space_group_symop_operation_xyz
x,y,z
-x,-y,-z
loop_
_atom_site_type_symbol
_atom_site_label
_atom_site_fract_x
_atom_site_fract_y
_atom_site_fract_z
Si Si1 0.686487 0.817401 0.905534
Si Si2 0.673660 0.336688 0.350423
Si Si3 0.326510 0.679338 0.266740
Si Si4 0.641226 0.652228 0.638984
Si Si5 0.329891 0.404821 0.117919
Si Si6 0.642044 0.981420 0.322812
Si Si7 0.357701 0.028984 0.343767
O O1 0.551310 0.739641 0.833082
O O2 0.705731 0.683936 0.849021
O O3 0.020943 0.920510 0.793106
O O4 0.480842 0.918038 0.132185
O O5 0.592862 0.480115 0.546005
O O6 0.582960 0.322590 0.292834
O O7 0.494619 0.195689 0.382889
O O8 0.033701 0.344966 0.172306
O O9 0.346625 0.576962 0.255248
O O10 0.627037 0.811610 0.201784
O O11 0.999013 0.722750 0.478330
O O12 0.354393 0.597103 0.101676
O O13 0.500000 0.000000 0.500000
O O14 0.426870 0.005727 0.382857
O O15 0.000000 0.000000 0.500000
#
# Coordination Sequence:
#
# PCOD8006030 Si02
#       7
#     2   2   2   2   2   2   2
#     4  12  24  43  68  98 131 169 222 271 318 383
#     4  10  22  43  66  91 132 175 211 260 332 379
#     4  10  20  39  64  96 127 166 212 260 320 383
#     4  10  23  42  67  94 131 170 217 267 319 385
#     4  10  21  39  69  92 124 172 215 262 317 389
#     4  12  23  41  67 100 128 167 214 269 323 385
#     4  12  26  44  66  93 134 175 214 269 330 386
#
# _framework density 20.7499
#
# number of rings (size 3 to 8) (size 9 to 14) (size 15 to 20)
#    0.000    1.143    4.286    2.143    0.000    4.000 
#    2.571    0.714    0.000    0.000    0.000    0.000 
#    0.000    0.000    0.000    0.000    0.000    0.000 
#
# Total GULP energy -173446.779054 kJ/mol
# GULP energy per Si atom -12389.055647 kJ/mol
# Density = 2.070267 g / cm^3
# Si number density = 20.749900 Si / 1000 Ang^3
#
#
#
# Elastic Constant Matrix: (Units=GPa)
#
#
# Indices 1 2 3 4 5 6 
#
# 1 112.6372 63.4766 75.1181 5.6081 19.0706 2.0106
# 2 63.4766 172.0424 24.9067 2.1547 1.5606 -24.1521
# 3 75.1181 24.9067 98.6527 -6.4206 7.1443 -1.8692
# 4 5.6081 2.1547 -6.4206 26.1277 1.7932 4.7709
# 5 19.0706 1.5606 7.1443 1.7932 25.3042 1.7394
# 6 2.0106 -24.1521 -1.8692 4.7709 1.7394 28.4484
#
#
#
# Elastic Compliance Matrix: (Units=1/GPa)
#
#
# Indices 1 2 3 4 5 6 
#
# 1 0.032141 -0.009835 -0.021548 -0.008511 -0.016269 -0.009615
# 2 -0.009835 0.009971 0.004830 0.000486 0.004773 0.009104
# 3 -0.021548 0.004830 0.025448 0.008978 0.007755 0.005316
# 4 -0.008511 0.000486 0.008978 0.043230 0.001179 -0.005718
# 5 -0.016269 0.004773 0.007755 0.001179 0.049039 0.002516
# 6 -0.009615 0.009104 0.005316 -0.005718 0.002516 0.044714
#
#
# Mechanical properties :
#
#
# Convention : Reuss Voigt Hill
#
# Bulk Modulus (GPa) = 69.18899 78.92611 74.05755
# Shear Modulus (GPa) = 19.04998 30.63145 24.84072
#
# Velocity S-wave (km/s) = 3.03326 3.84633 3.46374
# Velocity P-wave (km/s) = 6.75901 7.60560 7.19477
#
# Compressibility (1/GPa) = 0.01445317
#
# Stress axis : x y z
#
# Youngs Moduli (GPa) = 31.11309 100.29489 39.29531
#
# Poissons Ratio (x) = 0.98637 0.84675
# Poissons Ratio (y) = 0.30599 -0.18978
# Poissons Ratio (z) = 0.67043 -0.48439
#
# Static dielectric constant tensor:
#      x y z
#    x 3.730450 -0.124230 0.102420 
#    y -0.124230 4.164040 -0.014850 
#    z 0.102420 -0.014850 4.275840 
# 
# 
# High freq. dielectric constant tensor:
#      x y z
#    x 1.796430 -0.010040 -0.001060 
#    y -0.010040 1.842430 0.004090 
#    z -0.001060 0.004090 1.806070 
# 
# From -- ./inp_files/175491.got.cif
#   From: 2010.06.25/outbox.cif.g09.slc.cpg/sg2_88_cif.got.tgz:175491.got - 2010.06.27 13:26:56.
