data_PCOD8006524
_publ_section_title
;
Structure prediction by ZEFSAII (Michael W. Deem and Ramdas Pophale) SiO2 
 PCOD8006524
Probable space group: P -1
;
_chemical_formula_sum "Si O2"
_cell_formula_units_Z 14
_cell_length_a 17.406966
_cell_length_b 11.753419
_cell_length_c 9.481684
_cell_angle_alpha 90.757905
_cell_angle_beta 69.118371
_cell_angle_gamma 30.826515
_cell_volume 692.059071
_symmetry_space_group_name_H-M "P -1"
_symmetry_group_IT_number 2
_symmetry_cell_setting 'triclinic'
loop_
_space_group_symop_operation_xyz
x,y,z
-x,-y,-z
loop_
_atom_site_type_symbol
_atom_site_label
_atom_site_fract_x
_atom_site_fract_y
_atom_site_fract_z
Si Si1 0.425812 0.092756 0.209037
Si Si2 0.646360 0.346518 0.205463
Si Si3 0.960177 0.769759 0.483003
Si Si4 0.013033 0.135206 0.259033
Si Si5 0.560262 0.155008 0.652133
Si Si6 0.814014 0.144157 0.398836
Si Si7 0.441348 0.191225 0.469515
O O1 0.503979 0.099059 0.259464
O O2 0.170547 0.429035 0.373865
O O3 0.510764 0.868082 0.220649
O O4 0.500000 0.000000 0.000000
O O5 0.606025 0.531188 0.201576
O O6 0.784184 0.158979 0.253876
O O7 0.420183 0.567509 0.366359
O O8 0.793470 0.109266 0.982185
O O9 0.884904 0.938214 0.670610
O O10 0.793771 0.885995 0.550794
O O11 0.977270 0.838949 0.345160
O O12 0.920322 0.129624 0.358684
O O13 0.813869 0.463772 0.337606
O O14 0.565027 0.131336 0.476545
O O15 0.500000 0.000000 0.500000
#
# Coordination Sequence:
#
# PCOD8006524 Si02
#       7
#     2   2   2   2   2   2   2
#     4  10  22  39  60  87 116 153 201 247 298 350
#     4  10  22  37  62  93 118 161 200 240 298 354
#     4  10  23  39  58  88 121 157 195 249 299 350
#     4  11  21  39  62  88 122 162 194 243 305 347
#     4  10  20  40  60  82 120 157 197 244 290 358
#     4  10  21  37  58  91 124 152 200 248 286 358
#     4   9  20  38  63  82 115 158 200 239 295 358
#
# _framework density 20.229486000000001
#
# number of rings (size 3 to 8) (size 9 to 14) (size 15 to 20)
#    0.000    2.000    1.429    1.286    2.000    3.429 
#    5.143    0.714    0.000    0.000    0.000    0.000 
#    0.000    0.000    0.000    0.000    0.000    0.000 
#
# Total GULP energy -173477.377517 kJ/mol
# GULP energy per Si atom -12391.241251 kJ/mol
# Density = 2.018344 g / cm^3
# Si number density = 20.229486 Si / 1000 Ang^3
#
#
#
# Elastic Constant Matrix: (Units=GPa)
#
#
# Indices 1 2 3 4 5 6 
#
# 1 95.1717 15.1875 50.8301 -9.1216 14.5592 -29.2425
# 2 15.1875 88.6876 22.6545 -11.9587 11.4539 2.7751
# 3 50.8301 22.6545 122.7885 -16.7159 24.8169 -4.7177
# 4 -9.1216 -11.9587 -16.7159 22.1932 -3.0021 8.8979
# 5 14.5592 11.4539 24.8169 -3.0021 28.4581 -8.6617
# 6 -29.2425 2.7751 -4.7177 8.8979 -8.6617 39.4652
#
#
#
# Elastic Compliance Matrix: (Units=1/GPa)
#
#
# Indices 1 2 3 4 5 6 
#
# 1 0.018923 -0.002702 -0.007964 -0.005367 0.002346 0.014984
# 2 -0.002702 0.013611 0.000647 0.008357 -0.005604 -0.005996
# 3 -0.007964 0.000647 0.014458 0.010076 -0.010402 -0.008773
# 4 -0.005367 0.008357 0.010076 0.061432 -0.008746 -0.019130
# 5 0.002346 -0.005604 -0.010402 -0.008746 0.048450 0.013494
# 6 0.014984 -0.005996 -0.008773 -0.019130 0.013494 0.043089
#
#
# Mechanical properties :
#
#
# Convention : Reuss Voigt Hill
#
# Bulk Modulus (GPa) = 37.09894 53.77687 45.43790
# Shear Modulus (GPa) = 21.83554 32.55503 27.19529
#
# Velocity S-wave (km/s) = 3.28897 4.01594 3.67050
# Velocity P-wave (km/s) = 5.72730 6.93865 6.36187
#
# Compressibility (1/GPa) = 0.02695495
#
# Stress axis : x y z
#
# Youngs Moduli (GPa) = 52.84696 73.46969 69.16403
#
# Poissons Ratio (x) = 0.19849 0.55081
# Poissons Ratio (y) = 0.14277 -0.04475
# Poissons Ratio (z) = 0.42087 -0.04753
#
# Static dielectric constant tensor:
#      x y z
#    x 4.060030 -0.176560 0.426490 
#    y -0.176560 4.048120 -0.072880 
#    z 0.426490 -0.072880 3.536920 
# 
# 
# High freq. dielectric constant tensor:
#      x y z
#    x 1.792040 -0.007290 0.026200 
#    y -0.007290 1.818680 -0.003600 
#    z 0.026200 -0.003600 1.756880 
# 
# From -- ./inp_files/178343.got.cif
#   From: 2010.06.25/outbox.cif.g09.slc.cpg/sg2_90_cif.got.tgz:178343.got - 2010.06.27 13:26:56.
