data_PCOD8006442
_publ_section_title
;
Structure prediction by ZEFSAII (Michael W. Deem and Ramdas Pophale) SiO2 
 PCOD8006442
Probable space group: P -1
;
_chemical_formula_sum "Si O2"
_cell_formula_units_Z 14
_cell_length_a 9.762874
_cell_length_b 29.651013
_cell_length_c 14.646004
_cell_angle_alpha 17.815720
_cell_angle_beta 30.776092
_cell_angle_gamma 27.449076
_cell_volume 594.857206
_symmetry_space_group_name_H-M "P -1"
_symmetry_group_IT_number 2
_symmetry_cell_setting 'triclinic'
loop_
_space_group_symop_operation_xyz
x,y,z
-x,-y,-z
loop_
_atom_site_type_symbol
_atom_site_label
_atom_site_fract_x
_atom_site_fract_y
_atom_site_fract_z
Si Si1 0.236196 0.888799 0.932335
Si Si2 0.492554 0.904911 0.564513
Si Si3 0.126203 0.124719 0.209893
Si Si4 0.698693 0.564775 0.817373
Si Si5 0.636838 0.549850 0.410936
Si Si6 0.592548 0.927650 0.185473
Si Si7 0.445348 0.624178 0.027210
O O1 0.395397 0.850452 0.817100
O O2 0.214577 0.062403 0.648787
O O3 0.447128 0.744701 0.158089
O O4 0.930359 0.880094 0.109732
O O5 0.237707 0.084384 0.329061
O O6 0.547162 0.764314 0.729728
O O7 0.407996 0.073672 0.079724
O O8 0.000000 0.000000 0.500000
O O9 0.869420 0.306244 0.983799
O O10 0.539493 0.764267 0.532197
O O11 0.019232 0.497661 0.715678
O O12 0.500000 0.500000 0.000000
O O13 0.701082 0.508606 0.031208
O O14 0.500000 0.500000 0.500000
O O15 0.597310 0.469852 0.680940
O O16 0.500000 0.000000 0.000000
#
# Coordination Sequence:
#
# PCOD8006442 Si02
#       7
#     2   2   2   2   2   2   2
#     4  11  25  42  71 104 140 180 236 292 349 426
#     4  10  21  43  71  98 134 181 229 292 356 406
#     4  10  20  39  70  94 130 174 229 284 349 403
#     4  12  28  46  73 104 139 192 241 285 357 431
#     4  12  25  48  71 102 151 191 229 292 359 425
#     4  12  23  44  70  98 136 179 233 294 349 410
#     4  11  24  49  72 100 145 187 233 295 359 417
#
# _framework density 23.535060000000001
#
# number of rings (size 3 to 8) (size 9 to 14) (size 15 to 20)
#    0.000    0.857    5.714    2.571    2.000    2.857 
#    5.143    0.000    0.000    0.000    0.000    0.000 
#    0.000    0.000    0.000    0.000    0.000    0.000 
#
# Total GULP energy -173442.289998 kJ/mol
# GULP energy per Si atom -12388.735000 kJ/mol
# Density = 2.348149 g / cm^3
# Si number density = 23.535060 Si / 1000 Ang^3
#
#
#
# Elastic Constant Matrix: (Units=GPa)
#
#
# Indices 1 2 3 4 5 6 
#
# 1 115.5940 25.6260 74.0644 6.8381 8.6512 1.3672
# 2 25.6260 68.4650 50.4281 10.2272 1.8848 2.4928
# 3 74.0644 50.4281 116.5148 22.5615 3.3503 7.1794
# 4 6.8381 10.2272 22.5615 25.6892 -3.0872 1.8751
# 5 8.6512 1.8848 3.3503 -3.0872 61.5239 -1.9822
# 6 1.3672 2.4928 7.1794 1.8751 -1.9822 27.7437
#
#
#
# Elastic Compliance Matrix: (Units=1/GPa)
#
#
# Indices 1 2 3 4 5 6 
#
# 1 0.015562 0.002128 -0.011880 0.005166 -0.001293 0.001675
# 2 0.002128 0.021745 -0.010837 0.000201 -0.000342 0.000708
# 3 -0.011880 -0.010837 0.023560 -0.012953 -0.000049 -0.003666
# 4 0.005166 0.000201 -0.012953 0.049146 0.002437 -0.000068
# 5 -0.001293 -0.000342 -0.000049 0.002437 0.016608 0.001129
# 6 0.001675 0.000708 -0.003666 -0.000068 0.001129 0.036932
#
#
# Mechanical properties :
#
#
# Convention : Reuss Voigt Hill
#
# Bulk Modulus (GPa) = 50.78665 66.75675 58.77170
# Shear Modulus (GPa) = 23.66388 33.02172 28.34280
#
# Velocity S-wave (km/s) = 3.17436 3.74984 3.47404
# Velocity P-wave (km/s) = 5.92127 6.86839 6.41234
#
# Compressibility (1/GPa) = 0.01969022
#
# Stress axis : x y z
#
# Youngs Moduli (GPa) = 64.25771 45.98767 42.44499
#
# Poissons Ratio (x) = -0.09787 0.50424
# Poissons Ratio (y) = -0.13675 0.45997
# Poissons Ratio (z) = 0.76337 0.49836
#
# Static dielectric constant tensor:
#      x y z
#    x 4.667650 -0.783370 0.240500 
#    y -0.783370 4.085110 -0.051150 
#    z 0.240500 -0.051150 4.492220 
# 
# 
# High freq. dielectric constant tensor:
#      x y z
#    x 1.950550 0.000740 0.002960 
#    y 0.000740 1.910370 0.014690 
#    z 0.002960 0.014690 1.940630 
# 
# From -- ./inp_files/509072.got.cif
#   From: 2010.06.25/outbox.cif.g09.slc.cpg/sg2_255_cif.got.tgz:509072.got - 2010.06.27 13:26:56.
