data_PCOD8006160
_publ_section_title
;
Structure prediction by ZEFSAII (Michael W. Deem and Ramdas Pophale) SiO2 
 PCOD8006160
Probable space group: P -1
;
_chemical_formula_sum "Si O2"
_cell_formula_units_Z 16
_cell_length_a 8.730582
_cell_length_b 20.839169
_cell_length_c 23.416861
_cell_angle_alpha 160.769559
_cell_angle_beta 149.018128
_cell_angle_gamma 31.421532
_cell_volume 697.754292
_symmetry_space_group_name_H-M "P -1"
_symmetry_group_IT_number 2
_symmetry_cell_setting 'triclinic'
loop_
_space_group_symop_operation_xyz
x,y,z
-x,-y,-z
loop_
_atom_site_type_symbol
_atom_site_label
_atom_site_fract_x
_atom_site_fract_y
_atom_site_fract_z
Si Si1 0.322694 0.526086 0.905845
Si Si2 0.899734 0.126163 0.954654
Si Si3 0.511032 0.655515 0.397615
Si Si4 0.345613 0.387527 0.208329
Si Si5 0.860690 0.291507 0.374127
Si Si6 0.397833 0.002303 0.746757
Si Si7 0.177897 0.670166 0.189426
Si Si8 0.525577 0.080143 0.169496
O O1 0.530728 0.388022 0.808704
O O2 0.996493 0.475205 0.770596
O O3 0.500000 0.500000 0.000000
O O4 0.232869 0.754165 0.044689
O O5 0.616723 0.152701 0.930809
O O6 0.011852 0.891099 0.781506
O O7 0.188628 0.192353 0.130265
O O8 0.449052 0.454251 0.236166
O O9 0.288520 0.730472 0.336335
O O10 0.863893 0.599202 0.439215
O O11 0.437725 0.830552 0.567904
O O12 0.567518 0.434766 0.368522
O O13 0.356233 0.149736 0.008716
O O14 0.759082 0.209304 0.331881
O O15 0.046861 0.133620 0.745646
O O16 0.489132 0.901401 0.752141
O O17 0.000000 0.500000 0.000000
#
# Coordination Sequence:
#
# PCOD8006160 Si02
#       8
#     2   2   2   2   2   2   2   2
#     4  12  23  39  67 103 129 169 227 277 318 384
#     4  10  20  39  66 101 133 171 221 273 325 389
#     4  11  26  45  65  98 138 174 216 278 345 394
#     4  11  22  43  67 102 133 178 224 272 328 397
#     4  10  21  42  68  98 136 173 216 282 336 387
#     4  11  24  42  66  97 136 177 219 277 334 390
#     4  12  25  45  68  97 130 179 227 273 325 405
#     4  11  20  41  73 102 128 175 228 271 323 397
#
# _framework density 22.930709
#
# number of rings (size 3 to 8) (size 9 to 14) (size 15 to 20)
#    0.000    1.000    3.750    4.125    0.000    1.000 
#    2.250    2.500    0.000    0.000    0.000    0.000 
#    0.000    0.000    0.000    0.000    0.000    0.000 
#
# Total GULP energy -198378.221639 kJ/mol
# GULP energy per Si atom -12398.638852 kJ/mol
# Density = 2.287852 g / cm^3
# Si number density = 22.930709 Si / 1000 Ang^3
#
#
#
# Elastic Constant Matrix: (Units=GPa)
#
#
# Indices 1 2 3 4 5 6 
#
# 1 160.6979 68.7285 44.1253 -19.3742 22.5156 6.3175
# 2 68.7285 161.2226 32.2496 -22.7174 6.1475 4.8316
# 3 44.1253 32.2496 38.2304 -13.3771 7.7126 -7.1922
# 4 -19.3742 -22.7174 -13.3771 31.2030 0.6549 1.7220
# 5 22.5156 6.1475 7.7126 0.6549 44.6919 -7.1221
# 6 6.3175 4.8316 -7.1922 1.7220 -7.1221 47.1632
#
#
#
# Elastic Compliance Matrix: (Units=1/GPa)
#
#
# Indices 1 2 3 4 5 6 
#
# 1 0.010703 -0.002163 -0.010004 0.001050 -0.003920 -0.003368
# 2 -0.002163 0.008341 -0.003716 0.003195 0.000346 -0.001196
# 3 -0.010004 -0.003716 0.046322 0.010516 -0.001289 0.008206
# 4 0.001050 0.003195 0.010516 0.039654 -0.003498 -0.000840
# 5 -0.003920 0.000346 -0.001289 -0.003498 0.025251 0.004234
# 6 -0.003368 -0.001196 0.008206 -0.000840 0.004234 0.023698
#
#
# Mechanical properties :
#
#
# Convention : Reuss Voigt Hill
#
# Bulk Modulus (GPa) = 29.76257 72.26197 51.01227
# Shear Modulus (GPa) = 25.38880 38.94814 32.16847
#
# Velocity S-wave (km/s) = 3.33107 4.12577 3.74953
# Velocity P-wave (km/s) = 5.27278 7.36733 6.40624
#
# Compressibility (1/GPa) = 0.03359925
#
# Stress axis : x y z
#
# Youngs Moduli (GPa) = 93.42861 119.89017 21.58793
#
# Poissons Ratio (x) = 0.25935 0.21597
# Poissons Ratio (y) = 0.20211 0.08022
# Poissons Ratio (z) = 0.93468 0.44553
#
# Static dielectric constant tensor:
#      x y z
#    x 4.389360 -0.189550 0.334830 
#    y -0.189550 4.501150 -0.286910 
#    z 0.334830 -0.286910 3.886270 
# 
# 
# High freq. dielectric constant tensor:
#      x y z
#    x 1.923360 -0.003950 0.013050 
#    y -0.003950 1.919210 -0.009990 
#    z 0.013050 -0.009990 1.875600 
# 
# From -- ./inp_files/204445.got.cif
#   From: 2010.06.25/outbox.cif.g09.slc.cpg/sg2_103_cif.got.tgz:204445.got - 2010.06.27 13:26:56.
