data_PCOD8006252
_publ_section_title
;
Structure prediction by ZEFSAII (Michael W. Deem and Ramdas Pophale) SiO2 
 PCOD8006252
Probable space group: P -1
;
_chemical_formula_sum "Si O2"
_cell_formula_units_Z 16
_cell_length_a 11.919289
_cell_length_b 18.168955
_cell_length_c 20.615050
_cell_angle_alpha 17.031253
_cell_angle_beta 29.812388
_cell_angle_gamma 38.545168
_cell_volume 614.543292
_symmetry_space_group_name_H-M "P -1"
_symmetry_group_IT_number 2
_symmetry_cell_setting 'triclinic'
loop_
_space_group_symop_operation_xyz
x,y,z
-x,-y,-z
loop_
_atom_site_type_symbol
_atom_site_label
_atom_site_fract_x
_atom_site_fract_y
_atom_site_fract_z
Si Si1 0.292899 0.271989 0.105578
Si Si2 0.881764 0.873514 0.012745
Si Si3 0.969543 0.967184 0.331272
Si Si4 0.774677 0.542421 0.465002
Si Si5 0.423065 0.042886 0.108572
Si Si6 0.832135 0.177609 0.350764
Si Si7 0.755513 0.506834 0.739499
Si Si8 0.315138 0.100663 0.686116
O O1 0.079078 0.376926 0.094534
O O2 0.201149 0.102903 0.359268
O O3 0.351336 0.073642 0.192366
O O4 0.542239 0.514347 0.790500
O O5 0.930021 0.828550 0.951405
O O6 0.628373 0.914962 0.113298
O O7 0.842297 0.614577 0.295067
O O8 0.129595 0.107553 0.714978
O O9 0.766428 0.700006 0.632889
O O10 0.868767 0.124410 0.301696
O O11 0.188059 0.878610 0.324901
O O12 0.516785 0.329546 0.784346
O O13 0.788495 0.806563 0.275476
O O14 0.978162 0.413056 0.494659
O O15 0.598200 0.272682 0.392066
O O16 0.687537 0.200511 0.053083
#
# Coordination Sequence:
#
# PCOD8006252 Si02
#       8
#     2   2   2   2   2   2   2   2
#     4   9  19  37  68  91 116 172 212 261 310 360
#     4  11  22  39  65  95 130 171 201 264 331 370
#     4  11  24  40  65  98 130 174 210 258 323 389
#     4  11  23  40  68  97 131 161 216 275 309 380
#     4  11  23  42  67  97 127 166 221 262 319 381
#     4   9  20  42  65  91 133 164 220 262 305 390
#     4  10  20  39  66  99 126 162 216 265 320 384
#     4  10  22  40  63  97 128 167 216 267 315 372
#
# _framework density 26.035595000000001
#
# number of rings (size 3 to 8) (size 9 to 14) (size 15 to 20)
#    0.000    1.750    1.250    4.125    1.750    4.000 
#    2.250    2.500    8.250    0.000    0.000    0.000 
#    0.000    0.000    0.000    0.000    0.000    0.000 
#
# Total GULP energy -198316.605784 kJ/mol
# GULP energy per Si atom -12394.787862 kJ/mol
# Density = 2.597634 g / cm^3
# Si number density = 26.035595 Si / 1000 Ang^3
#
#
#
# Elastic Constant Matrix: (Units=GPa)
#
#
# Indices 1 2 3 4 5 6 
#
# 1 170.1205 64.6452 33.8185 3.8366 -12.7294 -3.4765
# 2 64.6452 92.8468 16.7353 9.1776 5.3302 6.0825
# 3 33.8185 16.7353 61.2510 4.6292 -16.7544 0.8595
# 4 3.8366 9.1776 4.6292 33.5819 9.5343 -2.9505
# 5 -12.7294 5.3302 -16.7544 9.5343 40.6696 7.0381
# 6 -3.4765 6.0825 0.8595 -2.9505 7.0381 54.0258
#
#
#
# Elastic Compliance Matrix: (Units=1/GPa)
#
#
# Indices 1 2 3 4 5 6 
#
# 1 0.008829 -0.005889 -0.002735 0.000465 0.002123 0.001024
# 2 -0.005889 0.015789 -0.001895 -0.002453 -0.003813 -0.001764
# 3 -0.002735 -0.001895 0.021419 -0.005043 0.009718 -0.001845
# 4 0.000465 -0.002453 -0.005043 0.034326 -0.010281 0.003600
# 5 0.002123 -0.003813 0.009718 -0.010281 0.032935 -0.004441
# 6 0.001024 -0.001764 -0.001845 0.003600 -0.004441 0.019579
#
#
# Mechanical properties :
#
#
# Convention : Reuss Voigt Hill
#
# Bulk Modulus (GPa) = 40.00088 61.62405 50.81246
# Shear Modulus (GPa) = 30.81711 39.59007 35.20359
#
# Velocity S-wave (km/s) = 3.44416 3.90373 3.68113
# Velocity P-wave (km/s) = 5.58691 6.63622 6.13404
#
# Compressibility (1/GPa) = 0.02499945
#
# Stress axis : x y z
#
# Youngs Moduli (GPa) = 113.26433 63.33372 46.68706
#
# Poissons Ratio (x) = 0.37298 0.12767
# Poissons Ratio (y) = 0.66703 0.08849
# Poissons Ratio (z) = 0.30973 0.12004
#
# Static dielectric constant tensor:
#      x y z
#    x 5.164070 -0.475790 -0.364070 
#    y -0.475790 4.425090 0.500630 
#    z -0.364070 0.500630 5.136530 
# 
# 
# High freq. dielectric constant tensor:
#      x y z
#    x 2.067770 -0.029100 -0.000030 
#    y -0.029100 2.021910 0.015000 
#    z -0.000030 0.015000 2.073210 
# 
# From -- ./inp_files/595922.got.cif
#   From: 2010.06.25/outbox.cif.g09.slc.cpg/sg2_298_cif.got.tgz:595922.got - 2010.06.27 13:26:56.
