data_PCOD8006450
_publ_section_title
;
Structure prediction by ZEFSAII (Michael W. Deem and Ramdas Pophale) SiO2 
 PCOD8006450
Probable space group: P -1
;
_chemical_formula_sum "Si O2"
_cell_formula_units_Z 14
_cell_length_a 8.270927
_cell_length_b 8.442044
_cell_length_c 14.065705
_cell_angle_alpha 41.049286
_cell_angle_beta 108.464659
_cell_angle_gamma 102.239181
_cell_volume 611.191920
_symmetry_space_group_name_H-M "P -1"
_symmetry_group_IT_number 2
_symmetry_cell_setting 'triclinic'
loop_
_space_group_symop_operation_xyz
x,y,z
-x,-y,-z
loop_
_atom_site_type_symbol
_atom_site_label
_atom_site_fract_x
_atom_site_fract_y
_atom_site_fract_z
Si Si1 0.940127 0.708086 0.967062
Si Si2 0.231915 0.039068 0.344347
Si Si3 0.884849 0.456963 0.408218
Si Si4 0.529508 0.789119 0.972340
Si Si5 0.763393 0.967752 0.084047
Si Si6 0.923585 0.302331 0.285634
Si Si7 0.548794 0.245155 0.241939
O O1 0.816222 0.895857 0.803130
O O2 0.857979 0.554671 0.106677
O O3 0.074545 0.871397 0.970688
O O4 0.000000 0.500000 0.000000
O O5 0.426414 0.125783 0.352526
O O6 0.083740 0.163669 0.327822
O O7 0.243729 0.752066 0.492947
O O8 0.787547 0.704575 0.252872
O O9 0.988731 0.363098 0.376208
O O10 0.000000 0.500000 0.500000
O O11 0.538088 0.794791 0.858141
O O12 0.344892 0.890852 0.920842
O O13 0.673568 0.955069 0.969910
O O14 0.547588 0.524986 0.140797
O O15 0.749325 0.147794 0.328916
#
# Coordination Sequence:
#
# PCOD8006450 Si02
#       7
#     2   2   2   2   2   2   2
#     4  10  20  39  70  99 124 178 235 278 339 402
#     4  11  24  43  71 101 136 188 229 278 349 418
#     4  12  26  45  65 102 147 187 228 279 351 420
#     4  10  21  40  69 104 140 173 228 307 341 392
#     4  11  22  41  68 101 145 180 229 291 351 405
#     4  11  24  45  72 101 137 184 236 287 339 406
#     4  11  22  43  72 103 135 174 240 287 343 412
#
# _framework density 22.906061000000001
#
# number of rings (size 3 to 8) (size 9 to 14) (size 15 to 20)
#    0.000    1.143    2.857    5.571    0.000    2.286 
#    0.000    0.714    0.000    0.000    0.000    0.000 
#    0.000    0.000    0.000    0.000    0.000    0.000 
#
# Total GULP energy -173442.668528 kJ/mol
# GULP energy per Si atom -12388.762038 kJ/mol
# Density = 2.285393 g / cm^3
# Si number density = 22.906061 Si / 1000 Ang^3
#
#
#
# Elastic Constant Matrix: (Units=GPa)
#
#
# Indices 1 2 3 4 5 6 
#
# 1 152.5939 45.3181 28.6422 -14.0106 -29.6208 14.1184
# 2 45.3181 113.4348 32.5755 4.4879 -20.1746 11.5507
# 3 28.6422 32.5755 88.2964 -4.6644 -10.1034 0.4537
# 4 -14.0106 4.4879 -4.6644 45.2945 5.0433 -1.7902
# 5 -29.6208 -20.1746 -10.1034 5.0433 19.7333 -5.3457
# 6 14.1184 11.5507 0.4537 -1.7902 -5.3457 22.2722
#
#
#
# Elastic Compliance Matrix: (Units=1/GPa)
#
#
# Indices 1 2 3 4 5 6 
#
# 1 0.009831 -0.001284 -0.001281 0.001634 0.011663 -0.002609
# 2 -0.001284 0.012325 -0.003268 -0.003079 0.008799 -0.003647
# 3 -0.001281 -0.003268 0.013219 0.001181 0.001962 0.002803
# 4 0.001634 -0.003079 0.001181 0.023704 -0.005868 0.001034
# 5 0.011663 0.008799 0.001962 -0.005868 0.081611 0.007120
# 6 -0.002609 -0.003647 0.002803 0.001034 0.007120 0.050179
#
#
# Mechanical properties :
#
#
# Convention : Reuss Voigt Hill
#
# Bulk Modulus (GPa) = 42.17759 63.04408 52.61083
# Shear Modulus (GPa) = 23.75999 33.97929 28.86964
#
# Velocity S-wave (km/s) = 3.22418 3.85570 3.55399
# Velocity P-wave (km/s) = 5.68451 6.88509 6.31341
#
# Compressibility (1/GPa) = 0.02370927
#
# Stress axis : x y z
#
# Youngs Moduli (GPa) = 101.72351 81.13478 75.64847
#
# Poissons Ratio (x) = 0.10420 0.09689
# Poissons Ratio (y) = 0.13065 0.24719
# Poissons Ratio (z) = 0.13029 0.26512
#
# Static dielectric constant tensor:
#      x y z
#    x 4.218600 0.049320 0.045290 
#    y 0.049320 4.345450 0.017170 
#    z 0.045290 0.017170 3.728980 
# 
# 
# High freq. dielectric constant tensor:
#      x y z
#    x 1.904590 0.003400 -0.006320 
#    y 0.003400 1.910520 0.006490 
#    z -0.006320 0.006490 1.904810 
# 
# From -- ./inp_files/491867.got.cif
#   From: 2010.06.25/outbox.cif.g09.slc.cpg/sg2_246_cif.got.tgz:491867.got - 2010.06.27 13:26:56.
