data_PCOD8006539
_publ_section_title
;
Structure prediction by ZEFSAII (Michael W. Deem and Ramdas Pophale) SiO2 
 PCOD8006539
Probable space group: P -1
;
_chemical_formula_sum "Si O2"
_cell_formula_units_Z 16
_cell_length_a 21.920328
_cell_length_b 9.851905
_cell_length_c 15.679690
_cell_angle_alpha 44.465429
_cell_angle_beta 19.608471
_cell_angle_gamma 44.578666
_cell_volume 784.384803
_symmetry_space_group_name_H-M "P -1"
_symmetry_group_IT_number 2
_symmetry_cell_setting 'triclinic'
loop_
_space_group_symop_operation_xyz
x,y,z
-x,-y,-z
loop_
_atom_site_type_symbol
_atom_site_label
_atom_site_fract_x
_atom_site_fract_y
_atom_site_fract_z
Si Si1 0.032566 0.288107 0.757527
Si Si2 0.681689 0.449727 0.056884
Si Si3 0.619459 0.840739 0.856168
Si Si4 0.939498 0.019257 0.279866
Si Si5 0.547581 0.711873 0.830074
Si Si6 0.209443 0.659737 0.784952
Si Si7 0.330774 0.925786 0.867786
Si Si8 0.533085 0.692810 0.455091
O O1 0.242117 0.323712 0.465059
O O2 0.019869 0.079069 0.823700
O O3 0.892809 0.441777 0.814165
O O4 0.964128 0.305101 0.937586
O O5 0.638973 0.250256 0.159966
O O6 0.544525 0.465338 0.311003
O O7 0.638396 0.629319 0.969664
O O8 0.520672 0.829847 0.900936
O O9 0.816343 0.901565 0.553036
O O10 0.500000 0.000000 0.000000
O O11 0.847229 0.240851 0.277046
O O12 0.115647 0.020563 0.107024
O O13 0.399630 0.840528 0.906624
O O14 0.500000 0.500000 0.000000
O O15 0.377559 0.756772 0.558882
O O16 0.279281 0.426533 0.780368
O O17 0.436227 0.108374 0.626212
#
# Coordination Sequence:
#
# PCOD8006539 Si02
#       8
#     2   2   2   2   2   2   2   2
#     4   9  21  36  63  86 117 162 206 249 300 372
#     4  10  21  38  62  90 122 163 208 247 306 367
#     4  11  23  42  65  89 123 167 206 249 305 375
#     4  10  22  38  63  89 124 162 207 249 304 370
#     4  11  23  41  63  89 121 162 204 259 304 360
#     4  10  20  40  60  91 122 164 204 250 310 364
#     4  11  23  39  60  91 122 158 207 259 309 355
#     4  10  21  37  63  90 126 158 202 256 308 363
#
# _framework density 20.398152
#
# number of rings (size 3 to 8) (size 9 to 14) (size 15 to 20)
#    0.000    1.750    1.250    3.000    1.750    7.000 
#    2.250    0.625    0.000    0.000    0.000    0.000 
#    0.000    0.000    0.000    0.000    0.000    0.000 
#
# Total GULP energy -198301.686197 kJ/mol
# GULP energy per Si atom -12393.855387 kJ/mol
# Density = 2.035173 g / cm^3
# Si number density = 20.398152 Si / 1000 Ang^3
#
#
#
# Elastic Constant Matrix: (Units=GPa)
#
#
# Indices 1 2 3 4 5 6 
#
# 1 113.5929 39.0553 70.4309 2.5948 -11.9710 -22.5575
# 2 39.0553 94.9491 64.0088 0.1208 -1.4677 -5.3813
# 3 70.4309 64.0088 106.0177 1.0314 -6.9330 -9.6103
# 4 2.5948 0.1208 1.0314 30.3706 2.3180 4.0387
# 5 -11.9710 -1.4677 -6.9330 2.3180 35.1158 2.0282
# 6 -22.5575 -5.3813 -9.6103 4.0387 2.0282 36.9855
#
#
#
# Elastic Compliance Matrix: (Units=1/GPa)
#
#
# Indices 1 2 3 4 5 6 
#
# 1 0.017382 0.000822 -0.011075 -0.002430 0.003476 0.007918
# 2 0.000822 0.017874 -0.011407 0.000319 -0.001256 0.000172
# 3 -0.011075 -0.011407 0.023488 0.000474 0.000492 -0.002390
# 4 -0.002430 0.000319 0.000474 0.033970 -0.002682 -0.004875
# 5 0.003476 -0.001256 0.000492 -0.002682 0.029842 0.000722
# 6 0.007918 0.000172 -0.002390 -0.004875 0.000722 0.031763
#
#
# Mechanical properties :
#
#
# Convention : Reuss Voigt Hill
#
# Bulk Modulus (GPa) = 64.83680 73.50552 69.17116
# Shear Modulus (GPa) = 24.65737 29.89870 27.27804
#
# Velocity S-wave (km/s) = 3.48056 3.83267 3.66085
# Velocity P-wave (km/s) = 6.92871 7.46321 7.20092
#
# Compressibility (1/GPa) = 0.01542334
#
# Stress axis : x y z
#
# Youngs Moduli (GPa) = 57.53207 55.94813 42.57578
#
# Poissons Ratio (x) = -0.04598 0.47151
# Poissons Ratio (y) = -0.04728 0.48566
# Poissons Ratio (z) = 0.63715 0.63820
#
# Static dielectric constant tensor:
#      x y z
#    x 3.901990 -0.059330 -0.069620 
#    y -0.059330 3.695010 0.109000 
#    z -0.069620 0.109000 3.668250 
# 
# 
# High freq. dielectric constant tensor:
#      x y z
#    x 1.801620 -0.007820 -0.004440 
#    y -0.007820 1.795190 0.004360 
#    z -0.004440 0.004360 1.789440 
# 
# From -- ./inp_files/176623.got.cif
#   From: 2010.06.25/outbox.cif.g09.slc.cpg/sg2_89_cif.got.tgz:176623.got - 2010.06.27 13:26:56.
