data_PCOD8006911
_publ_section_title
;
Structure prediction by ZEFSAII (Michael W. Deem and Ramdas Pophale) SiO2 
 PCOD8006911
Probable space group: P -1
;
_chemical_formula_sum "Si O2"
_cell_formula_units_Z 16
_cell_length_a 9.630425
_cell_length_b 13.566776
_cell_length_c 12.580733
_cell_angle_alpha 101.646107
_cell_angle_beta 125.410113
_cell_angle_gamma 41.378179
_cell_volume 798.527918
_symmetry_space_group_name_H-M "P -1"
_symmetry_group_IT_number 2
_symmetry_cell_setting 'triclinic'
loop_
_space_group_symop_operation_xyz
x,y,z
-x,-y,-z
loop_
_atom_site_type_symbol
_atom_site_label
_atom_site_fract_x
_atom_site_fract_y
_atom_site_fract_z
Si Si1 0.708091 0.547762 0.128402
Si Si2 0.257574 0.632823 0.573953
Si Si3 0.064879 0.164747 0.844589
Si Si4 0.310736 0.229893 0.410513
Si Si5 0.378715 0.094121 0.627573
Si Si6 0.410865 0.164058 0.883012
Si Si7 0.435003 0.677938 0.472459
Si Si8 0.646833 0.427766 0.890637
O O1 0.671852 0.681542 0.117878
O O2 0.441777 0.627630 0.090604
O O3 0.982699 0.402113 0.289135
O O4 0.738372 0.477974 0.014492
O O5 0.413697 0.640524 0.571455
O O6 0.322376 0.491104 0.525083
O O7 0.384023 0.585314 0.737018
O O8 0.928792 0.808112 0.470412
O O9 0.151478 0.219419 0.822481
O O10 0.860052 0.191163 0.690816
O O11 0.915299 0.274472 0.907350
O O12 0.328556 0.973842 0.952743
O O13 0.370579 0.180386 0.549749
O O14 0.488839 0.242725 0.459330
O O15 0.405966 0.094557 0.347553
O O16 0.490488 0.094351 0.783646
#
# Coordination Sequence:
#
# PCOD8006911 Si02
#       8
#     2   2   2   2   2   2   2   2
#     4  11  24  42  64  93 122 167 207 250 307 365
#     4  10  20  40  65  92 123 159 201 258 305 362
#     4  10  23  44  61  94 126 162 203 256 307 361
#     4  11  25  40  63  93 126 163 205 252 310 363
#     4  11  23  42  61  92 127 160 205 258 304 364
#     4  11  24  42  67  89 125 163 208 253 307 368
#     4  10  22  40  65  94 122 160 207 250 308 370
#     4  10  23  42  63  93 128 157 207 256 304 367
#
# _framework density 20.03687
#
# number of rings (size 3 to 8) (size 9 to 14) (size 15 to 20)
#    0.000    1.500    2.500    1.500    7.000    3.500 
#    6.750    0.000    0.000    0.000    0.000    0.000 
#    0.000    0.000    0.000    0.000    0.000    0.000 
#
# Total GULP energy -198496.271631 kJ/mol
# GULP energy per Si atom -12406.016977 kJ/mol
# Density = 1.999127 g / cm^3
# Si number density = 20.036870 Si / 1000 Ang^3
#
#
#
# Elastic Constant Matrix: (Units=GPa)
#
#
# Indices 1 2 3 4 5 6 
#
# 1 75.4635 45.1842 16.3038 -0.1307 -2.1899 10.2222
# 2 45.1842 87.0378 24.5171 -11.8126 -1.4680 18.6173
# 3 16.3038 24.5171 66.1426 1.0031 -5.4692 13.2874
# 4 -0.1307 -11.8126 1.0031 26.5930 -1.3708 2.4675
# 5 -2.1899 -1.4680 -5.4692 -1.3708 28.0518 -1.5464
# 6 10.2222 18.6173 13.2874 2.4675 -1.5464 36.1611
#
#
#
# Elastic Compliance Matrix: (Units=1/GPa)
#
#
# Indices 1 2 3 4 5 6 
#
# 1 0.019842 -0.010813 -0.000888 -0.004699 0.000615 0.000631
# 2 -0.010813 0.021079 -0.003915 0.010093 -0.000401 -0.007063
# 3 -0.000888 -0.003915 0.017870 -0.001893 0.002894 -0.004047
# 4 -0.004699 0.010093 -0.001893 0.042774 0.001550 -0.006025
# 5 0.000615 -0.000401 0.002894 0.001550 0.036338 0.000417
# 6 0.000631 -0.007063 -0.004047 -0.006025 0.000417 0.033028
#
#
# Mechanical properties :
#
#
# Convention : Reuss Voigt Hill
#
# Bulk Modulus (GPa) = 36.28539 44.51711 40.40125
# Shear Modulus (GPa) = 23.65753 27.67045 25.66399
#
# Velocity S-wave (km/s) = 3.43986 3.72018 3.58276
# Velocity P-wave (km/s) = 5.82456 6.38113 6.10919
#
# Compressibility (1/GPa) = 0.02755930
#
# Stress axis : x y z
#
# Youngs Moduli (GPa) = 50.39908 47.44009 55.95995
#
# Poissons Ratio (x) = 0.51296 0.04966
# Poissons Ratio (y) = 0.54495 0.21911
# Poissons Ratio (z) = 0.04473 0.18575
#
# Static dielectric constant tensor:
#      x y z
#    x 3.687990 -0.096490 -0.108850 
#    y -0.096490 3.469250 -0.023620 
#    z -0.108850 -0.023620 3.788440 
# 
# 
# High freq. dielectric constant tensor:
#      x y z
#    x 1.790190 -0.007130 -0.007310 
#    y -0.007130 1.769960 -0.003870 
#    z -0.007310 -0.003870 1.795920 
# 
# From -- ./inp_files/182503.got.cif
#   From: 2010.06.25/outbox.cif.g09.slc.cpg/sg2_92_cif.got.tgz:182503.got - 2010.06.27 13:26:56.
