data_PCOD8006149
_publ_section_title
;
Structure prediction by ZEFSAII (Michael W. Deem and Ramdas Pophale) SiO2 
 PCOD8006149
Probable space group: P -1
;
_chemical_formula_sum "Si O2"
_cell_formula_units_Z 16
_cell_length_a 25.945549
_cell_length_b 11.211826
_cell_length_c 5.388030
_cell_angle_alpha 58.852075
_cell_angle_beta 117.178220
_cell_angle_gamma 148.853951
_cell_volume 693.451415
_symmetry_space_group_name_H-M "P -1"
_symmetry_group_IT_number 2
_symmetry_cell_setting 'triclinic'
loop_
_space_group_symop_operation_xyz
x,y,z
-x,-y,-z
loop_
_atom_site_type_symbol
_atom_site_label
_atom_site_fract_x
_atom_site_fract_y
_atom_site_fract_z
Si Si1 0.368891 0.104174 0.695671
Si Si2 0.106719 0.267691 0.516578
Si Si3 0.002853 0.270262 0.610306
Si Si4 0.141287 0.860352 0.900964
Si Si5 0.668740 0.665819 0.487722
Si Si6 0.841201 0.378352 0.051836
Si Si7 0.477405 0.296040 0.217409
Si Si8 0.818952 0.842398 0.949031
O O1 0.379795 0.293566 0.530495
O O2 0.405331 0.128738 0.476563
O O3 0.429026 0.147037 0.012211
O O4 0.254644 0.834645 0.758962
O O5 0.088782 0.334082 0.637040
O O6 0.156863 0.456840 0.205768
O O7 0.180923 0.284346 0.719010
O O8 0.000000 0.000000 0.500000
O O9 0.964468 0.300481 0.279331
O O10 0.058473 0.463026 0.744001
O O11 0.908489 0.991825 0.790457
O O12 0.232702 0.102817 0.689792
O O13 0.155254 0.720280 0.072377
O O14 0.152790 0.948623 0.103492
O O15 0.584002 0.432140 0.374126
O O16 0.707637 0.631089 0.816012
O O17 0.500000 0.500000 0.000000
#
# Coordination Sequence:
#
# PCOD8006149 Si02
#       8
#     2   2   2   2   2   2   2   2
#     4  10  23  38  63  99 134 167 216 266 338 393
#     4  12  24  42  61  85 124 181 223 266 314 392
#     4  11  22  40  62  84 126 168 225 261 331 376
#     4  10  22  38  59  96 127 161 212 271 335 384
#     4   9  21  34  62  91 125 165 206 271 323 388
#     4  11  25  38  63  92 132 173 210 275 326 389
#     4  10  20  39  65  97 134 168 211 270 335 394
#     4  11  23  39  63  91 128 167 221 268 322 390
#
# _framework density 23.072994999999999
#
# number of rings (size 3 to 8) (size 9 to 14) (size 15 to 20)
#    0.000    1.500    2.500    2.250    8.750    4.000 
#    0.000    0.000    0.000    1.500    0.000    0.000 
#    0.000    0.000    0.000    0.000    0.000    0.000 
#
# Total GULP energy -198294.389036 kJ/mol
# GULP energy per Si atom -12393.399315 kJ/mol
# Density = 2.302048 g / cm^3
# Si number density = 23.072995 Si / 1000 Ang^3
#
#
#
# Elastic Constant Matrix: (Units=GPa)
#
#
# Indices 1 2 3 4 5 6 
#
# 1 49.1234 28.7244 28.9486 6.6786 3.6926 5.1103
# 2 28.7244 74.0581 49.3311 12.7818 19.2367 18.2017
# 3 28.9486 49.3311 128.7857 20.8538 13.4966 9.2463
# 4 6.6786 12.7818 20.8538 40.3983 8.8324 12.6475
# 5 3.6926 19.2367 13.4966 8.8324 38.9472 2.9430
# 6 5.1103 18.2017 9.2463 12.6475 2.9430 24.4073
#
#
#
# Elastic Compliance Matrix: (Units=1/GPa)
#
#
# Indices 1 2 3 4 5 6 
#
# 1 0.027597 -0.010520 -0.002508 -0.001832 0.003597 0.003532
# 2 -0.010520 0.028305 -0.006808 0.003887 -0.010212 -0.017110
# 3 -0.002508 -0.006808 0.011366 -0.004511 0.000414 0.003584
# 4 -0.001832 0.003887 -0.004511 0.032893 -0.006351 -0.017085
# 5 0.003597 -0.010212 0.000414 -0.006351 0.031205 0.006234
# 6 0.003532 -0.017110 0.003584 -0.017085 0.006234 0.059735
#
#
# Mechanical properties :
#
#
# Convention : Reuss Voigt Hill
#
# Bulk Modulus (GPa) = 36.23610 51.77505 44.00558
# Shear Modulus (GPa) = 20.83579 30.41476 25.62527
#
# Velocity S-wave (km/s) = 3.00832 3.63464 3.33621
# Velocity P-wave (km/s) = 5.27311 6.33265 5.82702
#
# Compressibility (1/GPa) = 0.02759679
#
# Stress axis : x y z
#
# Youngs Moduli (GPa) = 36.23546 35.32912 87.97990
#
# Poissons Ratio (x) = 0.37166 0.22063
# Poissons Ratio (y) = 0.38119 0.59900
# Poissons Ratio (z) = 0.09087 0.24053
#
# Static dielectric constant tensor:
#      x y z
#    x 4.182770 0.090900 0.007650 
#    y 0.090900 4.276360 0.401650 
#    z 0.007650 0.401650 4.346170 
# 
# 
# High freq. dielectric constant tensor:
#      x y z
#    x 1.879990 0.020670 -0.015260 
#    y 0.020670 1.898330 0.018410 
#    z -0.015260 0.018410 1.912240 
# 
# From -- ./inp_files/126680.got.cif
#   From: 2010.06.25/outbox.cif.g09.slc.cpg/sg2_64_cif.got.tgz:126680.got - 2010.06.27 13:26:56.
