data_PCOD8006512
_publ_section_title
;
Structure prediction by ZEFSAII (Michael W. Deem and Ramdas Pophale) SiO2 
 PCOD8006512
Probable space group: P -1
;
_chemical_formula_sum "Si O2"
_cell_formula_units_Z 14
_cell_length_a 15.627825
_cell_length_b 10.389723
_cell_length_c 5.247531
_cell_angle_alpha 64.693634
_cell_angle_beta 115.793213
_cell_angle_gamma 111.361709
_cell_volume 676.692786
_symmetry_space_group_name_H-M "P -1"
_symmetry_group_IT_number 2
_symmetry_cell_setting 'triclinic'
loop_
_space_group_symop_operation_xyz
x,y,z
-x,-y,-z
loop_
_atom_site_type_symbol
_atom_site_label
_atom_site_fract_x
_atom_site_fract_y
_atom_site_fract_z
Si Si1 0.742614 0.001125 0.172129
Si Si2 0.614434 0.521247 0.069579
Si Si3 0.959506 0.826367 0.072753
Si Si4 0.452681 0.918595 0.253325
Si Si5 0.957969 0.145686 0.344006
Si Si6 0.580607 0.406576 0.622976
Si Si7 0.256956 0.178438 0.179534
O O1 0.707673 0.904096 0.462682
O O2 0.842659 0.113755 0.272180
O O3 0.763412 0.911502 0.030358
O O4 0.662156 0.088059 0.906416
O O5 0.655750 0.482531 0.430956
O O6 0.500000 0.500000 0.000000
O O7 0.634583 0.410004 0.965229
O O8 0.658775 0.682549 0.892265
O O9 0.989987 0.757658 0.432390
O O10 0.012440 0.765408 0.955060
O O11 0.844264 0.780120 0.911928
O O12 0.000000 0.000000 0.000000
O O13 0.469030 0.754777 0.402355
O O14 0.500000 0.000000 0.500000
O O15 0.500000 0.000000 0.000000
O O16 0.000000 0.000000 0.500000
O O17 0.500000 0.500000 0.500000
#
# Coordination Sequence:
#
# PCOD8006512 Si02
#       7
#     2   2   2   2   2   2   2
#     4  12  23  34  60  90 131 155 198 259 333 363
#     4  10  23  37  61  82 117 165 218 248 294 369
#     4  10  16  30  51  84 131 148 191 251 321 365
#     4  12  28  43  63  93 127 163 218 272 319 364
#     4  10  16  32  50  85 126 156 181 246 327 380
#     4  10  23  44  62  80 117 170 211 255 309 368
#     4  12  21  34  59  96 123 161 205 257 315 374
#
# _framework density 20.688858
#
# number of rings (size 3 to 8) (size 9 to 14) (size 15 to 20)
#    0.000    1.143    5.714    2.571   12.000    0.000 
#    0.000    0.000    0.000    0.000    0.000    6.000 
#    0.000    0.000    0.000    0.000    0.000    0.000 
#
# Total GULP energy -173443.483474 kJ/mol
# GULP energy per Si atom -12388.820248 kJ/mol
# Density = 2.064177 g / cm^3
# Si number density = 20.688858 Si / 1000 Ang^3
#
#
#
# Elastic Constant Matrix: (Units=GPa)
#
#
# Indices 1 2 3 4 5 6 
#
# 1 94.5451 41.3848 60.1031 1.2207 -13.8405 14.9463
# 2 41.3848 73.3923 42.6040 -0.7112 -2.9787 -3.2068
# 3 60.1031 42.6040 146.1050 22.3474 -39.7390 -8.1849
# 4 1.2207 -0.7112 22.3474 30.5424 -1.4556 -7.6566
# 5 -13.8405 -2.9787 -39.7390 -1.4556 60.4831 12.0953
# 6 14.9463 -3.2068 -8.1849 -7.6566 12.0953 33.3266
#
#
#
# Elastic Compliance Matrix: (Units=1/GPa)
#
#
# Indices 1 2 3 4 5 6 
#
# 1 0.020419 -0.008527 -0.005872 0.000312 0.002881 -0.012394
# 2 -0.008527 0.021327 -0.004655 0.006012 -0.005432 0.008086
# 3 -0.005872 -0.004655 0.014132 -0.009670 0.007324 0.000776
# 4 0.000312 0.006012 -0.009670 0.042194 -0.007032 0.010310
# 5 0.002881 -0.005432 0.007324 -0.007032 0.023608 -0.010200
# 6 -0.012394 0.008086 0.000776 0.010310 -0.010200 0.042604
#
#
# Mechanical properties :
#
#
# Convention : Reuss Voigt Hill
#
# Bulk Modulus (GPa) = 56.27378 66.91402 61.59390
# Shear Modulus (GPa) = 24.00206 36.20044 30.10125
#
# Velocity S-wave (km/s) = 3.40978 4.18755 3.81852
# Velocity P-wave (km/s) = 6.53921 7.46954 7.01980
#
# Compressibility (1/GPa) = 0.01777026
#
# Stress axis : x y z
#
# Youngs Moduli (GPa) = 48.97306 46.88872 70.76140
#
# Poissons Ratio (x) = 0.39983 0.41550
# Poissons Ratio (y) = 0.41760 0.32940
# Poissons Ratio (z) = 0.28756 0.21827
#
# Static dielectric constant tensor:
#      x y z
#    x 7.309790 -2.340350 -4.948150 
#    y -2.340350 5.085440 3.473060 
#    z -4.948150 3.473060 10.249620 
# 
# 
# High freq. dielectric constant tensor:
#      x y z
#    x 1.806270 0.015350 -0.041500 
#    y 0.015350 1.762850 0.034550 
#    z -0.041500 0.034550 1.827530 
# 
# From -- ./inp_files/94499.got.cif
#   From: 2010.06.25/outbox.cif.g09.slc.cpg/sg2_48_cif.got.tgz:94499.got - 2010.06.27 13:26:56.
