data_PCOD8006168
_publ_section_title
;
Structure prediction by ZEFSAII (Michael W. Deem and Ramdas Pophale) SiO2 
 PCOD8006168
Probable space group: P -1
;
_chemical_formula_sum "Si O2"
_cell_formula_units_Z 16
_cell_length_a 8.892303
_cell_length_b 15.108795
_cell_length_c 8.930729
_cell_angle_alpha 72.391786
_cell_angle_beta 112.845166
_cell_angle_gamma 62.690230
_cell_volume 795.437249
_symmetry_space_group_name_H-M "P -1"
_symmetry_group_IT_number 2
_symmetry_cell_setting 'triclinic'
loop_
_space_group_symop_operation_xyz
x,y,z
-x,-y,-z
loop_
_atom_site_type_symbol
_atom_site_label
_atom_site_fract_x
_atom_site_fract_y
_atom_site_fract_z
Si Si1 0.388416 0.986224 0.833879
Si Si2 0.530190 0.352847 0.797515
Si Si3 0.823459 0.569486 0.597309
Si Si4 0.280326 0.424906 0.944268
Si Si5 0.302628 0.222684 0.172735
Si Si6 0.809447 0.422381 0.900915
Si Si7 0.230238 0.921319 0.052347
Si Si8 0.382797 0.158737 0.565599
O O1 0.274634 0.103752 0.618210
O O2 0.574329 0.861757 0.880946
O O3 0.500000 0.000000 0.000000
O O4 0.222778 0.976999 0.858471
O O5 0.297848 0.435044 0.584049
O O6 0.642638 0.408889 0.781849
O O7 0.684179 0.214154 0.870416
O O8 0.490222 0.361392 0.955587
O O9 0.761413 0.535977 0.738845
O O10 0.763382 0.699635 0.520816
O O11 0.083007 0.468962 0.734211
O O12 0.327731 0.324468 0.130609
O O13 0.223478 0.539638 0.955922
O O14 0.407938 0.141121 0.405469
O O15 0.048715 0.291676 0.033844
O O16 0.380775 0.919660 0.229319
O O17 0.000000 0.000000 0.000000
#
# Coordination Sequence:
#
# PCOD8006168 Si02
#       8
#     2   2   2   2   2   2   2   2
#     4  10  22  39  63  89 115 156 213 251 294 359
#     4  11  23  37  61  91 126 164 200 257 307 357
#     4  10  20  40  60  92 121 162 205 246 305 362
#     4  11  20  40  63  89 127 162 205 247 301 376
#     4  11  20  40  64  91 119 166 202 252 306 359
#     4  11  22  37  63  90 129 158 202 250 310 366
#     4  10  23  43  61  87 124 161 205 255 308 353
#     4  10  20  39  66  87 122 158 206 253 294 367
#
# _framework density 20.114725
#
# number of rings (size 3 to 8) (size 9 to 14) (size 15 to 20)
#    0.000    1.500    3.750    2.250    3.500    0.000 
#    0.000    4.375    0.000    0.000    0.000    0.000 
#    0.000    0.000    0.000    0.000    0.000    0.000 
#
# Total GULP energy -198321.582430 kJ/mol
# GULP energy per Si atom -12395.098902 kJ/mol
# Density = 2.006894 g / cm^3
# Si number density = 20.114725 Si / 1000 Ang^3
#
#
#
# Elastic Constant Matrix: (Units=GPa)
#
#
# Indices 1 2 3 4 5 6 
#
# 1 92.7168 60.8691 44.1433 -6.3526 -12.6091 -12.4475
# 2 60.8691 105.8256 36.3720 4.0485 -1.5975 -9.2635
# 3 44.1433 36.3720 85.6104 -3.2143 -18.3435 -1.2867
# 4 -6.3526 4.0485 -3.2143 27.7082 5.8577 -6.4992
# 5 -12.6091 -1.5975 -18.3435 5.8577 21.2142 4.8306
# 6 -12.4475 -9.2635 -1.2867 -6.4992 4.8306 35.2466
#
#
#
# Elastic Compliance Matrix: (Units=1/GPa)
#
#
# Indices 1 2 3 4 5 6 
#
# 1 0.022134 -0.010478 -0.005682 0.006261 0.004497 0.005394
# 2 -0.010478 0.016732 -0.003344 -0.003526 -0.007090 0.000897
# 3 -0.005682 -0.003344 0.018993 -0.002813 0.014645 -0.004718
# 4 0.006261 -0.003526 -0.002813 0.043115 -0.013379 0.010965
# 5 0.004497 -0.007090 0.014645 -0.013379 0.068268 -0.011564
# 6 0.005394 0.000897 -0.004718 0.010965 -0.011564 0.033947
#
#
# Mechanical properties :
#
#
# Convention : Reuss Voigt Hill
#
# Bulk Modulus (GPa) = 53.04636 62.99128 58.01882
# Shear Modulus (GPa) = 20.12247 26.35169 23.23708
#
# Velocity S-wave (km/s) = 3.16632 3.62341 3.40255
# Velocity P-wave (km/s) = 6.30845 6.99210 6.65906
#
# Compressibility (1/GPa) = 0.01885144
#
# Stress axis : x y z
#
# Youngs Moduli (GPa) = 45.17922 59.76633 52.65227
#
# Poissons Ratio (x) = 0.62622 0.29916
# Poissons Ratio (y) = 0.47338 0.17607
# Poissons Ratio (z) = 0.25670 0.19986
#
# Static dielectric constant tensor:
#      x y z
#    x 3.861700 0.127060 -0.336980 
#    y 0.127060 3.583900 0.018680 
#    z -0.336980 0.018680 3.715790 
# 
# 
# High freq. dielectric constant tensor:
#      x y z
#    x 1.783290 0.002420 -0.022120 
#    y 0.002420 1.790560 0.004610 
#    z -0.022120 0.004610 1.770510 
# 
# From -- ./inp_files/177554.got.cif
#   From: 2010.06.25/outbox.cif.g09.slc.cpg/sg2_89_cif.got.tgz:177554.got - 2010.06.27 13:26:56.
