data_PCOD8006977
_publ_section_title
;
Structure prediction by ZEFSAII (Michael W. Deem and Ramdas Pophale) SiO2 
 PCOD8006977
Probable space group: P -1
;
_chemical_formula_sum "Si O2"
_cell_formula_units_Z 16
_cell_length_a 26.592474
_cell_length_b 20.011002
_cell_length_c 14.735401
_cell_angle_alpha 156.017614
_cell_angle_beta 17.505015
_cell_angle_gamma 162.119907
_cell_volume 722.595956
_symmetry_space_group_name_H-M "P -1"
_symmetry_group_IT_number 2
_symmetry_cell_setting 'triclinic'
loop_
_space_group_symop_operation_xyz
x,y,z
-x,-y,-z
loop_
_atom_site_type_symbol
_atom_site_label
_atom_site_fract_x
_atom_site_fract_y
_atom_site_fract_z
Si Si1 0.495954 0.596018 0.274763
Si Si2 0.460292 0.079203 0.896485
Si Si3 0.228007 0.234370 0.424761
Si Si4 0.845001 0.458951 0.982656
Si Si5 0.889967 0.438407 0.518164
Si Si6 0.436104 0.058351 0.278170
Si Si7 0.050588 0.193296 0.208404
Si Si8 0.168580 0.603220 0.755776
O O1 0.364656 0.358357 0.250559
O O2 0.524831 0.752850 0.496674
O O3 0.350830 0.575583 0.416635
O O4 0.746912 0.712311 0.951753
O O5 0.661367 0.192752 0.619185
O O6 0.522938 0.065207 0.874515
O O7 0.279209 0.852062 0.876290
O O8 0.367705 0.205580 0.215526
O O9 0.190068 0.379609 0.722968
O O10 0.000000 0.000000 0.500000
O O11 0.617835 0.197512 0.055489
O O12 0.941033 0.533822 0.809644
O O13 0.034599 0.488338 0.751292
O O14 0.840722 0.597886 0.782890
O O15 0.000000 0.500000 0.500000
O O16 0.188084 0.891446 0.451649
O O17 0.000000 0.000000 0.000000
O O18 0.000000 0.500000 0.000000
#
# Coordination Sequence:
#
# PCOD8006977 Si02
#       8
#     2   2   2   2   2   2   2   2
#     4   9  18  32  62  95 124 166 209 262 329 388
#     4  11  20  37  69  96 130 174 211 269 340 380
#     4  11  19  35  64  97 133 167 210 269 331 387
#     4  11  24  41  65 101 131 173 221 265 326 401
#     4  12  26  44  64  93 135 175 219 275 332 377
#     4   9  19  37  65  91 122 170 222 260 321 391
#     4  10  20  40  66  88 122 177 219 264 323 388
#     4  11  18  38  67  96 133 169 213 264 330 396
#
# _framework density 22.142386999999999
#
# number of rings (size 3 to 8) (size 9 to 14) (size 15 to 20)
#    0.000    1.500    7.500    0.000    0.000    1.000 
#    0.000    2.500    0.000    0.000    0.000    0.000 
#    0.000    0.000    0.000    0.000    0.000    0.000 
#
# Total GULP energy -198242.863179 kJ/mol
# GULP energy per Si atom -12390.178949 kJ/mol
# Density = 2.209199 g / cm^3
# Si number density = 22.142387 Si / 1000 Ang^3
#
#
#
# Elastic Constant Matrix: (Units=GPa)
#
#
# Indices 1 2 3 4 5 6 
#
# 1 102.1549 36.7155 66.3329 -19.5776 -21.9826 -8.4735
# 2 36.7155 149.6216 62.5826 -25.2445 -11.5482 -6.3546
# 3 66.3329 62.5826 133.1435 -22.1405 -29.8606 -6.6104
# 4 -19.5776 -25.2445 -22.1405 42.2441 -5.7455 -11.6698
# 5 -21.9826 -11.5482 -29.8606 -5.7455 47.4587 -5.8835
# 6 -8.4735 -6.3546 -6.6104 -11.6698 -5.8835 25.9161
#
#
#
# Elastic Compliance Matrix: (Units=1/GPa)
#
#
# Indices 1 2 3 4 5 6 
#
# 1 0.017125 0.000506 -0.005046 0.009446 0.007307 0.010348
# 2 0.000506 0.009078 -0.002938 0.005643 0.001849 0.004602
# 3 -0.005046 -0.002938 0.014344 0.005997 0.007402 0.005669
# 4 0.009446 0.005643 0.005997 0.045651 0.018872 0.030842
# 5 0.007307 0.001849 0.007402 0.018872 0.034457 0.021050
# 6 0.010348 0.004602 0.005669 0.030842 0.021050 0.063211
#
#
# Mechanical properties :
#
#
# Convention : Reuss Voigt Hill
#
# Bulk Modulus (GPa) = 39.07580 79.57581 59.32580
# Shear Modulus (GPa) = 24.11338 37.74305 30.92822
#
# Velocity S-wave (km/s) = 3.30360 4.13311 3.74142
# Velocity P-wave (km/s) = 5.67781 7.66766 6.74650
#
# Compressibility (1/GPa) = 0.02559129
#
# Stress axis : x y z
#
# Youngs Moduli (GPa) = 58.39411 110.15165 69.71435
#
# Poissons Ratio (x) = -0.05570 0.35179
# Poissons Ratio (y) = -0.02953 0.20480
# Poissons Ratio (z) = 0.29466 0.32359
#
# Static dielectric constant tensor:
#      x y z
#    x 3.679060 0.139650 -0.813440 
#    y 0.139650 4.297130 -0.141260 
#    z -0.813440 -0.141260 4.461310 
# 
# 
# High freq. dielectric constant tensor:
#      x y z
#    x 1.846320 0.009040 -0.029070 
#    y 0.009040 1.899550 -0.007270 
#    z -0.029070 -0.007270 1.879640 
# 
# From -- ./inp_files/337374.got.cif
#   From: 2010.06.25/outbox.cif.g09.slc.cpg/sg2_169_cif.got.tgz:337374.got - 2010.06.27 13:26:56.
