data_PCOD8006981
_publ_section_title
;
Structure prediction by ZEFSAII (Michael W. Deem and Ramdas Pophale) SiO2 
 PCOD8006981
Probable space group: P -1
;
_chemical_formula_sum "Si O2"
_cell_formula_units_Z 16
_cell_length_a 15.899318
_cell_length_b 11.971896
_cell_length_c 10.717651
_cell_angle_alpha 119.939456
_cell_angle_beta 24.038575
_cell_angle_gamma 119.125767
_cell_volume 717.351927
_symmetry_space_group_name_H-M "P -1"
_symmetry_group_IT_number 2
_symmetry_cell_setting 'triclinic'
loop_
_space_group_symop_operation_xyz
x,y,z
-x,-y,-z
loop_
_atom_site_type_symbol
_atom_site_label
_atom_site_fract_x
_atom_site_fract_y
_atom_site_fract_z
Si Si1 0.406038 0.611283 0.827580
Si Si2 0.891267 0.309516 0.524411
Si Si3 0.188739 0.929596 0.657326
Si Si4 0.387777 0.201734 0.538752
Si Si5 0.304136 0.330970 0.119299
Si Si6 0.937713 0.600107 0.904756
Si Si7 0.321841 0.496799 0.420363
Si Si8 0.521055 0.146702 0.591706
O O1 0.456327 0.733106 0.738075
O O2 0.617792 0.548840 0.547636
O O3 0.313987 0.657278 0.108243
O O4 0.257154 0.506649 0.897070
O O5 0.869198 0.156894 0.434090
O O6 0.081862 0.352083 0.378286
O O7 0.921756 0.398475 0.410115
O O8 0.260814 0.834019 0.617144
O O9 0.362234 0.048107 0.457367
O O10 0.000000 0.000000 0.000000
O O11 0.493581 0.229144 0.547740
O O12 0.162425 0.262018 0.870964
O O13 0.296723 0.369035 0.294959
O O14 0.493305 0.406077 0.829262
O O15 0.348207 0.181612 0.948341
O O16 0.104314 0.564458 0.764309
O O17 0.500000 0.000000 0.500000
#
# Coordination Sequence:
#
# PCOD8006981 Si02
#       8
#     2   2   2   2   2   2   2   2
#     4  12  25  42  62 100 141 168 209 271 337 380
#     4  12  21  40  71  93 131 171 220 275 308 390
#     4  11  22  42  70  99 121 169 226 267 318 387
#     4  11  25  43  65  96 136 171 212 274 329 382
#     4  11  20  39  65  99 122 164 227 269 311 372
#     4  12  22  42  67  97 129 177 223 261 316 389
#     4  11  23  37  65  96 130 170 213 271 320 379
#     4  10  20  40  66  89 122 165 215 265 315 375
#
# _framework density 22.304252999999999
#
# number of rings (size 3 to 8) (size 9 to 14) (size 15 to 20)
#    0.000    0.750    5.000    4.500    0.000    1.000 
#    2.250    0.000    0.000    4.500    0.000    0.000 
#    0.000    0.000    0.000    0.000    0.000    0.000 
#
# Total GULP energy -198295.915513 kJ/mol
# GULP energy per Si atom -12393.494720 kJ/mol
# Density = 2.225349 g / cm^3
# Si number density = 22.304253 Si / 1000 Ang^3
#
#
#
# Elastic Constant Matrix: (Units=GPa)
#
#
# Indices 1 2 3 4 5 6 
#
# 1 101.9454 37.1948 46.7688 -7.7904 -31.1387 -5.8915
# 2 37.1948 98.9309 20.5134 3.7983 -5.6422 2.8797
# 3 46.7688 20.5134 62.5794 9.0130 -26.2211 -10.1320
# 4 -7.7904 3.7983 9.0130 37.2237 -0.6322 2.7166
# 5 -31.1387 -5.6422 -26.2211 -0.6322 38.2204 6.3913
# 6 -5.8915 2.8797 -10.1320 2.7166 6.3913 37.2410
#
#
#
# Elastic Compliance Matrix: (Units=1/GPa)
#
#
# Indices 1 2 3 4 5 6 
#
# 1 0.019566 -0.004870 -0.010957 0.007487 0.008070 -0.001440
# 2 -0.004870 0.012215 -0.001629 -0.001814 -0.003061 -0.001501
# 3 -0.010957 -0.001629 0.031971 -0.010096 0.011625 0.005832
# 4 0.007487 -0.001814 -0.010096 0.031333 0.000045 -0.003716
# 5 0.008070 -0.003061 0.011625 0.000045 0.040648 -0.002303
# 6 -0.001440 -0.001501 0.005832 -0.003716 -0.002303 0.028993
#
#
# Mechanical properties :
#
#
# Convention : Reuss Voigt Hill
#
# Bulk Modulus (GPa) = 34.67157 52.48998 43.58078
# Shear Modulus (GPa) = 23.89459 33.13561 28.51510
#
# Velocity S-wave (km/s) = 3.27663 3.85855 3.57944
# Velocity P-wave (km/s) = 5.46750 6.59060 6.05514
#
# Compressibility (1/GPa) = 0.02884208
#
# Stress axis : x y z
#
# Youngs Moduli (GPa) = 51.10854 81.86363 31.27793
#
# Poissons Ratio (x) = 0.39865 0.34270
# Poissons Ratio (y) = 0.24888 0.05095
# Poissons Ratio (z) = 0.55998 0.13336
#
# Static dielectric constant tensor:
#      x y z
#    x 4.672500 0.121040 -0.464340 
#    y 0.121040 4.820680 0.324570 
#    z -0.464340 0.324570 4.083650 
# 
# 
# High freq. dielectric constant tensor:
#      x y z
#    x 1.883020 0.019590 -0.025340 
#    y 0.019590 1.878420 0.025010 
#    z -0.025340 0.025010 1.867430 
# 
# From -- ./inp_files/465113.got.cif
#   From: 2010.06.25/outbox.cif.g09.slc.cpg/sg2_233_cif.got.tgz:465113.got - 2010.06.27 13:26:56.
