data_PCOD8006299
_publ_section_title
;
Structure prediction by ZEFSAII (Michael W. Deem and Ramdas Pophale) SiO2 
 PCOD8006299
Probable space group: P -1
;
_chemical_formula_sum "Si O2"
_cell_formula_units_Z 16
_cell_length_a 8.685732
_cell_length_b 7.993042
_cell_length_c 17.699576
_cell_angle_alpha 98.764519
_cell_angle_beta 121.895667
_cell_angle_gamma 43.700957
_cell_volume 663.266705
_symmetry_space_group_name_H-M "P -1"
_symmetry_group_IT_number 2
_symmetry_cell_setting 'triclinic'
loop_
_space_group_symop_operation_xyz
x,y,z
-x,-y,-z
loop_
_atom_site_type_symbol
_atom_site_label
_atom_site_fract_x
_atom_site_fract_y
_atom_site_fract_z
Si Si1 0.805346 0.150709 0.619941
Si Si2 0.425843 0.748843 0.273368
Si Si3 0.584851 0.168796 0.014277
Si Si4 0.460433 0.994589 0.861562
Si Si5 0.446215 0.304429 0.407481
Si Si6 0.546546 0.290073 0.262255
Si Si7 0.909750 0.494427 0.284858
Si Si8 0.899583 0.287304 0.126983
O O1 0.649540 0.176284 0.653177
O O2 0.709886 0.108034 0.519704
O O3 0.722956 0.402493 0.602398
O O4 0.139335 0.900106 0.700023
O O5 0.371912 0.588966 0.228679
O O6 0.747782 0.573320 0.327318
O O7 0.235907 0.009624 0.187993
O O8 0.667190 0.004921 0.097623
O O9 0.760691 0.211826 0.062101
O O10 0.245911 0.461396 0.944258
O O11 0.659779 0.003171 0.946768
O O12 0.608764 0.744852 0.830700
O O13 0.198849 0.256098 0.765425
O O14 0.563005 0.211130 0.346517
O O15 0.240930 0.291163 0.370462
O O16 0.850229 0.374760 0.207747
#
# Coordination Sequence:
#
# PCOD8006299 Si02
#       8
#     2   2   2   2   2   2   2   2
#     4  10  21  43  65  99 132 168 222 266 321 388
#     4  11  24  40  66  93 134 182 211 260 333 386
#     4   9  20  41  68  94 127 169 217 280 318 388
#     4  10  20  39  67  94 129 162 219 274 319 378
#     4  10  23  39  70  98 129 173 215 273 321 379
#     4  11  22  42  68  97 130 175 216 268 326 389
#     4  11  23  40  65  97 131 176 215 265 323 387
#     4  10  22  42  65  89 136 172 215 265 332 388
#
# _framework density 24.123027
#
# number of rings (size 3 to 8) (size 9 to 14) (size 15 to 20)
#    0.000    1.750    1.250    2.625    3.500    0.500 
#    0.000   13.750    0.000    0.000    0.000    0.000 
#    0.000    0.000    0.000    0.000    0.000    0.000 
#
# Total GULP energy -198251.351355 kJ/mol
# GULP energy per Si atom -12390.709460 kJ/mol
# Density = 2.406812 g / cm^3
# Si number density = 24.123027 Si / 1000 Ang^3
#
#
#
# Elastic Constant Matrix: (Units=GPa)
#
#
# Indices 1 2 3 4 5 6 
#
# 1 100.0890 32.9631 38.5989 14.7608 4.4247 -7.9412
# 2 32.9631 80.7983 40.2282 15.7477 -7.0854 1.3857
# 3 38.5989 40.2282 92.2170 32.9559 7.0722 4.2611
# 4 14.7608 15.7477 32.9559 43.2361 1.5156 -3.3579
# 5 4.4247 -7.0854 7.0722 1.5156 26.1885 -2.9638
# 6 -7.9412 1.3857 4.2611 -3.3579 -2.9638 38.2425
#
#
#
# Elastic Compliance Matrix: (Units=1/GPa)
#
#
# Indices 1 2 3 4 5 6 
#
# 1 0.012994 -0.003574 -0.003959 0.000189 -0.001748 0.003150
# 2 -0.003574 0.017900 -0.006701 -0.000455 0.007269 -0.000121
# 3 -0.003959 -0.006701 0.020351 -0.011834 -0.006452 -0.004386
# 4 0.000189 -0.000455 -0.011834 0.032531 0.001651 0.004359
# 5 -0.001748 0.007269 -0.006452 0.001651 0.042493 0.003531
# 6 0.003150 -0.000121 -0.004386 0.004359 0.003531 0.027952
#
#
# Mechanical properties :
#
#
# Convention : Reuss Voigt Hill
#
# Bulk Modulus (GPa) = 43.90637 55.18719 49.54678
# Shear Modulus (GPa) = 26.27667 32.28768 29.28218
#
# Velocity S-wave (km/s) = 3.30400 3.66246 3.48784
# Velocity P-wave (km/s) = 5.72676 6.38842 6.06662
#
# Compressibility (1/GPa) = 0.02277574
#
# Stress axis : x y z
#
# Youngs Moduli (GPa) = 76.95685 55.86739 49.13729
#
# Poissons Ratio (x) = 0.19969 0.19452
# Poissons Ratio (y) = 0.27507 0.32929
# Poissons Ratio (z) = 0.30466 0.37439
#
# Static dielectric constant tensor:
#      x y z
#    x 4.024450 0.367850 -0.041970 
#    y 0.367850 4.678020 0.044220 
#    z -0.041970 0.044220 4.483030 
# 
# 
# High freq. dielectric constant tensor:
#      x y z
#    x 1.942780 0.023850 -0.003740 
#    y 0.023850 1.960440 0.011590 
#    z -0.003740 0.011590 1.948900 
# 
# From -- ./inp_files/89927.got.cif
#   From: 2010.06.25/outbox.cif.g09.slc.cpg/sg2_45_cif.got.tgz:89927.got - 2010.06.27 13:26:56.
