data_PCOD8006150
_publ_section_title
;
Structure prediction by ZEFSAII (Michael W. Deem and Ramdas Pophale) SiO2 
 PCOD8006150
Probable space group: P -1
;
_chemical_formula_sum "Si O2"
_cell_formula_units_Z 16
_cell_length_a 12.205369
_cell_length_b 8.629942
_cell_length_c 9.154292
_cell_angle_alpha 84.520975
_cell_angle_beta 48.300118
_cell_angle_gamma 80.284892
_cell_volume 709.428086
_symmetry_space_group_name_H-M "P -1"
_symmetry_group_IT_number 2
_symmetry_cell_setting 'triclinic'
loop_
_space_group_symop_operation_xyz
x,y,z
-x,-y,-z
loop_
_atom_site_type_symbol
_atom_site_label
_atom_site_fract_x
_atom_site_fract_y
_atom_site_fract_z
Si Si1 0.153353 0.502601 0.946758
Si Si2 0.571025 0.737011 0.239047
Si Si3 0.384863 0.697989 0.163129
Si Si4 0.846446 0.515767 0.724070
Si Si5 0.646516 0.061234 0.065946
Si Si6 0.865933 0.854394 0.694161
Si Si7 0.840827 0.095320 0.465252
Si Si8 0.691252 0.216280 0.316461
O O1 0.259327 0.332780 0.863751
O O2 0.242321 0.623615 0.776334
O O3 0.118656 0.556986 0.139755
O O4 0.000000 0.500000 0.000000
O O5 0.524640 0.630929 0.150399
O O6 0.470099 0.733980 0.472965
O O7 0.552521 0.918978 0.184839
O O8 0.284058 0.564325 0.227861
O O9 0.305623 0.825230 0.333282
O O10 0.436051 0.789657 0.966821
O O11 0.782611 0.701785 0.777469
O O12 0.000000 0.500000 0.500000
O O13 0.685865 0.123377 0.181242
O O14 0.792538 0.994405 0.851176
O O15 0.028583 0.802085 0.622700
O O16 0.881587 0.918566 0.509073
O O17 0.803895 0.097045 0.326602
#
# Coordination Sequence:
#
# PCOD8006150 Si02
#       8
#     2   2   2   2   2   2   2   2
#     4  12  27  48  70 102 146 182 225 288 346 417
#     4  11  25  47  69 100 139 188 229 285 349 402
#     4  10  22  42  70  98 139 179 234 291 336 410
#     4  12  23  44  70 105 135 183 234 286 346 409
#     4  11  22  43  67 101 137 178 238 284 341 410
#     4  10  20  39  65  97 138 177 236 284 338 395
#     4   9  20  39  64  97 135 184 223 287 341 400
#     4  11  24  45  69 101 142 183 227 280 351 420
#
# _framework density 22.553377000000001
#
# number of rings (size 3 to 8) (size 9 to 14) (size 15 to 20)
#    0.000    1.250    3.750    1.875    1.750    1.000 
#    2.250    0.000    0.000    0.000    0.000    0.000 
#    0.000    0.000    0.000    0.000    0.000    0.000 
#
# Total GULP energy -198312.909952 kJ/mol
# GULP energy per Si atom -12394.556872 kJ/mol
# Density = 2.250204 g / cm^3
# Si number density = 22.553377 Si / 1000 Ang^3
#
#
#
# Elastic Constant Matrix: (Units=GPa)
#
#
# Indices 1 2 3 4 5 6 
#
# 1 134.8903 61.7669 32.5908 -2.3798 11.2385 2.3566
# 2 61.7669 91.3670 42.3165 -11.2628 2.3573 14.0079
# 3 32.5908 42.3165 108.0086 -17.5806 9.2989 -1.2896
# 4 -2.3798 -11.2628 -17.5806 29.7204 5.6149 -6.1126
# 5 11.2385 2.3573 9.2989 5.6149 42.2234 -3.2711
# 6 2.3566 14.0079 -1.2896 -6.1126 -3.2711 33.4719
#
#
#
# Elastic Compliance Matrix: (Units=1/GPa)
#
#
# Indices 1 2 3 4 5 6 
#
# 1 0.011207 -0.007855 -0.000336 -0.001464 -0.002120 0.002011
# 2 -0.007855 0.020129 -0.005393 0.002003 0.001300 -0.007586
# 3 -0.000336 -0.005393 0.012909 0.006917 -0.003082 0.003740
# 4 -0.001464 0.002003 0.006917 0.040863 -0.006185 0.006389
# 5 -0.002120 0.001300 -0.003082 -0.006185 0.025744 0.000873
# 6 0.002011 -0.007586 0.003740 0.006389 0.000873 0.034305
#
#
# Mechanical properties :
#
#
# Convention : Reuss Voigt Hill
#
# Bulk Modulus (GPa) = 58.55552 67.51269 63.03410
# Shear Modulus (GPa) = 28.08745 34.25592 31.17168
#
# Velocity S-wave (km/s) = 3.53282 3.90151 3.72173
# Velocity P-wave (km/s) = 6.53150 7.09192 6.81747
#
# Compressibility (1/GPa) = 0.01707781
#
# Stress axis : x y z
#
# Youngs Moduli (GPa) = 89.23014 49.68004 77.46800
#
# Poissons Ratio (x) = 0.39022 0.02603
# Poissons Ratio (y) = 0.70087 0.41775
# Poissons Ratio (z) = 0.02998 0.26790
#
# Static dielectric constant tensor:
#      x y z
#    x 4.234210 -0.171050 0.107730 
#    y -0.171050 4.047420 -0.248630 
#    z 0.107730 -0.248630 4.253390 
# 
# 
# High freq. dielectric constant tensor:
#      x y z
#    x 1.892290 -0.001050 0.000300 
#    y -0.001050 1.876520 -0.017420 
#    z 0.000300 -0.017420 1.904760 
# 
# From -- ./inp_files/243315.got.cif
#   From: 2010.06.25/outbox.cif.g09.slc.cpg/sg2_122_cif.got.tgz:243315.got - 2010.06.27 13:26:56.
