data_PCOD8006008
_publ_section_title
;
Structure prediction by ZEFSAII (Michael W. Deem and Ramdas Pophale) SiO2 
 PCOD8006008
Probable space group: P -1
;
_chemical_formula_sum "Si O2"
_cell_formula_units_Z 16
_cell_length_a 14.793770
_cell_length_b 14.090528
_cell_length_c 5.097665
_cell_angle_alpha 107.142035
_cell_angle_beta 119.220237
_cell_angle_gamma 49.174135
_cell_volume 701.284345
_symmetry_space_group_name_H-M "P -1"
_symmetry_group_IT_number 2
_symmetry_cell_setting 'triclinic'
loop_
_space_group_symop_operation_xyz
x,y,z
-x,-y,-z
loop_
_atom_site_type_symbol
_atom_site_label
_atom_site_fract_x
_atom_site_fract_y
_atom_site_fract_z
Si Si1 0.799814 0.895732 0.390651
Si Si2 0.350203 0.558318 0.847183
Si Si3 0.206220 0.315291 0.676519
Si Si4 0.581828 0.699504 0.316553
Si Si5 0.593183 0.182451 0.336631
Si Si6 0.953945 0.446905 0.094905
Si Si7 0.759583 0.276584 0.674127
Si Si8 0.028211 0.190017 0.924902
O O1 0.758732 0.804442 0.205111
O O2 0.898733 0.878757 0.297208
O O3 0.666274 0.035165 0.303965
O O4 0.863339 0.869480 0.745112
O O5 0.335646 0.450517 0.675711
O O6 0.272514 0.668074 0.616719
O O7 0.500000 0.500000 0.000000
O O8 0.292247 0.614472 0.097383
O O9 0.317668 0.269760 0.580576
O O10 0.061588 0.376562 0.417142
O O11 0.188610 0.428055 0.910924
O O12 0.519502 0.759823 0.558215
O O13 0.470356 0.755805 0.983000
O O14 0.695903 0.207260 0.583302
O O15 0.945021 0.341020 0.882557
O O16 0.000000 0.500000 0.000000
O O17 0.917810 0.173038 0.826445
#
# Coordination Sequence:
#
# PCOD8006008 Si02
#       8
#     2   2   2   2   2   2   2   2
#     4  11  25  45  64  91 129 168 216 264 309 365
#     4  12  22  41  65  93 131 165 199 261 320 377
#     4  10  24  40  64  95 128 165 206 262 317 374
#     4  12  26  41  67  95 126 171 212 254 319 376
#     4  12  26  44  63  92 129 172 218 258 301 376
#     4  10  20  39  64  93 127 157 202 263 318 377
#     4  12  24  41  67  96 129 164 210 261 320 378
#     4  11  24  41  68  95 124 166 210 264 323 372
#
# _framework density 22.815280999999999
#
# number of rings (size 3 to 8) (size 9 to 14) (size 15 to 20)
#    0.000    0.750    3.750    3.375    3.500    2.000 
#    0.000    0.000    0.000    0.000    0.000    0.000 
#    0.000    0.000    0.000    0.000    0.000    0.000 
#
# Total GULP energy -198423.489190 kJ/mol
# GULP energy per Si atom -12401.468074 kJ/mol
# Density = 2.276335 g / cm^3
# Si number density = 22.815281 Si / 1000 Ang^3
#
#
#
# Elastic Constant Matrix: (Units=GPa)
#
#
# Indices 1 2 3 4 5 6 
#
# 1 101.8147 21.3260 -2.9233 1.5334 -1.0124 -13.4067
# 2 21.3260 115.7614 10.9260 8.8246 -2.5565 5.8781
# 3 -2.9233 10.9260 42.2068 2.7144 -16.2460 1.4742
# 4 1.5334 8.8246 2.7144 23.6348 -1.9293 -5.6613
# 5 -1.0124 -2.5565 -16.2460 -1.9293 36.6947 -1.3395
# 6 -13.4067 5.8781 1.4742 -5.6613 -1.3395 22.5763
#
#
#
# Elastic Compliance Matrix: (Units=1/GPa)
#
#
# Indices 1 2 3 4 5 6 
#
# 1 0.011499 -0.002815 0.001577 0.002157 0.001227 0.008072
# 2 -0.002815 0.010009 -0.002693 -0.004601 -0.001008 -0.005315
# 3 0.001577 -0.002693 0.029537 -0.001411 0.012863 0.000118
# 4 0.002157 -0.004601 -0.001411 0.047741 0.002160 0.014671
# 5 0.001227 -0.001008 0.012863 0.002160 0.033121 0.002658
# 6 0.008072 -0.005315 0.000118 0.014671 0.002658 0.054301
#
#
# Mechanical properties :
#
#
# Convention : Reuss Voigt Hill
#
# Bulk Modulus (GPa) = 23.15630 35.38226 29.26928
# Shear Modulus (GPa) = 23.98498 31.94478 27.96488
#
# Velocity S-wave (km/s) = 3.24584 3.74591 3.50481
# Velocity P-wave (km/s) = 4.92126 5.85243 5.40693
#
# Compressibility (1/GPa) = 0.04318480
#
# Stress axis : x y z
#
# Youngs Moduli (GPa) = 86.96244 99.90560 33.85595
#
# Poissons Ratio (x) = 0.28118 -0.05338
# Poissons Ratio (y) = 0.24476 0.09116
# Poissons Ratio (z) = -0.13712 0.26901
#
# Static dielectric constant tensor:
#      x y z
#    x 4.174340 0.138280 -0.178150 
#    y 0.138280 4.099070 0.598650 
#    z -0.178150 0.598650 3.540840 
# 
# 
# High freq. dielectric constant tensor:
#      x y z
#    x 1.912380 -0.004300 -0.006970 
#    y -0.004300 1.896690 0.000410 
#    z -0.006970 0.000410 1.892750 
# 
# From -- ./inp_files/81146.got.cif
#   From: 2010.06.25/outbox.cif.g09.slc.cpg/sg2_41_cif.got.tgz:81146.got - 2010.06.27 13:26:56.
