data_PCOD8006166
_publ_section_title
;
Structure prediction by ZEFSAII (Michael W. Deem and Ramdas Pophale) SiO2 
 PCOD8006166
Probable space group: P -1
;
_chemical_formula_sum "Si O2"
_cell_formula_units_Z 16
_cell_length_a 16.134180
_cell_length_b 14.886629
_cell_length_c 9.310249
_cell_angle_alpha 129.226055
_cell_angle_beta 56.810472
_cell_angle_gamma 154.066803
_cell_volume 756.060716
_symmetry_space_group_name_H-M "P -1"
_symmetry_group_IT_number 2
_symmetry_cell_setting 'triclinic'
loop_
_space_group_symop_operation_xyz
x,y,z
-x,-y,-z
loop_
_atom_site_type_symbol
_atom_site_label
_atom_site_fract_x
_atom_site_fract_y
_atom_site_fract_z
Si Si1 0.512879 0.825933 0.762776
Si Si2 0.547186 0.377295 0.127610
Si Si3 0.159658 0.296660 0.035541
Si Si4 0.626018 0.270111 0.740982
Si Si5 0.193861 0.696808 0.927183
Si Si6 0.737501 0.825882 0.019903
Si Si7 0.938669 0.409305 0.623522
Si Si8 0.648627 0.940093 0.431927
O O1 0.478771 0.670891 0.726552
O O2 0.323220 0.713030 0.844038
O O3 0.553887 0.827848 0.563462
O O4 0.693527 0.074968 0.906762
O O5 0.756838 0.632541 0.136512
O O6 0.510636 0.213262 0.924637
O O7 0.395139 0.312618 0.135312
O O8 0.227512 0.489285 0.225674
O O9 0.248188 0.287855 0.045639
O O10 0.935217 0.069466 0.017281
O O11 0.745648 0.287354 0.718648
O O12 0.477786 0.092096 0.572977
O O13 0.123483 0.627834 0.760106
O O14 0.000000 0.500000 0.000000
O O15 0.652817 0.823580 0.223008
O O16 0.000000 0.500000 0.500000
O O17 0.865675 0.204220 0.507860
#
# Coordination Sequence:
#
# PCOD8006166 Si02
#       8
#     2   2   2   2   2   2   2   2
#     4  11  24  39  57  88 125 163 200 237 300 361
#     4   9  21  35  62  84 112 154 198 241 286 358
#     4   9  20  38  66  90 109 154 205 252 294 343
#     4   9  21  36  60  85 117 148 204 246 286 350
#     4  11  24  41  58  81 125 171 201 237 287 366
#     4  10  20  39  66  87 118 148 204 254 295 349
#     4  12  23  35  59  90 119 158 199 247 299 346
#     4  11  23  38  56  93 125 157 190 254 303 353
#
# _framework density 21.162322
#
# number of rings (size 3 to 8) (size 9 to 14) (size 15 to 20)
#    0.750    1.000    1.250    3.000    7.000    0.000 
#    0.000    0.625    0.000    1.500    0.000    0.000 
#    0.000    0.000    0.000    0.000    0.000    0.000 
#
# Total GULP energy -198239.311027 kJ/mol
# GULP energy per Si atom -12389.956939 kJ/mol
# Density = 2.111416 g / cm^3
# Si number density = 21.162322 Si / 1000 Ang^3
#
#
#
# Elastic Constant Matrix: (Units=GPa)
#
#
# Indices 1 2 3 4 5 6 
#
# 1 58.1151 27.5784 15.5382 -2.6150 17.9674 5.1542
# 2 27.5784 113.1621 19.2040 -15.3220 15.3574 -1.0390
# 3 15.5382 19.2040 53.5590 -4.2430 24.6854 0.7632
# 4 -2.6150 -15.3220 -4.2430 35.0846 -5.1639 8.3389
# 5 17.9674 15.3574 24.6854 -5.1639 29.0867 -2.2916
# 6 5.1542 -1.0390 0.7632 8.3389 -2.2916 32.5589
#
#
#
# Elastic Compliance Matrix: (Units=1/GPa)
#
#
# Indices 1 2 3 4 5 6 
#
# 1 0.023539 -0.004209 0.000975 -0.000879 -0.013666 -0.004620
# 2 -0.004209 0.010853 -0.002031 0.004088 -0.000684 -0.000035
# 3 0.000975 -0.002031 0.031271 -0.000257 -0.026330 -0.002740
# 4 -0.000879 0.004088 -0.000257 0.032603 0.003775 -0.007809
# 5 -0.013666 -0.000684 -0.026330 0.003775 0.066710 0.006487
# 6 -0.004620 -0.000035 -0.002740 -0.007809 0.006487 0.033965
#
#
# Mechanical properties :
#
#
# Convention : Reuss Voigt Hill
#
# Bulk Modulus (GPa) = 18.13793 38.83080 28.48437
# Shear Modulus (GPa) = 21.94443 30.18040 26.06242
#
# Velocity S-wave (km/s) = 3.22368 3.78052 3.51315
# Velocity P-wave (km/s) = 4.73768 6.11926 5.47224
#
# Compressibility (1/GPa) = 0.05513307
#
# Stress axis : x y z
#
# Youngs Moduli (GPa) = 42.48236 92.13788 31.97888
#
# Poissons Ratio (x) = 0.38780 -0.03117
# Poissons Ratio (y) = 0.17881 0.06495
# Poissons Ratio (z) = -0.04141 0.18713
#
# Static dielectric constant tensor:
#      x y z
#    x 2.715880 -0.929010 -0.657170 
#    y -0.929010 2.962190 -0.731820 
#    z -0.657170 -0.731820 3.077680 
# 
# 
# High freq. dielectric constant tensor:
#      x y z
#    x 1.825420 0.003620 0.011570 
#    y 0.003620 1.844160 -0.005210 
#    z 0.011570 -0.005210 1.795610 
# 
# From -- ./inp_files/313836.got.cif
#   From: 2010.06.25/outbox.cif.g09.slc.cpg/sg2_157_cif.got.tgz:313836.got - 2010.06.27 13:26:56.
