data_PCOD8006212
_publ_section_title
;
Structure prediction by ZEFSAII (Michael W. Deem and Ramdas Pophale) SiO2 
 PCOD8006212
Probable space group: P -1
;
_chemical_formula_sum "Si O2"
_cell_formula_units_Z 16
_cell_length_a 20.791889
_cell_length_b 11.225640
_cell_length_c 11.819245
_cell_angle_alpha 33.009248
_cell_angle_beta 150.812001
_cell_angle_gamma 140.914287
_cell_volume 722.730227
_symmetry_space_group_name_H-M "P -1"
_symmetry_group_IT_number 2
_symmetry_cell_setting 'triclinic'
loop_
_space_group_symop_operation_xyz
x,y,z
-x,-y,-z
loop_
_atom_site_type_symbol
_atom_site_label
_atom_site_fract_x
_atom_site_fract_y
_atom_site_fract_z
Si Si1 0.654969 0.243068 0.686129
Si Si2 0.015741 0.853189 0.967439
Si Si3 0.624320 0.652453 0.862547
Si Si4 0.569799 0.285401 0.761682
Si Si5 0.818545 0.873842 0.173381
Si Si6 0.896480 0.516220 0.726217
Si Si7 0.623947 0.182284 0.167617
Si Si8 0.195764 0.089593 0.243848
O O1 0.504449 0.224621 0.418976
O O2 0.663054 0.325266 0.763053
O O3 0.747322 0.425565 0.609160
O O4 0.711266 0.013894 0.947518
O O5 0.062999 0.616436 0.215766
O O6 0.088660 0.022074 0.036404
O O7 0.862032 0.810453 0.809750
O O8 0.052499 0.973620 0.807311
O O9 0.688493 0.727272 0.778548
O O10 0.731802 0.707548 0.083830
O O11 0.573181 0.386561 0.991597
O O12 0.500000 0.500000 0.500000
O O13 0.471546 0.052551 0.777532
O O14 0.655056 0.249523 0.031827
O O15 0.886967 0.759569 0.471611
O O16 0.000000 0.500000 0.000000
O O17 0.759919 0.141772 0.467510
#
# Coordination Sequence:
#
# PCOD8006212 Si02
#       8
#     2   2   2   2   2   2   2   2
#     4  11  24  42  65  94 132 170 211 268 324 387
#     4   9  22  42  62  93 125 166 219 265 314 381
#     4  11  22  41  66 101 132 160 215 273 328 386
#     4  11  23  40  57  92 133 164 210 253 315 388
#     4  10  24  43  67  93 127 174 217 268 324 381
#     4  11  26  43  63  89 128 173 221 265 311 384
#     4  11  22  36  65  93 129 172 201 263 326 384
#     4  10  20  39  66  93 128 163 210 270 324 374
#
# _framework density 22.138273999999999
#
# number of rings (size 3 to 8) (size 9 to 14) (size 15 to 20)
#    0.000    1.500    2.500    1.125    1.750    7.500 
#    0.000    3.750    0.000    0.000    0.000    0.000 
#    0.000    0.000    0.000    0.000    0.000    0.000 
#
# Total GULP energy -198243.233704 kJ/mol
# GULP energy per Si atom -12390.202106 kJ/mol
# Density = 2.208789 g / cm^3
# Si number density = 22.138274 Si / 1000 Ang^3
#
#
#
# Elastic Constant Matrix: (Units=GPa)
#
#
# Indices 1 2 3 4 5 6 
#
# 1 136.3176 29.2060 62.3485 -12.8268 24.7578 0.4794
# 2 29.2060 69.0308 32.9053 -20.9592 10.7179 -1.7083
# 3 62.3485 32.9053 146.7351 -20.6903 -2.6067 10.9929
# 4 -12.8268 -20.9592 -20.6903 38.2227 -6.9870 7.3780
# 5 24.7578 10.7179 -2.6067 -6.9870 34.9271 3.7388
# 6 0.4794 -1.7083 10.9929 7.3780 3.7388 28.5726
#
#
#
# Elastic Compliance Matrix: (Units=1/GPa)
#
#
# Indices 1 2 3 4 5 6 
#
# 1 0.011450 -0.001535 -0.005231 -0.002106 -0.008823 0.003427
# 2 -0.001535 0.019380 -0.002695 0.007877 -0.003554 0.000652
# 3 -0.005231 -0.002695 0.011012 0.005307 0.007126 -0.006613
# 4 -0.002106 0.007877 0.005307 0.036434 0.008044 -0.011996
# 5 -0.008823 -0.003554 0.007126 0.008044 0.039189 -0.010011
# 6 0.003427 0.000652 -0.006613 -0.011996 -0.010011 0.041932
#
#
# Mechanical properties :
#
#
# Convention : Reuss Voigt Hill
#
# Bulk Modulus (GPa) = 43.63055 66.77811 55.20433
# Shear Modulus (GPa) = 26.88758 35.51939 31.20348
#
# Velocity S-wave (km/s) = 3.48879 4.00988 3.75838
# Velocity P-wave (km/s) = 5.99832 7.18808 6.61998
#
# Compressibility (1/GPa) = 0.02291972
#
# Stress axis : x y z
#
# Youngs Moduli (GPa) = 87.33918 51.59934 90.80646
#
# Poissons Ratio (x) = 0.07922 0.47502
# Poissons Ratio (y) = 0.13408 0.24471
# Poissons Ratio (z) = 0.45688 0.13906
#
# Static dielectric constant tensor:
#      x y z
#    x 4.300830 0.063010 -0.016990 
#    y 0.063010 3.952880 -0.098610 
#    z -0.016990 -0.098610 4.040680 
# 
# 
# High freq. dielectric constant tensor:
#      x y z
#    x 1.877160 -0.005680 -0.004340 
#    y -0.005680 1.862500 -0.009630 
#    z -0.004340 -0.009630 1.872740 
# 
# From -- ./inp_files/77000.got.cif
#   From: 2010.06.25/outbox.cif.g09.slc.cpg/sg2_39_cif.got.tgz:77000.got - 2010.06.27 13:26:56.
