data_PCOD8006863
_publ_section_title
;
Structure prediction by ZEFSAII (Michael W. Deem and Ramdas Pophale) SiO2 
 PCOD8006863
Probable space group: P -1
;
_chemical_formula_sum "Si O2"
_cell_formula_units_Z 16
_cell_length_a 9.352474
_cell_length_b 17.950452
_cell_length_c 15.388337
_cell_angle_alpha 41.840062
_cell_angle_beta 30.106267
_cell_angle_gamma 40.144855
_cell_volume 806.987662
_symmetry_space_group_name_H-M "P -1"
_symmetry_group_IT_number 2
_symmetry_cell_setting 'triclinic'
loop_
_space_group_symop_operation_xyz
x,y,z
-x,-y,-z
loop_
_atom_site_type_symbol
_atom_site_label
_atom_site_fract_x
_atom_site_fract_y
_atom_site_fract_z
Si Si1 0.666278 0.556022 0.801078
Si Si2 0.389214 0.857374 0.538009
Si Si3 0.649425 0.045926 0.168452
Si Si4 0.702138 0.915828 0.843039
Si Si5 0.334318 0.177772 0.872029
Si Si6 0.344367 0.410195 0.406723
Si Si7 0.626280 0.579177 0.427132
Si Si8 0.663219 0.186325 0.205814
O O1 0.510874 0.557227 0.785914
O O2 0.609942 0.688742 0.747749
O O3 0.020300 0.482741 0.685729
O O4 0.500000 0.500000 0.000000
O O5 0.629343 0.726303 0.503200
O O6 0.337662 0.888538 0.641154
O O7 0.052508 0.875948 0.663710
O O8 0.533258 0.938706 0.340613
O O9 0.469881 0.118848 0.116455
O O10 0.572351 0.127145 0.222833
O O11 0.000000 0.000000 0.000000
O O12 0.565474 0.058337 0.809593
O O13 0.649044 0.839395 0.017867
O O14 0.435932 0.289309 0.695017
O O15 0.988190 0.200538 0.004894
O O16 0.510037 0.416394 0.406244
O O17 0.000000 0.500000 0.500000
O O18 0.500000 0.500000 0.500000
#
# Coordination Sequence:
#
# PCOD8006863 Si02
#       8
#     2   2   2   2   2   2   2   2
#     4  10  20  40  65  86 114 166 204 246 301 365
#     4  10  22  40  64  86 126 162 199 248 305 374
#     4  12  23  37  60  99 121 154 205 255 305 358
#     4  10  22  39  62  89 120 166 201 248 309 365
#     4  10  20  41  61  83 125 168 198 245 314 371
#     4   9  21  40  63  88 119 162 204 239 309 364
#     4  11  23  40  61  91 124 158 207 258 307 359
#     4  10  21  39  63  88 121 157 208 249 302 364
#
# _framework density 19.826822
#
# number of rings (size 3 to 8) (size 9 to 14) (size 15 to 20)
#    0.000    1.750    2.500    1.500    0.000    2.000 
#    9.000    0.625    0.000    0.000    0.000    0.000 
#    0.000    0.000    0.000    0.000    0.000    0.000 
#
# Total GULP energy -198238.767876 kJ/mol
# GULP energy per Si atom -12389.922992 kJ/mol
# Density = 1.978170 g / cm^3
# Si number density = 19.826822 Si / 1000 Ang^3
#
#
#
# Elastic Constant Matrix: (Units=GPa)
#
#
# Indices 1 2 3 4 5 6 
#
# 1 175.0326 41.7582 53.4468 -11.3324 20.3361 8.8240
# 2 41.7582 98.1802 20.6293 2.9843 7.5988 -5.0570
# 3 53.4468 20.6293 89.8552 -7.5121 17.6883 -4.5988
# 4 -11.3324 2.9843 -7.5121 28.5673 -4.1787 4.5704
# 5 20.3361 7.5988 17.6883 -4.1787 26.4500 3.9764
# 6 8.8240 -5.0570 -4.5988 4.5704 3.9764 28.0461
#
#
#
# Elastic Compliance Matrix: (Units=1/GPa)
#
#
# Indices 1 2 3 4 5 6 
#
# 1 0.008140 -0.002809 -0.003785 0.002874 -0.001881 -0.003890
# 2 -0.002809 0.011992 -0.000816 -0.003449 -0.001846 0.003736
# 3 -0.003785 -0.000816 0.015380 0.000777 -0.007699 0.004531
# 4 0.002874 -0.003449 0.000777 0.038910 0.005694 -0.008547
# 5 -0.001881 -0.001846 -0.007699 0.005694 0.047127 -0.008613
# 6 -0.003890 0.003736 0.004531 -0.008547 -0.008613 0.040910
#
#
# Mechanical properties :
#
#
# Convention : Reuss Voigt Hill
#
# Bulk Modulus (GPa) = 48.32906 66.08182 57.20544
# Shear Modulus (GPa) = 27.14783 33.09494 30.12138
#
# Velocity S-wave (km/s) = 3.70435 4.09002 3.90195
# Velocity P-wave (km/s) = 6.53642 7.46366 7.01537
#
# Compressibility (1/GPa) = 0.02069148
#
# Stress axis : x y z
#
# Youngs Moduli (GPa) = 122.85062 83.39115 65.01794
#
# Poissons Ratio (x) = 0.23423 0.24612
# Poissons Ratio (y) = 0.34507 0.05306
# Poissons Ratio (z) = 0.46503 0.06805
#
# Static dielectric constant tensor:
#      x y z
#    x 3.920960 -0.012740 0.185210 
#    y -0.012740 3.838410 0.022480 
#    z 0.185210 0.022480 2.475440 
# 
# 
# High freq. dielectric constant tensor:
#      x y z
#    x 1.777970 -0.007100 0.034250 
#    y -0.007100 1.782410 0.010700 
#    z 0.034250 0.010700 1.761260 
# 
# From -- ./inp_files/188706.got.cif
#   From: 2010.06.25/outbox.cif.g09.slc.cpg/sg2_95_cif.got.tgz:188706.got - 2010.06.27 13:26:56.
