data_PCOD8006888
_publ_section_title
;
Structure prediction by ZEFSAII (Michael W. Deem and Ramdas Pophale) SiO2 
 PCOD8006888
Probable space group: P -1
;
_chemical_formula_sum "Si O2"
_cell_formula_units_Z 16
_cell_length_a 20.936689
_cell_length_b 7.718516
_cell_length_c 8.320096
_cell_angle_alpha 75.933978
_cell_angle_beta 35.442908
_cell_angle_gamma 95.997090
_cell_volume 637.647290
_symmetry_space_group_name_H-M "P -1"
_symmetry_group_IT_number 2
_symmetry_cell_setting 'triclinic'
loop_
_space_group_symop_operation_xyz
x,y,z
-x,-y,-z
loop_
_atom_site_type_symbol
_atom_site_label
_atom_site_fract_x
_atom_site_fract_y
_atom_site_fract_z
Si Si1 0.394717 0.470447 0.596122
Si Si2 0.566658 0.246025 0.824535
Si Si3 0.652158 0.808515 0.524046
Si Si4 0.823571 0.520502 0.759810
Si Si5 0.925117 0.111720 0.297337
Si Si6 0.819944 0.277840 0.225649
Si Si7 0.194660 0.291356 0.547574
Si Si8 0.961988 0.301184 0.498997
O O1 0.500000 0.500000 0.500000
O O2 0.470228 0.660469 0.270984
O O3 0.333628 0.243145 0.679186
O O4 0.287657 0.501427 0.892310
O O5 0.722680 0.345028 0.486220
O O6 0.499336 0.272065 0.116004
O O7 0.500000 0.000000 0.000000
O O8 0.682984 0.654498 0.602549
O O9 0.749690 0.056572 0.316101
O O10 0.792427 0.523051 0.633536
O O11 0.965716 0.723433 0.486931
O O12 0.837764 0.317296 0.796818
O O13 0.891887 0.263699 0.237345
O O14 0.914205 0.115830 0.511128
O O15 0.819417 0.871127 0.525125
O O16 0.070804 0.179769 0.941953
O O17 0.926647 0.472551 0.858556
#
# Coordination Sequence:
#
# PCOD8006888 Si02
#       8
#     2   2   2   2   2   2   2   2
#     4  12  25  44  66  94 129 163 208 265 326 375
#     4  10  22  43  69  91 118 164 219 261 307 375
#     4  10  23  42  67  90 120 168 209 264 309 371
#     4  11  24  39  59  94 130 164 202 257 316 379
#     4  10  21  37  63  91 122 170 208 257 295 370
#     4  10  20  40  65  90 124 157 214 258 301 370
#     4  10  21  39  61  92 126 160 217 247 309 372
#     4  11  22  40  60  91 132 166 204 251 314 366
#
# _framework density 25.09224
#
# number of rings (size 3 to 8) (size 9 to 14) (size 15 to 20)
#    0.000    1.500    2.500    2.250    0.000    1.500 
#    4.500    2.500    2.750    0.000    0.000    0.000 
#    0.000    0.000    0.000    0.000    0.000    0.000 
#
# Total GULP energy -198231.344675 kJ/mol
# GULP energy per Si atom -12389.459042 kJ/mol
# Density = 2.503513 g / cm^3
# Si number density = 25.092240 Si / 1000 Ang^3
#
#
#
# Elastic Constant Matrix: (Units=GPa)
#
#
# Indices 1 2 3 4 5 6 
#
# 1 114.2475 26.7452 2.4120 13.1009 -18.2446 14.3659
# 2 26.7452 69.4369 27.8382 33.9785 -14.5921 12.3739
# 3 2.4120 27.8382 77.3219 28.3309 -14.6055 -5.9331
# 4 13.1009 33.9785 28.3309 48.2854 -7.6095 6.1677
# 5 -18.2446 -14.5921 -14.6055 -7.6095 33.1169 4.9904
# 6 14.3659 12.3739 -5.9331 6.1677 4.9904 45.0092
#
#
#
# Elastic Compliance Matrix: (Units=1/GPa)
#
#
# Indices 1 2 3 4 5 6 
#
# 1 0.010739 -0.002748 0.001787 -0.000739 0.005772 -0.002975
# 2 -0.002748 0.025802 -0.003454 -0.013743 0.005995 -0.005453
# 3 0.001787 -0.003454 0.018475 -0.008520 0.005139 0.003412
# 4 -0.000739 -0.013743 -0.008520 0.035526 -0.001789 -0.001779
# 5 0.005772 0.005995 0.005139 -0.001789 0.038910 -0.006882
# 6 -0.002975 -0.005453 0.003412 -0.001779 -0.006882 0.026123
#
#
# Mechanical properties :
#
#
# Convention : Reuss Voigt Hill
#
# Bulk Modulus (GPa) = 21.65178 41.66633 31.65905
# Shear Modulus (GPa) = 27.80857 38.88304 33.34580
#
# Velocity S-wave (km/s) = 3.33266 3.94077 3.64940
# Velocity P-wave (km/s) = 4.84318 6.11126 5.51380
#
# Compressibility (1/GPa) = 0.04618558
#
# Stress axis : x y z
#
# Youngs Moduli (GPa) = 93.11694 38.75734 54.12670
#
# Poissons Ratio (x) = 0.10651 -0.09673
# Poissons Ratio (y) = 0.25590 0.18696
# Poissons Ratio (z) = -0.16641 0.13387
#
# Static dielectric constant tensor:
#      x y z
#    x 5.027400 -0.071540 -0.250590 
#    y -0.071540 4.975850 0.554190 
#    z -0.250590 0.554190 4.684430 
# 
# 
# High freq. dielectric constant tensor:
#      x y z
#    x 2.002780 -0.001990 -0.004340 
#    y -0.001990 2.012620 0.027750 
#    z -0.004340 0.027750 1.988370 
# 
# From -- ./inp_files/341803.got.cif
#   From: 2010.06.25/outbox.cif.g09.slc.cpg/sg2_171_cif.got.tgz:341803.got - 2010.06.27 13:26:56.
