data_PCOD8006970
_publ_section_title
;
Structure prediction by ZEFSAII (Michael W. Deem and Ramdas Pophale) SiO2 
 PCOD8006970
Probable space group: P -1
;
_chemical_formula_sum "Si O2"
_cell_formula_units_Z 16
_cell_length_a 9.626319
_cell_length_b 11.639656
_cell_length_c 15.370222
_cell_angle_alpha 53.778892
_cell_angle_beta 141.317480
_cell_angle_gamma 103.187049
_cell_volume 769.956923
_symmetry_space_group_name_H-M "P -1"
_symmetry_group_IT_number 2
_symmetry_cell_setting 'triclinic'
loop_
_space_group_symop_operation_xyz
x,y,z
-x,-y,-z
loop_
_atom_site_type_symbol
_atom_site_label
_atom_site_fract_x
_atom_site_fract_y
_atom_site_fract_z
Si Si1 0.597023 0.856492 0.976142
Si Si2 0.778259 0.907100 0.713324
Si Si3 0.764708 0.702429 0.950848
Si Si4 0.249759 0.742195 0.682071
Si Si5 0.996388 0.071737 0.871604
Si Si6 0.073215 0.498565 0.634824
Si Si7 0.213645 0.566195 0.347203
Si Si8 0.066210 0.909990 0.693389
O O1 0.715527 0.677548 0.154759
O O2 0.727149 0.969278 0.016285
O O3 0.644873 0.845171 0.899858
O O4 0.303895 0.941407 0.817880
O O5 0.804555 0.758807 0.850638
O O6 0.979032 0.838837 0.763492
O O7 0.500000 0.000000 0.500000
O O8 0.840985 0.024974 0.749442
O O9 0.554378 0.639980 0.872042
O O10 0.042423 0.572508 0.177025
O O11 0.155896 0.634937 0.631174
O O12 0.141868 0.778824 0.711572
O O13 0.163327 0.916083 0.517813
O O14 0.866169 0.261582 0.728399
O O15 0.000000 0.000000 0.000000
O O16 0.000000 0.500000 0.500000
O O17 0.823767 0.545007 0.549198
O O18 0.500000 0.500000 0.500000
#
# Coordination Sequence:
#
# PCOD8006970 Si02
#       8
#     2   2   2   2   2   2   2   2
#     4   9  21  40  59  91 120 161 212 246 323 367
#     4  12  22  36  63  96 123 158 210 262 312 366
#     4   9  19  39  62  85 125 161 201 254 315 374
#     4  10  21  42  61  87 127 163 200 258 317 367
#     4  10  20  40  66  85 126 172 198 262 321 365
#     4  10  23  41  63  86 125 170 209 250 309 376
#     4  10  23  40  61  94 122 163 215 245 315 379
#     4  10  23  36  63  94 120 153 214 263 304 362
#
# _framework density 20.780383
#
# number of rings (size 3 to 8) (size 9 to 14) (size 15 to 20)
#    0.000    2.250    3.750    0.000    3.500    8.000 
#    0.000    0.000    0.000    5.250    0.000    0.000 
#    0.000    0.000    0.000    0.000    0.000    0.000 
#
# Total GULP energy -198232.695769 kJ/mol
# GULP energy per Si atom -12389.543486 kJ/mol
# Density = 2.073309 g / cm^3
# Si number density = 20.780383 Si / 1000 Ang^3
#
#
#
# Elastic Constant Matrix: (Units=GPa)
#
#
# Indices 1 2 3 4 5 6 
#
# 1 163.0758 35.6418 72.8993 23.4124 -5.0626 9.1761
# 2 35.6418 106.6463 34.7766 35.2857 -5.0442 10.9586
# 3 72.8993 34.7766 117.9315 32.6715 12.0986 1.9197
# 4 23.4124 35.2857 32.6715 33.4241 7.3207 1.5748
# 5 -5.0626 -5.0442 12.0986 7.3207 45.5204 8.5420
# 6 9.1761 10.9586 1.9197 1.5748 8.5420 19.7258
#
#
#
# Elastic Compliance Matrix: (Units=1/GPa)
#
#
# Indices 1 2 3 4 5 6 
#
# 1 0.009275 -0.000045 -0.005586 -0.001562 0.003746 -0.005243
# 2 -0.000045 0.017211 -0.000390 -0.018791 0.007107 -0.011080
# 3 -0.005586 -0.000390 0.015081 -0.009760 -0.003812 0.003777
# 4 -0.001562 -0.018791 -0.009760 0.062442 -0.012019 0.012336
# 5 0.003746 0.007107 -0.003812 -0.012019 0.029319 -0.017057
# 6 -0.005243 -0.011080 0.003777 0.012336 -0.017057 0.065323
#
#
# Mechanical properties :
#
#
# Convention : Reuss Voigt Hill
#
# Bulk Modulus (GPa) = 33.87091 74.92097 54.39594
# Shear Modulus (GPa) = 22.67207 36.02313 29.34760
#
# Velocity S-wave (km/s) = 3.30666 4.16807 3.76210
# Velocity P-wave (km/s) = 5.55999 7.70037 6.71600
#
# Compressibility (1/GPa) = 0.02952386
#
# Stress axis : x y z
#
# Youngs Moduli (GPa) = 107.82004 58.10120 66.30877
#
# Poissons Ratio (x) = 0.00263 0.37040
# Poissons Ratio (y) = 0.00489 0.02587
# Poissons Ratio (z) = 0.60229 0.02267
#
# Static dielectric constant tensor:
#      x y z
#    x 4.004040 0.051400 -0.001010 
#    y 0.051400 3.781650 0.255190 
#    z -0.001010 0.255190 3.838740 
# 
# 
# High freq. dielectric constant tensor:
#      x y z
#    x 1.823650 0.022170 -0.000240 
#    y 0.022170 1.788060 0.029160 
#    z -0.000240 0.029160 1.814200 
# 
# From -- ./inp_files/499013.got.cif
#   From: 2010.06.25/outbox.cif.g09.slc.cpg/sg2_250_cif.got.tgz:499013.got - 2010.06.27 13:26:56.
