data_PCOD8006500
_publ_section_title
;
Structure prediction by ZEFSAII (Michael W. Deem and Ramdas Pophale) SiO2 
 PCOD8006500
Probable space group: P -1
;
_chemical_formula_sum "Si O2"
_cell_formula_units_Z 10
_cell_length_a 9.111872
_cell_length_b 19.555618
_cell_length_c 12.682637
_cell_angle_alpha 27.618855
_cell_angle_beta 146.049873
_cell_angle_gamma 153.876519
_cell_volume 454.853683
_symmetry_space_group_name_H-M "P -1"
_symmetry_group_IT_number 2
_symmetry_cell_setting 'triclinic'
loop_
_space_group_symop_operation_xyz
x,y,z
-x,-y,-z
loop_
_atom_site_type_symbol
_atom_site_label
_atom_site_fract_x
_atom_site_fract_y
_atom_site_fract_z
Si Si1 0.464814 0.064397 0.256068
Si Si2 0.302641 0.706889 0.723917
Si Si3 0.758558 0.930069 0.101516
Si Si4 0.790977 0.447270 0.608237
Si Si5 0.172086 0.342214 0.851804
O O1 0.731535 0.250085 0.233271
O O2 0.521457 0.908701 0.515349
O O3 0.499913 0.125548 0.072615
O O4 0.086086 0.960894 0.213731
O O5 0.937828 0.559402 0.653595
O O6 0.503433 0.624017 0.951797
O O7 0.563415 0.759007 0.302147
O O8 0.860727 0.118969 0.959797
O O9 0.729146 0.561484 0.336586
O O10 0.069402 0.436943 0.738587
#
# Coordination Sequence:
#
# PCOD8006500 Si02
#       5
#     2   2   2   2   2
#     4   9  20  39  60  82 121 149 185 238 288 332
#     4  10  20  40  59  83 118 151 185 242 282 331
#     4  10  20  40  61  84 115 154 186 236 287 335
#     4  11  22  38  63  84 113 154 194 229 284 340
#     4  10  22  41  58  85 118 149 189 240 280 335
#
# _framework density 21.985094
#
# number of rings (size 3 to 8) (size 9 to 14) (size 15 to 20)
#    0.000    2.000    2.000    1.200    0.000    1.600 
#   10.800    1.000    0.000    0.000    0.000    0.000 
#    0.000    0.000    0.000    0.000    0.000    0.000 
#
# Total GULP energy -124003.829602 kJ/mol
# GULP energy per Si atom -12400.382960 kJ/mol
# Density = 2.193505 g / cm^3
# Si number density = 21.985094 Si / 1000 Ang^3
#
#
#
# Elastic Constant Matrix: (Units=GPa)
#
#
# Indices 1 2 3 4 5 6 
#
# 1 17.9184 13.5624 14.9903 1.2689 -5.0559 -0.7754
# 2 13.5624 84.6143 34.4039 -8.7674 -24.8641 -16.4894
# 3 14.9903 34.4039 120.3461 -1.1631 0.7685 5.2781
# 4 1.2689 -8.7674 -1.1631 37.9524 1.5500 -5.9452
# 5 -5.0559 -24.8641 0.7685 1.5500 32.3196 -2.0516
# 6 -0.7754 -16.4894 5.2781 -5.9452 -2.0516 26.9596
#
#
#
# Elastic Compliance Matrix: (Units=1/GPa)
#
#
# Indices 1 2 3 4 5 6 
#
# 1 0.068712 -0.008080 -0.006218 -0.004936 0.004760 -0.002475
# 2 -0.008080 0.027814 -0.007956 0.009020 0.021284 0.021946
# 3 -0.006218 -0.007956 0.011756 -0.002274 -0.007800 -0.008442
# 4 -0.004936 0.009020 -0.002274 0.030326 0.005588 0.012933
# 5 0.004760 0.021284 -0.007800 0.005588 0.049225 0.019660
# 6 -0.002475 0.021946 -0.008442 0.012933 0.019660 0.056445
#
#
# Mechanical properties :
#
#
# Convention : Reuss Voigt Hill
#
# Bulk Modulus (GPa) = 15.68051 38.75466 27.21758
# Shear Modulus (GPa) = 16.12668 30.10782 23.11725
#
# Velocity S-wave (km/s) = 2.71131 3.70464 3.24620
# Velocity P-wave (km/s) = 4.11697 5.99709 5.14366
#
# Compressibility (1/GPa) = 0.06377343
#
# Stress axis : x y z
#
# Youngs Moduli (GPa) = 14.55345 35.95319 85.05957
#
# Poissons Ratio (x) = 0.29050 0.52894
# Poissons Ratio (y) = 0.11759 0.67674
# Poissons Ratio (z) = 0.09050 0.28605
#
# Static dielectric constant tensor:
#      x y z
#    x 3.522920 -0.386180 -0.015680 
#    y -0.386180 3.842340 0.117240 
#    z -0.015680 0.117240 4.255720 
# 
# 
# High freq. dielectric constant tensor:
#      x y z
#    x 1.822600 -0.028890 0.004160 
#    y -0.028890 1.859210 0.004130 
#    z 0.004160 0.004130 1.888890 
# 
# From -- ./inp_files/18716.got.cif
#   From: 2010.06.25/outbox.cif.g09.slc.cpg/sg2_10_cif.got.tgz:18716.got - 2010.06.27 13:26:56.
