data_PCOD8006461
_publ_section_title
;
Structure prediction by ZEFSAII (Michael W. Deem and Ramdas Pophale) SiO2 
 PCOD8006461
Probable space group: P -1
;
_chemical_formula_sum "Si O2"
_cell_formula_units_Z 12
_cell_length_a 8.300917
_cell_length_b 11.209668
_cell_length_c 12.934548
_cell_angle_alpha 32.693685
_cell_angle_beta 131.094884
_cell_angle_gamma 128.517991
_cell_volume 482.720125
_symmetry_space_group_name_H-M "P -1"
_symmetry_group_IT_number 2
_symmetry_cell_setting 'triclinic'
loop_
_space_group_symop_operation_xyz
x,y,z
-x,-y,-z
loop_
_atom_site_type_symbol
_atom_site_label
_atom_site_fract_x
_atom_site_fract_y
_atom_site_fract_z
Si Si1 0.752074 0.876000 0.201511
Si Si2 0.768607 0.989040 0.463976
Si Si3 0.049110 0.291268 0.108968
Si Si4 0.565864 0.154810 0.749581
Si Si5 0.991436 0.750645 0.219751
Si Si6 0.268576 0.528733 0.841745
O O1 0.580346 0.723033 0.319591
O O2 0.941823 0.749713 0.324809
O O3 0.849613 0.085300 0.164236
O O4 0.629532 0.952112 0.993601
O O5 0.749745 0.795207 0.685131
O O6 0.572348 0.947020 0.332521
O O7 0.762716 0.216986 0.355702
O O8 0.000000 0.000000 0.500000
O O9 0.096938 0.372170 0.954880
O O10 0.000000 0.500000 0.000000
O O11 0.776683 0.314102 0.671806
O O12 0.789013 0.573264 0.221036
O O13 0.000000 0.000000 0.000000
O O14 0.500000 0.500000 0.000000
#
# Coordination Sequence:
#
# PCOD8006461 Si02
#       6
#     2   2   2   2   2   2
#     4  10  20  39  71  98 137 187 234 288 357 420
#     4  12  25  44  73 107 143 184 243 294 355 429
#     4  12  24  45  73 101 140 188 236 289 359 426
#     4  10  20  40  70  96 138 185 230 291 349 416
#     4  10  20  40  69  99 136 189 234 284 355 426
#     4  12  25  46  72 105 147 185 233 302 361 415
#
# _framework density 24.859124999999999
#
# number of rings (size 3 to 8) (size 9 to 14) (size 15 to 20)
#    0.000    1.000    6.667    2.000    0.000    2.000 
#    0.000    4.167    3.667    0.000    0.000    0.000 
#    0.000    0.000    0.000    0.000    0.000    0.000 
#
# Total GULP energy -148670.748840 kJ/mol
# GULP energy per Si atom -12389.229070 kJ/mol
# Density = 2.480254 g / cm^3
# Si number density = 24.859125 Si / 1000 Ang^3
#
#
#
# Elastic Constant Matrix: (Units=GPa)
#
#
# Indices 1 2 3 4 5 6 
#
# 1 180.5245 46.5801 14.1958 -12.1191 26.7780 -9.0489
# 2 46.5801 173.3215 46.2771 16.9989 22.4889 -18.7341
# 3 14.1958 46.2771 90.8579 -0.2882 3.9995 -11.5977
# 4 -12.1191 16.9989 -0.2882 31.5515 -7.8432 8.5141
# 5 26.7780 22.4889 3.9995 -7.8432 40.3984 2.5705
# 6 -9.0489 -18.7341 -11.5977 8.5141 2.5705 35.9342
#
#
#
# Elastic Compliance Matrix: (Units=1/GPa)
#
#
# Indices 1 2 3 4 5 6 
#
# 1 0.006586 -0.001561 -0.000033 0.002491 -0.003039 0.000461
# 2 -0.001561 0.009398 -0.003563 -0.008745 -0.005914 0.005851
# 3 -0.000033 -0.003563 0.013027 0.001759 0.000940 0.001854
# 4 0.002491 -0.008745 0.001759 0.044515 0.012628 -0.014815
# 5 -0.003039 -0.005914 0.000940 0.012628 0.032985 -0.008897
# 6 0.000461 0.005851 0.001854 -0.014815 -0.008897 0.035740
#
#
# Mechanical properties :
#
#
# Convention : Reuss Voigt Hill
#
# Bulk Modulus (GPa) = 53.48850 73.20110 63.34480
# Shear Modulus (GPa) = 31.48627 44.08688 37.78658
#
# Velocity S-wave (km/s) = 3.56278 4.21583 3.90298
# Velocity P-wave (km/s) = 6.20386 7.29437 6.77111
#
# Compressibility (1/GPa) = 0.01869561
#
# Stress axis : x y z
#
# Youngs Moduli (GPa) = 151.83827 106.40384 76.76201
#
# Poissons Ratio (x) = 0.16612 0.00256
# Poissons Ratio (y) = 0.23706 0.27353
# Poissons Ratio (z) = 0.00505 0.37916
#
# Static dielectric constant tensor:
#      x y z
#    x 1.201120 0.598720 -1.009900 
#    y 0.598720 4.190680 0.424050 
#    z -1.009900 0.424050 4.281600 
# 
# 
# High freq. dielectric constant tensor:
#      x y z
#    x 2.006570 -0.011880 0.004260 
#    y -0.011880 1.987080 0.015160 
#    z 0.004260 0.015160 1.975290 
# 
# From -- ./inp_files/264547.got.cif
#   From: 2010.06.25/outbox.cif.g09.slc.cpg/sg2_133_cif.got.tgz:264547.got - 2010.06.27 13:26:56.
