data_PCOD8006098
_publ_section_title
;
Structure prediction by ZEFSAII (Michael W. Deem and Ramdas Pophale) SiO2 
 PCOD8006098
Probable space group: P -1
;
_chemical_formula_sum "Si O2"
_cell_formula_units_Z 14
_cell_length_a 9.661412
_cell_length_b 15.102459
_cell_length_c 14.674282
_cell_angle_alpha 152.202532
_cell_angle_beta 136.535498
_cell_angle_gamma 41.271102
_cell_volume 645.590947
_symmetry_space_group_name_H-M "P -1"
_symmetry_group_IT_number 2
_symmetry_cell_setting 'triclinic'
loop_
_space_group_symop_operation_xyz
x,y,z
-x,-y,-z
loop_
_atom_site_type_symbol
_atom_site_label
_atom_site_fract_x
_atom_site_fract_y
_atom_site_fract_z
Si Si1 0.638223 0.105396 0.444251
Si Si2 0.594166 0.440787 0.295589
Si Si3 0.025371 0.546934 0.393794
Si Si4 0.991615 0.798460 0.237161
Si Si5 0.866839 0.188562 0.044865
Si Si6 0.848919 0.504128 0.798340
Si Si7 0.661577 0.955736 0.620039
O O1 0.490274 0.320735 0.536007
O O2 0.483862 0.001519 0.320115
O O3 0.815188 0.118189 0.615932
O O4 0.763335 0.975484 0.299850
O O5 0.655309 0.325034 0.123019
O O6 0.405387 0.382301 0.201758
O O7 0.809177 0.387012 0.407099
O O8 0.007806 0.329312 0.213565
O O9 0.800047 0.720594 0.461854
O O10 0.103738 0.558041 0.339235
O O11 0.055240 0.687567 0.264725
O O12 0.976448 0.656084 0.018845
O O13 0.799058 0.103663 0.840170
O O14 0.000000 0.000000 0.000000
O O15 0.500000 0.000000 0.500000
#
# Coordination Sequence:
#
# PCOD8006098 Si02
#       7
#     2   2   2   2   2   2   2
#     4  10  20  39  65  92 130 178 222 269 335 398
#     4  11  22  44  69  92 132 185 225 273 334 410
#     4  12  25  44  66 101 139 170 230 287 330 394
#     4   9  20  40  65  94 133 176 220 271 340 407
#     4  12  25  46  71  95 136 185 224 272 343 403
#     4  10  22  40  67  96 132 174 224 276 338 395
#     4  12  26  41  68 102 137 173 227 282 338 395
#
# _framework density 21.685558
#
# number of rings (size 3 to 8) (size 9 to 14) (size 15 to 20)
#    0.000    1.143    2.857    3.429    2.000    2.857 
#    0.000    1.429    0.000    0.000    0.000    0.000 
#    0.000    0.000    0.000    0.000    0.000    0.000 
#
# Total GULP energy -173514.126963 kJ/mol
# GULP energy per Si atom -12393.866212 kJ/mol
# Density = 2.163620 g / cm^3
# Si number density = 21.685558 Si / 1000 Ang^3
#
#
#
# Elastic Constant Matrix: (Units=GPa)
#
#
# Indices 1 2 3 4 5 6 
#
# 1 79.1189 10.4972 7.5471 -3.0670 -0.4948 -12.5270
# 2 10.4972 105.5697 22.5127 0.8497 -9.1290 -12.0557
# 3 7.5471 22.5127 103.0015 -8.4450 -1.4715 6.0025
# 4 -3.0670 0.8497 -8.4450 34.3577 -1.4165 -4.9685
# 5 -0.4948 -9.1290 -1.4715 -1.4165 33.9516 -2.8049
# 6 -12.5270 -12.0557 6.0025 -4.9685 -2.8049 26.7817
#
#
#
# Elastic Compliance Matrix: (Units=1/GPa)
#
#
# Indices 1 2 3 4 5 6 
#
# 1 0.014006 -0.000269 -0.001208 0.002026 0.000755 0.007156
# 2 -0.000269 0.011018 -0.002676 0.000019 0.003321 0.005785
# 3 -0.001208 -0.002676 0.010766 0.002026 -0.000505 -0.003860
# 4 0.002026 0.000019 0.002026 0.030792 0.001937 0.006418
# 5 0.000755 0.003321 -0.000505 0.001937 0.030875 0.005555
# 6 0.007156 0.005785 -0.003860 0.006418 0.005555 0.045928
#
#
# Mechanical properties :
#
#
# Convention : Reuss Voigt Hill
#
# Bulk Modulus (GPa) = 36.38524 40.97823 38.68174
# Shear Modulus (GPa) = 31.08448 35.49375 33.28911
#
# Velocity S-wave (km/s) = 3.79016 4.05006 3.92226
# Velocity P-wave (km/s) = 5.99739 6.38813 6.19584
#
# Compressibility (1/GPa) = 0.02748367
#
# Stress axis : x y z
#
# Youngs Moduli (GPa) = 71.39610 90.76402 92.88629
#
# Poissons Ratio (x) = 0.02442 0.11217
# Poissons Ratio (y) = 0.01921 0.24861
# Poissons Ratio (z) = 0.08622 0.24293
#
# Static dielectric constant tensor:
#      x y z
#    x 4.063460 -0.285170 0.126030 
#    y -0.285170 3.864320 -0.030050 
#    z 0.126030 -0.030050 4.060380 
# 
# 
# High freq. dielectric constant tensor:
#      x y z
#    x 1.843680 -0.024620 0.004400 
#    y -0.024620 1.845730 0.001420 
#    z 0.004400 0.001420 1.867440 
# 
# From -- ./inp_files/262229.got.cif
#   From: 2010.06.25/outbox.cif.g09.slc.cpg/sg2_132_cif.got.tgz:262229.got - 2010.06.27 13:26:56.
