data_PCOD8006161
_publ_section_title
;
Structure prediction by ZEFSAII (Michael W. Deem and Ramdas Pophale) SiO2 
 PCOD8006161
Probable space group: P -1
;
_chemical_formula_sum "Si O2"
_cell_formula_units_Z 14
_cell_length_a 8.174604
_cell_length_b 16.748843
_cell_length_c 8.924313
_cell_angle_alpha 107.349638
_cell_angle_beta 69.972428
_cell_angle_gamma 147.257175
_cell_volume 620.785615
_symmetry_space_group_name_H-M "P -1"
_symmetry_group_IT_number 2
_symmetry_cell_setting 'triclinic'
loop_
_space_group_symop_operation_xyz
x,y,z
-x,-y,-z
loop_
_atom_site_type_symbol
_atom_site_label
_atom_site_fract_x
_atom_site_fract_y
_atom_site_fract_z
Si Si1 0.471308 0.818044 0.715112
Si Si2 0.438690 0.527575 0.836591
Si Si3 0.281593 0.933288 0.391352
Si Si4 0.722649 0.211652 0.914354
Si Si5 0.184522 0.479898 0.318605
Si Si6 0.395649 0.316624 0.424983
Si Si7 0.289725 0.620829 0.087337
O O1 0.624755 0.787967 0.682265
O O2 0.164074 0.685797 0.638691
O O3 0.688673 0.960982 0.623131
O O4 0.403337 0.838014 0.904509
O O5 0.642809 0.529416 0.820208
O O6 0.504119 0.578068 0.673186
O O7 0.088493 0.364210 0.883965
O O8 0.532876 0.645871 0.973304
O O9 0.378382 0.910467 0.212064
O O10 0.929352 0.780891 0.463637
O O11 0.500000 0.000000 0.500000
O O12 0.571900 0.231507 0.884859
O O13 0.341180 0.571976 0.471573
O O14 0.181110 0.558845 0.254502
O O15 0.000000 0.500000 0.000000
#
# Coordination Sequence:
#
# PCOD8006161 Si02
#       7
#     2   2   2   2   2   2   2
#     4  12  25  46  71  99 142 185 227 276 350 415
#     4  11  21  41  70 104 139 171 233 289 339 400
#     4  12  29  48  69  98 142 187 230 284 344 414
#     4  11  23  47  68  98 141 183 229 282 340 414
#     4  12  23  39  76 108 135 180 228 289 346 398
#     4  12  26  46  70 107 140 178 231 292 344 405
#     4  10  20  39  66 103 139 169 227 286 336 401
#
# _framework density 22.552068999999999
#
# number of rings (size 3 to 8) (size 9 to 14) (size 15 to 20)
#    0.000    0.571    5.714    3.857    4.000    0.000 
#    0.000    0.714    0.000    0.000    0.000    0.000 
#    0.000    0.000    0.000    0.000    0.000    0.000 
#
# Total GULP energy -173589.896204 kJ/mol
# GULP energy per Si atom -12399.278300 kJ/mol
# Density = 2.250074 g / cm^3
# Si number density = 22.552069 Si / 1000 Ang^3
#
#
#
# Elastic Constant Matrix: (Units=GPa)
#
#
# Indices 1 2 3 4 5 6 
#
# 1 87.9572 12.2742 16.4949 4.2177 4.6626 -13.9710
# 2 12.2742 47.3793 23.3115 6.1241 11.6967 -1.5076
# 3 16.4949 23.3115 92.7699 3.8740 -1.2309 7.9424
# 4 4.2177 6.1241 3.8740 35.9697 -12.0429 2.9209
# 5 4.6626 11.6967 -1.2309 -12.0429 48.5109 3.5941
# 6 -13.9710 -1.5076 7.9424 2.9209 3.5941 29.7448
#
#
#
# Elastic Compliance Matrix: (Units=1/GPa)
#
#
# Indices 1 2 3 4 5 6 
#
# 1 0.013453 -0.001031 -0.002702 -0.002486 -0.002287 0.007508
# 2 -0.001031 0.028202 -0.007116 -0.007320 -0.009044 0.004657
# 3 -0.002702 -0.007116 0.013518 0.001594 0.003142 -0.005776
# 4 -0.002486 -0.007320 0.001594 0.033314 0.010799 -0.006541
# 5 -0.002287 -0.009044 0.003142 0.010799 0.026264 -0.006605
# 6 0.007508 0.004657 -0.005776 -0.006541 -0.006605 0.040365
#
#
# Mechanical properties :
#
#
# Convention : Reuss Voigt Hill
#
# Bulk Modulus (GPa) = 29.87453 36.91862 33.39658
# Shear Modulus (GPa) = 26.59973 34.58014 30.58994
#
# Velocity S-wave (km/s) = 3.43808 3.92005 3.68695
# Velocity P-wave (km/s) = 5.38853 6.07412 5.74157
#
# Compressibility (1/GPa) = 0.03347333
#
# Stress axis : x y z
#
# Youngs Moduli (GPa) = 74.33375 35.45890 73.97729
#
# Poissons Ratio (x) = 0.03655 0.19991
# Poissons Ratio (y) = 0.07662 0.52645
# Poissons Ratio (z) = 0.20087 0.25234
#
# Static dielectric constant tensor:
#      x y z
#    x 4.796610 -0.512820 -0.409780 
#    y -0.512820 3.914170 0.158430 
#    z -0.409780 0.158430 4.326380 
# 
# 
# High freq. dielectric constant tensor:
#      x y z
#    x 1.905010 -0.023200 -0.005010 
#    y -0.023200 1.856830 0.000170 
#    z -0.005010 0.000170 1.906110 
# 
# From -- ./inp_files/218007.got.cif
#   From: 2010.06.25/outbox.cif.g09.slc.cpg/sg2_110_cif.got.tgz:218007.got - 2010.06.27 13:26:56.
