data_PCOD8006263
_publ_section_title
;
Structure prediction by ZEFSAII (Michael W. Deem and Ramdas Pophale) SiO2 
 PCOD8006263
Probable space group: P -1
;
_chemical_formula_sum "Si O2"
_cell_formula_units_Z 12
_cell_length_a 9.063814
_cell_length_b 11.243797
_cell_length_c 9.257921
_cell_angle_alpha 108.936355
_cell_angle_beta 95.358468
_cell_angle_gamma 140.311140
_cell_volume 469.056735
_symmetry_space_group_name_H-M "P -1"
_symmetry_group_IT_number 2
_symmetry_cell_setting 'triclinic'
loop_
_space_group_symop_operation_xyz
x,y,z
-x,-y,-z
loop_
_atom_site_type_symbol
_atom_site_label
_atom_site_fract_x
_atom_site_fract_y
_atom_site_fract_z
Si Si1 0.674867 0.718140 0.206394
Si Si2 0.682527 0.561172 0.423849
Si Si3 0.139238 0.034627 0.161908
Si Si4 0.663907 0.307118 0.690939
Si Si5 0.349988 0.950605 0.256480
Si Si6 0.084621 0.684488 0.663305
O O1 0.751037 0.694710 0.345795
O O2 0.504364 0.720614 0.230696
O O3 0.500000 0.500000 0.000000
O O4 0.972160 0.973597 0.260267
O O5 0.500000 0.500000 0.500000
O O6 0.472846 0.293029 0.270580
O O7 0.977103 0.726642 0.578456
O O8 0.116285 0.865570 0.115375
O O9 0.000000 0.000000 0.000000
O O10 0.474127 0.128153 0.466643
O O11 0.942329 0.580824 0.767770
O O12 0.780711 0.269047 0.771912
O O13 0.579586 0.067272 0.207094
O O14 0.000000 0.500000 0.500000
#
# Coordination Sequence:
#
# PCOD8006263 Si02
#       6
#     2   2   2   2   2   2
#     4  12  27  44  69 100 147 191 230 285 351 425
#     4  12  24  43  72 104 137 184 238 289 340 417
#     4  12  26  46  69  98 145 189 233 285 352 421
#     4  10  22  42  69 105 131 179 232 291 346 406
#     4  10  23  42  72 105 135 176 233 298 346 413
#     4  10  20  39  67 102 138 167 225 289 350 398
#
# _framework density 25.583258000000001
#
# number of rings (size 3 to 8) (size 9 to 14) (size 15 to 20)
#    0.000    1.000    6.667    0.000    9.333    1.333 
#    0.000    1.667    3.667    0.000    0.000    0.000 
#    0.000    0.000    0.000    0.000    0.000    0.000 
#
# Total GULP energy -148693.880831 kJ/mol
# GULP energy per Si atom -12391.156736 kJ/mol
# Density = 2.552503 g / cm^3
# Si number density = 25.583258 Si / 1000 Ang^3
#
#
#
# Elastic Constant Matrix: (Units=GPa)
#
#
# Indices 1 2 3 4 5 6 
#
# 1 205.7938 50.4999 54.6720 -40.3005 28.7053 -13.1855
# 2 50.4999 132.8652 37.6202 -49.6331 17.8831 1.2590
# 3 54.6720 37.6202 48.4442 -25.8624 8.1830 -8.7680
# 4 -40.3005 -49.6331 -25.8624 39.9313 -9.9141 9.4887
# 5 28.7053 17.8831 8.1830 -9.9141 42.2307 -16.3826
# 6 -13.1855 1.2590 -8.7680 9.4887 -16.3826 56.6293
#
#
#
# Elastic Compliance Matrix: (Units=1/GPa)
#
#
# Indices 1 2 3 4 5 6 
#
# 1 0.007664 0.000979 -0.006953 0.003753 -0.003800 -0.001042
# 2 0.000979 0.015568 -0.003746 0.018040 -0.004213 -0.004940
# 3 -0.006953 -0.003746 0.038548 0.013343 0.003185 0.003118
# 4 0.003753 0.018040 0.013343 0.061465 -0.001528 -0.008202
# 5 -0.003800 -0.004213 0.003185 -0.001528 0.030474 0.008774
# 6 -0.001042 -0.004940 0.003118 -0.008202 0.008774 0.021921
#
#
# Mechanical properties :
#
#
# Convention : Reuss Voigt Hill
#
# Bulk Modulus (GPa) = 23.61851 74.74303 49.18077
# Shear Modulus (GPa) = 23.90131 44.04569 33.97350
#
# Velocity S-wave (km/s) = 3.05988 4.15379 3.64807
# Velocity P-wave (km/s) = 4.66217 7.23079 6.08359
#
# Compressibility (1/GPa) = 0.04233967
#
# Stress axis : x y z
#
# Youngs Moduli (GPa) = 130.47302 64.23517 25.94196
#
# Poissons Ratio (x) = -0.06288 0.18038
# Poissons Ratio (y) = -0.12771 0.09717
# Poissons Ratio (z) = 0.90719 0.24061
#
# Static dielectric constant tensor:
#      x y z
#    x 4.780810 -0.258440 -0.263350 
#    y -0.258440 5.090010 -0.165550 
#    z -0.263350 -0.165550 4.387450 
# 
# 
# High freq. dielectric constant tensor:
#      x y z
#    x 2.043160 -0.004690 0.001290 
#    y -0.004690 2.041830 -0.015960 
#    z 0.001290 -0.015960 1.981120 
# 
# From -- ./inp_files/181710.got.cif
#   From: 2010.06.25/outbox.cif.g09.slc.cpg/sg2_91_cif.got.tgz:181710.got - 2010.06.27 13:26:56.
