data_PCOD8006721
_publ_section_title
;
Structure prediction by ZEFSAII (Michael W. Deem and Ramdas Pophale) SiO2 
 PCOD8006721
Probable space group: P -1
;
_chemical_formula_sum "Si O2"
_cell_formula_units_Z 16
_cell_length_a 8.655753
_cell_length_b 13.783611
_cell_length_c 12.606405
_cell_angle_alpha 66.221952
_cell_angle_beta 87.616849
_cell_angle_gamma 41.429058
_cell_volume 821.985065
_symmetry_space_group_name_H-M "P -1"
_symmetry_group_IT_number 2
_symmetry_cell_setting 'triclinic'
loop_
_space_group_symop_operation_xyz
x,y,z
-x,-y,-z
loop_
_atom_site_type_symbol
_atom_site_label
_atom_site_fract_x
_atom_site_fract_y
_atom_site_fract_z
Si Si1 0.198863 0.045426 0.496852
Si Si2 0.097494 0.626685 0.205155
Si Si3 0.544690 0.910848 0.145767
Si Si4 0.780361 0.601973 0.879520
Si Si5 0.942651 0.927096 0.969169
Si Si6 0.643462 0.314751 0.109213
Si Si7 0.344087 0.725339 0.631967
Si Si8 0.575729 0.933033 0.690673
O O1 0.258616 0.067695 0.372399
O O2 0.892276 0.196031 0.462357
O O3 0.342457 0.853437 0.573325
O O4 0.301798 0.063894 0.580937
O O5 0.131317 0.538835 0.138719
O O6 0.371009 0.470312 0.331084
O O7 0.849803 0.714796 0.237175
O O8 0.031744 0.782553 0.106324
O O9 0.357983 0.912265 0.131468
O O10 0.460214 0.020717 0.204972
O O11 0.500000 0.000000 0.000000
O O12 0.527030 0.696739 0.905381
O O13 0.730710 0.738363 0.760074
O O14 0.000000 0.500000 0.000000
O O15 0.094627 0.842302 0.892610
O O16 0.000000 0.000000 0.000000
O O17 0.709100 0.286058 0.243323
O O18 0.500000 0.500000 0.000000
#
# Coordination Sequence:
#
# PCOD8006721 Si02
#       8
#     2   2   2   2   2   2   2   2
#     4  10  22  39  66  91 124 164 219 252 302 362
#     4  10  21  40  55  88 127 159 201 256 305 373
#     4  10  23  40  60  87 130 161 193 253 322 377
#     4  11  22  34  62  92 121 157 205 261 313 362
#     4  11  23  36  56  90 127 165 195 247 321 379
#     4  11  21  37  59  91 124 152 208 264 313 361
#     4  10  20  40  63  91 122 163 208 268 301 356
#     4  11  22  41  63  94 122 168 208 255 309 376
#
# _framework density 19.465074999999999
#
# number of rings (size 3 to 8) (size 9 to 14) (size 15 to 20)
#    0.000    1.500    5.000    2.250    7.000    0.000 
#    0.000    1.250    0.000    0.000    0.000    0.000 
#    0.000    0.000    0.000    0.000    0.000    0.000 
#
# Total GULP energy -198280.980083 kJ/mol
# GULP energy per Si atom -12392.561255 kJ/mol
# Density = 1.942077 g / cm^3
# Si number density = 19.465075 Si / 1000 Ang^3
#
#
#
# Elastic Constant Matrix: (Units=GPa)
#
#
# Indices 1 2 3 4 5 6 
#
# 1 122.4437 54.7463 35.3937 -10.1880 8.6573 -7.6693
# 2 54.7463 96.2654 28.4403 -11.4555 3.5478 -15.4386
# 3 35.3937 28.4403 79.8884 -5.6052 -6.0917 2.8373
# 4 -10.1880 -11.4555 -5.6052 34.3812 -0.8099 5.8127
# 5 8.6573 3.5478 -6.0917 -0.8099 42.7542 -6.7152
# 6 -7.6693 -15.4386 2.8373 5.8127 -6.7152 37.0183
#
#
#
# Elastic Compliance Matrix: (Units=1/GPa)
#
#
# Indices 1 2 3 4 5 6 
#
# 1 0.011888 -0.005576 -0.003383 0.001092 -0.002440 -0.000217
# 2 -0.005576 0.015564 -0.003087 0.002143 0.000268 0.005284
# 3 -0.003383 -0.003087 0.015497 0.001041 0.002722 -0.002846
# 4 0.001092 0.002143 0.001041 0.030940 -0.000272 -0.003867
# 5 -0.002440 0.000268 0.002722 -0.000272 0.024865 0.003951
# 6 -0.000217 0.005284 -0.002846 -0.003867 0.003951 0.030715
#
#
# Mechanical properties :
#
#
# Convention : Reuss Voigt Hill
#
# Bulk Modulus (GPa) = 53.03482 59.52869 56.28176
# Shear Modulus (GPa) = 31.27990 34.83188 33.05589
#
# Velocity S-wave (km/s) = 4.01306 4.23478 4.12541
# Velocity P-wave (km/s) = 6.98414 7.38647 7.18812
#
# Compressibility (1/GPa) = 0.01885554
#
# Stress axis : x y z
#
# Youngs Moduli (GPa) = 84.11859 64.25189 64.52803
#
# Poissons Ratio (x) = 0.35827 0.21833
# Poissons Ratio (y) = 0.46905 0.19921
# Poissons Ratio (z) = 0.28461 0.19836
#
# Static dielectric constant tensor:
#      x y z
#    x 4.081740 -0.367970 0.390670 
#    y -0.367970 3.594250 -0.193530 
#    z 0.390670 -0.193530 3.775260 
# 
# 
# High freq. dielectric constant tensor:
#      x y z
#    x 1.780770 -0.016900 0.005620 
#    y -0.016900 1.735730 -0.010150 
#    z 0.005620 -0.010150 1.747870 
# 
# From -- ./inp_files/222077.got.cif
#   From: 2010.06.25/outbox.cif.g09.slc.cpg/sg2_112_cif.got.tgz:222077.got - 2010.06.27 13:26:56.
