data_PCOD8006603
_publ_section_title
;
Structure prediction by ZEFSAII (Michael W. Deem and Ramdas Pophale) SiO2 
 PCOD8006603
Probable space group: P -1
;
_chemical_formula_sum "Si O2"
_cell_formula_units_Z 14
_cell_length_a 10.614247
_cell_length_b 6.909233
_cell_length_c 12.232466
_cell_angle_alpha 64.674055
_cell_angle_beta 118.251210
_cell_angle_gamma 107.498792
_cell_volume 708.820608
_symmetry_space_group_name_H-M "P -1"
_symmetry_group_IT_number 2
_symmetry_cell_setting 'triclinic'
loop_
_space_group_symop_operation_xyz
x,y,z
-x,-y,-z
loop_
_atom_site_type_symbol
_atom_site_label
_atom_site_fract_x
_atom_site_fract_y
_atom_site_fract_z
Si Si1 0.953155 0.333517 0.758368
Si Si2 0.197679 0.250982 0.737315
Si Si3 0.278160 0.418220 0.493000
Si Si4 0.505064 0.170306 0.556231
Si Si5 0.659505 0.122255 0.040546
Si Si6 0.715470 0.028255 0.847145
Si Si7 0.748483 0.578544 0.057829
O O1 0.857276 0.524000 0.646579
O O2 0.028968 0.253617 0.698606
O O3 0.077426 0.426549 0.873324
O O4 0.857866 0.123349 0.817438
O O5 0.227507 0.362788 0.607513
O O6 0.239028 0.007607 0.810263
O O7 0.294637 0.376526 0.844317
O O8 0.344116 0.220461 0.508977
O O9 0.401734 0.617802 0.502959
O O10 0.500000 0.000000 0.500000
O O11 0.572443 0.079074 0.714366
O O12 0.659092 0.358536 0.034189
O O13 0.723186 0.145058 0.939329
O O14 0.500000 0.000000 0.000000
O O15 0.709387 0.771006 0.917576
#
# Coordination Sequence:
#
# PCOD8006603 Si02
#       7
#     2   2   2   2   2   2   2
#     4   9  20  41  60  91 122 159 200 245 304 353
#     4   9  21  38  59  88 124 153 201 245 297 358
#     4  10  20  40  62  84 124 159 194 253 297 349
#     4  10  23  39  61  91 114 157 206 242 300 357
#     4  11  23  38  58  89 121 162 205 247 296 353
#     4  10  21  40  62  85 123 155 198 258 295 353
#     4   9  22  38  60  91 119 159 198 244 299 358
#
# _framework density 19.751117000000001
#
# number of rings (size 3 to 8) (size 9 to 14) (size 15 to 20)
#    0.857    1.429    0.000    1.714    0.000    9.714 
#    5.143    0.714    0.000    0.000    0.000    0.000 
#    0.000    0.000    0.000    0.000    0.000    0.000 
#
# Total GULP energy -173549.085601 kJ/mol
# GULP energy per Si atom -12396.363257 kJ/mol
# Density = 1.970616 g / cm^3
# Si number density = 19.751117 Si / 1000 Ang^3
#
#
#
# Elastic Constant Matrix: (Units=GPa)
#
#
# Indices 1 2 3 4 5 6 
#
# 1 112.9789 32.9756 35.0168 -15.3297 -4.7816 -11.0954
# 2 32.9756 123.1455 35.9682 -9.8279 -6.1509 -11.2945
# 3 35.0168 35.9682 97.3610 -24.3704 -8.1432 -5.3139
# 4 -15.3297 -9.8279 -24.3704 22.2497 -2.6087 1.3955
# 5 -4.7816 -6.1509 -8.1432 -2.6087 35.6973 -2.4175
# 6 -11.0954 -11.2945 -5.3139 1.3955 -2.4175 23.2622
#
#
#
# Elastic Compliance Matrix: (Units=1/GPa)
#
#
# Indices 1 2 3 4 5 6 
#
# 1 0.010974 -0.001595 -0.001836 0.004763 0.001388 0.003899
# 2 -0.001595 0.009719 -0.002701 0.000147 0.001089 0.003445
# 3 -0.001836 -0.002701 0.016302 0.015829 0.004234 0.001027
# 4 0.004763 0.000147 0.015829 0.066540 0.009336 0.002938
# 5 0.001388 0.001089 0.004234 0.009336 0.030357 0.004753
# 6 0.003899 0.003445 0.001027 0.002938 0.004753 0.047073
#
#
# Mechanical properties :
#
#
# Convention : Reuss Voigt Hill
#
# Bulk Modulus (GPa) = 40.43735 60.15630 50.29683
# Shear Modulus (GPa) = 24.81748 31.54349 28.18049
#
# Velocity S-wave (km/s) = 3.54857 4.00064 3.78137
# Velocity P-wave (km/s) = 6.10801 7.20163 6.67725
#
# Compressibility (1/GPa) = 0.02472961
#
# Stress axis : x y z
#
# Youngs Moduli (GPa) = 91.12532 102.89603 61.34361
#
# Poissons Ratio (x) = 0.16413 0.11265
# Poissons Ratio (y) = 0.14536 0.16567
# Poissons Ratio (z) = 0.16735 0.27789
#
# Static dielectric constant tensor:
#      x y z
#    x 3.749610 -0.227740 0.155270 
#    y -0.227740 3.351420 -0.252850 
#    z 0.155270 -0.252850 3.779050 
# 
# 
# High freq. dielectric constant tensor:
#      x y z
#    x 1.778980 -0.010720 0.002960 
#    y -0.010720 1.746200 -0.019400 
#    z 0.002960 -0.019400 1.775340 
# 
# From -- ./inp_files/410119.got.cif
#   From: 2010.06.25/outbox.cif.g09.slc.cpg/sg2_206_cif.got.tgz:410119.got - 2010.06.27 13:26:56.
