data_PCOD8006375
_publ_section_title
;
Structure prediction by ZEFSAII (Michael W. Deem and Ramdas Pophale) SiO2 
 PCOD8006375
Probable space group: P -1
;
_chemical_formula_sum "Si O2"
_cell_formula_units_Z 14
_cell_length_a 13.994859
_cell_length_b 8.040755
_cell_length_c 8.181816
_cell_angle_alpha 107.258896
_cell_angle_beta 80.598667
_cell_angle_gamma 52.112178
_cell_volume 616.676930
_symmetry_space_group_name_H-M "P -1"
_symmetry_group_IT_number 2
_symmetry_cell_setting 'triclinic'
loop_
_space_group_symop_operation_xyz
x,y,z
-x,-y,-z
loop_
_atom_site_type_symbol
_atom_site_label
_atom_site_fract_x
_atom_site_fract_y
_atom_site_fract_z
Si Si1 0.384583 0.777404 0.062241
Si Si2 0.884603 0.504880 0.507439
Si Si3 0.449117 0.747970 0.660462
Si Si4 0.602748 0.864772 0.781941
Si Si5 0.905516 0.987464 0.834353
Si Si6 0.811419 0.772730 0.284705
Si Si7 0.021983 0.722264 0.061049
O O1 0.233076 0.900818 0.179632
O O2 0.406198 0.921929 0.211038
O O3 0.500000 0.500000 0.000000
O O4 0.392277 0.795132 0.871312
O O5 0.765333 0.630491 0.714103
O O6 0.798408 0.681077 0.427514
O O7 0.000000 0.500000 0.500000
O O8 0.962026 0.225722 0.374582
O O9 0.500000 0.500000 0.500000
O O10 0.562980 0.759409 0.637031
O O11 0.334148 0.964218 0.636501
O O12 0.500000 0.000000 0.000000
O O13 0.896276 0.205971 0.905972
O O14 0.926538 0.868996 0.970011
O O15 0.923196 0.789351 0.258300
O O16 0.863343 0.571265 0.074038
#
# Coordination Sequence:
#
# PCOD8006375 Si02
#       7
#     2   2   2   2   2   2   2
#     4  11  24  44  67  96 140 182 225 277 348 407
#     4  11  23  42  68  96 132 171 225 278 335 406
#     4  11  26  43  67  94 138 178 235 279 327 406
#     4  10  25  46  67  95 137 183 219 277 352 406
#     4  10  20  39  68  96 130 168 222 278 332 402
#     4  10  22  39  65  94 132 173 223 278 336 391
#     4   9  20  38  65  98 128 167 215 280 339 389
#
# _framework density 22.702324000000001
#
# number of rings (size 3 to 8) (size 9 to 14) (size 15 to 20)
#    0.000    1.714    2.857    0.000    6.000    1.714 
#    2.571    0.714    0.000    0.000    0.000    0.000 
#    0.000    0.000    0.000    0.000    0.000    0.000 
#
# Total GULP energy -173437.162619 kJ/mol
# GULP energy per Si atom -12388.368759 kJ/mol
# Density = 2.265065 g / cm^3
# Si number density = 22.702324 Si / 1000 Ang^3
#
#
#
# Elastic Constant Matrix: (Units=GPa)
#
#
# Indices 1 2 3 4 5 6 
#
# 1 172.4865 50.8612 49.0121 38.8302 4.2560 7.0657
# 2 50.8612 108.5048 26.2954 41.2213 1.1150 -2.3097
# 3 49.0121 26.2954 92.9607 34.5983 -9.9074 -6.0686
# 4 38.8302 41.2213 34.5983 39.4975 0.6945 -0.3674
# 5 4.2560 1.1150 -9.9074 0.6945 43.4765 13.7785
# 6 7.0657 -2.3097 -6.0686 -0.3674 13.7785 34.1357
#
#
#
# Elastic Compliance Matrix: (Units=1/GPa)
#
#
# Indices 1 2 3 4 5 6 
#
# 1 0.007976 -0.001682 -0.002457 -0.003941 -0.000600 -0.002002
# 2 -0.001682 0.016051 0.003108 -0.017808 0.000203 0.001713
# 3 -0.002457 0.003108 0.017875 -0.016532 0.003807 0.002182
# 4 -0.003941 -0.017808 -0.016532 0.062309 -0.003529 -0.001233
# 5 -0.000600 0.000203 0.003807 -0.003529 0.027213 -0.010208
# 6 -0.002002 0.001713 0.002182 -0.001233 -0.010208 0.034320
#
#
# Mechanical properties :
#
#
# Convention : Reuss Voigt Hill
#
# Bulk Modulus (GPa) = 25.10145 69.58770 47.34457
# Shear Modulus (GPa) = 27.61100 39.94083 33.77591
#
# Velocity S-wave (km/s) = 3.49122 4.19898 3.86135
# Velocity P-wave (km/s) = 5.22802 7.36393 6.38591
#
# Compressibility (1/GPa) = 0.03983834
#
# Stress axis : x y z
#
# Youngs Moduli (GPa) = 125.37854 62.30047 55.94499
#
# Poissons Ratio (x) = 0.10482 0.13746
# Poissons Ratio (y) = 0.21094 -0.17387
# Poissons Ratio (z) = 0.30807 -0.19362
#
# Static dielectric constant tensor:
#      x y z
#    x 4.576890 0.254770 -0.071960 
#    y 0.254770 4.023850 0.314590 
#    z -0.071960 0.314590 3.763790 
# 
# 
# High freq. dielectric constant tensor:
#      x y z
#    x 1.905000 0.010740 -0.007610 
#    y 0.010740 1.884440 0.026950 
#    z -0.007610 0.026950 1.891910 
# 
# From -- ./inp_files/296077.got.cif
#   From: 2010.06.25/outbox.cif.g09.slc.cpg/sg2_149_cif.got.tgz:296077.got - 2010.06.27 13:26:56.
