data_PCOD8006983
_publ_section_title
;
Structure prediction by ZEFSAII (Michael W. Deem and Ramdas Pophale) SiO2 
 PCOD8006983
Probable space group: P -1
;
_chemical_formula_sum "Si O2"
_cell_formula_units_Z 16
_cell_length_a 11.756891
_cell_length_b 11.817236
_cell_length_c 12.495474
_cell_angle_alpha 48.989283
_cell_angle_beta 100.947142
_cell_angle_gamma 61.680787
_cell_volume 756.860569
_symmetry_space_group_name_H-M "P -1"
_symmetry_group_IT_number 2
_symmetry_cell_setting 'triclinic'
loop_
_space_group_symop_operation_xyz
x,y,z
-x,-y,-z
loop_
_atom_site_type_symbol
_atom_site_label
_atom_site_fract_x
_atom_site_fract_y
_atom_site_fract_z
Si Si1 0.400469 0.792683 0.063138
Si Si2 0.439169 0.262718 0.663739
Si Si3 0.381670 0.988155 0.537177
Si Si4 0.975364 0.203326 0.980047
Si Si5 0.562792 0.815417 0.896564
Si Si6 0.530746 0.620696 0.625049
Si Si7 0.968465 0.535612 0.097349
Si Si8 0.974461 0.173180 0.750276
O O1 0.413327 0.874535 0.124709
O O2 0.480163 0.545066 0.259747
O O3 0.542107 0.714133 0.047961
O O4 0.178374 0.025295 0.829659
O O5 0.507211 0.299929 0.555725
O O6 0.217783 0.532005 0.498738
O O7 0.435491 0.095970 0.726990
O O8 0.486894 0.824493 0.766162
O O9 0.373404 0.863038 0.525859
O O10 0.500000 0.000000 0.500000
O O11 0.162322 0.269343 0.354710
O O12 0.742255 0.464429 0.795084
O O13 0.082618 0.239938 0.018569
O O14 0.022362 0.131243 0.909852
O O15 0.055471 0.970456 0.200191
O O16 0.791365 0.615712 0.051990
O O17 0.000000 0.500000 0.000000
#
# Coordination Sequence:
#
# PCOD8006983 Si02
#       8
#     2   2   2   2   2   2   2   2
#     4  11  25  40  58  92 132 158 195 247 315 360
#     4  11  21  39  64  90 122 161 210 242 293 364
#     4  12  21  42  65  90 115 155 212 251 296 355
#     4   9  17  34  59  90 118 149 202 251 294 342
#     4  12  26  40  60  93 127 161 196 252 309 359
#     4  10  20  40  66  90 118 161 205 256 292 354
#     4  12  22  37  63  90 119 154 204 256 298 353
#     4   9  20  36  59  85 118 161 196 243 296 354
#
# _framework density 21.139956999999999
#
# number of rings (size 3 to 8) (size 9 to 14) (size 15 to 20)
#    0.000    1.250    3.750    3.000    0.000    4.000 
#    0.000    0.625    0.000    0.000    0.000    0.000 
#    0.000    0.000    0.000    0.000    0.000    0.000 
#
# Total GULP energy -198432.552401 kJ/mol
# GULP energy per Si atom -12402.034525 kJ/mol
# Density = 2.109184 g / cm^3
# Si number density = 21.139957 Si / 1000 Ang^3
#
#
#
# Elastic Constant Matrix: (Units=GPa)
#
#
# Indices 1 2 3 4 5 6 
#
# 1 112.8640 41.5275 29.9029 7.2029 -2.0125 -20.8112
# 2 41.5275 98.0215 21.2703 5.5163 -4.7672 -1.3040
# 3 29.9029 21.2703 68.9212 2.3331 7.3215 -16.7447
# 4 7.2029 5.5163 2.3331 38.7473 -9.1797 2.7597
# 5 -2.0125 -4.7672 7.3215 -9.1797 31.1187 1.0419
# 6 -20.8112 -1.3040 -16.7447 2.7597 1.0419 26.6556
#
#
#
# Elastic Compliance Matrix: (Units=1/GPa)
#
#
# Indices 1 2 3 4 5 6 
#
# 1 0.012921 -0.004856 -0.001793 -0.002357 -0.000483 0.008987
# 2 -0.004856 0.013083 -0.003588 0.000318 0.002814 -0.005549
# 3 -0.001793 -0.003588 0.019982 -0.002733 -0.006559 0.011516
# 4 -0.002357 0.000318 -0.002733 0.029073 0.009347 -0.006917
# 5 -0.000483 0.002814 -0.006559 0.009347 0.037062 -0.006776
# 6 0.008987 -0.005549 0.011516 -0.006917 -0.006776 0.052476
#
#
# Mechanical properties :
#
#
# Convention : Reuss Voigt Hill
#
# Bulk Modulus (GPa) = 39.19898 51.68977 45.44437
# Shear Modulus (GPa) = 25.82968 31.77807 28.80387
#
# Velocity S-wave (km/s) = 3.49928 3.88135 3.69525
# Velocity P-wave (km/s) = 5.90842 6.67763 6.30477
#
# Compressibility (1/GPa) = 0.02551087
#
# Stress axis : x y z
#
# Youngs Moduli (GPa) = 77.39312 76.43462 50.04554
#
# Poissons Ratio (x) = 0.37119 0.08972
# Poissons Ratio (y) = 0.37585 0.17958
# Poissons Ratio (z) = 0.13875 0.27428
#
# Static dielectric constant tensor:
#      x y z
#    x 3.798050 0.128910 0.170020 
#    y 0.128910 4.107190 -0.173860 
#    z 0.170020 -0.173860 3.811660 
# 
# 
# High freq. dielectric constant tensor:
#      x y z
#    x 1.816610 0.008620 0.014790 
#    y 0.008620 1.828830 -0.014160 
#    z 0.014790 -0.014160 1.819710 
# 
# From -- ./inp_files/308019.got.cif
#   From: 2010.06.25/outbox.cif.g09.slc.cpg/sg2_155_cif.got.tgz:308019.got - 2010.06.27 13:26:56.
