data_PCOD8006634
_publ_section_title
;
Structure prediction by ZEFSAII (Michael W. Deem and Ramdas Pophale) SiO2 
 PCOD8006634
Probable space group: P -1
;
_chemical_formula_sum "Si O2"
_cell_formula_units_Z 16
_cell_length_a 13.437920
_cell_length_b 6.630192
_cell_length_c 14.157005
_cell_angle_alpha 65.315543
_cell_angle_beta 122.277773
_cell_angle_gamma 75.326076
_cell_volume 760.209415
_symmetry_space_group_name_H-M "P -1"
_symmetry_group_IT_number 2
_symmetry_cell_setting 'triclinic'
loop_
_space_group_symop_operation_xyz
x,y,z
-x,-y,-z
loop_
_atom_site_type_symbol
_atom_site_label
_atom_site_fract_x
_atom_site_fract_y
_atom_site_fract_z
Si Si1 0.943123 0.937766 0.071465
Si Si2 0.173197 0.132797 0.745447
Si Si3 0.411649 0.896026 0.437659
Si Si4 0.451309 0.375064 0.636726
Si Si5 0.125735 0.298032 0.316609
Si Si6 0.182040 0.378341 0.516560
Si Si7 0.852075 0.311210 0.133943
Si Si8 0.308088 0.077430 0.026967
O O1 0.070822 0.618036 0.232076
O O2 0.894366 0.173038 0.079103
O O3 0.801608 0.957113 0.963825
O O4 0.000000 0.000000 0.000000
O O5 0.232936 0.198629 0.673634
O O6 0.995275 0.366017 0.623981
O O7 0.198127 0.840365 0.798299
O O8 0.268212 0.105829 0.889668
O O9 0.232762 0.141941 0.310849
O O10 0.500000 0.000000 0.500000
O O11 0.452824 0.637275 0.574418
O O12 0.451158 0.830682 0.360942
O O13 0.280036 0.487109 0.530453
O O14 0.526443 0.202676 0.806699
O O15 0.215514 0.170739 0.486636
O O16 0.994006 0.273119 0.256372
O O17 0.713229 0.645945 0.999791
#
# Coordination Sequence:
#
# PCOD8006634 Si02
#       8
#     2   2   2   2   2   2   2   2
#     4  10  23  35  61  91 128 163 211 263 305 368
#     4  10  22  43  68  90 125 159 219 270 307 367
#     4  11  25  40  63  91 128 171 208 249 312 385
#     4  11  26  42  63  93 134 164 205 261 315 374
#     4  11  22  39  62  94 123 160 219 254 309 377
#     4  11  21  44  65  94 124 164 211 271 309 369
#     4  10  20  40  62  90 124 164 207 264 308 369
#     4  10  23  41  60  93 126 169 207 256 318 376
#
# _framework density 21.046834
#
# number of rings (size 3 to 8) (size 9 to 14) (size 15 to 20)
#    0.000    1.500    5.000    0.750    5.250    3.000 
#    2.250    0.625    0.000    0.000    0.000    0.000 
#    0.000    0.000    0.000    0.000    0.000    0.000 
#
# Total GULP energy -198289.930314 kJ/mol
# GULP energy per Si atom -12393.120645 kJ/mol
# Density = 2.099893 g / cm^3
# Si number density = 21.046834 Si / 1000 Ang^3
#
#
#
# Elastic Constant Matrix: (Units=GPa)
#
#
# Indices 1 2 3 4 5 6 
#
# 1 90.0635 32.4390 21.2670 2.6692 -17.7145 9.6558
# 2 32.4390 122.5694 38.5737 -1.4410 -13.5763 22.4339
# 3 21.2670 38.5737 94.9551 6.0355 -6.3917 4.0336
# 4 2.6692 -1.4410 6.0355 19.0245 -1.7664 -2.5887
# 5 -17.7145 -13.5763 -6.3917 -1.7664 34.0617 -3.7078
# 6 9.6558 22.4339 4.0336 -2.5887 -3.7078 28.8778
#
#
#
# Elastic Compliance Matrix: (Units=1/GPa)
#
#
# Indices 1 2 3 4 5 6 
#
# 1 0.013619 -0.002094 -0.001648 -0.001307 0.005644 -0.002090
# 2 -0.002094 0.011509 -0.003859 0.001589 0.002063 -0.007295
# 3 -0.001648 -0.003859 0.012650 -0.003887 -0.000068 0.001425
# 4 -0.001307 0.001589 -0.003887 0.055027 0.002624 0.005015
# 5 0.005644 0.002063 -0.000068 0.002624 0.033352 0.001037
# 6 -0.002090 -0.007295 0.001425 0.005015 0.001037 0.041378
#
#
# Mechanical properties :
#
#
# Convention : Reuss Voigt Hill
#
# Bulk Modulus (GPa) = 44.29113 54.68303 49.48708
# Shear Modulus (GPa) = 26.27938 30.74667 28.51302
#
# Velocity S-wave (km/s) = 3.53741 3.82628 3.68467
# Velocity P-wave (km/s) = 6.14606 6.74971 6.45495
#
# Compressibility (1/GPa) = 0.02257788
#
# Stress axis : x y z
#
# Youngs Moduli (GPa) = 73.42466 86.88478 79.05160
#
# Poissons Ratio (x) = 0.18189 0.13029
# Poissons Ratio (y) = 0.15372 0.30505
# Poissons Ratio (z) = 0.12101 0.33528
#
# Static dielectric constant tensor:
#      x y z
#    x 3.989080 -0.017270 -0.280470 
#    y -0.017270 4.083800 -0.091820 
#    z -0.280470 -0.091820 4.181600 
# 
# 
# High freq. dielectric constant tensor:
#      x y z
#    x 1.823480 0.009820 -0.005460 
#    y 0.009820 1.829330 0.003080 
#    z -0.005460 0.003080 1.813780 
# 
# From -- ./inp_files/525264.got.cif
#   From: 2010.06.25/outbox.cif.g09.slc.cpg/sg2_263_cif.got.tgz:525264.got - 2010.06.27 13:26:56.
