data_PCOD8006022
_publ_section_title
;
Structure prediction by ZEFSAII (Michael W. Deem and Ramdas Pophale) SiO2 
 PCOD8006022
Probable space group: P -1
;
_chemical_formula_sum "Si O2"
_cell_formula_units_Z 16
_cell_length_a 8.310609
_cell_length_b 8.939923
_cell_length_c 12.904042
_cell_angle_alpha 129.734958
_cell_angle_beta 97.779507
_cell_angle_gamma 70.462340
_cell_volume 690.736379
_symmetry_space_group_name_H-M "P -1"
_symmetry_group_IT_number 2
_symmetry_cell_setting 'triclinic'
loop_
_space_group_symop_operation_xyz
x,y,z
-x,-y,-z
loop_
_atom_site_type_symbol
_atom_site_label
_atom_site_fract_x
_atom_site_fract_y
_atom_site_fract_z
Si Si1 0.308695 0.104743 0.573393
Si Si2 0.200128 0.234276 0.843987
Si Si3 0.724436 0.660126 0.695569
Si Si4 0.677715 0.558876 0.410773
Si Si5 0.189184 0.655068 0.109506
Si Si6 0.295360 0.698887 0.354198
Si Si7 0.169175 0.974903 0.069371
Si Si8 0.655543 0.147836 0.171592
O O1 0.311420 0.140135 0.711447
O O2 0.226256 0.322355 0.603128
O O3 0.500000 0.000000 0.500000
O O4 0.203932 0.944367 0.472877
O O5 0.997173 0.300722 0.834219
O O6 0.242198 0.069968 0.866349
O O7 0.254956 0.429483 0.966399
O O8 0.708725 0.616219 0.554797
O O9 0.808295 0.441526 0.665842
O O10 0.541166 0.781605 0.782632
O O11 0.842345 0.802550 0.786840
O O12 0.476508 0.631749 0.399560
O O13 0.748192 0.313338 0.289591
O O14 0.318599 0.659892 0.215863
O O15 0.190607 0.820944 0.097814
O O16 0.330428 0.881542 0.964566
O O17 0.000000 0.000000 0.000000
#
# Coordination Sequence:
#
# PCOD8006022 Si02
#       8
#     2   2   2   2   2   2   2   2
#     4  10  20  39  64  95 128 164 216 275 322 375
#     4  11  23  41  66  93 133 180 216 269 329 393
#     4  11  23  42  70  98 131 174 218 271 329 388
#     4  10  21  41  67 100 133 164 218 274 325 385
#     4  11  25  42  63  93 136 177 219 263 333 400
#     4  10  21  40  67  98 132 172 215 269 329 391
#     4  12  25  44  64  94 134 171 221 269 323 391
#     4  11  21  42  69  97 130 173 222 268 327 388
#
# _framework density 23.163684
#
# number of rings (size 3 to 8) (size 9 to 14) (size 15 to 20)
#    0.000    1.250    1.250    6.375    1.750    2.500 
#    0.000    6.250    0.000    0.000    0.000    0.000 
#    0.000    0.000    0.000    0.000    0.000    0.000 
#
# Total GULP energy -198383.911708 kJ/mol
# GULP energy per Si atom -12398.994482 kJ/mol
# Density = 2.311096 g / cm^3
# Si number density = 23.163684 Si / 1000 Ang^3
#
#
#
# Elastic Constant Matrix: (Units=GPa)
#
#
# Indices 1 2 3 4 5 6 
#
# 1 34.1830 26.8885 33.7521 3.3716 10.2867 10.9950
# 2 26.8885 196.4881 80.8448 10.5694 32.8771 42.0515
# 3 33.7521 80.8448 170.9844 -5.6439 33.2015 29.1821
# 4 3.3716 10.5694 -5.6439 58.5622 10.1149 10.3300
# 5 10.2867 32.8771 33.2015 10.1149 39.0844 4.2902
# 6 10.9950 42.0515 29.1821 10.3300 4.2902 24.2653
#
#
#
# Elastic Compliance Matrix: (Units=1/GPa)
#
#
# Indices 1 2 3 4 5 6 
#
# 1 0.039101 -0.000309 -0.004855 0.000012 -0.004756 -0.010506
# 2 -0.000309 0.009687 -0.000495 0.002127 -0.006461 -0.015815
# 3 -0.004855 -0.000495 0.010224 0.004301 -0.007026 -0.009827
# 4 0.000012 0.002127 0.004301 0.021598 -0.009233 -0.016427
# 5 -0.004756 -0.006461 -0.007026 -0.009233 0.038553 0.018915
# 6 -0.010506 -0.015815 -0.009827 -0.016427 0.018915 0.088845
#
#
# Mechanical properties :
#
#
# Convention : Reuss Voigt Hill
#
# Bulk Modulus (GPa) = 20.96757 76.06958 48.51857
# Shear Modulus (GPa) = 21.25617 41.72707 31.49162
#
# Velocity S-wave (km/s) = 3.03256 4.24890 3.69117
# Velocity P-wave (km/s) = 4.61882 7.54865 6.25762
#
# Compressibility (1/GPa) = 0.04769271
#
# Stress axis : x y z
#
# Youngs Moduli (GPa) = 25.57469 103.23565 97.80569
#
# Poissons Ratio (x) = 0.03195 0.47486
# Poissons Ratio (y) = 0.00791 0.04842
# Poissons Ratio (z) = 0.12417 0.05111
#
# Static dielectric constant tensor:
#      x y z
#    x 3.942810 0.493500 0.260340 
#    y 0.493500 5.059060 0.500580 
#    z 0.260340 0.500580 4.575230 
# 
# 
# High freq. dielectric constant tensor:
#      x y z
#    x 1.883180 0.022530 0.010070 
#    y 0.022530 1.938920 0.007720 
#    z 0.010070 0.007720 1.932720 
# 
# From -- ./inp_files/383533.got.cif
#   From: 2010.06.25/outbox.cif.g09.slc.cpg/sg2_192_cif.got.tgz:383533.got - 2010.06.27 13:26:56.
