data_PCOD8006799
_publ_section_title
;
Structure prediction by ZEFSAII (Michael W. Deem and Ramdas Pophale) SiO2 
 PCOD8006799
Probable space group: P -1
;
_chemical_formula_sum "Si O2"
_cell_formula_units_Z 14
_cell_length_a 12.425324
_cell_length_b 8.777787
_cell_length_c 21.197280
_cell_angle_alpha 135.566449
_cell_angle_beta 28.192348
_cell_angle_gamma 117.265962
_cell_volume 654.197969
_symmetry_space_group_name_H-M "P -1"
_symmetry_group_IT_number 2
_symmetry_cell_setting 'triclinic'
loop_
_space_group_symop_operation_xyz
x,y,z
-x,-y,-z
loop_
_atom_site_type_symbol
_atom_site_label
_atom_site_fract_x
_atom_site_fract_y
_atom_site_fract_z
Si Si1 0.140956 0.655088 0.957396
Si Si2 0.364332 0.441859 0.246948
Si Si3 0.168747 0.103385 0.300565
Si Si4 0.406545 0.554442 0.992664
Si Si5 0.885484 0.220104 0.247401
Si Si6 0.590388 0.370339 0.316408
Si Si7 0.609876 0.901280 0.110454
O O1 0.350972 0.622881 0.892660
O O2 0.294445 0.562245 0.783816
O O3 0.000000 0.500000 0.000000
O O4 0.904530 0.950374 0.164970
O O5 0.311616 0.211551 0.214630
O O6 0.355815 0.500772 0.194345
O O7 0.140044 0.690942 0.472096
O O8 0.315391 0.030837 0.271243
O O9 0.184427 0.853975 0.187980
O O10 0.308531 0.357477 0.969431
O O11 0.500000 0.500000 0.000000
O O12 0.757134 0.353094 0.286350
O O13 0.717296 0.406166 0.447030
O O14 0.185011 0.167891 0.074497
O O15 0.614837 0.099121 0.214545
#
# Coordination Sequence:
#
# PCOD8006799 Si02
#       7
#     2   2   2   2   2   2   2
#     4  11  24  42  66  93 130 161 206 264 312 369
#     4  11  23  41  65  91 127 171 202 260 312 370
#     4  10  22  43  62  93 124 166 213 248 314 372
#     4  10  24  39  62  92 124 165 209 259 303 366
#     4  10  22  41  65  92 123 168 209 256 313 370
#     4  10  22  41  65  92 122 167 213 254 310 375
#     4  10  20  40  64  91 126 163 204 263 310 366
#
# _framework density 21.40025
#
# number of rings (size 3 to 8) (size 9 to 14) (size 15 to 20)
#    0.000    1.714    2.857    2.143    4.000    7.429 
#    2.571    0.000    0.000    0.000    0.000    0.000 
#    0.000    0.000    0.000    0.000    0.000    0.000 
#
# Total GULP energy -173543.610148 kJ/mol
# GULP energy per Si atom -12395.972153 kJ/mol
# Density = 2.135154 g / cm^3
# Si number density = 21.400250 Si / 1000 Ang^3
#
#
#
# Elastic Constant Matrix: (Units=GPa)
#
#
# Indices 1 2 3 4 5 6 
#
# 1 59.3204 26.0105 21.5483 -13.5274 10.6449 -12.7466
# 2 26.0105 172.9385 69.0883 18.1541 22.8964 -15.4013
# 3 21.5483 69.0883 138.6257 7.3637 19.8192 -3.9528
# 4 -13.5274 18.1541 7.3637 26.1706 -1.2906 2.6623
# 5 10.6449 22.8964 19.8192 -1.2906 34.7836 -3.6036
# 6 -12.7466 -15.4013 -3.9528 2.6623 -3.6036 24.4147
#
#
#
# Elastic Compliance Matrix: (Units=1/GPa)
#
#
# Indices 1 2 3 4 5 6 
#
# 1 0.024811 -0.003194 -0.002420 0.014720 -0.002680 0.008546
# 2 -0.003194 0.009041 -0.003048 -0.007617 -0.003114 0.003913
# 3 -0.002420 -0.003048 0.009575 -0.001786 -0.002970 -0.001879
# 4 0.014720 -0.007617 -0.001786 0.052028 0.003186 -0.002612
# 5 -0.002680 -0.003114 -0.002970 0.003186 0.033508 0.000754
# 6 0.008546 0.003913 -0.001879 -0.002612 0.000754 0.047981
#
#
# Mechanical properties :
#
#
# Convention : Reuss Voigt Hill
#
# Bulk Modulus (GPa) = 38.31003 67.13097 52.72050
# Shear Modulus (GPa) = 24.63442 34.02294 29.32868
#
# Velocity S-wave (km/s) = 3.39651 3.99160 3.70602
# Velocity P-wave (km/s) = 5.77254 7.25818 6.55757
#
# Compressibility (1/GPa) = 0.02610282
#
# Stress axis : x y z
#
# Youngs Moduli (GPa) = 40.30430 110.61055 104.44282
#
# Poissons Ratio (x) = 0.35332 0.25273
# Poissons Ratio (y) = 0.12874 0.31832
# Poissons Ratio (z) = 0.09753 0.33712
#
# Static dielectric constant tensor:
#      x y z
#    x 3.603480 -0.056090 0.037220 
#    y -0.056090 4.272220 0.192590 
#    z 0.037220 0.192590 4.102960 
# 
# 
# High freq. dielectric constant tensor:
#      x y z
#    x 1.822500 -0.009820 0.005850 
#    y -0.009820 1.845560 0.011380 
#    z 0.005850 0.011380 1.842600 
# 
# From -- ./inp_files/390007.got.cif
#   From: 2010.06.25/outbox.cif.g09.slc.cpg/sg2_196_cif.got.tgz:390007.got - 2010.06.27 13:26:56.
