data_PCOD8006768
_publ_section_title
;
Structure prediction by ZEFSAII (Michael W. Deem and Ramdas Pophale) SiO2 
 PCOD8006768
Probable space group: P -1
;
_chemical_formula_sum "Si O2"
_cell_formula_units_Z 16
_cell_length_a 6.465409
_cell_length_b 11.072439
_cell_length_c 14.174391
_cell_angle_alpha 62.083946
_cell_angle_beta 89.541703
_cell_angle_gamma 120.279978
_cell_volume 733.636015
_symmetry_space_group_name_H-M "P -1"
_symmetry_group_IT_number 2
_symmetry_cell_setting 'triclinic'
loop_
_space_group_symop_operation_xyz
x,y,z
-x,-y,-z
loop_
_atom_site_type_symbol
_atom_site_label
_atom_site_fract_x
_atom_site_fract_y
_atom_site_fract_z
Si Si1 0.967528 0.597102 0.166692
Si Si2 0.748991 0.512103 0.683154
Si Si3 0.161132 0.039361 0.204564
Si Si4 0.670432 0.933989 0.521970
Si Si5 0.762914 0.796845 0.162561
Si Si6 0.105453 0.192453 0.540714
Si Si7 0.486427 0.858719 0.992987
Si Si8 0.418670 0.324059 0.235386
O O1 0.936194 0.729051 0.172580
O O2 0.711830 0.467908 0.156145
O O3 0.027397 0.507210 0.281288
O O4 0.200915 0.691762 0.057469
O O5 0.489046 0.332264 0.728850
O O6 0.802270 0.616491 0.547225
O O7 0.705053 0.594188 0.742849
O O8 0.242635 0.215517 0.186167
O O9 0.414161 0.079589 0.136383
O O10 0.929749 0.970563 0.156919
O O11 0.061585 0.887614 0.335538
O O12 0.676911 0.844422 0.457204
O O13 0.564641 0.801701 0.654128
O O14 0.500000 0.000000 0.500000
O O15 0.947114 0.101010 0.479644
O O16 0.681774 0.825947 0.051378
O O17 0.500000 0.000000 0.000000
#
# Coordination Sequence:
#
# PCOD8006768 Si02
#       8
#     2   2   2   2   2   2   2   2
#     4  10  20  40  64  84 115 163 196 236 294 352
#     4   9  19  39  62  85 119 163 188 225 303 356
#     4  11  22  39  59  92 121 150 200 250 292 336
#     4   9  16  32  55  82 120 164 186 220 298 353
#     4  10  22  41  64  83 114 158 201 242 293 354
#     4   9  19  34  54  87 125 149 189 244 280 348
#     4  11  23  42  65  82 111 162 203 241 299 353
#     4   9  20  36  57  90 122 145 193 247 288 351
#
# _framework density 21.809180000000001
#
# number of rings (size 3 to 8) (size 9 to 14) (size 15 to 20)
#    0.000    2.250    1.250    1.875    0.000    1.000 
#    6.750    6.250    0.000    0.000    0.000    0.000 
#    0.000    0.000    0.000    0.000    0.000    0.000 
#
# Total GULP energy -198219.960448 kJ/mol
# GULP energy per Si atom -12388.747528 kJ/mol
# Density = 2.175954 g / cm^3
# Si number density = 21.809180 Si / 1000 Ang^3
#
#
#
# Elastic Constant Matrix: (Units=GPa)
#
#
# Indices 1 2 3 4 5 6 
#
# 1 117.1822 29.7505 36.9944 -4.7476 7.4226 -7.8953
# 2 29.7505 109.2667 22.8292 -9.2169 -10.0121 19.4340
# 3 36.9944 22.8292 120.5612 -12.0225 -21.3821 -2.8981
# 4 -4.7476 -9.2169 -12.0225 24.1551 -3.5352 -3.8965
# 5 7.4226 -10.0121 -21.3821 -3.5352 28.0308 -12.0398
# 6 -7.8953 19.4340 -2.8981 -3.8965 -12.0398 33.2452
#
#
#
# Elastic Compliance Matrix: (Units=1/GPa)
#
#
# Indices 1 2 3 4 5 6 
#
# 1 0.011126 -0.003201 -0.004190 -0.001903 -0.006915 0.001421
# 2 -0.003201 0.011786 -0.000813 0.002654 0.001882 -0.006728
# 3 -0.004190 -0.000813 0.013550 0.009050 0.015438 0.007313
# 4 -0.001903 0.002654 0.009050 0.051418 0.020021 0.012063
# 5 -0.006915 0.001882 0.015438 0.020021 0.062630 0.023631
# 6 0.001421 -0.006728 0.007313 0.012063 0.023631 0.044959
#
#
# Mechanical properties :
#
#
# Convention : Reuss Voigt Hill
#
# Bulk Modulus (GPa) = 49.86279 58.46205 54.16242
# Shear Modulus (GPa) = 22.87686 34.24863 28.56275
#
# Velocity S-wave (km/s) = 3.24227 3.96710 3.62286
# Velocity P-wave (km/s) = 6.07695 6.91724 6.51066
#
# Compressibility (1/GPa) = 0.02005504
#
# Stress axis : x y z
#
# Youngs Moduli (GPa) = 89.88179 84.84504 73.79864
#
# Poissons Ratio (x) = 0.27156 0.30921
# Poissons Ratio (y) = 0.28768 0.06000
# Poissons Ratio (z) = 0.37660 0.06898
#
# Static dielectric constant tensor:
#      x y z
#    x 2.450010 0.174680 1.276520 
#    y 0.174680 4.109710 -0.569780 
#    z 1.276520 -0.569780 2.816450 
# 
# 
# High freq. dielectric constant tensor:
#      x y z
#    x 1.849810 0.001220 -0.015210 
#    y 0.001220 1.845480 -0.035240 
#    z -0.015210 -0.035240 1.847870 
# 
# From -- ./inp_files/482739.got.cif
#   From: 2010.06.25/outbox.cif.g09.slc.cpg/sg2_242_cif.got.tgz:482739.got - 2010.06.27 13:26:56.
