data_PCOD8006544
_publ_section_title
;
Structure prediction by ZEFSAII (Michael W. Deem and Ramdas Pophale) SiO2 
 PCOD8006544
Probable space group: P -1
;
_chemical_formula_sum "Si O2"
_cell_formula_units_Z 14
_cell_length_a 18.544155
_cell_length_b 15.026988
_cell_length_c 8.701824
_cell_angle_alpha 51.513590
_cell_angle_beta 53.247947
_cell_angle_gamma 20.218091
_cell_volume 655.041492
_symmetry_space_group_name_H-M "P -1"
_symmetry_group_IT_number 2
_symmetry_cell_setting 'triclinic'
loop_
_space_group_symop_operation_xyz
x,y,z
-x,-y,-z
loop_
_atom_site_type_symbol
_atom_site_label
_atom_site_fract_x
_atom_site_fract_y
_atom_site_fract_z
Si Si1 0.904083 0.732789 0.347725
Si Si2 0.884747 0.460265 0.246827
Si Si3 0.573648 0.684948 0.202409
Si Si4 0.276189 0.731728 0.969445
Si Si5 0.773474 0.825000 0.095847
Si Si6 0.230772 0.970524 0.528462
Si Si7 0.120266 0.709975 0.019638
O O1 0.750710 0.901843 0.213529
O O2 0.000000 0.500000 0.500000
O O3 0.766811 0.929423 0.456937
O O4 0.090083 0.612744 0.210800
O O5 0.674431 0.646940 0.246688
O O6 0.817319 0.640743 0.248636
O O7 0.014785 0.221717 0.438311
O O8 0.026359 0.342488 0.053225
O O9 0.428095 0.758058 0.392010
O O10 0.757897 0.414807 0.161913
O O11 0.436216 0.916655 0.011653
O O12 0.244107 0.834068 0.739257
O O13 0.245881 0.632793 0.078145
O O14 0.500000 0.500000 0.000000
O O15 0.106380 0.970947 0.051747
#
# Coordination Sequence:
#
# PCOD8006544 Si02
#       7
#     2   2   2   2   2   2   2
#     4  11  21  42  65  97 135 172 213 271 316 386
#     4  10  20  40  60  92 138 171 211 260 314 389
#     4  11  23  39  66  96 130 172 215 261 320 392
#     4  10  24  47  70  92 128 169 216 276 322 388
#     4  10  21  37  63  91 135 180 206 255 322 378
#     4  10  24  40  65  98 130 164 221 270 322 364
#     4  10  24  42  68  93 125 174 214 255 340 378
#
# _framework density 21.372693000000002
#
# number of rings (size 3 to 8) (size 9 to 14) (size 15 to 20)
#    0.000    1.714    2.857    0.429    4.000    5.143 
#    0.000    2.857    0.000    0.000    0.000    0.000 
#    0.000    0.000    0.000    0.000    0.000    0.000 
#
# Total GULP energy -173593.765871 kJ/mol
# GULP energy per Si atom -12399.554705 kJ/mol
# Density = 2.132405 g / cm^3
# Si number density = 21.372693 Si / 1000 Ang^3
#
#
#
# Elastic Constant Matrix: (Units=GPa)
#
#
# Indices 1 2 3 4 5 6 
#
# 1 119.3223 49.2844 42.5068 -7.9210 -1.6633 -17.5133
# 2 49.2844 108.7762 46.2592 13.4146 3.4094 -14.8683
# 3 42.5068 46.2592 93.3494 -3.8295 2.3100 -2.5651
# 4 -7.9210 13.4146 -3.8295 36.5115 4.4927 14.6010
# 5 -1.6633 3.4094 2.3100 4.4927 31.0689 -2.5148
# 6 -17.5133 -14.8683 -2.5651 14.6010 -2.5148 46.5705
#
#
#
# Elastic Compliance Matrix: (Units=1/GPa)
#
#
# Indices 1 2 3 4 5 6 
#
# 1 0.011681 -0.004003 -0.003193 0.002672 0.001091 0.002160
# 2 -0.004003 0.015705 -0.006203 -0.009858 0.000457 0.006282
# 3 -0.003193 -0.006203 0.015377 0.005003 -0.001680 -0.003994
# 4 0.002672 -0.009858 0.005003 0.038544 -0.005876 -0.014268
# 5 0.001091 0.000457 -0.001680 -0.005876 0.033502 0.004115
# 6 0.002160 0.006282 -0.003994 -0.014268 0.004115 0.028767
#
#
# Mechanical properties :
#
#
# Convention : Reuss Voigt Hill
#
# Bulk Modulus (GPa) = 62.63669 66.39431 64.51550
# Shear Modulus (GPa) = 28.45821 35.05669 31.75745
#
# Velocity S-wave (km/s) = 3.65296 4.05440 3.85891
# Velocity P-wave (km/s) = 6.86751 7.28354 7.07858
#
# Compressibility (1/GPa) = 0.01596508
#
# Stress axis : x y z
#
# Youngs Moduli (GPa) = 85.60735 63.67510 65.03016
#
# Poissons Ratio (x) = 0.25488 0.20767
# Poissons Ratio (y) = 0.34268 0.40337
# Poissons Ratio (z) = 0.27338 0.39497
#
# Static dielectric constant tensor:
#      x y z
#    x 3.928410 0.042250 0.035650 
#    y 0.042250 3.828710 0.098110 
#    z 0.035650 0.098110 3.819320 
# 
# 
# High freq. dielectric constant tensor:
#      x y z
#    x 1.845020 -0.000670 0.003690 
#    y -0.000670 1.832680 0.006750 
#    z 0.003690 0.006750 1.826910 
# 
# From -- ./inp_files/27261.got.cif
#   From: 2010.06.25/outbox.cif.g09.slc.cpg/sg2_14_cif.got.tgz:27261.got - 2010.06.27 13:26:56.
