data_PCOD8006189
_publ_section_title
;
Structure prediction by ZEFSAII (Michael W. Deem and Ramdas Pophale) SiO2 
 PCOD8006189
Probable space group: P -1
;
_chemical_formula_sum "Si O2"
_cell_formula_units_Z 16
_cell_length_a 12.926050
_cell_length_b 8.777341
_cell_length_c 14.145168
_cell_angle_alpha 32.091479
_cell_angle_beta 112.463451
_cell_angle_gamma 97.875047
_cell_volume 728.732037
_symmetry_space_group_name_H-M "P -1"
_symmetry_group_IT_number 2
_symmetry_cell_setting 'triclinic'
loop_
_space_group_symop_operation_xyz
x,y,z
-x,-y,-z
loop_
_atom_site_type_symbol
_atom_site_label
_atom_site_fract_x
_atom_site_fract_y
_atom_site_fract_z
Si Si1 0.349037 0.506088 0.328661
Si Si2 0.407277 0.532338 0.659858
Si Si3 0.465104 0.557424 0.065659
Si Si4 0.899917 0.978565 0.045372
Si Si5 0.319782 0.237162 0.270417
Si Si6 0.026413 0.351872 0.485644
Si Si7 0.926413 0.278782 0.093890
Si Si8 0.298239 0.231286 0.637720
O O1 0.468180 0.561218 0.307808
O O2 0.311312 0.307045 0.342449
O O3 0.371560 0.315830 0.534402
O O4 0.238254 0.837354 0.132712
O O5 0.433550 0.418101 0.838874
O O6 0.320932 0.377865 0.666133
O O7 0.326615 0.895330 0.434757
O O8 0.439316 0.266540 0.252022
O O9 0.500000 0.500000 0.000000
O O10 0.346432 0.867230 0.866465
O O11 0.924339 0.608298 0.251184
O O12 0.922711 0.115427 0.080152
O O13 0.000000 0.000000 0.000000
O O14 0.206580 0.487325 0.045067
O O15 0.157957 0.340268 0.505319
O O16 0.000000 0.500000 0.500000
O O17 0.021409 0.006832 0.661911
O O18 0.000000 0.500000 0.000000
#
# Coordination Sequence:
#
# PCOD8006189 Si02
#       8
#     2   2   2   2   2   2   2   2
#     4  10  21  39  63  91 129 169 208 250 317 380
#     4  11  24  38  62  97 125 164 212 255 313 373
#     4  11  22  41  62  88 129 167 204 255 315 370
#     4  10  20  39  66  90 123 167 205 255 317 371
#     4  10  21  40  62  86 125 168 206 250 322 374
#     4  10  22  39  63  91 123 167 210 254 324 368
#     4  10  22  40  64  88 121 161 214 262 310 375
#     4  12  22  39  65  92 129 160 212 264 304 374
#
# _framework density 21.955945
#
# number of rings (size 3 to 8) (size 9 to 14) (size 15 to 20)
#    0.000    1.500    2.500    3.750    5.250    0.000 
#    0.000    0.625    0.000    0.000    0.000    0.000 
#    0.000    0.000    0.000    0.000    0.000    0.000 
#
# Total GULP energy -198303.456641 kJ/mol
# GULP energy per Si atom -12393.966040 kJ/mol
# Density = 2.190597 g / cm^3
# Si number density = 21.955945 Si / 1000 Ang^3
#
#
#
# Elastic Constant Matrix: (Units=GPa)
#
#
# Indices 1 2 3 4 5 6 
#
# 1 63.1077 25.1769 30.0057 -9.8063 1.1193 -7.5336
# 2 25.1769 69.6734 29.8840 -3.5780 -6.0775 -3.2707
# 3 30.0057 29.8840 139.8310 -15.7025 7.3849 -5.0591
# 4 -9.8063 -3.5780 -15.7025 31.7089 -12.8604 -6.2165
# 5 1.1193 -6.0775 7.3849 -12.8604 32.3632 -0.6534
# 6 -7.5336 -3.2707 -5.0591 -6.2165 -0.6534 34.1798
#
#
#
# Elastic Compliance Matrix: (Units=1/GPa)
#
#
# Indices 1 2 3 4 5 6 
#
# 1 0.020816 -0.005837 -0.002436 0.006007 0.001223 0.004785
# 2 -0.005837 0.018092 -0.002759 0.000762 0.004537 0.000262
# 3 -0.002436 -0.002759 0.008695 0.002937 -0.001230 0.000997
# 4 0.006007 0.000762 0.002937 0.043754 0.016856 0.010112
# 5 0.001223 0.004537 -0.001230 0.016856 0.038775 0.004329
# 6 0.004785 0.000262 0.000997 0.010112 0.004329 0.032406
#
#
# Mechanical properties :
#
#
# Convention : Reuss Voigt Hill
#
# Bulk Modulus (GPa) = 39.15619 49.19393 44.17506
# Shear Modulus (GPa) = 25.89125 32.15341 29.02233
#
# Velocity S-wave (km/s) = 3.43773 3.83097 3.63966
# Velocity P-wave (km/s) = 5.79914 6.48250 6.15032
#
# Compressibility (1/GPa) = 0.02553875
#
# Stress axis : x y z
#
# Youngs Moduli (GPa) = 48.04018 55.27200 115.01214
#
# Poissons Ratio (x) = 0.32263 0.28020
# Poissons Ratio (y) = 0.28042 0.31728
# Poissons Ratio (z) = 0.11704 0.15248
#
# Static dielectric constant tensor:
#      x y z
#    x 3.862290 -0.051410 0.067900 
#    y -0.051410 3.954470 -0.265150 
#    z 0.067900 -0.265150 4.653340 
# 
# 
# High freq. dielectric constant tensor:
#      x y z
#    x 1.853180 -0.014590 0.007510 
#    y -0.014590 1.832620 -0.007890 
#    z 0.007510 -0.007890 1.890610 
# 
# From -- ./inp_files/208145.got.cif
#   From: 2010.06.25/outbox.cif.g09.slc.cpg/sg2_105_cif.got.tgz:208145.got - 2010.06.27 13:26:56.
