data_PCOD8006048
_publ_section_title
;
Structure prediction by ZEFSAII (Michael W. Deem and Ramdas Pophale) SiO2 
 PCOD8006048
Probable space group: P -1
;
_chemical_formula_sum "Si O2"
_cell_formula_units_Z 16
_cell_length_a 18.381771
_cell_length_b 22.378455
_cell_length_c 13.249058
_cell_angle_alpha 19.599835
_cell_angle_beta 27.520567
_cell_angle_gamma 28.550875
_cell_volume 811.707829
_symmetry_space_group_name_H-M "P -1"
_symmetry_group_IT_number 2
_symmetry_cell_setting 'triclinic'
loop_
_space_group_symop_operation_xyz
x,y,z
-x,-y,-z
loop_
_atom_site_type_symbol
_atom_site_label
_atom_site_fract_x
_atom_site_fract_y
_atom_site_fract_z
Si Si1 0.981594 0.865586 0.824586
Si Si2 0.626120 0.496591 0.670437
Si Si3 0.826519 0.772150 0.520128
Si Si4 0.990453 0.005557 0.194213
Si Si5 0.675357 0.719260 0.448167
Si Si6 0.337103 0.903207 0.655814
Si Si7 0.935566 0.394728 0.333957
Si Si8 0.725254 0.497848 0.938716
O O1 0.978584 0.973537 0.760284
O O2 0.811971 0.817125 0.093939
O O3 0.000000 0.000000 0.500000
O O4 0.127643 0.679540 0.936670
O O5 0.621791 0.624324 0.568837
O O6 0.758030 0.522652 0.384630
O O7 0.678857 0.283328 0.977046
O O8 0.445311 0.553006 0.754502
O O9 0.726901 0.662880 0.750311
O O10 0.939218 0.633277 0.682276
O O11 0.693412 0.937336 0.476052
O O12 0.945591 0.848941 0.180589
O O13 0.797094 0.039538 0.358737
O O14 0.085906 0.798960 0.371764
O O15 0.517343 0.877298 0.430251
O O16 0.742106 0.563082 0.699662
O O17 0.000000 0.500000 0.000000
#
# Coordination Sequence:
#
# PCOD8006048 Si02
#       8
#     2   2   2   2   2   2   2   2
#     4  12  27  43  61  94 130 165 209 264 320 375
#     4  11  21  40  66  95 129 160 212 262 310 376
#     4  11  21  41  68  92 130 163 214 261 308 379
#     4  11  21  42  66  93 126 169 213 255 309 378
#     4  11  23  40  69  92 126 165 212 261 314 376
#     4  10  20  39  65 100 121 160 215 262 308 366
#     4  11  24  40  65  95 128 173 205 255 319 377
#     4  11  24  41  66  96 120 168 212 263 315 371
#
# _framework density 19.711525000000002
#
# number of rings (size 3 to 8) (size 9 to 14) (size 15 to 20)
#    0.000    1.000    3.750    4.875    3.500    3.000 
#    4.500    1.875    0.000    0.000    0.000    0.000 
#    0.000    0.000    0.000    0.000    0.000    0.000 
#
# Total GULP energy -198488.298325 kJ/mol
# GULP energy per Si atom -12405.518645 kJ/mol
# Density = 1.966666 g / cm^3
# Si number density = 19.711525 Si / 1000 Ang^3
#
#
#
# Elastic Constant Matrix: (Units=GPa)
#
#
# Indices 1 2 3 4 5 6 
#
# 1 134.0495 60.6231 62.8205 6.5173 -16.2269 12.5078
# 2 60.6231 140.6367 53.1566 18.5629 -8.9600 -2.7358
# 3 62.8205 53.1566 100.8733 27.8869 6.4875 -3.3780
# 4 6.5173 18.5629 27.8869 28.6299 4.8926 -5.3414
# 5 -16.2269 -8.9600 6.4875 4.8926 36.1280 -0.0416
# 6 12.5078 -2.7358 -3.3780 -5.3414 -0.0416 29.3752
#
#
#
# Elastic Compliance Matrix: (Units=1/GPa)
#
#
# Indices 1 2 3 4 5 6 
#
# 1 0.014513 -0.003060 -0.009658 0.005724 0.006711 -0.006525
# 2 -0.003060 0.009978 -0.002483 -0.003452 0.002015 0.001322
# 3 -0.009658 -0.002483 0.022219 -0.016021 -0.006770 0.003513
# 4 0.005724 -0.003452 -0.016021 0.052840 -0.002558 0.005003
# 5 0.006711 0.002015 -0.006770 -0.002558 0.032751 -0.003867
# 6 -0.006525 0.001322 0.003513 0.005003 -0.003867 0.038252
#
#
# Mechanical properties :
#
#
# Convention : Reuss Voigt Hill
#
# Bulk Modulus (GPa) = 61.32426 80.97332 71.14879
# Shear Modulus (GPa) = 24.22582 32.09056 28.15819
#
# Velocity S-wave (km/s) = 3.50954 4.03924 3.78367
# Velocity P-wave (km/s) = 6.89934 7.93236 7.43381
#
# Compressibility (1/GPa) = 0.01630676
#
# Stress axis : x y z
#
# Youngs Moduli (GPa) = 68.90378 100.22031 45.00694
#
# Poissons Ratio (x) = 0.30672 0.43467
# Poissons Ratio (y) = 0.21087 0.11176
# Poissons Ratio (z) = 0.66547 0.24887
#
# Static dielectric constant tensor:
#      x y z
#    x 4.111380 0.148670 -0.140710 
#    y 0.148670 3.863470 0.066560 
#    z -0.140710 0.066560 3.482180 
# 
# 
# High freq. dielectric constant tensor:
#      x y z
#    x 1.776100 0.006810 -0.013660 
#    y 0.006810 1.783780 0.003280 
#    z -0.013660 0.003280 1.751350 
# 
# From -- ./inp_files/182497.got.cif
#   From: 2010.06.25/outbox.cif.g09.slc.cpg/sg2_92_cif.got.tgz:182497.got - 2010.06.27 13:26:56.
