data_PCOD8006952
_publ_section_title
;
Structure prediction by ZEFSAII (Michael W. Deem and Ramdas Pophale) SiO2 
 PCOD8006952
Probable space group: P -1
;
_chemical_formula_sum "Si O2"
_cell_formula_units_Z 16
_cell_length_a 11.638148
_cell_length_b 12.163255
_cell_length_c 9.231688
_cell_angle_alpha 128.248800
_cell_angle_beta 57.209358
_cell_angle_gamma 88.898606
_cell_volume 727.822487
_symmetry_space_group_name_H-M "P -1"
_symmetry_group_IT_number 2
_symmetry_cell_setting 'triclinic'
loop_
_space_group_symop_operation_xyz
x,y,z
-x,-y,-z
loop_
_atom_site_type_symbol
_atom_site_label
_atom_site_fract_x
_atom_site_fract_y
_atom_site_fract_z
Si Si1 0.253509 0.384280 0.130395
Si Si2 0.841802 0.552917 0.296515
Si Si3 0.427075 0.656972 0.074709
Si Si4 0.208134 0.273820 0.798086
Si Si5 0.079844 0.302238 0.387619
Si Si6 0.836767 0.047943 0.989423
Si Si7 0.810489 0.026689 0.318326
Si Si8 0.338124 0.627203 0.792405
O O1 0.417068 0.331847 0.063799
O O2 0.156011 0.297276 0.175154
O O3 0.117219 0.582589 0.386012
O O4 0.314016 0.309143 0.866298
O O5 0.740991 0.715011 0.391730
O O6 0.823949 0.634159 0.531877
O O7 0.785074 0.425209 0.214671
O O8 0.032646 0.440952 0.055440
O O9 0.353521 0.630225 0.957798
O O10 0.500000 0.500000 0.000000
O O11 0.284654 0.812025 0.384986
O O12 0.221691 0.104124 0.689704
O O13 0.125365 0.120392 0.250900
O O14 0.756688 0.068824 0.220615
O O15 0.712521 0.194445 0.089417
O O16 0.998559 0.051208 0.882308
O O17 0.500000 0.500000 0.500000
#
# Coordination Sequence:
#
# PCOD8006952 Si02
#       8
#     2   2   2   2   2   2   2   2
#     4  10  21  41  66  95 133 172 225 261 331 399
#     4  10  22  40  66  96 133 168 220 268 331 393
#     4  12  26  43  65  99 135 179 223 273 338 395
#     4  10  20  40  65  96 130 172 213 273 332 387
#     4  10  21  40  72  98 127 176 218 276 322 398
#     4  11  24  44  69 101 132 174 229 272 336 397
#     4  11  24  42  70  98 136 173 222 283 330 398
#     4  12  26  46  68  97 136 179 220 275 335 401
#
# _framework density 21.983381999999999
#
# number of rings (size 3 to 8) (size 9 to 14) (size 15 to 20)
#    0.000    1.250    2.500    3.000    1.750    4.000 
#    2.250    1.250    0.000    0.000    0.000    0.000 
#    0.000    0.000    0.000    0.000    0.000    0.000 
#
# Total GULP energy -198247.700391 kJ/mol
# GULP energy per Si atom -12390.481274 kJ/mol
# Density = 2.193335 g / cm^3
# Si number density = 21.983382 Si / 1000 Ang^3
#
#
#
# Elastic Constant Matrix: (Units=GPa)
#
#
# Indices 1 2 3 4 5 6 
#
# 1 82.3412 7.8246 13.3929 5.0341 16.2928 -6.0597
# 2 7.8246 125.2220 23.6352 25.2882 4.5886 -15.6425
# 3 13.3929 23.6352 88.5667 7.1313 6.8913 -10.1907
# 4 5.0341 25.2882 7.1313 33.3382 1.9520 2.8616
# 5 16.2928 4.5886 6.8913 1.9520 29.4545 -2.6945
# 6 -6.0597 -15.6425 -10.1907 2.8616 -2.6945 34.8306
#
#
#
# Elastic Compliance Matrix: (Units=1/GPa)
#
#
# Indices 1 2 3 4 5 6 
#
# 1 0.013990 0.000192 -0.001269 -0.001714 -0.007199 0.001732
# 2 0.000192 0.010537 -0.001592 -0.008082 -0.000388 0.004934
# 3 -0.001269 -0.001592 0.012458 -0.001402 -0.001625 0.002698
# 4 -0.001714 -0.008082 -0.001402 0.037361 -0.000623 -0.007455
# 5 -0.007199 -0.000388 -0.001625 -0.000623 0.038518 0.001129
# 6 0.001732 0.004934 0.002698 -0.007455 0.001129 0.032717
#
#
# Mechanical properties :
#
#
# Convention : Reuss Voigt Hill
#
# Bulk Modulus (GPa) = 31.60109 42.87058 37.23584
# Shear Modulus (GPa) = 30.96594 36.27647 33.62121
#
# Velocity S-wave (km/s) = 3.75721 4.06664 3.91499
# Velocity P-wave (km/s) = 5.76441 6.44933 6.11646
#
# Compressibility (1/GPa) = 0.03164448
#
# Stress axis : x y z
#
# Youngs Moduli (GPa) = 71.48185 94.90382 80.27261
#
# Poissons Ratio (x) = -0.01819 0.10188
# Poissons Ratio (y) = -0.01370 0.12782
# Poissons Ratio (z) = 0.09072 0.15112
#
# Static dielectric constant tensor:
#      x y z
#    x 3.948350 -0.307680 0.061800 
#    y -0.307680 4.231540 -0.177450 
#    z 0.061800 -0.177450 3.873330 
# 
# 
# High freq. dielectric constant tensor:
#      x y z
#    x 1.861120 -0.002170 0.012380 
#    y -0.002170 1.874360 -0.001150 
#    z 0.012380 -0.001150 1.858310 
# 
# From -- ./inp_files/263332.got.cif
#   From: 2010.06.25/outbox.cif.g09.slc.cpg/sg2_132_cif.got.tgz:263332.got - 2010.06.27 13:26:56.
