data_PCOD8006688
_publ_section_title
;
Structure prediction by ZEFSAII (Michael W. Deem and Ramdas Pophale) SiO2 
 PCOD8006688
Probable space group: P -1
;
_chemical_formula_sum "Si O2"
_cell_formula_units_Z 16
_cell_length_a 14.822672
_cell_length_b 11.094265
_cell_length_c 8.511806
_cell_angle_alpha 139.882429
_cell_angle_beta 57.300696
_cell_angle_gamma 121.600170
_cell_volume 742.959496
_symmetry_space_group_name_H-M "P -1"
_symmetry_group_IT_number 2
_symmetry_cell_setting 'triclinic'
loop_
_space_group_symop_operation_xyz
x,y,z
-x,-y,-z
loop_
_atom_site_type_symbol
_atom_site_label
_atom_site_fract_x
_atom_site_fract_y
_atom_site_fract_z
Si Si1 0.584972 0.414410 0.931777
Si Si2 0.219665 0.396696 0.880048
Si Si3 0.697113 0.269558 0.105942
Si Si4 0.475887 0.159995 0.039717
Si Si5 0.148186 0.046469 0.039516
Si Si6 0.653223 0.144163 0.348366
Si Si7 0.961513 0.680934 0.793246
Si Si8 0.760004 0.899134 0.669439
O O1 0.526975 0.350038 0.085581
O O2 0.623585 0.244314 0.632309
O O3 0.500000 0.500000 0.000000
O O4 0.691678 0.573172 0.033362
O O5 0.206044 0.188355 0.609985
O O6 0.256281 0.541009 0.844662
O O7 0.103689 0.407161 0.076858
O O8 0.572539 0.149139 0.064077
O O9 0.774969 0.123977 0.844073
O O10 0.702518 0.301061 0.321957
O O11 0.453951 0.988875 0.761363
O O12 0.365822 0.194282 0.260389
O O13 0.262718 0.993239 0.823185
O O14 0.061812 0.847565 0.911520
O O15 0.118255 0.220122 0.141237
O O16 0.159816 0.124495 0.285193
O O17 0.000000 0.500000 0.500000
#
# Coordination Sequence:
#
# PCOD8006688 Si02
#       8
#     2   2   2   2   2   2   2   2
#     4  11  25  33  56  98 128 168 211 252 300 366
#     4  11  26  38  62  92 124 164 203 260 311 366
#     4   9  21  39  60  90 126 167 208 250 296 369
#     4   9  20  37  58  85 122 174 205 250 300 358
#     4   9  23  44  68  93 119 163 207 262 314 371
#     4  10  20  40  63  86 128 165 209 256 307 362
#     4  11  24  45  69  94 122 158 204 264 325 373
#     4  10  22  41  64  88 126 165 210 251 306 364
#
# _framework density 21.535494
#
# number of rings (size 3 to 8) (size 9 to 14) (size 15 to 20)
#    0.000    2.250    0.000    2.625    8.750    7.500 
#    0.000    4.375    0.000    0.000    0.000    0.000 
#    0.000    0.000    0.000    0.000    0.000    0.000 
#
# Total GULP energy -198280.381882 kJ/mol
# GULP energy per Si atom -12392.523868 kJ/mol
# Density = 2.148648 g / cm^3
# Si number density = 21.535494 Si / 1000 Ang^3
#
#
#
# Elastic Constant Matrix: (Units=GPa)
#
#
# Indices 1 2 3 4 5 6 
#
# 1 104.1749 14.9490 36.6410 4.4556 -4.5783 -12.2303
# 2 14.9490 66.4099 15.1936 -2.2077 -7.3721 2.7284
# 3 36.6410 15.1936 125.8415 -7.2224 -2.2824 1.9271
# 4 4.4556 -2.2077 -7.2224 23.4905 0.8152 0.1589
# 5 -4.5783 -7.3721 -2.2824 0.8152 26.7776 6.4223
# 6 -12.2303 2.7284 1.9271 0.1589 6.4223 21.7515
#
#
#
# Elastic Compliance Matrix: (Units=1/GPa)
#
#
# Indices 1 2 3 4 5 6 
#
# 1 0.012260 -0.002442 -0.003617 -0.003698 -0.000626 0.007732
# 2 -0.002442 0.016680 -0.001043 0.001562 0.005219 -0.004926
# 3 -0.003617 -0.001043 0.009378 0.003474 0.000484 -0.002902
# 4 -0.003698 0.001562 0.003474 0.044526 -0.000607 -0.002729
# 5 -0.000626 0.005219 0.000484 -0.000607 0.041956 -0.013433
# 6 0.007732 -0.004926 -0.002902 -0.002729 -0.013433 0.055183
#
#
# Mechanical properties :
#
#
# Convention : Reuss Voigt Hill
#
# Bulk Modulus (GPa) = 41.46976 47.77705 44.62341
# Shear Modulus (GPa) = 24.72477 29.71343 27.21910
#
# Velocity S-wave (km/s) = 3.39203 3.71852 3.55902
# Velocity P-wave (km/s) = 5.88553 6.37730 6.13634
#
# Compressibility (1/GPa) = 0.02411396
#
# Stress axis : x y z
#
# Youngs Moduli (GPa) = 81.56390 59.95156 106.63052
#
# Poissons Ratio (x) = 0.14643 0.38567
# Poissons Ratio (y) = 0.19922 0.11121
# Poissons Ratio (z) = 0.29501 0.06253
#
# Static dielectric constant tensor:
#      x y z
#    x 4.294240 -0.136000 0.191900 
#    y -0.136000 3.880290 -0.051600 
#    z 0.191900 -0.051600 3.786520 
# 
# 
# High freq. dielectric constant tensor:
#      x y z
#    x 1.853290 -0.004880 0.009590 
#    y -0.004880 1.843810 0.002120 
#    z 0.009590 0.002120 1.835040 
# 
# From -- ./inp_files/308686.got.cif
#   From: 2010.06.25/outbox.cif.g09.slc.cpg/sg2_155_cif.got.tgz:308686.got - 2010.06.27 13:26:56.
