data_PCOD8006110
_publ_section_title
;
Structure prediction by ZEFSAII (Michael W. Deem and Ramdas Pophale) SiO2 
 PCOD8006110
Probable space group: P -1
;
_chemical_formula_sum "Si O2"
_cell_formula_units_Z 16
_cell_length_a 10.955019
_cell_length_b 12.118477
_cell_length_c 11.306053
_cell_angle_alpha 52.858777
_cell_angle_beta 117.539135
_cell_angle_gamma 76.831868
_cell_volume 739.276474
_symmetry_space_group_name_H-M "P -1"
_symmetry_group_IT_number 2
_symmetry_cell_setting 'triclinic'
loop_
_space_group_symop_operation_xyz
x,y,z
-x,-y,-z
loop_
_atom_site_type_symbol
_atom_site_label
_atom_site_fract_x
_atom_site_fract_y
_atom_site_fract_z
Si Si1 0.902137 0.895364 0.736163
Si Si2 0.296159 0.472513 0.151670
Si Si3 0.541463 0.491781 0.386812
Si Si4 0.734987 0.903656 0.080416
Si Si5 0.556729 0.758929 0.100426
Si Si6 0.044857 0.907098 0.206688
Si Si7 0.559509 0.057665 0.652932
Si Si8 0.459416 0.811835 0.762647
O O1 0.754910 0.941603 0.738907
O O2 0.021150 0.939976 0.818123
O O3 0.770026 0.046024 0.469182
O O4 0.057009 0.662737 0.916635
O O5 0.359244 0.572035 0.175147
O O6 0.387358 0.389448 0.115771
O O7 0.373368 0.289354 0.385557
O O8 0.500000 0.500000 0.500000
O O9 0.596243 0.611215 0.308773
O O10 0.720501 0.269516 0.565811
O O11 0.746263 0.726771 0.193196
O O12 0.947224 0.825522 0.229769
O O13 0.610315 0.049161 0.818068
O O14 0.626970 0.018172 0.080334
O O15 0.496678 0.737285 0.961513
O O16 0.000000 0.000000 0.000000
O O17 0.497830 0.945767 0.673588
#
# Coordination Sequence:
#
# PCOD8006110 Si02
#       8
#     2   2   2   2   2   2   2   2
#     4  11  21  37  63  98 126 170 212 265 310 375
#     4  11  21  38  63  94 127 166 216 261 314 373
#     4  12  24  40  67  96 121 165 219 270 322 380
#     4  10  21  41  64  92 128 170 205 267 325 373
#     4  10  23  43  64  88 130 169 210 260 328 384
#     4  12  21  39  65  96 129 158 218 269 312 372
#     4  10  20  39  65  93 129 165 214 266 317 370
#     4  10  23  42  60  91 133 173 208 258 321 385
#
# _framework density 21.642783000000001
#
# number of rings (size 3 to 8) (size 9 to 14) (size 15 to 20)
#    0.000    1.250    3.750    4.500    0.000    3.000 
#    2.250    1.250    0.000    0.000    0.000    0.000 
#    0.000    0.000    0.000    0.000    0.000    0.000 
#
# Total GULP energy -198326.981423 kJ/mol
# GULP energy per Si atom -12395.436339 kJ/mol
# Density = 2.159352 g / cm^3
# Si number density = 21.642783 Si / 1000 Ang^3
#
#
#
# Elastic Constant Matrix: (Units=GPa)
#
#
# Indices 1 2 3 4 5 6 
#
# 1 98.2003 37.4280 42.8934 2.9983 -9.2741 2.6372
# 2 37.4280 126.1230 46.6559 9.8176 3.8707 -11.8786
# 3 42.8934 46.6559 91.9687 -12.7689 6.3374 -12.3428
# 4 2.9983 9.8176 -12.7689 39.8725 -7.0073 2.2444
# 5 -9.2741 3.8707 6.3374 -7.0073 36.7792 -1.7536
# 6 2.6372 -11.8786 -12.3428 2.2444 -1.7536 36.8466
#
#
#
# Elastic Compliance Matrix: (Units=1/GPa)
#
#
# Indices 1 2 3 4 5 6 
#
# 1 0.014526 -0.002182 -0.006710 -0.001698 0.004550 -0.003671
# 2 -0.002182 0.010939 -0.004732 -0.004460 -0.001627 0.002292
# 3 -0.006710 -0.004732 0.018134 0.006728 -0.002823 0.004485
# 4 -0.001698 -0.004460 0.006728 0.029274 0.004429 -0.000635
# 5 0.004550 -0.001627 -0.002823 0.004429 0.029807 -0.000647
# 6 -0.003671 0.002292 0.004485 -0.000635 -0.000647 0.029651
#
#
# Mechanical properties :
#
#
# Convention : Reuss Voigt Hill
#
# Bulk Modulus (GPa) = 61.15206 63.36073 62.25640
# Shear Modulus (GPa) = 30.29777 35.32064 32.80921
#
# Velocity S-wave (km/s) = 3.74559 4.04416 3.89773
# Velocity P-wave (km/s) = 6.85729 7.15166 7.00602
#
# Compressibility (1/GPa) = 0.01635268
#
# Stress axis : x y z
#
# Youngs Moduli (GPa) = 68.84347 91.41208 55.14651
#
# Poissons Ratio (x) = 0.19944 0.37002
# Poissons Ratio (y) = 0.15020 0.26093
# Poissons Ratio (z) = 0.46192 0.43252
#
# Static dielectric constant tensor:
#      x y z
#    x 3.963480 0.155700 0.019120 
#    y 0.155700 4.106420 0.147790 
#    z 0.019120 0.147790 3.682250 
# 
# 
# High freq. dielectric constant tensor:
#      x y z
#    x 1.844010 0.007490 0.000360 
#    y 0.007490 1.867010 0.004860 
#    z 0.000360 0.004860 1.830050 
# 
# From -- ./inp_files/427628.got.cif
#   From: 2010.06.25/outbox.cif.g09.slc.cpg/sg2_214_cif.got.tgz:427628.got - 2010.06.27 13:26:56.
