data_PCOD8006854
_publ_section_title
;
Structure prediction by ZEFSAII (Michael W. Deem and Ramdas Pophale) SiO2 
 PCOD8006854
Probable space group: P -1
;
_chemical_formula_sum "Si O2"
_cell_formula_units_Z 16
_cell_length_a 15.467670
_cell_length_b 9.335715
_cell_length_c 14.804393
_cell_angle_alpha 39.275996
_cell_angle_beta 40.478004
_cell_angle_gamma 39.024170
_cell_volume 781.147592
_symmetry_space_group_name_H-M "P -1"
_symmetry_group_IT_number 2
_symmetry_cell_setting 'triclinic'
loop_
_space_group_symop_operation_xyz
x,y,z
-x,-y,-z
loop_
_atom_site_type_symbol
_atom_site_label
_atom_site_fract_x
_atom_site_fract_y
_atom_site_fract_z
Si Si1 0.967731 0.602912 0.876122
Si Si2 0.375039 0.099414 0.627566
Si Si3 0.194174 0.341917 0.285672
Si Si4 0.309784 0.601143 0.358336
Si Si5 0.051826 0.213341 0.837468
Si Si6 0.662611 0.919272 0.873973
Si Si7 0.442807 0.364772 0.185367
Si Si8 0.986850 0.949645 0.430537
O O1 0.040565 0.374242 0.858162
O O2 0.789131 0.762714 0.924202
O O3 0.045009 0.789270 0.720789
O O4 0.000000 0.500000 0.000000
O O5 0.332303 0.398743 0.519363
O O6 0.224028 0.078130 0.732848
O O7 0.500000 0.000000 0.500000
O O8 0.440251 0.936423 0.747643
O O9 0.049087 0.604923 0.250567
O O10 0.307458 0.253882 0.153650
O O11 0.282477 0.384758 0.276913
O O12 0.144453 0.124074 0.453437
O O13 0.425695 0.493479 0.234536
O O14 0.143621 0.711399 0.393880
O O15 0.329509 0.823694 0.284129
O O16 0.000000 0.000000 0.000000
O O17 0.500000 0.000000 0.000000
O O18 0.500000 0.500000 0.000000
O O19 0.000000 0.000000 0.500000
#
# Coordination Sequence:
#
# PCOD8006854 Si02
#       8
#     2   2   2   2   2   2   2   2
#     4  10  23  40  61  92 122 157 201 257 306 356
#     4  10  22  41  60  89 126 164 200 251 316 361
#     4  11  22  39  64  93 117 165 208 248 303 369
#     4  10  20  40  65  82 119 168 197 248 306 363
#     4  11  22  39  67  90 123 165 210 251 305 373
#     4  10  21  38  64  88 119 161 204 246 309 369
#     4  11  24  40  59  92 131 156 199 256 311 363
#     4  11  18  41  67  85 119 161 209 247 296 365
#
# _framework density 20.482685
#
# number of rings (size 3 to 8) (size 9 to 14) (size 15 to 20)
#    0.000    1.500    5.000    1.500    0.000    8.500 
#    6.750    0.625    0.000    0.000    0.000    0.000 
#    0.000    0.000    0.000    0.000    0.000    0.000 
#
# Total GULP energy -198315.492638 kJ/mol
# GULP energy per Si atom -12394.718290 kJ/mol
# Density = 2.043607 g / cm^3
# Si number density = 20.482685 Si / 1000 Ang^3
#
#
#
# Elastic Constant Matrix: (Units=GPa)
#
#
# Indices 1 2 3 4 5 6 
#
# 1 79.0272 32.5680 43.0175 -13.6506 -2.8357 -19.3855
# 2 32.5680 93.2763 53.0991 -7.4335 -3.4977 -17.1984
# 3 43.0175 53.0991 150.0442 -18.8819 -4.0460 -21.5430
# 4 -13.6506 -7.4335 -18.8819 45.4139 -11.8566 -3.5035
# 5 -2.8357 -3.4977 -4.0460 -11.8566 41.2561 0.7677
# 6 -19.3855 -17.1984 -21.5430 -3.5035 0.7677 23.0524
#
#
#
# Elastic Compliance Matrix: (Units=1/GPa)
#
#
# Indices 1 2 3 4 5 6 
#
# 1 0.019151 -0.002612 -0.001796 0.006256 0.002468 0.013346
# 2 -0.002612 0.014787 -0.003553 0.000814 0.000855 0.005610
# 3 -0.001796 -0.003553 0.009730 0.003737 0.001502 0.005450
# 4 0.006256 0.000814 0.003737 0.028959 0.008938 0.013464
# 5 0.002468 0.000855 0.001502 0.008938 0.027112 0.004573
# 6 0.013346 0.005610 0.005450 0.013464 0.004573 0.065775
#
#
# Mechanical properties :
#
#
# Convention : Reuss Voigt Hill
#
# Bulk Modulus (GPa) = 36.04220 64.41301 50.22761
# Shear Modulus (GPa) = 26.22117 34.85533 30.53825
#
# Velocity S-wave (km/s) = 3.58182 4.12964 3.86545
# Velocity P-wave (km/s) = 5.89411 7.36576 6.67064
#
# Compressibility (1/GPa) = 0.02774525
#
# Stress axis : x y z
#
# Youngs Moduli (GPa) = 52.21617 67.62757 102.77229
#
# Poissons Ratio (x) = 0.17667 0.18459
# Poissons Ratio (y) = 0.13641 0.36515
# Poissons Ratio (z) = 0.09378 0.24028
#
# Static dielectric constant tensor:
#      x y z
#    x 3.637650 -0.342510 -0.500420 
#    y -0.342510 4.144140 0.145220 
#    z -0.500420 0.145220 4.795240 
# 
# 
# High freq. dielectric constant tensor:
#      x y z
#    x 1.767920 -0.012240 -0.011240 
#    y -0.012240 1.813200 -0.005290 
#    z -0.011240 -0.005290 1.814540 
# 
# From -- ./inp_files/258229.got.cif
#   From: 2010.06.25/outbox.cif.g09.slc.cpg/sg2_130_cif.got.tgz:258229.got - 2010.06.27 13:26:56.
