data_PCOD8006286
_publ_section_title
;
Structure prediction by ZEFSAII (Michael W. Deem and Ramdas Pophale) SiO2 
 PCOD8006286
Probable space group: P -1
;
_chemical_formula_sum "Si O2"
_cell_formula_units_Z 16
_cell_length_a 10.275415
_cell_length_b 8.516854
_cell_length_c 22.253008
_cell_angle_alpha 149.975018
_cell_angle_beta 128.710269
_cell_angle_gamma 63.540183
_cell_volume 737.103461
_symmetry_space_group_name_H-M "P -1"
_symmetry_group_IT_number 2
_symmetry_cell_setting 'triclinic'
loop_
_space_group_symop_operation_xyz
x,y,z
-x,-y,-z
loop_
_atom_site_type_symbol
_atom_site_label
_atom_site_fract_x
_atom_site_fract_y
_atom_site_fract_z
Si Si1 0.615124 0.637991 0.358782
Si Si2 0.955990 0.460322 0.070657
Si Si3 0.806841 0.284201 0.381158
Si Si4 0.663093 0.300702 0.145283
Si Si5 0.981732 0.004671 0.160825
Si Si6 0.284284 0.823967 0.345703
Si Si7 0.678868 0.631273 0.561151
Si Si8 0.316885 0.455403 0.902420
O O1 0.684923 0.360149 0.318985
O O2 0.635932 0.586611 0.276600
O O3 0.416289 0.594519 0.305669
O O4 0.715897 0.995672 0.530186
O O5 0.930524 0.730963 0.105987
O O6 0.779984 0.330772 0.013869
O O7 0.096776 0.604389 0.209103
O O8 0.008441 0.162108 0.955553
O O9 0.731084 0.346411 0.444544
O O10 0.000000 0.500000 0.500000
O O11 0.801632 0.909727 0.249490
O O12 0.672427 0.437028 0.126868
O O13 0.837162 0.204239 0.182553
O O14 0.500000 0.000000 0.000000
O O15 0.168867 0.237963 0.304148
O O16 0.341446 0.087491 0.396723
O O17 0.500000 0.500000 0.500000
O O18 0.500000 0.500000 0.000000
#
# Coordination Sequence:
#
# PCOD8006286 Si02
#       8
#     2   2   2   2   2   2   2   2
#     4  10  20  39  67  91 130 169 224 265 332 387
#     4  10  21  42  68  92 131 170 222 267 334 401
#     4  11  23  45  67  93 136 180 224 275 338 404
#     4  12  25  43  65  98 135 176 223 282 331 398
#     4  10  22  42  67  95 130 178 215 274 333 397
#     4   9  20  39  65  96 126 178 213 270 335 392
#     4  10  22  38  63  97 137 171 219 274 335 399
#     4  12  27  42  68  99 131 176 223 275 337 406
#
# _framework density 21.706586999999999
#
# number of rings (size 3 to 8) (size 9 to 14) (size 15 to 20)
#    0.000    1.500    0.000    6.000    3.500    1.500 
#    9.000    3.125    0.000    0.000    0.000    0.000 
#    0.000    0.000    0.000    0.000    0.000    0.000 
#
# Total GULP energy -198413.047312 kJ/mol
# GULP energy per Si atom -12400.815457 kJ/mol
# Density = 2.165718 g / cm^3
# Si number density = 21.706587 Si / 1000 Ang^3
#
#
#
# Elastic Constant Matrix: (Units=GPa)
#
#
# Indices 1 2 3 4 5 6 
#
# 1 164.8506 33.7809 70.5452 -16.9684 -17.6956 -7.2272
# 2 33.7809 88.8342 29.5934 -16.5695 -0.1929 -13.3705
# 3 70.5452 29.5934 111.0404 -23.5697 -7.2561 -2.3011
# 4 -16.9684 -16.5695 -23.5697 33.9453 -1.3841 1.2690
# 5 -17.6956 -0.1929 -7.2561 -1.3841 46.3128 -4.0239
# 6 -7.2272 -13.3705 -2.3011 1.2690 -4.0239 33.6737
#
#
#
# Elastic Compliance Matrix: (Units=1/GPa)
#
#
# Indices 1 2 3 4 5 6 
#
# 1 0.008878 -0.001454 -0.004976 0.000336 0.002730 0.001302
# 2 -0.001454 0.014004 -0.001716 0.004725 -0.000197 0.004930
# 3 -0.004976 -0.001716 0.013998 0.006447 0.000391 -0.000989
# 4 0.000336 0.004725 0.006447 0.036458 0.002360 0.001297
# 5 0.002730 -0.000197 0.000391 0.002360 0.023044 0.003199
# 6 0.001302 0.004930 -0.000989 0.001297 0.003199 0.032199
#
#
# Mechanical properties :
#
#
# Convention : Reuss Voigt Hill
#
# Bulk Modulus (GPa) = 48.57275 70.28490 59.42882
# Shear Modulus (GPa) = 32.95151 38.17340 35.56246
#
# Velocity S-wave (km/s) = 3.90043 4.19813 4.05201
# Velocity P-wave (km/s) = 6.53529 7.47990 7.02349
#
# Compressibility (1/GPa) = 0.02058767
#
# Stress axis : x y z
#
# Youngs Moduli (GPa) = 112.63540 71.40582 71.43738
#
# Poissons Ratio (x) = 0.10381 0.35550
# Poissons Ratio (y) = 0.16376 0.12262
# Poissons Ratio (z) = 0.56051 0.12256
#
# Static dielectric constant tensor:
#      x y z
#    x 3.988820 -0.191340 -0.326270 
#    y -0.191340 4.011790 -0.169090 
#    z -0.326270 -0.169090 4.001710 
# 
# 
# High freq. dielectric constant tensor:
#      x y z
#    x 1.862040 -0.017770 -0.016740 
#    y -0.017770 1.850370 -0.020670 
#    z -0.016740 -0.020670 1.855800 
# 
# From -- ./inp_files/606957.got.cif
#   From: 2010.06.25/outbox.cif.g09.slc.cpg/sg2_304_cif.got.tgz:606957.got - 2010.06.27 13:26:56.
