data_PCOD8006964
_publ_section_title
;
Structure prediction by ZEFSAII (Michael W. Deem and Ramdas Pophale) SiO2 
 PCOD8006964
Probable space group: P -1
;
_chemical_formula_sum "Si O2"
_cell_formula_units_Z 16
_cell_length_a 8.526856
_cell_length_b 15.142263
_cell_length_c 9.663939
_cell_angle_alpha 87.779599
_cell_angle_beta 102.959337
_cell_angle_gamma 142.784284
_cell_volume 714.448907
_symmetry_space_group_name_H-M "P -1"
_symmetry_group_IT_number 2
_symmetry_cell_setting 'triclinic'
loop_
_space_group_symop_operation_xyz
x,y,z
-x,-y,-z
loop_
_atom_site_type_symbol
_atom_site_label
_atom_site_fract_x
_atom_site_fract_y
_atom_site_fract_z
Si Si1 0.604071 0.681180 0.122506
Si Si2 0.027861 0.427483 0.916258
Si Si3 0.817125 0.090638 0.417112
Si Si4 0.123549 0.963396 0.067321
Si Si5 0.417912 0.376255 0.573946
Si Si6 0.513628 0.893978 0.618750
Si Si7 0.449060 0.130498 0.864171
Si Si8 0.193432 0.609881 0.409237
O O1 0.630331 0.633433 0.269671
O O2 0.585743 0.778347 0.145443
O O3 0.879048 0.787831 0.076553
O O4 0.334630 0.525766 0.995854
O O5 0.774906 0.250887 0.922264
O O6 0.992357 0.434605 0.747717
O O7 0.000000 0.500000 0.000000
O O8 0.722296 0.148466 0.359219
O O9 0.139852 0.220150 0.456030
O O10 0.738185 0.047084 0.565737
O O11 0.672624 0.954861 0.299940
O O12 0.331965 0.080128 0.223615
O O13 0.298462 0.009589 0.965174
O O14 0.000000 0.000000 0.000000
O O15 0.500000 0.500000 0.500000
O O16 0.654012 0.409506 0.608422
O O17 0.405548 0.774519 0.497724
O O18 0.000000 0.500000 0.500000
#
# Coordination Sequence:
#
# PCOD8006964 Si02
#       8
#     2   2   2   2   2   2   2   2
#     4  10  21  41  69 102 138 180 224 289 341 418
#     4  10  20  40  65  99 135 178 221 278 343 410
#     4  11  24  43  69  98 139 178 229 284 342 405
#     4  10  23  39  69 103 135 172 230 283 340 404
#     4  12  25  43  68 100 142 180 229 284 352 407
#     4  11  24  44  69  97 138 180 227 287 337 409
#     4  10  21  40  70 102 130 179 228 278 347 407
#     4  12  26  41  72 104 135 181 236 282 345 414
#
# _framework density 22.394884000000001
#
# number of rings (size 3 to 8) (size 9 to 14) (size 15 to 20)
#    0.000    1.250    5.000    0.750    8.750    2.500 
#    0.000    0.000    0.000    3.000    0.000    0.000 
#    0.000    0.000    0.000    0.000    0.000    0.000 
#
# Total GULP energy -198297.555106 kJ/mol
# GULP energy per Si atom -12393.597194 kJ/mol
# Density = 2.234391 g / cm^3
# Si number density = 22.394884 Si / 1000 Ang^3
#
#
#
# Elastic Constant Matrix: (Units=GPa)
#
#
# Indices 1 2 3 4 5 6 
#
# 1 50.5110 35.2478 38.2483 -6.7590 7.2738 15.3224
# 2 35.2478 127.5162 63.4175 -14.9751 9.3285 41.0172
# 3 38.2483 63.4175 162.4931 -8.4270 18.8985 24.9322
# 4 -6.7590 -14.9751 -8.4270 46.6729 10.4769 -1.7028
# 5 7.2738 9.3285 18.8985 10.4769 31.0849 -4.0949
# 6 15.3224 41.0172 24.9322 -1.7028 -4.0949 37.0282
#
#
#
# Elastic Compliance Matrix: (Units=1/GPa)
#
#
# Indices 1 2 3 4 5 6 
#
# 1 0.027751 -0.003200 -0.003588 0.003306 -0.005250 -0.005952
# 2 -0.003200 0.015680 -0.002028 0.005093 -0.006437 -0.015157
# 3 -0.003588 -0.002028 0.008822 0.001388 -0.004735 -0.002669
# 4 0.003306 0.005093 0.001388 0.026439 -0.013135 -0.008181
# 5 -0.005250 -0.006437 -0.004735 -0.013135 0.044855 0.016848
# 6 -0.005952 -0.015157 -0.002669 -0.008181 0.016848 0.049543
#
#
# Mechanical properties :
#
#
# Convention : Reuss Voigt Hill
#
# Bulk Modulus (GPa) = 28.88345 68.26083 48.57214
# Shear Modulus (GPa) = 24.72029 36.53099 30.62564
#
# Velocity S-wave (km/s) = 3.32601 4.04322 3.70202
# Velocity P-wave (km/s) = 5.26071 7.23488 6.32529
#
# Compressibility (1/GPa) = 0.03462190
#
# Stress axis : x y z
#
# Youngs Moduli (GPa) = 36.03409 63.77745 113.34874
#
# Poissons Ratio (x) = 0.20407 0.40672
# Poissons Ratio (y) = 0.11530 0.22985
# Poissons Ratio (z) = 0.12930 0.12933
#
# Static dielectric constant tensor:
#      x y z
#    x 4.058060 0.538540 0.085930 
#    y 0.538540 4.256020 -0.051230 
#    z 0.085930 -0.051230 4.307130 
# 
# 
# High freq. dielectric constant tensor:
#      x y z
#    x 1.864080 0.027820 0.006070 
#    y 0.027820 1.885040 -0.004480 
#    z 0.006070 -0.004480 1.894620 
# 
# From -- ./inp_files/207402.got.cif
#   From: 2010.06.25/outbox.cif.g09.slc.cpg/sg2_104_cif.got.tgz:207402.got - 2010.06.27 13:26:56.
