data_PCOD8006400
_publ_section_title
;
Structure prediction by ZEFSAII (Michael W. Deem and Ramdas Pophale) SiO2 
 PCOD8006400
Probable space group: P -1
;
_chemical_formula_sum "Si O2"
_cell_formula_units_Z 16
_cell_length_a 23.506121
_cell_length_b 9.884420
_cell_length_c 19.652057
_cell_angle_alpha 148.871620
_cell_angle_beta 162.015419
_cell_angle_gamma 32.665461
_cell_volume 717.796660
_symmetry_space_group_name_H-M "P -1"
_symmetry_group_IT_number 2
_symmetry_cell_setting 'triclinic'
loop_
_space_group_symop_operation_xyz
x,y,z
-x,-y,-z
loop_
_atom_site_type_symbol
_atom_site_label
_atom_site_fract_x
_atom_site_fract_y
_atom_site_fract_z
Si Si1 0.458827 0.202940 0.978337
Si Si2 0.118741 0.723722 0.244116
Si Si3 0.012390 0.324206 0.195549
Si Si4 0.652292 0.258822 0.841607
Si Si5 0.791438 0.228059 0.786332
Si Si6 0.056031 0.212085 0.471481
Si Si7 0.142941 0.791997 0.614428
Si Si8 0.582535 0.696961 0.538790
O O1 0.411101 0.512871 0.077169
O O2 0.644165 0.152578 0.119969
O O3 0.278589 0.139786 0.706276
O O4 0.500000 0.000000 0.000000
O O5 0.183748 0.804983 0.279436
O O6 0.280646 0.581849 0.416998
O O7 0.009079 0.989097 0.269490
O O8 0.000000 0.500000 0.000000
O O9 0.140647 0.520591 0.454935
O O10 0.849879 0.299679 0.053954
O O11 0.922225 0.409172 0.054174
O O12 0.157269 0.051093 0.235619
O O13 0.490005 0.294136 0.616387
O O14 0.674733 0.961692 0.771614
O O15 0.574729 0.328813 0.595672
O O16 0.000000 0.500000 0.500000
O O17 0.927103 0.207151 0.388196
O O18 0.000000 0.000000 0.500000
#
# Coordination Sequence:
#
# PCOD8006400 Si02
#       8
#     2   2   2   2   2   2   2   2
#     4  12  24  45  75 106 142 189 245 301 361 430
#     4  12  27  44  67  95 145 185 231 287 361 417
#     4  10  20  40  68 102 136 172 235 289 351 413
#     4  10  20  39  69 101 140 175 230 297 353 411
#     4  10  22  40  66  98 135 184 225 288 346 426
#     4  12  29  51  73 107 152 194 240 301 367 437
#     4  12  25  44  75 107 139 188 242 304 357 430
#     4  10  22  39  65 101 134 182 233 286 348 424
#
# _framework density 22.290434999999999
#
# number of rings (size 3 to 8) (size 9 to 14) (size 15 to 20)
#    0.000    1.000    2.500    3.375    3.500    3.500 
#    2.250    0.000    0.000    0.000    0.000    0.000 
#    0.000    0.000    0.000    0.000    0.000    0.000 
#
# Total GULP energy -198368.432454 kJ/mol
# GULP energy per Si atom -12398.027028 kJ/mol
# Density = 2.223970 g / cm^3
# Si number density = 22.290435 Si / 1000 Ang^3
#
#
#
# Elastic Constant Matrix: (Units=GPa)
#
#
# Indices 1 2 3 4 5 6 
#
# 1 126.6239 34.3936 27.4933 5.3094 0.3216 -3.1980
# 2 34.3936 112.2575 19.8106 2.8521 -1.3108 -3.2388
# 3 27.4933 19.8106 95.7283 1.0815 8.8509 -5.1594
# 4 5.3094 2.8521 1.0815 37.4099 -9.3776 -5.4990
# 5 0.3216 -1.3108 8.8509 -9.3776 30.1502 0.1257
# 6 -3.1980 -3.2388 -5.1594 -5.4990 0.1257 38.2304
#
#
#
# Elastic Compliance Matrix: (Units=1/GPa)
#
#
# Indices 1 2 3 4 5 6 
#
# 1 0.009041 -0.002370 -0.002098 -0.000996 0.000106 0.000129
# 2 -0.002370 0.009910 -0.001424 -0.000104 0.000840 0.000431
# 3 -0.002098 -0.001424 0.011759 -0.000687 -0.003710 0.001204
# 4 -0.000996 -0.000104 -0.000687 0.029877 0.009483 0.004082
# 5 0.000106 0.000840 -0.003710 0.009483 0.037238 0.000821
# 6 0.000129 0.000431 0.001204 0.004082 0.000821 0.026951
#
#
# Mechanical properties :
#
#
# Convention : Reuss Voigt Hill
#
# Bulk Modulus (GPa) = 52.83042 55.33386 54.08214
# Shear Modulus (GPa) = 34.99715 38.01892 36.50803
#
# Velocity S-wave (km/s) = 3.96669 4.13439 4.05141
# Velocity P-wave (km/s) = 6.68819 6.90426 6.79708
#
# Compressibility (1/GPa) = 0.01892849
#
# Stress axis : x y z
#
# Youngs Moduli (GPa) = 110.60344 100.90600 85.04087
#
# Poissons Ratio (x) = 0.23911 0.17841
# Poissons Ratio (y) = 0.26209 0.12106
# Poissons Ratio (z) = 0.23204 0.14364
#
# Static dielectric constant tensor:
#      x y z
#    x 3.558250 -0.279480 0.068780 
#    y -0.279480 3.905900 -0.080680 
#    z 0.068780 -0.080680 4.384190 
# 
# 
# High freq. dielectric constant tensor:
#      x y z
#    x 1.872850 -0.008220 0.002010 
#    y -0.008220 1.888040 -0.001690 
#    z 0.002010 -0.001690 1.882610 
# 
# From -- ./inp_files/577650.got.cif
#   From: 2010.06.25/outbox.cif.g09.slc.cpg/sg2_289_cif.got.tgz:577650.got - 2010.06.27 13:26:56.
