data_PCOD8006836
_publ_section_title
;
Structure prediction by ZEFSAII (Michael W. Deem and Ramdas Pophale) SiO2 
 PCOD8006836
Probable space group: P -1
;
_chemical_formula_sum "Si O2"
_cell_formula_units_Z 14
_cell_length_a 13.567941
_cell_length_b 8.722018
_cell_length_c 9.392043
_cell_angle_alpha 134.636278
_cell_angle_beta 75.076783
_cell_angle_gamma 124.878895
_cell_volume 628.693284
_symmetry_space_group_name_H-M "P -1"
_symmetry_group_IT_number 2
_symmetry_cell_setting 'triclinic'
loop_
_space_group_symop_operation_xyz
x,y,z
-x,-y,-z
loop_
_atom_site_type_symbol
_atom_site_label
_atom_site_fract_x
_atom_site_fract_y
_atom_site_fract_z
Si Si1 0.233244 0.737678 0.841578
Si Si2 0.251130 0.396684 0.393487
Si Si3 0.804787 0.463464 0.966477
Si Si4 0.951639 0.126442 0.996522
Si Si5 0.418650 0.306006 0.117261
Si Si6 0.351006 0.847185 0.434685
Si Si7 0.667326 0.702751 0.165696
O O1 0.238894 0.510469 0.619320
O O2 0.193441 0.663735 0.970907
O O3 0.137966 0.800176 0.848170
O O4 0.370590 0.003265 0.947308
O O5 0.371602 0.385264 0.324598
O O6 0.264652 0.582284 0.381980
O O7 0.129775 0.101263 0.237251
O O8 0.787123 0.699751 0.147655
O O9 0.938647 0.600768 0.934251
O O10 0.690062 0.229234 0.763723
O O11 0.000000 0.000000 0.000000
O O12 0.565973 0.480488 0.167325
O O13 0.370911 0.369472 0.032563
O O14 0.500000 0.000000 0.500000
O O15 0.306547 0.022708 0.623615
#
# Coordination Sequence:
#
# PCOD8006836 Si02
#       7
#     2   2   2   2   2   2   2
#     4  11  26  42  67  97 139 173 209 280 345 378
#     4  11  22  41  69  96 130 171 223 267 326 392
#     4  12  26  44  63 103 136 170 218 279 334 384
#     4  11  24  46  70  96 128 173 231 272 313 403
#     4  10  20  40  64  96 130 169 222 267 312 394
#     4  12  22  41  71  99 129 178 226 267 319 396
#     4  11  21  37  67  95 127 173 223 266 314 388
#
# _framework density 22.268412000000001
#
# number of rings (size 3 to 8) (size 9 to 14) (size 15 to 20)
#    0.000    0.857    5.714    2.143    0.000    5.143 
#    0.000    1.429    0.000    0.000    0.000    0.000 
#    0.000    0.000    0.000    0.000    0.000    0.000 
#
# Total GULP energy -173536.269510 kJ/mol
# GULP energy per Si atom -12395.447822 kJ/mol
# Density = 2.221773 g / cm^3
# Si number density = 22.268412 Si / 1000 Ang^3
#
#
#
# Elastic Constant Matrix: (Units=GPa)
#
#
# Indices 1 2 3 4 5 6 
#
# 1 49.1382 1.8657 32.0354 -1.5169 -10.6975 7.0661
# 2 1.8657 91.0567 20.5371 0.6749 14.0658 18.8275
# 3 32.0354 20.5371 125.0204 3.5825 -16.5469 13.8402
# 4 -1.5169 0.6749 3.5825 34.4328 -4.9125 3.8533
# 5 -10.6975 14.0658 -16.5469 -4.9125 28.3119 -0.0986
# 6 7.0661 18.8275 13.8402 3.8533 -0.0986 29.2045
#
#
#
# Elastic Compliance Matrix: (Units=1/GPa)
#
#
# Indices 1 2 3 4 5 6 
#
# 1 0.026151 0.000520 -0.005460 0.003205 0.006972 -0.004474
# 2 0.000520 0.014667 -0.002785 -0.000307 -0.008800 -0.008251
# 3 -0.005460 -0.002785 0.010819 -0.000296 0.005586 -0.001953
# 4 0.003205 -0.000307 -0.000296 0.030645 0.006492 -0.004459
# 5 0.006972 -0.008800 0.005586 0.006492 0.046721 0.000640
# 6 -0.004474 -0.008251 -0.001953 -0.004459 0.000640 0.042159
#
#
# Mechanical properties :
#
#
# Convention : Reuss Voigt Hill
#
# Bulk Modulus (GPa) = 27.63425 41.56575 34.60000
# Shear Modulus (GPa) = 25.16671 32.44167 28.80419
#
# Velocity S-wave (km/s) = 3.36542 3.82101 3.60043
# Velocity P-wave (km/s) = 5.24766 6.17844 5.73198
#
# Compressibility (1/GPa) = 0.03618698
#
# Stress axis : x y z
#
# Youngs Moduli (GPa) = 38.23963 68.17849 92.42751
#
# Poissons Ratio (x) = -0.03546 0.50467
# Poissons Ratio (y) = -0.01989 0.25743
# Poissons Ratio (z) = 0.20879 0.18989
#
# Static dielectric constant tensor:
#      x y z
#    x 3.905080 0.171040 -0.257000 
#    y 0.171040 4.123590 0.131690 
#    z -0.257000 0.131690 4.025990 
# 
# 
# High freq. dielectric constant tensor:
#      x y z
#    x 1.860350 0.008850 -0.028360 
#    y 0.008850 1.885530 0.010780 
#    z -0.028360 0.010780 1.866690 
# 
# From -- ./inp_files/187212.got.cif
#   From: 2010.06.25/outbox.cif.g09.slc.cpg/sg2_94_cif.got.tgz:187212.got - 2010.06.27 13:26:56.
