data_PCOD8006194
_publ_section_title
;
Structure prediction by ZEFSAII (Michael W. Deem and Ramdas Pophale) SiO2 
 PCOD8006194
Probable space group: P -1
;
_chemical_formula_sum "Si O2"
_cell_formula_units_Z 16
_cell_length_a 9.309837
_cell_length_b 11.916666
_cell_length_c 15.940143
_cell_angle_alpha 54.858662
_cell_angle_beta 117.761090
_cell_angle_gamma 71.374190
_cell_volume 747.084560
_symmetry_space_group_name_H-M "P -1"
_symmetry_group_IT_number 2
_symmetry_cell_setting 'triclinic'
loop_
_space_group_symop_operation_xyz
x,y,z
-x,-y,-z
loop_
_atom_site_type_symbol
_atom_site_label
_atom_site_fract_x
_atom_site_fract_y
_atom_site_fract_z
Si Si1 0.455145 0.119345 0.261352
Si Si2 0.746177 0.077789 0.917428
Si Si3 0.145464 0.576494 0.240770
Si Si4 0.058636 0.021956 0.595811
Si Si5 0.931748 0.588703 0.832124
Si Si6 0.463399 0.540610 0.208706
Si Si7 0.440311 0.827530 0.356188
Si Si8 0.102109 0.768538 0.858187
O O1 0.381383 0.208405 0.300015
O O2 0.672809 0.067026 0.298441
O O3 0.569470 0.887658 0.384537
O O4 0.148747 0.335209 0.043417
O O5 0.578138 0.268476 0.864119
O O6 0.559034 0.195739 0.732818
O O7 0.861284 0.848476 0.075282
O O8 0.000000 0.000000 0.000000
O O9 0.091068 0.455257 0.249478
O O10 0.271895 0.572985 0.198568
O O11 0.357454 0.426850 0.440528
O O12 0.782272 0.295341 0.425047
O O13 0.134085 0.859892 0.756378
O O14 0.000000 0.000000 0.500000
O O15 0.043096 0.667681 0.835601
O O16 0.385152 0.565199 0.078681
O O17 0.137524 0.023371 0.231572
#
# Coordination Sequence:
#
# PCOD8006194 Si02
#       8
#     2   2   2   2   2   2   2   2
#     4  10  22  39  61  92 131 168 205 262 314 378
#     4  10  21  39  65  97 127 158 214 275 314 355
#     4  11  20  36  65  96 124 163 208 265 315 367
#     4  12  26  41  62  95 134 170 209 252 323 385
#     4  10  20  39  66  90 131 161 211 263 314 373
#     4  11  23  42  63  94 131 164 211 267 315 375
#     4  11  21  38  67  98 122 164 219 259 317 367
#     4  11  23  40  65  96 127 171 208 260 318 380
#
# _framework density 21.416585999999999
#
# number of rings (size 3 to 8) (size 9 to 14) (size 15 to 20)
#    0.000    1.250    5.000    3.000    1.750    6.000 
#    0.000    0.625    0.000    1.500    0.000    0.000 
#    0.000    0.000    0.000    0.000    0.000    0.000 
#
# Total GULP energy -198326.402140 kJ/mol
# GULP energy per Si atom -12395.400134 kJ/mol
# Density = 2.136784 g / cm^3
# Si number density = 21.416586 Si / 1000 Ang^3
#
#
#
# Elastic Constant Matrix: (Units=GPa)
#
#
# Indices 1 2 3 4 5 6 
#
# 1 90.7283 16.7324 27.1372 -5.8337 -10.0027 3.9292
# 2 16.7324 84.7770 29.9285 -14.0904 -2.6421 22.6679
# 3 27.1372 29.9285 127.7586 4.1560 -18.6350 7.9469
# 4 -5.8337 -14.0904 4.1560 25.0934 -1.9824 -1.2614
# 5 -10.0027 -2.6421 -18.6350 -1.9824 24.9178 0.3072
# 6 3.9292 22.6679 7.9469 -1.2614 0.3072 17.6210
#
#
#
# Elastic Compliance Matrix: (Units=1/GPa)
#
#
# Indices 1 2 3 4 5 6 
#
# 1 0.012398 -0.001083 -0.001916 0.002863 0.003661 -0.000367
# 2 -0.001083 0.022107 -0.003664 0.011507 0.000402 -0.025729
# 3 -0.001916 -0.003664 0.010087 -0.003681 0.006090 0.000222
# 4 0.002863 0.011507 -0.003681 0.047340 0.003511 -0.010454
# 5 0.003661 0.000402 0.006090 0.003511 0.046535 -0.004640
# 6 -0.000367 -0.025729 0.000222 -0.010454 -0.004640 0.089162
#
#
# Mechanical properties :
#
#
# Convention : Reuss Voigt Hill
#
# Bulk Modulus (GPa) = 31.98308 50.09556 41.03932
# Shear Modulus (GPa) = 19.89036 28.82418 24.35727
#
# Velocity S-wave (km/s) = 3.05082 3.67261 3.37606
# Velocity P-wave (km/s) = 5.23223 6.43629 5.86524
#
# Compressibility (1/GPa) = 0.03126653
#
# Stress axis : x y z
#
# Youngs Moduli (GPa) = 80.65607 45.23382 99.13851
#
# Poissons Ratio (x) = 0.04897 0.18996
# Poissons Ratio (y) = 0.08733 0.36326
# Poissons Ratio (z) = 0.15455 0.16575
#
# Static dielectric constant tensor:
#      x y z
#    x 2.959240 0.623740 -0.189890 
#    y 0.623740 3.788010 -0.207020 
#    z -0.189890 -0.207020 4.156040 
# 
# 
# High freq. dielectric constant tensor:
#      x y z
#    x 1.799340 0.018660 -0.006010 
#    y 0.018660 1.838970 -0.006230 
#    z -0.006010 -0.006230 1.855130 
# 
# From -- ./inp_files/273673.got.cif
#   From: 2010.06.25/outbox.cif.g09.slc.cpg/sg2_137_cif.got.tgz:273673.got - 2010.06.27 13:26:56.
