data_PCOD8006932
_publ_section_title
;
Structure prediction by ZEFSAII (Michael W. Deem and Ramdas Pophale) SiO2 
 PCOD8006932
Probable space group: P -1
;
_chemical_formula_sum "Si O2"
_cell_formula_units_Z 16
_cell_length_a 11.700724
_cell_length_b 18.369056
_cell_length_c 5.355818
_cell_angle_alpha 97.589373
_cell_angle_beta 109.517255
_cell_angle_gamma 133.235342
_cell_volume 672.472340
_symmetry_space_group_name_H-M "P -1"
_symmetry_group_IT_number 2
_symmetry_cell_setting 'triclinic'
loop_
_space_group_symop_operation_xyz
x,y,z
-x,-y,-z
loop_
_atom_site_type_symbol
_atom_site_label
_atom_site_fract_x
_atom_site_fract_y
_atom_site_fract_z
Si Si1 0.388761 0.424298 0.631933
Si Si2 0.036608 0.590929 0.288139
Si Si3 0.093278 0.924843 0.596779
Si Si4 0.035698 0.738663 0.658210
Si Si5 0.307296 0.643659 0.848164
Si Si6 0.688572 0.927141 0.677321
Si Si7 0.678718 0.768551 0.361110
Si Si8 0.291542 0.775396 0.172448
O O1 0.500000 0.500000 0.500000
O O2 0.353752 0.320866 0.548172
O O3 0.179780 0.364320 0.433815
O O4 0.500000 0.500000 0.000000
O O5 0.065748 0.679504 0.498963
O O6 0.174248 0.588008 0.480534
O O7 0.106603 0.643334 0.087285
O O8 0.815406 0.458687 0.075243
O O9 0.072452 0.827302 0.558467
O O10 0.883192 0.864358 0.409961
O O11 0.193479 0.986110 0.433847
O O12 0.203993 0.009573 0.954965
O O13 0.205053 0.812467 0.028840
O O14 0.510802 0.696690 0.992849
O O15 0.367875 0.756084 0.006521
O O16 0.661844 0.827070 0.574434
O O17 0.481901 0.873298 0.530919
#
# Coordination Sequence:
#
# PCOD8006932 Si02
#       8
#     2   2   2   2   2   2   2   2
#     4  11  26  45  67 104 138 178 216 261 329 404
#     4  10  20  40  65  93 138 169 219 270 331 395
#     4  11  26  46  66  98 131 174 228 279 329 387
#     4  10  25  40  66  94 134 174 222 271 330 394
#     4   9  20  39  62 101 127 176 214 271 331 397
#     4  11  26  45  70  95 131 174 228 280 333 374
#     4  10  23  44  70  98 133 175 221 274 328 396
#     4  10  23  39  66  96 130 172 221 277 326 399
#
# _framework density 23.792801000000001
#
# number of rings (size 3 to 8) (size 9 to 14) (size 15 to 20)
#    0.000    1.750    0.000    1.875   10.500    5.000 
#    9.000    0.000    0.000    0.000    0.000    0.000 
#    0.000    0.000    0.000    0.000    0.000    0.000 
#
# Total GULP energy -198257.392448 kJ/mol
# GULP energy per Si atom -12391.087028 kJ/mol
# Density = 2.373865 g / cm^3
# Si number density = 23.792801 Si / 1000 Ang^3
#
#
#
# Elastic Constant Matrix: (Units=GPa)
#
#
# Indices 1 2 3 4 5 6 
#
# 1 95.8035 25.7680 53.1980 3.6686 31.2662 -3.4399
# 2 25.7680 86.7565 22.1165 4.8108 3.8051 10.6776
# 3 53.1980 22.1165 98.1924 11.5089 28.8925 5.9666
# 4 3.6686 4.8108 11.5089 31.9023 6.7701 -2.7146
# 5 31.2662 3.8051 28.8925 6.7701 50.4339 2.5793
# 6 -3.4399 10.6776 5.9666 -2.7146 2.5793 29.8684
#
#
#
# Elastic Compliance Matrix: (Units=1/GPa)
#
#
# Indices 1 2 3 4 5 6 
#
# 1 0.018232 -0.004096 -0.007521 0.003324 -0.007439 0.006011
# 2 -0.004096 0.013709 -0.001058 -0.002264 0.002701 -0.005600
# 3 -0.007521 -0.001058 0.016379 -0.004392 -0.003855 -0.003826
# 4 0.003324 -0.002264 -0.004392 0.034265 -0.004258 0.005552
# 5 -0.007439 0.002701 -0.003855 -0.004258 0.027210 -0.003789
# 6 0.006011 -0.005600 -0.003826 0.005552 -0.003789 0.037771
#
#
# Mechanical properties :
#
#
# Convention : Reuss Voigt Hill
#
# Bulk Modulus (GPa) = 43.53472 53.65751 48.59611
# Shear Modulus (GPa) = 27.68966 34.41891 31.05429
#
# Velocity S-wave (km/s) = 3.41513 3.80756 3.61667
# Velocity P-wave (km/s) = 5.82134 6.47541 6.15707
#
# Compressibility (1/GPa) = 0.02297017
#
# Stress axis : x y z
#
# Youngs Moduli (GPa) = 54.84732 72.94439 61.05426
#
# Poissons Ratio (x) = 0.29877 0.45921
# Poissons Ratio (y) = 0.22464 0.06459
# Poissons Ratio (z) = 0.41253 0.07717
#
# Static dielectric constant tensor:
#      x y z
#    x 4.407160 -0.019880 0.405180 
#    y -0.019880 4.388910 0.101780 
#    z 0.405180 0.101780 4.509390 
# 
# 
# High freq. dielectric constant tensor:
#      x y z
#    x 1.942870 -0.004910 0.025200 
#    y -0.004910 1.947350 0.008320 
#    z 0.025200 0.008320 1.940410 
# 
# From -- ./inp_files/81432.got.cif
#   From: 2010.06.25/outbox.cif.g09.slc.cpg/sg2_41_cif.got.tgz:81432.got - 2010.06.27 13:26:56.
