data_PCOD8006004
_publ_section_title
;
Structure prediction by ZEFSAII (Michael W. Deem and Ramdas Pophale) SiO2 
 PCOD8006004
Probable space group: P -1
;
_chemical_formula_sum "Si O2"
_cell_formula_units_Z 12
_cell_length_a 9.757584
_cell_length_b 13.363215
_cell_length_c 9.096131
_cell_angle_alpha 130.461261
_cell_angle_beta 134.794479
_cell_angle_gamma 41.835953
_cell_volume 541.796622
_symmetry_space_group_name_H-M "P -1"
_symmetry_group_IT_number 2
_symmetry_cell_setting 'triclinic'
loop_
_space_group_symop_operation_xyz
x,y,z
-x,-y,-z
loop_
_atom_site_type_symbol
_atom_site_label
_atom_site_fract_x
_atom_site_fract_y
_atom_site_fract_z
Si Si1 0.994475 0.467875 0.634792
Si Si2 0.275670 0.970198 0.905985
Si Si3 0.405104 0.198345 0.265767
Si Si4 0.820850 0.198955 0.640232
Si Si5 0.228874 0.709221 0.644591
Si Si6 0.371663 0.506652 0.056705
O O1 0.785173 0.619453 0.698847
O O2 0.973890 0.317607 0.493305
O O3 0.000000 0.500000 0.500000
O O4 0.232399 0.422648 0.846130
O O5 0.515505 0.851296 0.891323
O O6 0.203702 0.866037 0.846594
O O7 0.078828 0.051237 0.707445
O O8 0.304014 0.092362 0.141269
O O9 0.624867 0.161187 0.493551
O O10 0.762267 0.280010 0.513948
O O11 0.808222 0.314923 0.866845
O O12 0.460433 0.564799 0.746438
O O13 0.500000 0.500000 0.000000
#
# Coordination Sequence:
#
# PCOD8006004 Si02
#       6
#     2   2   2   2   2   2
#     4  12  24  42  66  92 130 175 218 264 322 384
#     4  10  23  40  66  98 135 165 207 272 322 378
#     4  10  20  39  64  92 133 165 211 256 326 374
#     4  11  22  42  67  98 134 167 210 269 320 384
#     4  11  24  40  67 101 127 165 224 263 318 381
#     4  12  24  42  65  92 132 173 213 266 322 379
#
# _framework density 22.148530999999998
#
# number of rings (size 3 to 8) (size 9 to 14) (size 15 to 20)
#    0.000    1.000    5.000    2.500    2.333    6.000 
#    0.000    3.333    0.000    7.000    0.000    0.000 
#    0.000    0.000    0.000    0.000    0.000    0.000 
#
# Total GULP energy -148712.456943 kJ/mol
# GULP energy per Si atom -12392.704745 kJ/mol
# Density = 2.209812 g / cm^3
# Si number density = 22.148531 Si / 1000 Ang^3
#
#
#
# Elastic Constant Matrix: (Units=GPa)
#
#
# Indices 1 2 3 4 5 6 
#
# 1 94.4139 52.3020 50.7418 5.1208 24.9484 14.6621
# 2 52.3020 83.0713 26.4306 6.7228 10.5645 16.8837
# 3 50.7418 26.4306 117.1496 10.4393 42.5498 22.9590
# 4 5.1208 6.7228 10.4393 40.5980 12.7554 23.1553
# 5 24.9484 10.5645 42.5498 12.7554 52.2092 12.3853
# 6 14.6621 16.8837 22.9590 23.1553 12.3853 28.9231
#
#
#
# Elastic Compliance Matrix: (Units=1/GPa)
#
#
# Indices 1 2 3 4 5 6 
#
# 1 0.020194 -0.010845 -0.005224 0.001314 -0.003702 0.000774
# 2 -0.010845 0.020120 0.001302 0.003182 0.001785 -0.010593
# 3 -0.005224 0.001302 0.015475 0.005582 -0.009146 -0.010948
# 4 0.001314 0.003182 0.005582 0.049699 -0.007652 -0.043466
# 5 -0.003702 0.001785 -0.009146 -0.007652 0.029509 0.001584
# 6 0.000774 -0.010593 -0.010948 -0.043466 0.001584 0.083176
#
#
# Mechanical properties :
#
#
# Convention : Reuss Voigt Hill
#
# Bulk Modulus (GPa) = 38.08793 61.50926 49.79860
# Shear Modulus (GPa) = 19.49643 35.35674 27.42659
#
# Velocity S-wave (km/s) = 2.97013 3.99977 3.52277
# Velocity P-wave (km/s) = 5.38481 7.01159 6.25134
#
# Compressibility (1/GPa) = 0.02625503
#
# Stress axis : x y z
#
# Youngs Moduli (GPa) = 49.52045 49.70210 64.61998
#
# Poissons Ratio (x) = 0.53901 0.33757
# Poissons Ratio (y) = 0.53704 -0.08413
# Poissons Ratio (z) = 0.25869 -0.06471
#
# Static dielectric constant tensor:
#      x y z
#    x 3.949530 0.102970 0.603260 
#    y 0.102970 4.061970 0.415900 
#    z 0.603260 0.415900 4.425090 
# 
# 
# High freq. dielectric constant tensor:
#      x y z
#    x 1.844580 -0.008250 0.036570 
#    y -0.008250 1.862800 0.021070 
#    z 0.036570 0.021070 1.888960 
# 
# From -- ./inp_files/174348.got.cif
#   From: 2010.06.25/outbox.cif.g09.slc.cpg/sg2_88_cif.got.tgz:174348.got - 2010.06.27 13:26:56.
