data_PCOD8006462
_publ_section_title
;
Structure prediction by ZEFSAII (Michael W. Deem and Ramdas Pophale) SiO2 
 PCOD8006462
Probable space group: P -1
;
_chemical_formula_sum "Si O2"
_cell_formula_units_Z 10
_cell_length_a 13.058430
_cell_length_b 10.070836
_cell_length_c 18.447633
_cell_angle_alpha 25.207281
_cell_angle_beta 25.320793
_cell_angle_gamma 36.161481
_cell_volume 441.166220
_symmetry_space_group_name_H-M "P -1"
_symmetry_group_IT_number 2
_symmetry_cell_setting 'triclinic'
loop_
_space_group_symop_operation_xyz
x,y,z
-x,-y,-z
loop_
_atom_site_type_symbol
_atom_site_label
_atom_site_fract_x
_atom_site_fract_y
_atom_site_fract_z
Si Si1 0.797160 0.431057 0.221861
Si Si2 0.391858 0.325340 0.057652
Si Si3 0.952390 0.682569 0.141416
Si Si4 0.816984 0.746766 0.613635
Si Si5 0.309424 0.653390 0.400973
O O1 0.823988 0.698016 0.136970
O O2 0.537677 0.449179 0.339381
O O3 0.822349 0.087972 0.407282
O O4 0.000000 0.500000 0.000000
O O5 0.653857 0.495594 0.797386
O O6 0.304535 0.237979 0.237422
O O7 0.208871 0.550351 0.026419
O O8 0.399998 0.013237 0.160371
O O9 0.783980 0.437331 0.414647
O O10 0.000000 0.000000 0.000000
O O11 0.082524 0.609472 0.513298
#
# Coordination Sequence:
#
# PCOD8006462 Si02
#       5
#     2   2   2   2   2
#     4  12  26  43  64  97 140 174 208 268 336 390
#     4  10  20  39  71  99 124 163 228 282 308 371
#     4  11  22  41  71 100 127 171 223 270 319 386
#     4  10  21  41  64  99 130 165 221 271 322 383
#     4  11  22  41  70  94 126 176 223 272 314 378
#
# _framework density 22.667193000000001
#
# number of rings (size 3 to 8) (size 9 to 14) (size 15 to 20)
#    0.000    1.200    4.000    3.000    8.400    0.800 
#    0.000    5.000    0.000    0.000    0.000    0.000 
#    0.000    0.000    0.000    0.000    0.000    0.000 
#
# Total GULP energy -123939.085867 kJ/mol
# GULP energy per Si atom -12393.908587 kJ/mol
# Density = 2.261560 g / cm^3
# Si number density = 22.667193 Si / 1000 Ang^3
#
#
#
# Elastic Constant Matrix: (Units=GPa)
#
#
# Indices 1 2 3 4 5 6 
#
# 1 47.6492 48.3800 58.2273 10.6798 -18.7543 -19.0497
# 2 48.3800 109.0417 53.3052 16.5506 -9.2794 -40.8033
# 3 58.2273 53.3052 132.9882 7.6987 -27.1516 -14.2570
# 4 10.6798 16.5506 7.6987 41.4817 -9.0176 -16.4770
# 5 -18.7543 -9.2794 -27.1516 -9.0176 32.9666 3.5214
# 6 -19.0497 -40.8033 -14.2570 -16.4770 3.5214 42.7693
#
#
#
# Elastic Compliance Matrix: (Units=1/GPa)
#
#
# Indices 1 2 3 4 5 6 
#
# 1 0.078029 -0.019827 -0.021310 -0.001203 0.020223 0.006607
# 2 -0.019827 0.022386 -0.000242 -0.000064 -0.006579 0.012963
# 3 -0.021310 -0.000242 0.016999 0.001537 0.002623 -0.003680
# 4 -0.001203 -0.000064 0.001537 0.030149 0.007646 0.010901
# 5 0.020223 -0.006579 0.002623 0.007646 0.043924 0.002934
# 6 0.006607 0.012963 -0.003680 0.010901 0.002934 0.041423
#
#
# Mechanical properties :
#
#
# Convention : Reuss Voigt Hill
#
# Bulk Modulus (GPa) = 28.85479 67.72265 48.28872
# Shear Modulus (GPa) = 15.28020 32.09462 23.68741
#
# Velocity S-wave (km/s) = 2.59918 3.76694 3.23617
# Velocity P-wave (km/s) = 4.66530 6.99010 5.94250
#
# Compressibility (1/GPa) = 0.03465629
#
# Stress axis : x y z
#
# Youngs Moduli (GPa) = 12.81572 44.66994 58.82736
#
# Poissons Ratio (x) = 0.88566 1.25363
# Poissons Ratio (y) = 0.25409 0.01424
# Poissons Ratio (z) = 0.27311 0.01081
#
# Static dielectric constant tensor:
#      x y z
#    x 4.115060 -0.471230 -0.366050 
#    y -0.471230 3.986390 -0.043340 
#    z -0.366050 -0.043340 4.199960 
# 
# 
# High freq. dielectric constant tensor:
#      x y z
#    x 1.872910 -0.033770 -0.024510 
#    y -0.033770 1.881670 -0.006540 
#    z -0.024510 -0.006540 1.902870 
# 
# From -- ./inp_files/144109.got.cif
#   From: 2010.06.25/outbox.cif.g09.slc.cpg/sg2_73_cif.got.tgz:144109.got - 2010.06.27 13:26:56.
