data_PCOD8006508
_publ_section_title
;
Structure prediction by ZEFSAII (Michael W. Deem and Ramdas Pophale) SiO2 
 PCOD8006508
Probable space group: P -1
;
_chemical_formula_sum "Si O2"
_cell_formula_units_Z 16
_cell_length_a 9.625831
_cell_length_b 14.139785
_cell_length_c 11.634716
_cell_angle_alpha 124.246563
_cell_angle_beta 141.556196
_cell_angle_gamma 73.673227
_cell_volume 773.615751
_symmetry_space_group_name_H-M "P -1"
_symmetry_group_IT_number 2
_symmetry_cell_setting 'triclinic'
loop_
_space_group_symop_operation_xyz
x,y,z
-x,-y,-z
loop_
_atom_site_type_symbol
_atom_site_label
_atom_site_fract_x
_atom_site_fract_y
_atom_site_fract_z
Si Si1 0.689413 0.384413 0.138803
Si Si2 0.676398 0.021602 0.973034
Si Si3 0.966763 0.758464 0.760813
Si Si4 0.607107 0.625082 0.259903
Si Si5 0.202745 0.061379 0.765713
Si Si6 0.418249 0.315600 0.138963
Si Si7 0.728901 0.457929 0.819379
Si Si8 0.570541 0.762457 0.661606
O O1 0.915325 0.347329 0.222706
O O2 0.745503 0.528246 0.259118
O O3 0.628028 0.344841 0.202897
O O4 0.463408 0.321681 0.867212
O O5 0.820896 0.006188 0.171505
O O6 0.846779 0.114249 0.059297
O O7 0.571708 0.899836 0.747909
O O8 0.461290 0.071136 0.894201
O O9 0.773634 0.731616 0.515840
O O10 0.832963 0.760550 0.795824
O O11 0.356588 0.557354 0.114153
O O12 0.201940 0.199597 0.876993
O O13 0.000000 0.000000 0.500000
O O14 0.352820 0.434143 0.210849
O O15 0.511852 0.277383 0.290636
O O16 0.621257 0.327790 0.603732
O O17 0.000000 0.500000 0.000000
#
# Coordination Sequence:
#
# PCOD8006508 Si02
#       8
#     2   2   2   2   2   2   2   2
#     4  10  20  40  59  88 124 155 202 250 301 354
#     4  10  22  40  60  92 120 161 203 245 304 352
#     4  11  21  38  65  85 121 164 198 246 308 352
#     4   9  22  39  58  91 122 156 207 251 291 365
#     4  10  22  39  62  89 125 155 204 252 292 359
#     4  10  21  40  60  91 115 158 205 241 307 359
#     4  10  22  39  61  89 121 160 197 249 309 357
#     4  10  23  41  60  88 126 155 203 252 295 369
#
# _framework density 20.682102
#
# number of rings (size 3 to 8) (size 9 to 14) (size 15 to 20)
#    0.000    2.000    1.250    1.125    5.250    0.000 
#    6.750    0.000    0.000    4.500    0.000    0.000 
#    0.000    0.000    0.000    0.000    0.000    0.000 
#
# Total GULP energy -198281.352533 kJ/mol
# GULP energy per Si atom -12392.584533 kJ/mol
# Density = 2.063503 g / cm^3
# Si number density = 20.682102 Si / 1000 Ang^3
#
#
#
# Elastic Constant Matrix: (Units=GPa)
#
#
# Indices 1 2 3 4 5 6 
#
# 1 89.9704 39.4529 21.0165 1.9403 4.3058 0.1070
# 2 39.4529 65.7865 32.4939 6.3496 2.4143 -4.8363
# 3 21.0165 32.4939 96.1008 11.7496 -7.2495 0.4616
# 4 1.9403 6.3496 11.7496 26.6624 -1.3125 -4.4272
# 5 4.3058 2.4143 -7.2495 -1.3125 33.7986 2.7816
# 6 0.1070 -4.8363 0.4616 -4.4272 2.7816 26.4309
#
#
#
# Elastic Compliance Matrix: (Units=1/GPa)
#
#
# Indices 1 2 3 4 5 6 
#
# 1 0.015237 -0.009054 -0.000475 0.000960 -0.001242 -0.001419
# 2 -0.009054 0.024292 -0.006220 -0.001746 -0.002358 0.004546
# 3 -0.000475 -0.006220 0.013452 -0.004661 0.003416 -0.002511
# 4 0.000960 -0.001746 -0.004661 0.041008 0.000050 0.006622
# 5 -0.001242 -0.002358 0.003416 0.000050 0.030956 -0.003735
# 6 -0.001419 0.004546 -0.002511 0.006622 -0.003735 0.040218
#
#
# Mechanical properties :
#
#
# Convention : Reuss Voigt Hill
#
# Bulk Modulus (GPa) = 46.54859 48.64269 47.59564
# Shear Modulus (GPa) = 24.53123 27.97134 26.25128
#
# Velocity S-wave (km/s) = 3.44773 3.68155 3.56655
# Velocity P-wave (km/s) = 6.19715 6.45306 6.32640
#
# Compressibility (1/GPa) = 0.02148293
#
# Stress axis : x y z
#
# Youngs Moduli (GPa) = 65.63172 41.16577 74.33675
#
# Poissons Ratio (x) = 0.37273 0.03530
# Poissons Ratio (y) = 0.59425 0.46236
# Poissons Ratio (z) = 0.03117 0.25604
#
# Static dielectric constant tensor:
#      x y z
#    x 4.043490 -0.637090 -0.251790 
#    y -0.637090 6.281250 0.543170 
#    z -0.251790 0.543170 3.683140 
# 
# 
# High freq. dielectric constant tensor:
#      x y z
#    x 1.816820 -0.002720 -0.010070 
#    y -0.002720 1.804060 0.019710 
#    z -0.010070 0.019710 1.794590 
# 
# From -- ./inp_files/109863.got.cif
#   From: 2010.06.25/outbox.cif.g09.slc.cpg/sg2_55_cif.got.tgz:109863.got - 2010.06.27 13:26:56.
