data_PCOD8006691
_publ_section_title
;
Structure prediction by ZEFSAII (Michael W. Deem and Ramdas Pophale) SiO2 
 PCOD8006691
Probable space group: P -1
;
_chemical_formula_sum "Si O2"
_cell_formula_units_Z 16
_cell_length_a 13.888426
_cell_length_b 6.936889
_cell_length_c 22.767737
_cell_angle_alpha 84.034245
_cell_angle_beta 159.814119
_cell_angle_gamma 95.026007
_cell_volume 752.489093
_symmetry_space_group_name_H-M "P -1"
_symmetry_group_IT_number 2
_symmetry_cell_setting 'triclinic'
loop_
_space_group_symop_operation_xyz
x,y,z
-x,-y,-z
loop_
_atom_site_type_symbol
_atom_site_label
_atom_site_fract_x
_atom_site_fract_y
_atom_site_fract_z
Si Si1 0.381296 0.297634 0.958441
Si Si2 0.163077 0.113844 0.511988
Si Si3 0.123947 0.414138 0.157730
Si Si4 0.788790 0.910043 0.692093
Si Si5 0.567343 0.423576 0.775414
Si Si6 0.904811 0.032114 0.249818
Si Si7 0.684746 0.238982 0.311617
Si Si8 0.881041 0.769513 0.069992
O O1 0.226437 0.337516 0.929817
O O2 0.161100 0.197082 0.790730
O O3 0.500000 0.500000 0.000000
O O4 0.629561 0.140109 0.113519
O O5 0.432943 0.238271 0.674805
O O6 0.145017 0.061623 0.434463
O O7 0.891570 0.240086 0.374106
O O8 0.180219 0.906477 0.559343
O O9 0.257116 0.282769 0.290189
O O10 0.336439 0.426693 0.224529
O O11 0.082576 0.627393 0.153468
O O12 0.826454 0.341810 0.965672
O O13 0.995024 0.869828 0.756510
O O14 0.500000 0.000000 0.500000
O O15 0.934391 0.049488 0.816526
O O16 0.348953 0.543500 0.688102
O O17 0.383826 0.162536 0.122715
#
# Coordination Sequence:
#
# PCOD8006691 Si02
#       8
#     2   2   2   2   2   2   2   2
#     4  10  20  40  63  87 119 163 198 250 305 367
#     4  11  22  40  63  95 126 158 201 258 307 365
#     4  10  23  43  63  91 120 165 213 249 301 368
#     4  11  25  41  62  90 126 163 201 258 304 363
#     4  10  23  41  66  90 123 163 210 255 303 360
#     4  10  23  39  60  93 123 155 209 242 308 376
#     4  10  22  40  63  92 122 160 202 256 311 360
#     4  10  21  42  62  88 122 160 208 246 308 365
#
# _framework density 21.262767
#
# number of rings (size 3 to 8) (size 9 to 14) (size 15 to 20)
#    0.000    1.750    1.250    1.875    3.500    1.500 
#   11.250    3.750    0.000    0.000    0.000    0.000 
#    0.000    0.000    0.000    0.000    0.000    0.000 
#
# Total GULP energy -198400.158947 kJ/mol
# GULP energy per Si atom -12400.009934 kJ/mol
# Density = 2.121437 g / cm^3
# Si number density = 21.262767 Si / 1000 Ang^3
#
#
#
# Elastic Constant Matrix: (Units=GPa)
#
#
# Indices 1 2 3 4 5 6 
#
# 1 83.4356 21.9269 19.5637 -0.8056 -12.0753 -6.8847
# 2 21.9269 53.6714 16.6616 6.1820 -11.2765 -2.3083
# 3 19.5637 16.6616 68.2579 -2.1829 -16.4948 -12.3400
# 4 -0.8056 6.1820 -2.1829 32.2207 -7.3470 -7.5055
# 5 -12.0753 -11.2765 -16.4948 -7.3470 36.5600 3.0385
# 6 -6.8847 -2.3083 -12.3400 -7.5055 3.0385 31.5216
#
#
#
# Elastic Compliance Matrix: (Units=1/GPa)
#
#
# Indices 1 2 3 4 5 6 
#
# 1 0.014291 -0.004899 -0.001743 0.002348 0.002697 0.002379
# 2 -0.004899 0.022943 -0.004085 -0.004703 0.002869 -0.002385
# 3 -0.001743 -0.004085 0.019484 0.005513 0.007436 0.007544
# 4 0.002348 -0.004703 0.005513 0.036657 0.008327 0.010252
# 5 0.002697 0.002869 0.007436 0.008327 0.033955 0.002420
# 6 0.002379 -0.002385 0.007544 0.010252 0.002420 0.037230
#
#
# Mechanical properties :
#
#
# Convention : Reuss Voigt Hill
#
# Bulk Modulus (GPa) = 28.35702 35.74103 32.04902
# Shear Modulus (GPa) = 25.28209 29.87463 27.57836
#
# Velocity S-wave (km/s) = 3.45197 3.75243 3.60533
# Velocity P-wave (km/s) = 5.40866 5.96825 5.69533
#
# Compressibility (1/GPa) = 0.03526464
#
# Stress axis : x y z
#
# Youngs Moduli (GPa) = 69.97549 43.58616 51.32422
#
# Poissons Ratio (x) = 0.21352 0.08947
# Poissons Ratio (y) = 0.34279 0.20964
# Poissons Ratio (z) = 0.12198 0.17803
#
# Static dielectric constant tensor:
#      x y z
#    x 3.913860 -0.257700 -0.059270 
#    y -0.257700 3.580670 0.124190 
#    z -0.059270 0.124190 3.853420 
# 
# 
# High freq. dielectric constant tensor:
#      x y z
#    x 1.842370 -0.017160 -0.002540 
#    y -0.017160 1.819030 0.009000 
#    z -0.002540 0.009000 1.834270 
# 
# From -- ./inp_files/68467.got.cif
#   From: 2010.06.25/outbox.cif.g09.slc.cpg/sg2_35_cif.got.tgz:68467.got - 2010.06.27 13:26:56.
