data_PCOD8006891
_publ_section_title
;
Structure prediction by ZEFSAII (Michael W. Deem and Ramdas Pophale) SiO2 
 PCOD8006891
Probable space group: P -1
;
_chemical_formula_sum "Si O2"
_cell_formula_units_Z 16
_cell_length_a 14.225029
_cell_length_b 15.737810
_cell_length_c 15.152731
_cell_angle_alpha 152.247427
_cell_angle_beta 148.973184
_cell_angle_gamma 41.281019
_cell_volume 813.863369
_symmetry_space_group_name_H-M "P -1"
_symmetry_group_IT_number 2
_symmetry_cell_setting 'triclinic'
loop_
_space_group_symop_operation_xyz
x,y,z
-x,-y,-z
loop_
_atom_site_type_symbol
_atom_site_label
_atom_site_fract_x
_atom_site_fract_y
_atom_site_fract_z
Si Si1 0.375564 0.565906 0.380461
Si Si2 0.621734 0.585956 0.426331
Si Si3 0.232194 0.988016 0.261152
Si Si4 0.498657 0.316955 0.772111
Si Si5 0.839254 0.153957 0.431753
Si Si6 0.634797 0.193050 0.121729
Si Si7 0.776685 0.789916 0.139542
Si Si8 0.833720 0.937769 0.922684
O O1 0.500000 0.500000 0.500000
O O2 0.495324 0.615640 0.436883
O O3 0.260416 0.741026 0.472951
O O4 0.230310 0.404547 0.092761
O O5 0.513846 0.627970 0.289108
O O6 0.689500 0.379639 0.286339
O O7 0.799483 0.719813 0.697540
O O8 0.339471 0.174632 0.546885
O O9 0.209530 0.978711 0.129817
O O10 0.319133 0.796935 0.180566
O O11 0.041732 0.988251 0.160623
O O12 0.500000 0.500000 0.000000
O O13 0.738583 0.205486 0.309118
O O14 0.056117 0.206134 0.651853
O O15 0.815112 0.938963 0.231575
O O16 0.416373 0.173775 0.936018
O O17 0.698680 0.021329 0.961391
#
# Coordination Sequence:
#
# PCOD8006891 Si02
#       8
#     2   2   2   2   2   2   2   2
#     4  11  21  40  63  83 128 166 199 257 301 357
#     4  10  22  38  60  92 116 163 203 240 312 359
#     4   9  21  41  61  90 119 159 196 245 311 363
#     4  10  20  40  65  90 125 156 196 250 305 360
#     4  11  22  40  61  87 118 166 209 249 310 355
#     4  11  22  39  60  90 124 158 202 257 300 359
#     4  10  23  39  60  87 117 161 211 250 305 358
#     4  10  21  40  62  86 123 154 202 250 299 371
#
# _framework density 19.659320000000001
#
# number of rings (size 3 to 8) (size 9 to 14) (size 15 to 20)
#    0.000    1.750    2.500    2.250    1.750    1.000 
#   20.250    3.750    0.000    0.000    0.000    0.000 
#    0.000    0.000    0.000    0.000    0.000    0.000 
#
# Total GULP energy -198374.325521 kJ/mol
# GULP energy per Si atom -12398.395345 kJ/mol
# Density = 1.961457 g / cm^3
# Si number density = 19.659320 Si / 1000 Ang^3
#
#
#
# Elastic Constant Matrix: (Units=GPa)
#
#
# Indices 1 2 3 4 5 6 
#
# 1 79.8977 32.1650 44.0515 -8.3919 0.2267 0.9219
# 2 32.1650 91.8156 39.8334 0.6473 9.5059 3.2372
# 3 44.0515 39.8334 106.5729 2.1273 10.7921 -5.6572
# 4 -8.3919 0.6473 2.1273 33.0087 -6.3081 6.8279
# 5 0.2267 9.5059 10.7921 -6.3081 25.3248 2.4200
# 6 0.9219 3.2372 -5.6572 6.8279 2.4200 30.8327
#
#
#
# Elastic Compliance Matrix: (Units=1/GPa)
#
#
# Indices 1 2 3 4 5 6 
#
# 1 0.019020 -0.004090 -0.007354 0.007427 0.006698 -0.003659
# 2 -0.004090 0.014219 -0.003232 -0.001654 -0.004214 -0.001267
# 3 -0.007354 -0.003232 0.014669 -0.005044 -0.006696 0.004893
# 4 0.007427 -0.001654 -0.005044 0.037123 0.012926 -0.010209
# 5 0.006698 -0.004214 -0.006696 0.012926 0.047809 -0.007601
# 6 -0.003659 -0.001267 0.004893 -0.010209 -0.007601 0.036431
#
#
# Mechanical properties :
#
#
# Convention : Reuss Voigt Hill
#
# Bulk Modulus (GPa) = 53.88547 56.70954 55.29750
# Shear Modulus (GPa) = 24.41322 28.64899 26.53110
#
# Velocity S-wave (km/s) = 3.52776 3.82157 3.67760
# Velocity P-wave (km/s) = 6.63797 6.95566 6.79867
#
# Compressibility (1/GPa) = 0.01855788
#
# Stress axis : x y z
#
# Youngs Moduli (GPa) = 52.57515 70.33027 68.16871
#
# Poissons Ratio (x) = 0.28762 0.50133
# Poissons Ratio (y) = 0.21501 0.22029
# Poissons Ratio (z) = 0.38665 0.22727
#
# Static dielectric constant tensor:
#      x y z
#    x 3.525230 -0.044570 0.051940 
#    y -0.044570 3.718310 0.064370 
#    z 0.051940 0.064370 3.829620 
# 
# 
# High freq. dielectric constant tensor:
#      x y z
#    x 1.752100 0.002130 0.003920 
#    y 0.002130 1.776150 0.006980 
#    z 0.003920 0.006980 1.778780 
# 
# From -- ./inp_files/534510.got.cif
#   From: 2010.06.25/outbox.cif.g09.slc.cpg/sg2_268_cif.got.tgz:534510.got - 2010.06.27 13:26:56.
