data_PCOD8006068
_publ_section_title
;
Structure prediction by ZEFSAII (Michael W. Deem and Ramdas Pophale) SiO2 
 PCOD8006068
Probable space group: P -1
;
_chemical_formula_sum "Si O2"
_cell_formula_units_Z 14
_cell_length_a 21.251539
_cell_length_b 8.913547
_cell_length_c 7.923685
_cell_angle_alpha 129.512240
_cell_angle_beta 138.873228
_cell_angle_gamma 38.043807
_cell_volume 604.951077
_symmetry_space_group_name_H-M "P -1"
_symmetry_group_IT_number 2
_symmetry_cell_setting 'triclinic'
loop_
_space_group_symop_operation_xyz
x,y,z
-x,-y,-z
loop_
_atom_site_type_symbol
_atom_site_label
_atom_site_fract_x
_atom_site_fract_y
_atom_site_fract_z
Si Si1 0.222818 0.930828 0.751064
Si Si2 0.298573 0.259261 0.154265
Si Si3 0.104688 0.787613 0.173103
Si Si4 0.295505 0.594811 0.946111
Si Si5 0.095364 0.117762 0.950894
Si Si6 0.509503 0.820259 0.755298
Si Si7 0.733981 0.768675 0.545974
O O1 0.185960 0.863542 0.460318
O O2 0.317406 0.688365 0.882794
O O3 0.282171 0.060582 0.909879
O O4 0.104776 0.116295 0.764190
O O5 0.188465 0.531117 0.059437
O O6 0.421866 0.189720 0.279921
O O7 0.298852 0.274593 0.367515
O O8 0.041697 0.752327 0.178868
O O9 0.000000 0.000000 0.000000
O O10 0.258685 0.417139 0.703923
O O11 0.417399 0.448458 0.201668
O O12 0.184158 0.833339 0.992484
O O13 0.140930 0.266874 0.227420
O O14 0.372351 0.943768 0.510498
O O15 0.500000 0.000000 0.000000
#
# Coordination Sequence:
#
# PCOD8006068 Si02
#       7
#     2   2   2   2   2   2   2
#     4   9  22  40  61  86 128 157 196 245 302 359
#     4  11  22  42  61  90 125 155 204 251 298 358
#     4  12  24  38  63  93 121 160 202 251 300 356
#     4   9  19  40  59  88 125 157 196 244 296 360
#     4   9  21  38  60  91 120 161 200 234 306 356
#     4  10  22  39  65  89 122 161 200 249 304 353
#     4  10  20  39  65  89 120 162 202 246 296 355
#
# _framework density 23.142368000000001
#
# number of rings (size 3 to 8) (size 9 to 14) (size 15 to 20)
#    0.857    1.143    1.429    1.714    0.000    6.857 
#    0.000    5.714    0.000    0.000    0.000    0.000 
#    0.000    0.000    0.000    0.000    0.000    0.000 
#
# Total GULP energy -173505.509790 kJ/mol
# GULP energy per Si atom -12393.250699 kJ/mol
# Density = 2.308970 g / cm^3
# Si number density = 23.142368 Si / 1000 Ang^3
#
#
#
# Elastic Constant Matrix: (Units=GPa)
#
#
# Indices 1 2 3 4 5 6 
#
# 1 35.7118 -7.2437 2.3782 4.5178 4.6347 -4.5069
# 2 -7.2437 79.0921 12.8710 14.2839 4.3732 9.2735
# 3 2.3782 12.8710 65.9762 7.6109 6.3732 12.5880
# 4 4.5178 14.2839 7.6109 30.0093 6.3442 -0.8545
# 5 4.6347 4.3732 6.3732 6.3442 19.9472 -3.2650
# 6 -4.5069 9.2735 12.5880 -0.8545 -3.2650 32.8924
#
#
#
# Elastic Compliance Matrix: (Units=1/GPa)
#
#
# Indices 1 2 3 4 5 6 
#
# 1 0.030570 0.003851 -0.001322 -0.004853 -0.005500 0.002937
# 2 0.003851 0.015027 -0.001374 -0.007043 -0.002096 -0.003574
# 3 -0.001322 -0.001374 0.017666 -0.002701 -0.005348 -0.007156
# 4 -0.004853 -0.007043 -0.002701 0.040019 -0.008781 0.002522
# 5 -0.005500 -0.002096 -0.005348 -0.008781 0.057578 0.007371
# 6 0.002937 -0.003574 -0.007156 0.002522 0.007371 0.035348
#
#
# Mechanical properties :
#
#
# Convention : Reuss Voigt Hill
#
# Bulk Modulus (GPa) = 15.25020 21.86568 18.55794
# Shear Modulus (GPa) = 23.17455 28.08807 25.63131
#
# Velocity S-wave (km/s) = 3.16791 3.48761 3.33160
# Velocity P-wave (km/s) = 4.47045 5.06821 4.77868
#
# Compressibility (1/GPa) = 0.06557291
#
# Stress axis : x y z
#
# Youngs Moduli (GPa) = 32.71224 66.54898 56.60566
#
# Poissons Ratio (x) = -0.25630 0.07485
# Poissons Ratio (y) = -0.12598 0.07775
# Poissons Ratio (z) = 0.04326 0.09141
#
# Static dielectric constant tensor:
#      x y z
#    x 3.906810 0.064670 -0.066910 
#    y 0.064670 4.507210 -0.156800 
#    z -0.066910 -0.156800 3.924020 
# 
# 
# High freq. dielectric constant tensor:
#      x y z
#    x 1.889790 0.007590 -0.006470 
#    y 0.007590 1.925590 0.003520 
#    z -0.006470 0.003520 1.899400 
# 
# From -- ./inp_files/343069.got.cif
#   From: 2010.06.25/outbox.cif.g09.slc.cpg/sg2_172_cif.got.tgz:343069.got - 2010.06.27 13:26:56.
