data_PCOD8006865
_publ_section_title
;
Structure prediction by ZEFSAII (Michael W. Deem and Ramdas Pophale) SiO2 
 PCOD8006865
Probable space group: P -1
;
_chemical_formula_sum "Si O2"
_cell_formula_units_Z 16
_cell_length_a 13.013429
_cell_length_b 18.841750
_cell_length_c 20.098026
_cell_angle_alpha 159.121583
_cell_angle_beta 157.952456
_cell_angle_gamma 28.883660
_cell_volume 657.559182
_symmetry_space_group_name_H-M "P -1"
_symmetry_group_IT_number 2
_symmetry_cell_setting 'triclinic'
loop_
_space_group_symop_operation_xyz
x,y,z
-x,-y,-z
loop_
_atom_site_type_symbol
_atom_site_label
_atom_site_fract_x
_atom_site_fract_y
_atom_site_fract_z
Si Si1 0.793132 0.278427 0.933304
Si Si2 0.996482 0.150593 0.289205
Si Si3 0.899058 0.786218 0.735301
Si Si4 0.276234 0.500700 0.783094
Si Si5 0.463470 0.578885 0.381227
Si Si6 0.927557 0.161575 0.525380
Si Si7 0.245392 0.559165 0.443017
Si Si8 0.638325 0.804189 0.082911
O O1 0.562188 0.373022 0.827032
O O2 0.855730 0.042050 0.755653
O O3 0.691695 0.334407 0.996065
O O4 0.074402 0.368766 0.165067
O O5 0.176600 0.206876 0.381641
O O6 0.055436 0.342702 0.538791
O O7 0.684101 0.123260 0.055128
O O8 0.649924 0.725225 0.579485
O O9 0.158311 0.620932 0.753371
O O10 0.000000 0.000000 0.000000
O O11 0.255501 0.712897 0.419420
O O12 0.652037 0.422054 0.403003
O O13 0.310608 0.430190 0.110719
O O14 0.909560 0.243078 0.510053
O O15 0.244121 0.164492 0.743820
O O16 0.821289 0.939256 0.263687
O O17 0.500000 0.500000 0.500000
#
# Coordination Sequence:
#
# PCOD8006865 Si02
#       8
#     2   2   2   2   2   2   2   2
#     4  11  23  43  63  90 133 163 209 270 309 379
#     4  12  23  40  66  93 126 168 212 256 320 385
#     4  12  22  40  65  93 128 167 208 259 319 377
#     4  11  24  41  62  93 127 167 211 258 320 378
#     4  11  22  43  63  90 130 169 210 262 314 383
#     4  10  24  41  62  95 124 166 214 267 317 371
#     4  10  20  40  65  86 122 169 210 255 320 368
#     4  11  23  41  66  93 127 164 214 265 319 379
#
# _framework density 24.332411
#
# number of rings (size 3 to 8) (size 9 to 14) (size 15 to 20)
#    0.000    1.000    3.750    3.375    1.750    0.500 
#    0.000    2.500    0.000    0.000    0.000    0.000 
#    0.000    0.000    0.000    0.000    0.000    0.000 
#
# Total GULP energy -198230.276919 kJ/mol
# GULP energy per Si atom -12389.392307 kJ/mol
# Density = 2.427703 g / cm^3
# Si number density = 24.332411 Si / 1000 Ang^3
#
#
#
# Elastic Constant Matrix: (Units=GPa)
#
#
# Indices 1 2 3 4 5 6 
#
# 1 29.2644 -11.5793 -0.6212 -0.1586 9.0902 5.6491
# 2 -11.5793 108.4444 21.8148 3.8015 -0.1750 6.6173
# 3 -0.6212 21.8148 119.2242 14.3309 -14.5123 8.0117
# 4 -0.1586 3.8015 14.3309 52.1352 0.7366 4.9114
# 5 9.0902 -0.1750 -14.5123 0.7366 22.4361 5.0459
# 6 5.6491 6.6173 8.0117 4.9114 5.0459 37.2516
#
#
#
# Elastic Compliance Matrix: (Units=1/GPa)
#
#
# Indices 1 2 3 4 5 6 
#
# 1 0.042722 0.005329 -0.002794 0.001192 -0.018095 -0.004531
# 2 0.005329 0.010318 -0.002119 0.000057 -0.003051 -0.001780
# 3 -0.002794 -0.002119 0.010229 -0.002577 0.008308 -0.002185
# 4 0.001192 0.000057 -0.002577 0.020107 -0.002367 -0.001967
# 5 -0.018095 -0.003051 0.008308 -0.002367 0.058711 -0.006141
# 6 -0.004531 -0.001780 -0.002185 -0.001967 -0.006141 0.029409
#
#
# Mechanical properties :
#
#
# Convention : Reuss Voigt Hill
#
# Bulk Modulus (GPa) = 15.60009 30.68464 23.14237
# Shear Modulus (GPa) = 26.03743 38.85250 32.44496
#
# Velocity S-wave (km/s) = 3.27474 4.00026 3.65554
# Velocity P-wave (km/s) = 4.55234 5.82873 5.22962
#
# Compressibility (1/GPa) = 0.06410218
#
# Stress axis : x y z
#
# Youngs Moduli (GPa) = 23.40692 96.91570 97.76563
#
# Poissons Ratio (x) = -0.51649 0.27315
# Poissons Ratio (y) = -0.12474 0.20715
# Poissons Ratio (z) = 0.06540 0.20535
#
# Static dielectric constant tensor:
#      x y z
#    x 4.552130 0.839410 0.123330 
#    y 0.839410 5.291780 0.042670 
#    z 0.123330 0.042670 4.654380 
# 
# 
# High freq. dielectric constant tensor:
#      x y z
#    x 1.937440 0.005560 0.002650 
#    y 0.005560 1.979100 -0.001060 
#    z 0.002650 -0.001060 1.981680 
# 
# From -- ./inp_files/612278.got.cif
#   From: 2010.06.25/outbox.cif.g09.slc.cpg/sg2_307_cif.got.tgz:612278.got - 2010.06.27 13:26:56.
