data_PCOD8006760
_publ_section_title
;
Structure prediction by ZEFSAII (Michael W. Deem and Ramdas Pophale) SiO2 
 PCOD8006760
Probable space group: P -1
;
_chemical_formula_sum "Si O2"
_cell_formula_units_Z 16
_cell_length_a 8.293435
_cell_length_b 16.581777
_cell_length_c 12.714413
_cell_angle_alpha 140.636216
_cell_angle_beta 145.624657
_cell_angle_gamma 48.437956
_cell_volume 624.566316
_symmetry_space_group_name_H-M "P -1"
_symmetry_group_IT_number 2
_symmetry_cell_setting 'triclinic'
loop_
_space_group_symop_operation_xyz
x,y,z
-x,-y,-z
loop_
_atom_site_type_symbol
_atom_site_label
_atom_site_fract_x
_atom_site_fract_y
_atom_site_fract_z
Si Si1 0.103601 0.924687 0.377014
Si Si2 0.819070 0.048945 0.144953
Si Si3 0.077235 0.696241 0.253860
Si Si4 0.781818 0.534432 0.624744
Si Si5 0.597044 0.547127 0.316145
Si Si6 0.684849 0.801847 0.513746
Si Si7 0.310819 0.376130 0.853225
Si Si8 0.560634 0.808216 0.763707
O O1 0.001918 0.780451 0.193552
O O2 0.446976 0.910145 0.530574
O O3 0.982638 0.995380 0.281767
O O4 0.000000 0.000000 0.500000
O O5 0.544646 0.140245 0.125706
O O6 0.712603 0.923554 0.901880
O O7 0.017380 0.131267 0.262817
O O8 0.259523 0.565388 0.187978
O O9 0.284485 0.774978 0.517465
O O10 0.789146 0.678713 0.144782
O O11 0.500000 0.500000 0.500000
O O12 0.786996 0.687293 0.780059
O O13 0.779759 0.486176 0.451688
O O14 0.055393 0.466891 0.758386
O O15 0.711382 0.685701 0.494257
O O16 0.587197 0.457320 0.115207
O O17 0.599458 0.740304 0.293145
#
# Coordination Sequence:
#
# PCOD8006760 Si02
#       8
#     2   2   2   2   2   2   2   2
#     4  11  22  40  69  94 131 180 234 286 345 419
#     4  11  22  41  69  92 138 183 228 291 349 404
#     4  10  20  40  63  99 132 173 233 284 330 419
#     4  11  22  40  70 102 137 186 235 283 350 420
#     4  10  24  40  65 100 140 180 241 280 344 420
#     4  11  24  43  65 100 141 183 229 297 352 415
#     4  12  22  43  70  96 147 183 225 298 350 412
#     4  10  21  39  65  99 130 180 233 274 344 412
#
# _framework density 25.617775999999999
#
# number of rings (size 3 to 8) (size 9 to 14) (size 15 to 20)
#    0.000    1.250    5.000    1.125    3.500    0.500 
#    0.000    5.625    0.000    0.000    0.000    0.000 
#    0.000    0.000    0.000    0.000    0.000    0.000 
#
# Total GULP energy -198306.362829 kJ/mol
# GULP energy per Si atom -12394.147677 kJ/mol
# Density = 2.555947 g / cm^3
# Si number density = 25.617776 Si / 1000 Ang^3
#
#
#
# Elastic Constant Matrix: (Units=GPa)
#
#
# Indices 1 2 3 4 5 6 
#
# 1 88.7947 20.1909 16.0292 3.7938 15.7570 2.9223
# 2 20.1909 76.4406 17.7884 7.7883 -3.4612 -4.4144
# 3 16.0292 17.7884 112.8415 10.6055 -1.2675 -5.6798
# 4 3.7938 7.7883 10.6055 25.4904 -0.3749 -11.8034
# 5 15.7570 -3.4612 -1.2675 -0.3749 43.7554 1.0413
# 6 2.9223 -4.4144 -5.6798 -11.8034 1.0413 42.8169
#
#
#
# Elastic Compliance Matrix: (Units=1/GPa)
#
#
# Indices 1 2 3 4 5 6 
#
# 1 0.013286 -0.003390 -0.001379 -0.001205 -0.005064 -0.001648
# 2 -0.003390 0.014780 -0.001503 -0.003047 0.002305 0.000660
# 3 -0.001379 -0.001503 0.009617 -0.003178 0.000622 0.000324
# 4 -0.001205 -0.003047 -0.003178 0.047413 0.000212 0.012412
# 5 -0.005064 0.002305 0.000622 0.000212 0.024877 0.000119
# 6 -0.001648 0.000660 0.000324 0.012412 0.000119 0.026998
#
#
# Mechanical properties :
#
#
# Convention : Reuss Voigt Hill
#
# Bulk Modulus (GPa) = 39.78012 42.89932 41.33972
# Shear Modulus (GPa) = 31.66655 37.35041 34.50848
#
# Velocity S-wave (km/s) = 3.51966 3.82250 3.67420
# Velocity P-wave (km/s) = 5.66386 6.02199 5.84567
#
# Compressibility (1/GPa) = 0.02513819
#
# Stress axis : x y z
#
# Youngs Moduli (GPa) = 75.26634 67.65847 103.98480
#
# Poissons Ratio (x) = 0.22936 0.14344
# Poissons Ratio (y) = 0.25516 0.15628
# Poissons Ratio (z) = 0.10383 0.10169
#
# Static dielectric constant tensor:
#      x y z
#    x 5.112520 -0.164160 0.055020 
#    y -0.164160 4.915100 0.347980 
#    z 0.055020 0.347980 4.911390 
# 
# 
# High freq. dielectric constant tensor:
#      x y z
#    x 2.034730 -0.005370 0.005510 
#    y -0.005370 2.015450 0.013850 
#    z 0.005510 0.013850 2.013930 
# 
# From -- ./inp_files/494980.got.cif
#   From: 2010.06.25/outbox.cif.g09.slc.cpg/sg2_248_cif.got.tgz:494980.got - 2010.06.27 13:26:56.
