data_PCOD8006815
_publ_section_title
;
Structure prediction by ZEFSAII (Michael W. Deem and Ramdas Pophale) SiO2 
 PCOD8006815
Probable space group: P -1
;
_chemical_formula_sum "Si O2"
_cell_formula_units_Z 16
_cell_length_a 17.466165
_cell_length_b 11.256519
_cell_length_c 15.563627
_cell_angle_alpha 131.216432
_cell_angle_beta 28.369216
_cell_angle_gamma 148.366777
_cell_volume 710.778486
_symmetry_space_group_name_H-M "P -1"
_symmetry_group_IT_number 2
_symmetry_cell_setting 'triclinic'
loop_
_space_group_symop_operation_xyz
x,y,z
-x,-y,-z
loop_
_atom_site_type_symbol
_atom_site_label
_atom_site_fract_x
_atom_site_fract_y
_atom_site_fract_z
Si Si1 0.670581 0.550610 0.479784
Si Si2 0.041707 0.654853 0.271189
Si Si3 0.233345 0.531667 0.124477
Si Si4 0.023848 0.804281 0.099027
Si Si5 0.586048 0.050125 0.099418
Si Si6 0.181755 0.981492 0.428980
Si Si7 0.827687 0.743601 0.094887
Si Si8 0.206397 0.286663 0.181917
O O1 0.778749 0.507880 0.422000
O O2 0.756366 0.790250 0.531908
O O3 0.375036 0.318540 0.673597
O O4 0.774870 0.585050 0.297933
O O5 0.021227 0.494768 0.282530
O O6 0.169331 0.900420 0.307771
O O7 0.227055 0.737823 0.053242
O O8 0.116320 0.346145 0.229077
O O9 0.470492 0.803543 0.055956
O O10 0.306576 0.465972 0.943591
O O11 0.976215 0.740341 0.013945
O O12 0.095058 0.038678 0.146466
O O13 0.255817 0.871059 0.933330
O O14 0.385137 0.036181 0.311065
O O15 0.912340 0.752967 0.629005
O O16 0.000000 0.000000 0.000000
O O17 0.500000 0.500000 0.000000
#
# Coordination Sequence:
#
# PCOD8006815 Si02
#       8
#     2   2   2   2   2   2   2   2
#     4  10  22  40  63  89 122 163 209 252 305 370
#     4  10  21  37  63  95 122 156 203 258 309 365
#     4  11  22  39  60  89 131 154 202 256 307 356
#     4  10  22  42  62  90 125 163 207 253 304 372
#     4  10  20  40  64  93 123 156 203 257 309 364
#     4  10  21  37  65  93 124 160 207 249 311 365
#     4  12  24  40  64  90 122 168 209 251 310 363
#     4  11  22  38  60  92 126 166 201 254 306 366
#
# _framework density 22.510528000000001
#
# number of rings (size 3 to 8) (size 9 to 14) (size 15 to 20)
#    0.000    1.500    2.500    3.750    1.750    2.000 
#    2.250    8.750    0.000    0.000    0.000    0.000 
#    0.000    0.000    0.000    0.000    0.000    0.000 
#
# Total GULP energy -198329.144340 kJ/mol
# GULP energy per Si atom -12395.571521 kJ/mol
# Density = 2.245929 g / cm^3
# Si number density = 22.510528 Si / 1000 Ang^3
#
#
#
# Elastic Constant Matrix: (Units=GPa)
#
#
# Indices 1 2 3 4 5 6 
#
# 1 141.6653 15.6362 40.9032 -16.6192 -0.5781 -12.7375
# 2 15.6362 38.1927 17.9524 -11.1672 0.1142 -5.8881
# 3 40.9032 17.9524 103.3970 -21.9259 -11.8660 -7.9891
# 4 -16.6192 -11.1672 -21.9259 26.6096 -0.2095 -0.4955
# 5 -0.5781 0.1142 -11.8660 -0.2095 26.7308 0.0356
# 6 -12.7375 -5.8881 -7.9891 -0.4955 0.0356 32.4338
#
#
#
# Elastic Compliance Matrix: (Units=1/GPa)
#
#
# Indices 1 2 3 4 5 6 
#
# 1 0.008447 -0.001075 -0.002456 0.002841 -0.000884 0.002561
# 2 -0.001075 0.031687 -0.002604 0.010561 -0.001238 0.004851
# 3 -0.002456 -0.002604 0.013847 0.008871 0.006171 0.002102
# 4 0.002841 0.010561 0.008871 0.051242 0.004348 0.005996
# 5 -0.000884 -0.001238 0.006171 0.004348 0.040169 0.000971
# 6 0.002561 0.004851 0.002102 0.005996 0.000971 0.033327
#
#
# Mechanical properties :
#
#
# Convention : Reuss Voigt Hill
#
# Bulk Modulus (GPa) = 23.97494 48.02651 36.00072
# Shear Modulus (GPa) = 24.40310 31.07240 27.73775
#
# Velocity S-wave (km/s) = 3.29610 3.71934 3.51410
# Velocity P-wave (km/s) = 5.01591 6.31079 5.70024
#
# Compressibility (1/GPa) = 0.04171021
#
# Stress axis : x y z
#
# Youngs Moduli (GPa) = 118.38987 31.55878 72.21886
#
# Poissons Ratio (x) = 0.03394 0.17735
# Poissons Ratio (y) = 0.12732 0.18805
# Poissons Ratio (z) = 0.29073 0.08218
#
# Static dielectric constant tensor:
#      x y z
#    x 4.427440 -0.082450 0.000430 
#    y -0.082450 3.834490 -0.001620 
#    z 0.000430 -0.001620 4.113760 
# 
# 
# High freq. dielectric constant tensor:
#      x y z
#    x 1.905630 -0.009010 -0.003130 
#    y -0.009010 1.870910 0.004030 
#    z -0.003130 0.004030 1.869840 
# 
# From -- ./inp_files/206989.got.cif
#   From: 2010.06.25/outbox.cif.g09.slc.cpg/sg2_104_cif.got.tgz:206989.got - 2010.06.27 13:26:56.
