data_PCOD8006250
_publ_section_title
;
Structure prediction by ZEFSAII (Michael W. Deem and Ramdas Pophale) SiO2 
 PCOD8006250
Probable space group: P -1
;
_chemical_formula_sum "Si O2"
_cell_formula_units_Z 16
_cell_length_a 11.012254
_cell_length_b 13.600411
_cell_length_c 13.375664
_cell_angle_alpha 43.713907
_cell_angle_beta 146.215163
_cell_angle_gamma 114.527983
_cell_volume 674.078272
_symmetry_space_group_name_H-M "P -1"
_symmetry_group_IT_number 2
_symmetry_cell_setting 'triclinic'
loop_
_space_group_symop_operation_xyz
x,y,z
-x,-y,-z
loop_
_atom_site_type_symbol
_atom_site_label
_atom_site_fract_x
_atom_site_fract_y
_atom_site_fract_z
Si Si1 0.956048 0.103829 0.690912
Si Si2 0.316304 0.286155 0.374695
Si Si3 0.659836 0.004801 0.695406
Si Si4 0.676519 0.270091 0.799776
Si Si5 0.217715 0.500854 0.417017
Si Si6 0.878828 0.426036 0.108611
Si Si7 0.575257 0.341499 0.102304
Si Si8 0.892065 0.707497 0.203475
O O1 0.067251 0.221831 0.715566
O O2 0.823742 0.087353 0.712458
O O3 0.760913 0.182198 0.409822
O O4 0.166185 0.923638 0.932194
O O5 0.476983 0.099046 0.592496
O O6 0.457709 0.325348 0.528248
O O7 0.047850 0.319712 0.208549
O O8 0.294888 0.391742 0.184308
O O9 0.500000 0.000000 0.500000
O O10 0.840210 0.827496 0.987744
O O11 0.514015 0.364448 0.718036
O O12 0.841262 0.348184 0.811674
O O13 0.043929 0.426581 0.314740
O O14 0.141693 0.552366 0.444021
O O15 0.713088 0.347783 0.091288
O O16 0.500000 0.500000 0.000000
O O17 0.331796 0.333056 0.906443
#
# Coordination Sequence:
#
# PCOD8006250 Si02
#       8
#     2   2   2   2   2   2   2   2
#     4  12  25  42  71 106 141 179 229 290 344 411
#     4  10  21  40  69  97 131 172 228 290 341 400
#     4  12  21  38  70 104 136 170 231 290 341 395
#     4  10  21  39  67 105 134 169 230 287 348 404
#     4  10  20  39  66  98 138 173 223 284 344 403
#     4  10  22  43  65  94 137 179 227 281 338 411
#     4  12  26  46  68 100 143 187 233 277 348 421
#     4  12  23  42  71 102 137 183 229 287 345 405
#
# _framework density 23.736113
#
# number of rings (size 3 to 8) (size 9 to 14) (size 15 to 20)
#    0.000    1.000    5.000    2.625    0.000    0.500 
#    2.250    3.125    0.000    0.000    0.000    0.000 
#    0.000    0.000    0.000    0.000    0.000    0.000 
#
# Total GULP energy -198381.765771 kJ/mol
# GULP energy per Si atom -12398.860361 kJ/mol
# Density = 2.368209 g / cm^3
# Si number density = 23.736113 Si / 1000 Ang^3
#
#
#
# Elastic Constant Matrix: (Units=GPa)
#
#
# Indices 1 2 3 4 5 6 
#
# 1 125.3375 41.3934 34.3641 -11.8427 25.8859 18.9507
# 2 41.3934 99.4984 14.9147 -7.5548 25.9586 11.2114
# 3 34.3641 14.9147 83.0370 -22.2220 22.4295 0.2940
# 4 -11.8427 -7.5548 -22.2220 32.8188 -3.5280 10.8885
# 5 25.8859 25.9586 22.4295 -3.5280 38.2262 -2.7076
# 6 18.9507 11.2114 0.2940 10.8885 -2.7076 35.4801
#
#
#
# Elastic Compliance Matrix: (Units=1/GPa)
#
#
# Indices 1 2 3 4 5 6 
#
# 1 0.011873 -0.001976 -0.001763 0.004512 -0.005780 -0.007528
# 2 -0.001976 0.013987 0.002139 0.004795 -0.009367 -0.005569
# 3 -0.001763 0.002139 0.018654 0.012915 -0.010341 -0.004642
# 4 0.004512 0.004795 0.012915 0.047195 -0.010905 -0.019348
# 5 -0.005780 -0.009367 -0.010341 -0.010905 0.042397 0.012715
# 6 -0.007528 -0.005569 -0.004642 -0.019348 0.012715 0.040912
#
#
# Mechanical properties :
#
#
# Convention : Reuss Voigt Hill
#
# Bulk Modulus (GPa) = 24.20505 54.35748 39.28127
# Shear Modulus (GPa) = 26.04295 35.78506 30.91401
#
# Velocity S-wave (km/s) = 3.31597 3.88702 3.61280
# Velocity P-wave (km/s) = 4.98805 6.56473 5.82994
#
# Compressibility (1/GPa) = 0.04131369
#
# Stress axis : x y z
#
# Youngs Moduli (GPa) = 84.22554 71.49325 53.60691
#
# Poissons Ratio (x) = 0.14128 0.09451
# Poissons Ratio (y) = 0.16644 -0.11465
# Poissons Ratio (z) = 0.14849 -0.15290
#
# Static dielectric constant tensor:
#      x y z
#    x 4.388070 0.058090 0.319580 
#    y 0.058090 4.241100 -0.020000 
#    z 0.319580 -0.020000 4.302220 
# 
# 
# High freq. dielectric constant tensor:
#      x y z
#    x 1.929600 -0.003190 0.019210 
#    y -0.003190 1.937670 0.004300 
#    z 0.019210 0.004300 1.941410 
# 
# From -- ./inp_files/522304.got.cif
#   From: 2010.06.25/outbox.cif.g09.slc.cpg/sg2_262_cif.got.tgz:522304.got - 2010.06.27 13:26:56.
