data_PCOD8006109
_publ_section_title
;
Structure prediction by ZEFSAII (Michael W. Deem and Ramdas Pophale) SiO2 
 PCOD8006109
Probable space group: P -1
;
_chemical_formula_sum "Si O2"
_cell_formula_units_Z 16
_cell_length_a 17.491731
_cell_length_b 19.296532
_cell_length_c 11.456251
_cell_angle_alpha 23.482363
_cell_angle_beta 149.233811
_cell_angle_gamma 149.394604
_cell_volume 736.493944
_symmetry_space_group_name_H-M "P -1"
_symmetry_group_IT_number 2
_symmetry_cell_setting 'triclinic'
loop_
_space_group_symop_operation_xyz
x,y,z
-x,-y,-z
loop_
_atom_site_type_symbol
_atom_site_label
_atom_site_fract_x
_atom_site_fract_y
_atom_site_fract_z
Si Si1 0.341828 0.829294 0.580613
Si Si2 0.912699 0.381068 0.852990
Si Si3 0.106924 0.039984 0.962224
Si Si4 0.690316 0.387644 0.357402
Si Si5 0.581625 0.703865 0.686027
Si Si6 0.160597 0.913490 0.605374
Si Si7 0.693674 0.546563 0.445206
Si Si8 0.242526 0.631210 0.978979
O O1 0.315648 0.674840 0.686162
O O2 0.368941 0.746872 0.868746
O O3 0.500000 0.000000 0.500000
O O4 0.182561 0.881051 0.295830
O O5 0.845224 0.367694 0.653763
O O6 0.836022 0.495557 0.656332
O O7 0.100808 0.489831 0.934257
O O8 0.870701 0.175336 0.169760
O O9 0.258860 0.234464 0.856424
O O10 0.991065 0.032880 0.712690
O O11 0.000000 0.000000 0.000000
O O12 0.529275 0.264490 0.405524
O O13 0.700042 0.602754 0.046314
O O14 0.475939 0.569990 0.653740
O O15 0.681084 0.904922 0.455624
O O16 0.184282 0.770207 0.764358
O O17 0.683377 0.490644 0.655027
#
# Coordination Sequence:
#
# PCOD8006109 Si02
#       8
#     2   2   2   2   2   2   2   2
#     4  12  26  42  64  97 132 172 217 269 323 382
#     4  10  20  39  65  93 128 167 216 271 319 381
#     4  12  23  40  71  99 127 168 225 269 311 390
#     4  10  24  42  61  91 135 170 212 262 333 379
#     4  10  23  39  67  94 127 170 216 267 320 391
#     4  11  21  38  66 101 121 165 225 262 321 382
#     4  10  20  40  65  97 129 169 217 266 326 381
#     4  11  21  40  66  93 131 168 217 269 323 380
#
# _framework density 21.724550000000001
#
# number of rings (size 3 to 8) (size 9 to 14) (size 15 to 20)
#    0.000    1.250    3.750    2.250    7.000    6.000 
#    0.000    4.375    0.000    0.000    0.000    0.000 
#    0.000    0.000    0.000    0.000    0.000    0.000 
#
# Total GULP energy -198405.645889 kJ/mol
# GULP energy per Si atom -12400.352868 kJ/mol
# Density = 2.167510 g / cm^3
# Si number density = 21.724550 Si / 1000 Ang^3
#
#
#
# Elastic Constant Matrix: (Units=GPa)
#
#
# Indices 1 2 3 4 5 6 
#
# 1 75.7394 20.2262 31.7942 3.1092 -13.7962 -1.8865
# 2 20.2262 104.5418 28.4114 -12.2487 -12.1612 7.8583
# 3 31.7942 28.4114 95.9451 -0.1534 -21.1637 2.7831
# 4 3.1092 -12.2487 -0.1534 38.4104 1.7142 -10.8567
# 5 -13.7962 -12.1612 -21.1637 1.7142 37.6186 -2.0233
# 6 -1.8865 7.8583 2.7831 -10.8567 -2.0233 28.0003
#
#
#
# Elastic Compliance Matrix: (Units=1/GPa)
#
#
# Indices 1 2 3 4 5 6 
#
# 1 0.016134 -0.001949 -0.004130 -0.001619 0.003126 0.001643
# 2 -0.001949 0.011236 -0.002324 0.003184 0.001373 -0.001720
# 3 -0.004130 -0.002324 0.013703 -0.000857 0.005432 -0.000928
# 4 -0.001619 0.003184 -0.000857 0.030254 -0.000847 0.010752
# 5 0.003126 0.001373 0.005432 -0.000847 0.031333 0.001221
# 6 0.001643 -0.001720 -0.000928 0.010752 0.001221 0.040657
#
#
# Mechanical properties :
#
#
# Convention : Reuss Voigt Hill
#
# Bulk Modulus (GPa) = 41.20613 48.56555 44.88584
# Shear Modulus (GPa) = 29.72432 33.85883 31.79157
#
# Velocity S-wave (km/s) = 3.70298 3.95213 3.82958
# Velocity P-wave (km/s) = 6.10667 6.57491 6.34511
#
# Compressibility (1/GPa) = 0.02426823
#
# Stress axis : x y z
#
# Youngs Moduli (GPa) = 61.98060 88.99848 72.97535
#
# Poissons Ratio (x) = 0.17343 0.30141
# Poissons Ratio (y) = 0.12078 0.16957
# Poissons Ratio (z) = 0.25600 0.20681
#
# Static dielectric constant tensor:
#      x y z
#    x 3.700870 0.072720 -0.292400 
#    y 0.072720 3.851260 0.089030 
#    z -0.292400 0.089030 4.370420 
# 
# 
# High freq. dielectric constant tensor:
#      x y z
#    x 1.824720 0.006430 -0.023140 
#    y 0.006430 1.853020 0.001430 
#    z -0.023140 0.001430 1.864780 
# 
# From -- ./inp_files/467009.got.cif
#   From: 2010.06.25/outbox.cif.g09.slc.cpg/sg2_234_cif.got.tgz:467009.got - 2010.06.27 13:26:56.
