data_PCOD8006978
_publ_section_title
;
Structure prediction by ZEFSAII (Michael W. Deem and Ramdas Pophale) SiO2 
 PCOD8006978
Probable space group: P -1
;
_chemical_formula_sum "Si O2"
_cell_formula_units_Z 14
_cell_length_a 18.004115
_cell_length_b 8.798411
_cell_length_c 15.041195
_cell_angle_alpha 121.803975
_cell_angle_beta 155.734492
_cell_angle_gamma 44.881809
_cell_volume 630.158949
_symmetry_space_group_name_H-M "P -1"
_symmetry_group_IT_number 2
_symmetry_cell_setting 'triclinic'
loop_
_space_group_symop_operation_xyz
x,y,z
-x,-y,-z
loop_
_atom_site_type_symbol
_atom_site_label
_atom_site_fract_x
_atom_site_fract_y
_atom_site_fract_z
Si Si1 0.467052 0.559643 0.084752
Si Si2 0.746804 0.938873 0.736537
Si Si3 0.347195 0.881954 0.493568
Si Si4 0.335058 0.268246 0.873739
Si Si5 0.807081 0.637761 0.457802
Si Si6 0.895203 0.575152 0.007192
Si Si7 0.069168 0.058039 0.873471
O O1 0.676232 0.559530 0.343578
O O2 0.500000 0.500000 0.000000
O O3 0.471391 0.364684 0.078824
O O4 0.208403 0.814579 0.897547
O O5 0.500000 0.000000 0.500000
O O6 0.716299 0.104747 0.676100
O O7 0.941484 0.664405 0.831327
O O8 0.817579 0.991717 0.920650
O O9 0.626768 0.675417 0.751977
O O10 0.267816 0.132620 0.506617
O O11 0.205605 0.826804 0.380099
O O12 0.281149 0.295031 0.719031
O O13 0.088276 0.419533 0.705542
O O14 0.500000 0.000000 0.000000
O O15 0.000000 0.500000 0.000000
O O16 0.914256 0.772070 0.115770
#
# Coordination Sequence:
#
# PCOD8006978 Si02
#       7
#     2   2   2   2   2   2   2
#     4  10  20  40  66  88 124 166 203 256 318 366
#     4  11  22  42  65  90 131 164 208 262 313 373
#     4  12  22  41  65  92 131 166 208 262 314 373
#     4  10  22  40  65  92 124 160 214 259 309 374
#     4  10  21  40  64  87 127 166 200 263 316 362
#     4  10  22  41  63  88 125 165 214 254 315 369
#     4  11  22  41  64  94 125 168 212 260 316 371
#
# _framework density 22.216619000000001
#
# number of rings (size 3 to 8) (size 9 to 14) (size 15 to 20)
#    0.000    1.429    5.714    0.429    0.000    4.000 
#    2.571    1.429    0.000    0.000    0.000    0.000 
#    0.000    0.000    0.000    0.000    0.000    0.000 
#
# Total GULP energy -173562.191498 kJ/mol
# GULP energy per Si atom -12397.299393 kJ/mol
# Density = 2.216605 g / cm^3
# Si number density = 22.216619 Si / 1000 Ang^3
#
#
#
# Elastic Constant Matrix: (Units=GPa)
#
#
# Indices 1 2 3 4 5 6 
#
# 1 49.0580 19.7110 39.2503 -6.7022 26.9058 -0.8288
# 2 19.7110 121.6033 52.1430 -15.2989 10.5527 1.9163
# 3 39.2503 52.1430 147.6033 -13.2629 43.9212 9.7220
# 4 -6.7022 -15.2989 -13.2629 45.3187 -0.8182 4.5387
# 5 26.9058 10.5527 43.9212 -0.8182 38.8510 2.6267
# 6 -0.8288 1.9163 9.7220 4.5387 2.6267 38.1231
#
#
#
# Elastic Compliance Matrix: (Units=1/GPa)
#
#
# Indices 1 2 3 4 5 6 
#
# 1 0.035355 -0.002690 -0.001862 0.003132 -0.021752 0.002505
# 2 -0.002690 0.010211 -0.003686 0.002041 0.003306 -0.000103
# 3 -0.001862 -0.003686 0.012328 0.002129 -0.011435 -0.002465
# 4 0.003132 0.002041 0.002129 0.024076 -0.004411 -0.003140
# 5 -0.021752 0.003306 -0.011435 -0.004411 0.052797 -0.000836
# 6 0.002505 -0.000103 -0.002465 -0.003140 -0.000836 0.027350
#
#
# Mechanical properties :
#
#
# Convention : Reuss Voigt Hill
#
# Bulk Modulus (GPa) = 24.14345 60.05258 42.09801
# Shear Modulus (GPa) = 25.98765 38.26925 32.12845
#
# Velocity S-wave (km/s) = 3.42386 4.15486 3.80695
# Velocity P-wave (km/s) = 5.14988 7.07858 6.18982
#
# Compressibility (1/GPa) = 0.04141911
#
# Stress axis : x y z
#
# Youngs Moduli (GPa) = 28.28471 97.93056 81.11398
#
# Poissons Ratio (x) = 0.26344 0.15104
# Poissons Ratio (y) = 0.07609 0.29895
# Poissons Ratio (z) = 0.05267 0.36092
#
# Static dielectric constant tensor:
#      x y z
#    x 4.151070 0.140310 0.248800 
#    y 0.140310 4.608220 0.072980 
#    z 0.248800 0.072980 4.657030 
# 
# 
# High freq. dielectric constant tensor:
#      x y z
#    x 1.863560 -0.008870 0.030210 
#    y -0.008870 1.883660 0.006220 
#    z 0.030210 0.006220 1.872540 
# 
# From -- ./inp_files/355700.got.cif
#   From: 2010.06.25/outbox.cif.g09.slc.cpg/sg2_178_cif.got.tgz:355700.got - 2010.06.27 13:26:56.
