data_PCOD8006415
_publ_section_title
;
Structure prediction by ZEFSAII (Michael W. Deem and Ramdas Pophale) SiO2 
 PCOD8006415
Probable space group: P -1
;
_chemical_formula_sum "Si O2"
_cell_formula_units_Z 16
_cell_length_a 8.648800
_cell_length_b 8.024773
_cell_length_c 13.137936
_cell_angle_alpha 94.657752
_cell_angle_beta 90.820869
_cell_angle_gamma 129.390430
_cell_volume 699.802231
_symmetry_space_group_name_H-M "P -1"
_symmetry_group_IT_number 2
_symmetry_cell_setting 'triclinic'
loop_
_space_group_symop_operation_xyz
x,y,z
-x,-y,-z
loop_
_atom_site_type_symbol
_atom_site_label
_atom_site_fract_x
_atom_site_fract_y
_atom_site_fract_z
Si Si1 0.840849 0.080572 0.179156
Si Si2 0.705711 0.432629 0.525833
Si Si3 0.770846 0.856195 0.800912
Si Si4 0.084732 0.323910 0.749768
Si Si5 0.435842 0.441642 0.648989
Si Si6 0.872350 0.323351 0.371264
Si Si7 0.420458 0.260951 0.989509
Si Si8 0.195104 0.630383 0.942911
O O1 0.771491 0.114848 0.287273
O O2 0.796148 0.185534 0.098869
O O3 0.073481 0.189957 0.191943
O O4 0.707685 0.837170 0.121939
O O5 0.547488 0.342969 0.614844
O O6 0.647687 0.538407 0.454102
O O7 0.711532 0.259104 0.456131
O O8 0.929738 0.622953 0.577134
O O9 0.586164 0.673065 0.719304
O O10 0.703890 0.860541 0.914138
O O11 0.873000 0.088979 0.760254
O O12 0.237501 0.282226 0.709410
O O13 0.060648 0.459104 0.675485
O O14 0.184410 0.468163 0.857862
O O15 0.605566 0.259011 0.982640
O O16 0.500000 0.500000 0.000000
O O17 0.000000 0.500000 0.000000
#
# Coordination Sequence:
#
# PCOD8006415 Si02
#       8
#     2   2   2   2   2   2   2   2
#     4  11  23  38  65  98 128 173 217 263 324 390
#     4   9  18  39  68  92 127 173 212 277 329 379
#     4  12  23  42  65  98 133 172 220 268 317 392
#     4  10  22  40  64  95 133 173 214 268 323 386
#     4  10  20  39  69  94 127 174 220 266 330 381
#     4   9  19  39  67  94 133 167 217 273 330 381
#     4  12  25  43  68  96 134 176 217 266 321 390
#     4  11  22  42  61  93 134 171 211 266 324 385
#
# _framework density 22.863603999999999
#
# number of rings (size 3 to 8) (size 9 to 14) (size 15 to 20)
#    0.000    1.500    2.500    3.000    0.000    0.000 
#    0.000    7.500    0.000    0.000    0.000    0.000 
#    0.000    0.000    0.000    0.000    0.000    0.000 
#
# Total GULP energy -198256.896853 kJ/mol
# GULP energy per Si atom -12391.056053 kJ/mol
# Density = 2.281157 g / cm^3
# Si number density = 22.863604 Si / 1000 Ang^3
#
#
#
# Elastic Constant Matrix: (Units=GPa)
#
#
# Indices 1 2 3 4 5 6 
#
# 1 125.4476 17.8318 45.4308 1.7727 -15.9355 18.8676
# 2 17.8318 83.3322 37.2164 10.4693 -8.6642 9.1092
# 3 45.4308 37.2164 135.7056 17.6303 -19.3481 10.8049
# 4 1.7727 10.4693 17.6303 20.5434 3.8500 -8.4524
# 5 -15.9355 -8.6642 -19.3481 3.8500 48.3694 -5.3736
# 6 18.8676 9.1092 10.8049 -8.4524 -5.3736 32.6068
#
#
#
# Elastic Compliance Matrix: (Units=1/GPa)
#
#
# Indices 1 2 3 4 5 6 
#
# 1 0.009856 -0.000173 -0.002504 -0.000905 0.001757 -0.004770
# 2 -0.000173 0.014802 -0.002322 -0.007933 0.001738 -0.005036
# 3 -0.002504 -0.002322 0.010951 -0.010134 0.003549 -0.003573
# 4 -0.000905 -0.007933 -0.010134 0.072845 -0.008960 0.023505
# 5 0.001757 0.001738 0.003549 -0.008960 0.023573 -0.001116
# 6 -0.004770 -0.005036 -0.003573 0.023505 -0.001116 0.041929
#
#
# Mechanical properties :
#
#
# Convention : Reuss Voigt Hill
#
# Bulk Modulus (GPa) = 39.04606 60.60482 49.82544
# Shear Modulus (GPa) = 25.97499 36.57102 31.27301
#
# Velocity S-wave (km/s) = 3.37424 4.00375 3.70240
# Velocity P-wave (km/s) = 5.68292 6.92373 6.33378
#
# Compressibility (1/GPa) = 0.02561078
#
# Stress axis : x y z
#
# Youngs Moduli (GPa) = 101.45698 67.55826 91.31377
#
# Poissons Ratio (x) = 0.01168 0.22869
# Poissons Ratio (y) = 0.01754 0.21205
# Poissons Ratio (z) = 0.25409 0.15688
#
# Static dielectric constant tensor:
#      x y z
#    x 4.409350 0.028960 -0.176030 
#    y 0.028960 3.500530 0.089910 
#    z -0.176030 0.089910 4.523820 
# 
# 
# High freq. dielectric constant tensor:
#      x y z
#    x 1.924840 0.006710 -0.005050 
#    y 0.006710 1.862600 0.003850 
#    z -0.005050 0.003850 1.923710 
# 
# From -- ./inp_files/53690.got.cif
#   From: 2010.06.25/outbox.cif.g09.slc.cpg/sg2_27_cif.got.tgz:53690.got - 2010.06.27 13:26:56.
