data_PCOD8006125
_publ_section_title
;
Structure prediction by ZEFSAII (Michael W. Deem and Ramdas Pophale) SiO2 
 PCOD8006125
Probable space group: P -1
;
_chemical_formula_sum "Si O2"
_cell_formula_units_Z 16
_cell_length_a 12.261279
_cell_length_b 8.842185
_cell_length_c 8.150158
_cell_angle_alpha 64.495548
_cell_angle_beta 71.726325
_cell_angle_gamma 104.210456
_cell_volume 678.561579
_symmetry_space_group_name_H-M "P -1"
_symmetry_group_IT_number 2
_symmetry_cell_setting 'triclinic'
loop_
_space_group_symop_operation_xyz
x,y,z
-x,-y,-z
loop_
_atom_site_type_symbol
_atom_site_label
_atom_site_fract_x
_atom_site_fract_y
_atom_site_fract_z
Si Si1 0.735088 0.596682 0.782604
Si Si2 0.990748 0.688329 0.453970
Si Si3 0.616947 0.485398 0.541356
Si Si4 0.327653 0.767911 0.822819
Si Si5 0.869675 0.766984 0.165394
Si Si6 0.883768 0.106969 0.169137
Si Si7 0.434089 0.891438 0.364105
Si Si8 0.219547 0.012823 0.372272
O O1 0.879553 0.634238 0.664460
O O2 0.654181 0.579375 0.660156
O O3 0.743044 0.774348 0.801275
O O4 0.669596 0.410753 0.008918
O O5 0.961133 0.770755 0.267990
O O6 0.000000 0.500000 0.500000
O O7 0.123315 0.850970 0.377958
O O8 0.500000 0.500000 0.500000
O O9 0.737451 0.579997 0.314837
O O10 0.586579 0.269563 0.682673
O O11 0.185321 0.758080 0.889725
O O12 0.392338 0.784956 0.607391
O O13 0.417648 0.959318 0.785774
O O14 0.842126 0.947150 0.121452
O O15 0.959158 0.778140 0.960250
O O16 0.841863 0.006475 0.410159
O O17 0.351476 0.999548 0.312643
#
# Coordination Sequence:
#
# PCOD8006125 Si02
#       8
#     2   2   2   2   2   2   2   2
#     4  11  24  41  66  96 130 169 218 270 328 387
#     4  11  22  40  66  97 135 166 214 270 325 385
#     4  11  23  43  67  97 131 172 217 273 327 380
#     4  10  23  43  65  92 130 172 223 271 323 385
#     4  10  21  38  64  96 131 168 217 260 332 386
#     4  10  20  39  65  94 130 175 210 269 320 395
#     4  10  24  42  66  89 130 176 223 263 330 385
#     4  11  22  42  68  96 131 173 211 273 327 386
#
# _framework density 23.57929
#
# number of rings (size 3 to 8) (size 9 to 14) (size 15 to 20)
#    0.000    1.500    2.500    3.375    3.500    2.000 
#    2.250    3.125    0.000    0.000    0.000    0.000 
#    0.000    0.000    0.000    0.000    0.000    0.000 
#
# Total GULP energy -198359.617117 kJ/mol
# GULP energy per Si atom -12397.476070 kJ/mol
# Density = 2.352562 g / cm^3
# Si number density = 23.579290 Si / 1000 Ang^3
#
#
#
# Elastic Constant Matrix: (Units=GPa)
#
#
# Indices 1 2 3 4 5 6 
#
# 1 98.6660 34.7094 38.4667 -13.0709 -2.6514 -6.5029
# 2 34.7094 142.3250 23.1124 -34.2342 2.3302 -10.9706
# 3 38.4667 23.1124 68.6318 -26.1392 2.5301 -10.8085
# 4 -13.0709 -34.2342 -26.1392 32.3824 -4.2158 -0.9655
# 5 -2.6514 2.3302 2.5301 -4.2158 27.2624 -7.0523
# 6 -6.5029 -10.9706 -10.8085 -0.9655 -7.0523 38.5533
#
#
#
# Elastic Compliance Matrix: (Units=1/GPa)
#
#
# Indices 1 2 3 4 5 6 
#
# 1 0.014041 -0.003198 -0.008723 -0.004580 0.001527 -0.000822
# 2 -0.003198 0.010734 0.003968 0.013597 0.001608 0.004262
# 3 -0.008723 0.003968 0.028703 0.024386 0.002174 0.008713
# 4 -0.004580 0.013597 0.024386 0.064735 0.009582 0.013307
# 5 0.001527 0.001608 0.002174 0.009582 0.040283 0.008933
# 6 -0.000822 0.004262 0.008713 0.013307 0.008933 0.031422
#
#
# Mechanical properties :
#
#
# Convention : Reuss Voigt Hill
#
# Bulk Modulus (GPa) = 26.61522 55.79998 41.20760
# Shear Modulus (GPa) = 22.89923 33.86193 28.38058
#
# Velocity S-wave (km/s) = 3.11972 3.79369 3.47309
# Velocity P-wave (km/s) = 4.92838 6.55024 5.79632
#
# Compressibility (1/GPa) = 0.03757249
#
# Stress axis : x y z
#
# Youngs Moduli (GPa) = 71.21982 93.15855 34.83967
#
# Poissons Ratio (x) = 0.29790 0.30391
# Poissons Ratio (y) = 0.22774 -0.13824
# Poissons Ratio (z) = 0.62125 -0.36963
#
# Static dielectric constant tensor:
#      x y z
#    x 4.051730 0.135350 -0.095140 
#    y 0.135350 4.039200 -0.166020 
#    z -0.095140 -0.166020 4.234280 
# 
# 
# High freq. dielectric constant tensor:
#      x y z
#    x 1.934180 -0.007230 -0.006970 
#    y -0.007230 1.934440 -0.017240 
#    z -0.006970 -0.017240 1.927310 
# 
# From -- ./inp_files/242953.got.cif
#   From: 2010.06.25/outbox.cif.g09.slc.cpg/sg2_122_cif.got.tgz:242953.got - 2010.06.27 13:26:56.
