data_PCOD8006273
_publ_section_title
;
Structure prediction by ZEFSAII (Michael W. Deem and Ramdas Pophale) SiO2 
 PCOD8006273
Probable space group: P -1
;
_chemical_formula_sum "Si O2"
_cell_formula_units_Z 14
_cell_length_a 9.759073
_cell_length_b 17.493771
_cell_length_c 12.340170
_cell_angle_alpha 149.379081
_cell_angle_beta 93.400729
_cell_angle_gamma 109.521999
_cell_volume 699.170747
_symmetry_space_group_name_H-M "P -1"
_symmetry_group_IT_number 2
_symmetry_cell_setting 'triclinic'
loop_
_space_group_symop_operation_xyz
x,y,z
-x,-y,-z
loop_
_atom_site_type_symbol
_atom_site_label
_atom_site_fract_x
_atom_site_fract_y
_atom_site_fract_z
Si Si1 0.781987 0.406248 0.757721
Si Si2 0.538460 0.199789 0.716444
Si Si3 0.987054 0.687538 0.849552
Si Si4 0.104775 0.925810 0.921947
Si Si5 0.553659 0.216501 0.294211
Si Si6 0.916471 0.524953 0.272463
Si Si7 0.929874 0.092727 0.666317
O O1 0.643007 0.282934 0.705910
O O2 0.618760 0.297312 0.519916
O O3 0.918069 0.370558 0.690313
O O4 0.956091 0.680053 0.116486
O O5 0.500000 0.000000 0.500000
O O6 0.323228 0.114028 0.603754
O O7 0.695311 0.393939 0.051816
O O8 0.749669 0.439552 0.504114
O O9 0.097750 0.837497 0.930014
O O10 0.104443 0.641142 0.854224
O O11 0.995608 0.831707 0.112378
O O12 0.993052 0.730136 0.591443
O O13 0.350063 0.148168 0.175253
O O14 0.000000 0.000000 0.000000
O O15 0.500000 0.000000 0.000000
O O16 0.000000 0.000000 0.500000
#
# Coordination Sequence:
#
# PCOD8006273 Si02
#       7
#     2   2   2   2   2   2   2
#     4  10  22  39  64  93 123 157 219 249 295 385
#     4  12  22  38  65  95 121 164 207 255 308 359
#     4  10  22  42  65  89 124 164 214 245 303 390
#     4  12  25  41  61  96 128 156 209 265 311 358
#     4  10  20  39  67  87 117 171 205 245 315 360
#     4  10  22  40  63  95 123 167 212 254 302 380
#     4  10  23  42  63  93 127 163 200 256 320 360
#
# _framework density 20.023720999999998
#
# number of rings (size 3 to 8) (size 9 to 14) (size 15 to 20)
#    0.000    1.714    5.714    1.714    0.000    4.571 
#    0.000    0.000    0.000    0.000    0.000    0.000 
#    0.000    0.000    0.000    0.000    0.000    0.000 
#
# Total GULP energy -173506.090851 kJ/mol
# GULP energy per Si atom -12393.292204 kJ/mol
# Density = 1.997815 g / cm^3
# Si number density = 20.023721 Si / 1000 Ang^3
#
#
#
# Elastic Constant Matrix: (Units=GPa)
#
#
# Indices 1 2 3 4 5 6 
#
# 1 135.3976 33.0871 62.3243 -7.1056 -0.8273 15.6387
# 2 33.0871 89.3619 29.1985 6.3932 1.8649 13.2472
# 3 62.3243 29.1985 134.9271 -18.5688 1.0692 11.4044
# 4 -7.1056 6.3932 -18.5688 17.4688 2.7704 0.9938
# 5 -0.8273 1.8649 1.0692 2.7704 40.9827 -3.9858
# 6 15.6387 13.2472 11.4044 0.9938 -3.9858 20.4347
#
#
#
# Elastic Compliance Matrix: (Units=1/GPa)
#
#
# Indices 1 2 3 4 5 6 
#
# 1 0.010161 -0.001956 -0.003728 0.001163 -0.000126 -0.004508
# 2 -0.001956 0.014373 -0.002902 -0.008710 -0.000602 -0.005894
# 3 -0.003728 -0.002902 0.011695 0.012341 -0.001341 -0.002654
# 4 0.001163 -0.008710 0.012341 0.075314 -0.005664 -0.006898
# 5 -0.000126 -0.000602 -0.001341 -0.005664 0.025473 0.006479
# 6 -0.004508 -0.005894 -0.002654 -0.006898 0.006479 0.059288
#
#
# Mechanical properties :
#
#
# Convention : Reuss Voigt Hill
#
# Bulk Modulus (GPa) = 52.47996 67.65627 60.06811
# Shear Modulus (GPa) = 22.74507 31.44903 27.09705
#
# Velocity S-wave (km/s) = 3.37398 3.96736 3.68264
# Velocity P-wave (km/s) = 6.43771 7.40595 6.93874
#
# Compressibility (1/GPa) = 0.01905489
#
# Stress axis : x y z
#
# Youngs Moduli (GPa) = 98.41885 69.57682 85.50883
#
# Poissons Ratio (x) = 0.13611 0.31877
# Poissons Ratio (y) = 0.19253 0.24818
# Poissons Ratio (z) = 0.36690 0.20194
#
# Static dielectric constant tensor:
#      x y z
#    x 3.568250 0.313310 0.180500 
#    y 0.313310 3.553110 -0.175600 
#    z 0.180500 -0.175600 3.363210 
# 
# 
# High freq. dielectric constant tensor:
#      x y z
#    x 1.766040 0.018090 0.014770 
#    y 0.018090 1.771030 -0.006040 
#    z 0.014770 -0.006040 1.803130 
# 
# From -- ./inp_files/402505.got.cif
#   From: 2010.06.25/outbox.cif.g09.slc.cpg/sg2_202_cif.got.tgz:402505.got - 2010.06.27 13:26:56.
