data_PCOD8006272
_publ_section_title
;
Structure prediction by ZEFSAII (Michael W. Deem and Ramdas Pophale) SiO2 
 PCOD8006272
Probable space group: P -1
;
_chemical_formula_sum "Si O2"
_cell_formula_units_Z 16
_cell_length_a 17.218243
_cell_length_b 13.304562
_cell_length_c 9.760758
_cell_angle_alpha 119.331810
_cell_angle_beta 137.099975
_cell_angle_gamma 34.635521
_cell_volume 827.465444
_symmetry_space_group_name_H-M "P -1"
_symmetry_group_IT_number 2
_symmetry_cell_setting 'triclinic'
loop_
_space_group_symop_operation_xyz
x,y,z
-x,-y,-z
loop_
_atom_site_type_symbol
_atom_site_label
_atom_site_fract_x
_atom_site_fract_y
_atom_site_fract_z
Si Si1 0.900201 0.167292 0.579768
Si Si2 0.769412 0.828672 0.152402
Si Si3 0.188800 0.538253 0.505422
Si Si4 0.494626 0.853197 0.762954
Si Si5 0.739497 0.024889 0.004973
Si Si6 0.498022 0.130644 0.531649
Si Si7 0.548784 0.569934 0.019033
Si Si8 0.466646 0.620599 0.649901
O O1 0.806912 0.346980 0.498430
O O2 0.751026 0.211367 0.496609
O O3 0.000000 0.000000 0.500000
O O4 0.052068 0.099578 0.833455
O O5 0.985570 0.649834 0.341685
O O6 0.677987 0.972938 0.252870
O O7 0.679433 0.773350 0.994138
O O8 0.733490 0.914538 0.015588
O O9 0.303493 0.348035 0.448915
O O10 0.278662 0.496007 0.741263
O O11 0.445842 0.915425 0.584364
O O12 0.533717 0.688430 0.722761
O O13 0.653569 0.076293 0.779096
O O14 0.628588 0.208450 0.068610
O O15 0.500000 0.000000 0.500000
O O16 0.500000 0.500000 0.000000
O O17 0.581556 0.504858 0.860816
O O18 0.500000 0.500000 0.500000
#
# Coordination Sequence:
#
# PCOD8006272 Si02
#       8
#     2   2   2   2   2   2   2   2
#     4  11  19  40  66  91 118 165 214 249 296 380
#     4  10  21  42  67  91 119 166 211 252 314 372
#     4  10  22  38  68  95 118 162 219 254 299 379
#     4  11  23  41  64  89 130 165 200 261 322 366
#     4  10  20  39  67  86 118 163 214 250 299 372
#     4  11  23  42  62  93 125 159 206 261 314 362
#     4  11  20  38  63  91 121 164 208 251 303 371
#     4  12  24  39  58  94 131 162 197 258 321 365
#
# _framework density 19.336154000000001
#
# number of rings (size 3 to 8) (size 9 to 14) (size 15 to 20)
#    0.000    1.250    5.000    1.500    1.750    0.500 
#    4.500    1.875    0.000    0.000    0.000    0.000 
#    0.000    0.000    0.000    0.000    0.000    0.000 
#
# Total GULP energy -198400.990014 kJ/mol
# GULP energy per Si atom -12400.061876 kJ/mol
# Density = 1.929214 g / cm^3
# Si number density = 19.336154 Si / 1000 Ang^3
#
#
#
# Elastic Constant Matrix: (Units=GPa)
#
#
# Indices 1 2 3 4 5 6 
#
# 1 95.8070 31.9283 49.6364 2.0461 3.8665 10.8778
# 2 31.9283 101.6180 39.2398 4.4171 5.4570 14.0792
# 3 49.6364 39.2398 123.4919 -2.1240 -3.1103 -10.0477
# 4 2.0461 4.4171 -2.1240 35.9506 -5.9304 3.0436
# 5 3.8665 5.4570 -3.1103 -5.9304 40.6664 2.9279
# 6 10.8778 14.0792 -10.0477 3.0436 2.9279 35.5281
#
#
#
# Elastic Compliance Matrix: (Units=1/GPa)
#
#
# Indices 1 2 3 4 5 6 
#
# 1 0.014682 -0.001469 -0.005922 -0.000774 -0.001375 -0.005408
# 2 -0.001469 0.012751 -0.003975 -0.001538 -0.001707 -0.005455
# 3 -0.005922 -0.003975 0.012346 0.001283 0.001751 0.006626
# 4 -0.000774 -0.001538 0.001283 0.029047 0.004734 -0.001669
# 5 -0.001375 -0.001707 0.001751 0.004734 0.025842 -0.000943
# 6 -0.005408 -0.005455 0.006626 -0.001669 -0.000943 0.034059
#
#
# Mechanical properties :
#
#
# Convention : Reuss Voigt Hill
#
# Bulk Modulus (GPa) = 58.66050 62.50289 60.58169
# Shear Modulus (GPa) = 31.81838 35.76985 33.79412
#
# Velocity S-wave (km/s) = 4.06092 4.30571 4.18511
# Velocity P-wave (km/s) = 7.23818 7.55734 7.39948
#
# Compressibility (1/GPa) = 0.01704725
#
# Stress axis : x y z
#
# Youngs Moduli (GPa) = 68.11251 78.42228 80.99638
#
# Poissons Ratio (x) = 0.11523 0.47968
# Poissons Ratio (y) = 0.10008 0.32192
# Poissons Ratio (z) = 0.40338 0.31169
#
# Static dielectric constant tensor:
#      x y z
#    x 3.512070 0.012840 -0.005280 
#    y 0.012840 3.597870 0.080110 
#    z -0.005280 0.080110 3.879070 
# 
# 
# High freq. dielectric constant tensor:
#      x y z
#    x 1.742740 0.010610 0.007910 
#    y 0.010610 1.749770 0.009560 
#    z 0.007910 0.009560 1.769770 
# 
# From -- ./inp_files/178850.got.cif
#   From: 2010.06.25/outbox.cif.g09.slc.cpg/sg2_90_cif.got.tgz:178850.got - 2010.06.27 13:26:56.
