data_PCOD8006637
_publ_section_title
;
Structure prediction by ZEFSAII (Michael W. Deem and Ramdas Pophale) SiO2 
 PCOD8006637
Probable space group: P -1
;
_chemical_formula_sum "Si O2"
_cell_formula_units_Z 16
_cell_length_a 11.075166
_cell_length_b 19.676933
_cell_length_c 13.522534
_cell_angle_alpha 34.263129
_cell_angle_beta 33.128405
_cell_angle_gamma 27.474048
_cell_volume 701.126849
_symmetry_space_group_name_H-M "P -1"
_symmetry_group_IT_number 2
_symmetry_cell_setting 'triclinic'
loop_
_space_group_symop_operation_xyz
x,y,z
-x,-y,-z
loop_
_atom_site_type_symbol
_atom_site_label
_atom_site_fract_x
_atom_site_fract_y
_atom_site_fract_z
Si Si1 0.582107 0.957216 0.282164
Si Si2 0.656831 0.702560 0.980907
Si Si3 0.524316 0.309090 0.669728
Si Si4 0.794447 0.442400 0.826306
Si Si5 0.411794 0.248452 0.326790
Si Si6 0.227340 0.736818 0.091243
Si Si7 0.056366 0.644597 0.630194
Si Si8 0.607655 0.856655 0.168432
O O1 0.470406 0.896045 0.509217
O O2 0.522629 0.919901 0.261154
O O3 0.408159 0.138506 0.201450
O O4 0.910528 0.884399 0.163356
O O5 0.450512 0.676073 0.100821
O O6 0.982630 0.586095 0.850388
O O7 0.604428 0.717381 0.115418
O O8 0.305133 0.494136 0.576765
O O9 0.837712 0.257602 0.532616
O O10 0.552177 0.209698 0.677690
O O11 0.787065 0.589732 0.667525
O O12 0.053288 0.290383 0.893183
O O13 0.500000 0.500000 0.000000
O O14 0.800140 0.395432 0.764131
O O15 0.677141 0.220543 0.122938
O O16 0.220670 0.249426 0.374551
O O17 0.500000 0.000000 0.000000
#
# Coordination Sequence:
#
# PCOD8006637 Si02
#       8
#     2   2   2   2   2   2   2   2
#     4  11  23  38  62  94 123 167 208 252 328 370
#     4  11  22  40  62  90 128 162 211 255 315 382
#     4  11  22  43  64  86 130 163 211 259 312 382
#     4   9  19  40  64  90 123 165 210 256 312 367
#     4  10  20  40  62  90 127 159 213 266 299 379
#     4   9  21  36  61  91 120 163 206 256 317 360
#     4  10  23  40  64  93 116 169 211 258 317 366
#     4  11  22  42  66  92 128 171 205 261 319 374
#
# _framework density 22.820406999999999
#
# number of rings (size 3 to 8) (size 9 to 14) (size 15 to 20)
#    0.000    1.750    2.500    1.500    0.000    5.000 
#    6.750    3.125    0.000    0.000    0.000    0.000 
#    0.000    0.000    0.000    0.000    0.000    0.000 
#
# Total GULP energy -198289.906833 kJ/mol
# GULP energy per Si atom -12393.119177 kJ/mol
# Density = 2.276847 g / cm^3
# Si number density = 22.820407 Si / 1000 Ang^3
#
#
#
# Elastic Constant Matrix: (Units=GPa)
#
#
# Indices 1 2 3 4 5 6 
#
# 1 103.1069 -9.7768 17.8359 2.1047 -24.7413 17.4352
# 2 -9.7768 18.4244 -5.2101 2.3243 -16.8409 5.9001
# 3 17.8359 -5.2101 69.6522 6.4091 -6.2213 2.1758
# 4 2.1047 2.3243 6.4091 28.4139 2.2162 -1.7092
# 5 -24.7413 -16.8409 -6.2213 2.2162 44.4986 -4.5655
# 6 17.4352 5.9001 2.1758 -1.7092 -4.5655 24.0091
#
#
#
# Elastic Compliance Matrix: (Units=1/GPa)
#
#
# Indices 1 2 3 4 5 6 
#
# 1 0.030159 0.063866 0.002689 -0.012975 0.038740 -0.031397
# 2 0.063866 0.237543 0.018918 -0.043094 0.121330 -0.086465
# 3 0.002689 0.018918 0.016866 -0.006780 0.010675 -0.006583
# 4 -0.012975 -0.043094 -0.006780 0.044285 -0.024719 0.019079
# 5 0.038740 0.121330 0.010675 -0.024719 0.088149 -0.043914
# 6 -0.031397 -0.086465 -0.006583 0.019079 -0.043914 0.079304
#
#
# Mechanical properties :
#
#
# Convention : Reuss Voigt Hill
#
# Bulk Modulus (GPa) = 2.19532 21.87574 12.03553
# Shear Modulus (GPa) = 10.47783 31.93996 21.20889
#
# Velocity S-wave (km/s) = 2.14509 3.74521 3.05189
# Velocity P-wave (km/s) = 2.66445 5.32062 4.20763
#
# Compressibility (1/GPa) = 0.45551512
#
# Stress axis : x y z
#
# Youngs Moduli (GPa) = 33.15705 4.20977 59.28943
#
# Poissons Ratio (x) = -0.26886 -0.15945
# Poissons Ratio (y) = -2.11762 -1.12161
# Poissons Ratio (z) = -0.08917 -0.07964
#
# Static dielectric constant tensor:
#      x y z
#    x 4.381820 0.415160 -0.258490 
#    y 0.415160 4.543480 -0.120610 
#    z -0.258490 -0.120610 4.102990 
# 
# 
# High freq. dielectric constant tensor:
#      x y z
#    x 1.904470 0.013750 -0.014970 
#    y 0.013750 1.903870 -0.000500 
#    z -0.014970 -0.000500 1.890370 
# 
# From -- ./inp_files/428540.got.cif
#   From: 2010.06.25/outbox.cif.g09.slc.cpg/sg2_215_cif.got.tgz:428540.got - 2010.06.27 13:26:56.
