data_PCOD8006229
_publ_section_title
;
Structure prediction by ZEFSAII (Michael W. Deem and Ramdas Pophale) SiO2 
 PCOD8006229
Probable space group: P -1
;
_chemical_formula_sum "Si O2"
_cell_formula_units_Z 14
_cell_length_a 17.399685
_cell_length_b 9.262926
_cell_length_c 14.627131
_cell_angle_alpha 111.695987
_cell_angle_beta 22.072537
_cell_angle_gamma 99.008908
_cell_volume 696.621425
_symmetry_space_group_name_H-M "P -1"
_symmetry_group_IT_number 2
_symmetry_cell_setting 'triclinic'
loop_
_space_group_symop_operation_xyz
x,y,z
-x,-y,-z
loop_
_atom_site_type_symbol
_atom_site_label
_atom_site_fract_x
_atom_site_fract_y
_atom_site_fract_z
Si Si1 0.938547 0.881923 0.602765
Si Si2 0.382625 0.210858 0.760235
Si Si3 0.034798 0.428481 0.625107
Si Si4 0.250257 0.939649 0.520894
Si Si5 0.741941 0.358825 0.651578
Si Si6 0.415230 0.086382 0.214907
Si Si7 0.176019 0.970849 0.881489
O O1 0.986879 0.704486 0.452028
O O2 0.101224 0.814196 0.496262
O O3 0.000000 0.000000 0.500000
O O4 0.666706 0.021009 0.972372
O O5 0.562546 0.076762 0.611459
O O6 0.198866 0.145987 0.920533
O O7 0.551461 0.194034 0.483674
O O8 0.223993 0.426060 0.011128
O O9 0.115412 0.545063 0.507348
O O10 0.232983 0.305862 0.456164
O O11 0.315181 0.729388 0.391744
O O12 0.282120 0.012227 0.405867
O O13 0.961607 0.065604 0.893376
O O14 0.500000 0.500000 0.000000
O O15 0.500000 0.000000 0.000000
O O16 0.000000 0.000000 0.000000
#
# Coordination Sequence:
#
# PCOD8006229 Si02
#       7
#     2   2   2   2   2   2   2
#     4  11  22  38  55  83 128 173 203 246 308 361
#     4  10  20  39  66  95 117 154 209 263 305 365
#     4  11  21  37  57  88 121 159 210 257 295 356
#     4  11  21  38  62  90 123 166 202 245 315 366
#     4  12  21  33  57  89 121 161 212 254 293 361
#     4  10  22  38  54  83 129 169 198 241 296 370
#     4   9  20  39  66  92 121 152 202 260 324 364
#
# _framework density 20.096997999999999
#
# number of rings (size 3 to 8) (size 9 to 14) (size 15 to 20)
#    0.000    1.429    1.429    6.429    0.000    0.000 
#    0.000    0.714    0.000    7.714    0.000    0.000 
#    0.000    0.000    0.000    0.000    0.000    0.000 
#
# Total GULP energy -173437.484694 kJ/mol
# GULP energy per Si atom -12388.391764 kJ/mol
# Density = 2.005126 g / cm^3
# Si number density = 20.096998 Si / 1000 Ang^3
#
#
#
# Elastic Constant Matrix: (Units=GPa)
#
#
# Indices 1 2 3 4 5 6 
#
# 1 71.8136 36.6824 32.8120 -6.6189 -4.5771 2.7373
# 2 36.6824 108.9303 47.0261 -16.4389 4.2710 -7.2170
# 3 32.8120 47.0261 163.7243 -11.6091 8.6090 -19.2202
# 4 -6.6189 -16.4389 -11.6091 39.9159 -6.4384 -1.4792
# 5 -4.5771 4.2710 8.6090 -6.4384 36.8571 -2.5122
# 6 2.7373 -7.2170 -19.2202 -1.4792 -2.5122 34.8036
#
#
#
# Elastic Compliance Matrix: (Units=1/GPa)
#
#
# Indices 1 2 3 4 5 6 
#
# 1 0.018272 -0.005287 -0.002731 0.000457 0.003342 -0.003781
# 2 -0.005287 0.012542 -0.002004 0.003640 -0.000870 0.002002
# 3 -0.002731 -0.002004 0.007852 0.000914 -0.001504 0.004066
# 4 0.000457 0.003640 0.000914 0.027711 0.004448 0.002722
# 5 0.003342 -0.000870 -0.001504 0.004448 0.028844 0.000997
# 6 -0.003781 0.002002 0.004066 0.002722 0.000997 0.031878
#
#
# Mechanical properties :
#
#
# Convention : Reuss Voigt Hill
#
# Bulk Modulus (GPa) = 53.69724 64.16770 58.93247
# Shear Modulus (GPa) = 32.60522 37.51184 35.05853
#
# Velocity S-wave (km/s) = 4.03226 4.32503 4.18121
# Velocity P-wave (km/s) = 6.96103 7.54583 7.25932
#
# Compressibility (1/GPa) = 0.01862293
#
# Stress axis : x y z
#
# Youngs Moduli (GPa) = 54.72742 79.73419 127.35935
#
# Poissons Ratio (x) = 0.42155 0.34776
# Poissons Ratio (y) = 0.28934 0.25522
# Poissons Ratio (z) = 0.14944 0.15979
#
# Static dielectric constant tensor:
#      x y z
#    x 3.894080 0.032970 -0.201750 
#    y 0.032970 3.566100 -0.014770 
#    z -0.201750 -0.014770 4.616950 
# 
# 
# High freq. dielectric constant tensor:
#      x y z
#    x 1.779030 0.012480 -0.002060 
#    y 0.012480 1.760970 -0.016950 
#    z -0.002060 -0.016950 1.808180 
# 
# From -- ./inp_files/27569.got.cif
#   From: 2010.06.25/outbox.cif.g09.slc.cpg/sg2_14_cif.got.tgz:27569.got - 2010.06.27 13:26:56.
