data_PCOD8006776
_publ_section_title
;
Structure prediction by ZEFSAII (Michael W. Deem and Ramdas Pophale) SiO2 
 PCOD8006776
Probable space group: P -1
;
_chemical_formula_sum "Si O2"
_cell_formula_units_Z 12
_cell_length_a 12.319359
_cell_length_b 8.074475
_cell_length_c 11.595557
_cell_angle_alpha 68.085477
_cell_angle_beta 142.584026
_cell_angle_gamma 86.738864
_cell_volume 506.616430
_symmetry_space_group_name_H-M "P -1"
_symmetry_group_IT_number 2
_symmetry_cell_setting 'triclinic'
loop_
_space_group_symop_operation_xyz
x,y,z
-x,-y,-z
loop_
_atom_site_type_symbol
_atom_site_label
_atom_site_fract_x
_atom_site_fract_y
_atom_site_fract_z
Si Si1 0.187122 0.612389 0.456056
Si Si2 0.578691 0.198593 0.482482
Si Si3 0.744418 0.674558 0.038104
Si Si4 0.214163 0.273298 0.295519
Si Si5 0.635073 0.856229 0.294659
Si Si6 0.978434 0.208160 0.480935
O O1 0.288784 0.697386 0.434463
O O2 0.389750 0.336668 0.713845
O O3 0.971531 0.646443 0.206740
O O4 0.107457 0.754636 0.470308
O O5 0.439332 0.258495 0.468648
O O6 0.766031 0.926070 0.703150
O O7 0.393325 0.291464 0.200143
O O8 0.799648 0.452987 0.204492
O O9 0.598813 0.893918 0.943208
O O10 0.197394 0.243795 0.424949
O O11 0.000000 0.500000 0.000000
O O12 0.766749 0.868307 0.295901
O O13 0.000000 0.000000 0.500000
#
# Coordination Sequence:
#
# PCOD8006776 Si02
#       6
#     2   2   2   2   2   2
#     4  11  24  40  61  92 124 158 204 251 302 361
#     4  10  23  40  62  92 120 160 205 243 304 361
#     4  10  22  42  62  89 128 159 200 254 297 359
#     4  10  20  40  64  87 123 160 200 253 298 356
#     4  10  22  39  61  91 122 161 205 247 305 360
#     4  11  23  39  62  92 123 161 206 248 301 363
#
# _framework density 23.686558999999999
#
# number of rings (size 3 to 8) (size 9 to 14) (size 15 to 20)
#    0.000    1.667    0.000    6.000    0.000    8.667 
#    0.000   11.667    0.000    0.000    0.000    0.000 
#    0.000    0.000    0.000    0.000    0.000    0.000 
#
# Total GULP energy -148720.238401 kJ/mol
# GULP energy per Si atom -12393.353200 kJ/mol
# Density = 2.363265 g / cm^3
# Si number density = 23.686559 Si / 1000 Ang^3
#
#
#
# Elastic Constant Matrix: (Units=GPa)
#
#
# Indices 1 2 3 4 5 6 
#
# 1 82.4378 38.1251 -2.6478 -10.2130 9.1705 19.5188
# 2 38.1251 135.6901 40.5235 -35.3714 18.2111 22.2085
# 3 -2.6478 40.5235 78.6440 -17.7372 3.0402 11.4391
# 4 -10.2130 -35.3714 -17.7372 40.5441 -10.3226 -3.1293
# 5 9.1705 18.2111 3.0402 -10.3226 27.0132 -2.4434
# 6 19.5188 22.2085 11.4391 -3.1293 -2.4434 51.0555
#
#
#
# Elastic Compliance Matrix: (Units=1/GPa)
#
#
# Indices 1 2 3 4 5 6 
#
# 1 0.015814 -0.004038 0.003689 0.000856 -0.003207 -0.005217
# 2 -0.004038 0.012644 -0.004576 0.006701 -0.004325 -0.002728
# 3 0.003689 -0.004576 0.016520 0.004295 0.001362 -0.002793
# 4 0.000856 0.006701 0.004295 0.034435 0.007712 -0.001725
# 5 -0.003207 -0.004325 0.001362 0.007712 0.044305 0.005395
# 6 -0.005217 -0.002728 -0.002793 -0.001725 0.005395 0.023546
#
#
# Mechanical properties :
#
#
# Convention : Reuss Voigt Hill
#
# Bulk Modulus (GPa) = 28.46709 49.86372 39.16540
# Shear Modulus (GPa) = 29.61676 38.44065 34.02871
#
# Velocity S-wave (km/s) = 3.53988 4.03288 3.79440
# Velocity P-wave (km/s) = 5.36209 6.54085 5.98058
#
# Compressibility (1/GPa) = 0.03512829
#
# Stress axis : x y z
#
# Youngs Moduli (GPa) = 63.23483 79.08650 60.53264
#
# Poissons Ratio (x) = 0.31932 -0.22329
# Poissons Ratio (y) = 0.25532 0.27701
# Poissons Ratio (z) = -0.23326 0.36191
#
# Static dielectric constant tensor:
#      x y z
#    x 4.547030 -0.132240 0.112100 
#    y -0.132240 4.338210 -0.474730 
#    z 0.112100 -0.474730 4.196140 
# 
# 
# High freq. dielectric constant tensor:
#      x y z
#    x 1.948990 -0.011630 0.002330 
#    y -0.011630 1.939510 -0.033090 
#    z 0.002330 -0.033090 1.930820 
# 
# From -- ./inp_files/204551.got.cif
#   From: 2010.06.25/outbox.cif.g09.slc.cpg/sg2_103_cif.got.tgz:204551.got - 2010.06.27 13:26:56.
