data_PCOD8006103
_publ_section_title
;
Structure prediction by ZEFSAII (Michael W. Deem and Ramdas Pophale) SiO2 
 PCOD8006103
Probable space group: P -1
;
_chemical_formula_sum "Si O2"
_cell_formula_units_Z 16
_cell_length_a 11.897576
_cell_length_b 9.919071
_cell_length_c 18.757931
_cell_angle_alpha 150.870566
_cell_angle_beta 47.963149
_cell_angle_gamma 130.764390
_cell_volume 786.039406
_symmetry_space_group_name_H-M "P -1"
_symmetry_group_IT_number 2
_symmetry_cell_setting 'triclinic'
loop_
_space_group_symop_operation_xyz
x,y,z
-x,-y,-z
loop_
_atom_site_type_symbol
_atom_site_label
_atom_site_fract_x
_atom_site_fract_y
_atom_site_fract_z
Si Si1 0.335832 0.183103 0.301197
Si Si2 0.989992 0.300184 0.113552
Si Si3 0.898600 0.787816 0.128243
Si Si4 0.693668 0.205743 0.442193
Si Si5 0.656917 0.976791 0.504136
Si Si6 0.849728 0.131306 0.633693
Si Si7 0.775782 0.199806 0.957209
Si Si8 0.679664 0.352019 0.213566
O O1 0.272291 0.468906 0.445240
O O2 0.516818 0.250729 0.275155
O O3 0.245834 0.016644 0.327433
O O4 0.322986 0.000736 0.150569
O O5 0.812684 0.341852 0.210579
O O6 0.098913 0.536116 0.222188
O O7 0.049828 0.325786 0.020107
O O8 0.000000 0.000000 0.000000
O O9 0.050940 0.865080 0.148301
O O10 0.818657 0.058991 0.280763
O O11 0.777599 0.528032 0.091601
O O12 0.524832 0.046773 0.416399
O O13 0.712317 0.182874 0.509278
O O14 0.694909 0.672943 0.328719
O O15 0.745574 0.103075 0.594992
O O16 0.000000 0.000000 0.500000
O O17 0.697384 0.149003 0.045092
#
# Coordination Sequence:
#
# PCOD8006103 Si02
#       8
#     2   2   2   2   2   2   2   2
#     4  11  25  41  67 103 127 172 221 267 327 390
#     4  11  25  44  64  95 128 173 218 267 329 388
#     4  10  21  38  66  88 129 167 216 265 322 376
#     4  10  23  41  67  99 130 168 223 273 315 377
#     4  10  22  42  67  95 134 176 212 268 328 381
#     4  12  26  44  67  94 136 176 216 263 331 400
#     4  10  20  39  65  93 123 172 213 264 326 377
#     4  10  21  43  68  91 133 170 214 272 328 381
#
# _framework density 20.355214
#
# number of rings (size 3 to 8) (size 9 to 14) (size 15 to 20)
#    0.000    1.500    3.750    0.375    3.500    5.500 
#    2.250    1.250    0.000    0.000    0.000    0.000 
#    0.000    0.000    0.000    0.000    0.000    0.000 
#
# Total GULP energy -198443.127618 kJ/mol
# GULP energy per Si atom -12402.695476 kJ/mol
# Density = 2.030889 g / cm^3
# Si number density = 20.355214 Si / 1000 Ang^3
#
#
#
# Elastic Constant Matrix: (Units=GPa)
#
#
# Indices 1 2 3 4 5 6 
#
# 1 133.4056 42.5212 58.3985 7.3870 6.2765 -1.2036
# 2 42.5212 80.5254 44.9435 13.2903 -1.9251 9.4674
# 3 58.3985 44.9435 109.5878 8.4344 -5.2472 11.0640
# 4 7.3870 13.2903 8.4344 25.8985 -2.7218 -0.4257
# 5 6.2765 -1.9251 -5.2472 -2.7218 43.0287 -1.1897
# 6 -1.2036 9.4674 11.0640 -0.4257 -1.1897 20.6969
#
#
#
# Elastic Compliance Matrix: (Units=1/GPa)
#
#
# Indices 1 2 3 4 5 6 
#
# 1 0.010975 -0.003694 -0.004946 0.000223 -0.002221 0.004849
# 2 -0.003694 0.018876 -0.004544 -0.007241 0.000190 -0.006558
# 3 -0.004946 -0.004544 0.014370 -0.000816 0.002059 -0.005790
# 4 0.000223 -0.007241 -0.000816 0.042860 0.002387 0.004780
# 5 -0.002221 0.000190 0.002059 0.002387 0.023978 0.000111
# 6 0.004849 -0.006558 -0.005790 0.004780 0.000111 0.054798
#
#
# Mechanical properties :
#
#
# Convention : Reuss Voigt Hill
#
# Bulk Modulus (GPa) = 56.01741 68.36058 62.18900
# Shear Modulus (GPa) = 25.22997 29.76853 27.49925
#
# Velocity S-wave (km/s) = 3.52445 3.82835 3.67954
# Velocity P-wave (km/s) = 6.64395 7.29372 6.97640
#
# Compressibility (1/GPa) = 0.01785159
#
# Stress axis : x y z
#
# Youngs Moduli (GPa) = 91.11925 52.97688 69.58748
#
# Poissons Ratio (x) = 0.19572 0.34419
# Poissons Ratio (y) = 0.33664 0.31621
# Poissons Ratio (z) = 0.45069 0.24073
#
# Static dielectric constant tensor:
#      x y z
#    x 4.052410 -0.087990 0.075010 
#    y -0.087990 3.794320 -0.193530 
#    z 0.075010 -0.193530 3.794000 
# 
# 
# High freq. dielectric constant tensor:
#      x y z
#    x 1.798350 0.003800 -0.003550 
#    y 0.003800 1.791770 -0.004540 
#    z -0.003550 -0.004540 1.797890 
# 
# From -- ./inp_files/207933.got.cif
#   From: 2010.06.25/outbox.cif.g09.slc.cpg/sg2_104_cif.got.tgz:207933.got - 2010.06.27 13:26:56.
