data_PCOD8006197
_publ_section_title
;
Structure prediction by ZEFSAII (Michael W. Deem and Ramdas Pophale) SiO2 
 PCOD8006197
Probable space group: P -1
;
_chemical_formula_sum "Si O2"
_cell_formula_units_Z 10
_cell_length_a 5.620055
_cell_length_b 10.714349
_cell_length_c 8.627241
_cell_angle_alpha 88.249290
_cell_angle_beta 126.849930
_cell_angle_gamma 103.055151
_cell_volume 401.272276
_symmetry_space_group_name_H-M "P -1"
_symmetry_group_IT_number 2
_symmetry_cell_setting 'triclinic'
loop_
_space_group_symop_operation_xyz
x,y,z
-x,-y,-z
loop_
_atom_site_type_symbol
_atom_site_label
_atom_site_fract_x
_atom_site_fract_y
_atom_site_fract_z
Si Si1 0.222761 0.440893 0.187538
Si Si2 0.224820 0.189342 0.041103
Si Si3 0.141824 0.390395 0.493824
Si Si4 0.403162 0.969281 0.285202
Si Si5 0.917130 0.865348 0.344878
O O1 0.337893 0.337845 0.132473
O O2 0.058860 0.369049 0.280495
O O3 0.492590 0.563140 0.340579
O O4 0.000000 0.500000 0.000000
O O5 0.407609 0.111887 0.222158
O O6 0.301354 0.179841 0.888707
O O7 0.852538 0.132310 0.914961
O O8 0.015502 0.254956 0.534614
O O9 0.000000 0.500000 0.500000
O O10 0.742024 0.946343 0.383231
O O11 0.265547 0.944452 0.414254
#
# Coordination Sequence:
#
# PCOD8006197 Si02
#       5
#     2   2   2   2   2
#     4  11  24  44  68  98 133 176 228 273 338 399
#     4   9  20  36  66  96 130 173 222 269 331 401
#     4  11  26  42  66  98 137 175 223 284 332 394
#     4   9  20  37  67  97 130 174 216 274 333 392
#     4  10  20  39  66  90 135 171 216 273 330 390
#
# _framework density 24.920732999999998
#
# number of rings (size 3 to 8) (size 9 to 14) (size 15 to 20)
#    1.200    0.800    0.000    3.000    5.600    4.800 
#    0.000    2.000    0.000    0.000    0.000    0.000 
#    0.000    0.000    0.000    0.000    0.000    0.000 
#
# Total GULP energy -124014.315846 kJ/mol
# GULP energy per Si atom -12401.431585 kJ/mol
# Density = 2.486401 g / cm^3
# Si number density = 24.920733 Si / 1000 Ang^3
#
#
#
# Elastic Constant Matrix: (Units=GPa)
#
#
# Indices 1 2 3 4 5 6 
#
# 1 139.3649 62.6541 79.9853 -9.4362 -11.5889 -19.7498
# 2 62.6541 125.8631 78.7111 -29.1420 0.0189 -13.1540
# 3 79.9853 78.7111 180.7535 -31.9815 -23.4727 -0.7941
# 4 -9.4362 -29.1420 -31.9815 58.5020 -1.1617 1.2200
# 5 -11.5889 0.0189 -23.4727 -1.1617 49.1054 1.0301
# 6 -19.7498 -13.1540 -0.7941 1.2200 1.0301 41.9925
#
#
#
# Elastic Compliance Matrix: (Units=1/GPa)
#
#
# Indices 1 2 3 4 5 6 
#
# 1 0.011393 -0.003267 -0.003857 -0.001974 0.000709 0.004302
# 2 -0.003267 0.013177 -0.003956 0.003771 -0.002630 0.002471
# 3 -0.003857 -0.003956 0.010003 0.003019 0.004008 -0.003050
# 4 -0.001974 0.003771 0.003019 0.020339 0.001464 -0.000317
# 5 0.000709 -0.002630 0.004008 0.001464 0.022505 -0.001009
# 6 0.004302 0.002471 -0.003050 -0.000317 -0.001009 0.026587
#
#
# Mechanical properties :
#
#
# Convention : Reuss Voigt Hill
#
# Bulk Modulus (GPa) = 80.55894 98.74248 89.65071
# Shear Modulus (GPa) = 38.37260 44.89539 41.63399
#
# Velocity S-wave (km/s) = 3.92827 4.24905 4.09180
# Velocity P-wave (km/s) = 7.27814 7.98631 7.64043
#
# Compressibility (1/GPa) = 0.01241327
#
# Stress axis : x y z
#
# Youngs Moduli (GPa) = 87.77592 75.89010 99.96854
#
# Poissons Ratio (x) = 0.24790 0.38559
# Poissons Ratio (y) = 0.28673 0.39548
# Poissons Ratio (z) = 0.33856 0.30022
#
# Static dielectric constant tensor:
#      x y z
#    x 4.175730 0.578780 -0.138150 
#    y 0.578780 3.812090 0.351830 
#    z -0.138150 0.351830 4.840010 
# 
# 
# High freq. dielectric constant tensor:
#      x y z
#    x 1.994500 0.004840 -0.002720 
#    y 0.004840 1.997340 0.017980 
#    z -0.002720 0.017980 2.031290 
# 
# From -- ./inp_files/49484.got.cif
#   From: 2010.06.25/outbox.cif.g09.slc.cpg/sg2_25_cif.got.tgz:49484.got - 2010.06.27 13:26:56.
