data_PCOD8006373
_publ_section_title
;
Structure prediction by ZEFSAII (Michael W. Deem and Ramdas Pophale) SiO2 
 PCOD8006373
Probable space group: P -1
;
_chemical_formula_sum "Si O2"
_cell_formula_units_Z 16
_cell_length_a 20.459170
_cell_length_b 23.282773
_cell_length_c 9.206854
_cell_angle_alpha 39.485894
_cell_angle_beta 150.526907
_cell_angle_gamma 159.935809
_cell_volume 712.303624
_symmetry_space_group_name_H-M "P -1"
_symmetry_group_IT_number 2
_symmetry_cell_setting 'triclinic'
loop_
_space_group_symop_operation_xyz
x,y,z
-x,-y,-z
loop_
_atom_site_type_symbol
_atom_site_label
_atom_site_fract_x
_atom_site_fract_y
_atom_site_fract_z
Si Si1 0.720477 0.693350 0.603287
Si Si2 0.703967 0.477091 0.715645
Si Si3 0.770482 0.673653 0.254279
Si Si4 0.918658 0.907523 0.293777
Si Si5 0.540594 0.827265 0.292518
Si Si6 0.220019 0.989561 0.310166
Si Si7 0.920690 0.251061 0.853917
Si Si8 0.559206 0.060981 0.282853
O O1 0.500000 0.500000 0.500000
O O2 0.595203 0.672001 0.539317
O O3 0.810601 0.819949 0.413702
O O4 0.954165 0.762799 0.959564
O O5 0.839432 0.632775 0.577610
O O6 0.689780 0.375602 0.796913
O O7 0.869671 0.565514 0.013098
O O8 0.758854 0.761008 0.148175
O O9 0.982025 0.799585 0.292772
O O10 0.500000 0.500000 0.000000
O O11 0.214364 0.051609 0.570245
O O12 0.878597 0.992027 0.030528
O O13 0.612605 0.861723 0.533628
O O14 0.435662 0.867334 0.981829
O O15 0.395259 0.016445 0.521170
O O16 0.771928 0.219296 0.502467
O O17 0.720970 0.095672 0.885629
#
# Coordination Sequence:
#
# PCOD8006373 Si02
#       8
#     2   2   2   2   2   2   2   2
#     4  10  20  39  68  96 129 166 212 280 327 380
#     4  11  23  40  69  98 135 169 219 280 335 377
#     4  11  21  38  63  96 136 171 211 279 327 383
#     4  11  21  41  65  97 130 167 228 272 324 388
#     4  11  23  43  63  99 132 178 218 271 325 397
#     4  11  25  42  68  98 133 176 226 267 324 399
#     4  10  22  43  65  93 133 177 220 270 331 394
#     4  11  24  43  68  91 137 182 218 267 331 397
#
# _framework density 22.462330999999999
#
# number of rings (size 3 to 8) (size 9 to 14) (size 15 to 20)
#    0.000    1.250    3.750    4.125    3.500    3.000 
#    0.000    5.000    0.000    0.000    0.000    0.000 
#    0.000    0.000    0.000    0.000    0.000    0.000 
#
# Total GULP energy -198377.516811 kJ/mol
# GULP energy per Si atom -12398.594801 kJ/mol
# Density = 2.241121 g / cm^3
# Si number density = 22.462331 Si / 1000 Ang^3
#
#
#
# Elastic Constant Matrix: (Units=GPa)
#
#
# Indices 1 2 3 4 5 6 
#
# 1 26.5263 25.8074 0.9286 -0.7108 12.3673 0.2859
# 2 25.8074 88.3829 32.0932 -2.8310 5.1105 -11.1616
# 3 0.9286 32.0932 95.8880 -7.8021 6.7879 -0.5995
# 4 -0.7108 -2.8310 -7.8021 46.4729 -4.6587 -9.4435
# 5 12.3673 5.1105 6.7879 -4.6587 32.8786 -3.4741
# 6 0.2859 -11.1616 -0.5995 -9.4435 -3.4741 42.3229
#
#
#
# Elastic Compliance Matrix: (Units=1/GPa)
#
#
# Indices 1 2 3 4 5 6 
#
# 1 0.074446 -0.024861 0.009196 -0.003633 -0.027609 -0.010006
# 2 -0.024861 0.021715 -0.007428 0.001957 0.008519 0.006926
# 3 0.009196 -0.007428 0.013256 0.000988 -0.005116 -0.002033
# 4 -0.003633 0.001957 0.000988 0.023491 0.004841 0.006194
# 5 -0.027609 0.008519 -0.005116 0.004841 0.041946 0.006884
# 6 -0.010006 0.006926 -0.002033 0.006194 0.006884 0.027440
#
#
# Mechanical properties :
#
#
# Convention : Reuss Voigt Hill
#
# Bulk Modulus (GPa) = 15.81470 36.49507 26.15488
# Shear Modulus (GPa) = 18.54899 34.46609 26.50754
#
# Velocity S-wave (km/s) = 2.87676 3.92139 3.43897
# Velocity P-wave (km/s) = 4.25325 6.06511 5.23811
#
# Compressibility (1/GPa) = 0.06323232
#
# Stress axis : x y z
#
# Youngs Moduli (GPa) = 13.43255 46.05013 75.43959
#
# Poissons Ratio (x) = 1.14484 -0.69375
# Poissons Ratio (y) = 0.33394 0.56035
# Poissons Ratio (z) = -0.12353 0.34205
#
# Static dielectric constant tensor:
#      x y z
#    x 4.033130 -0.028770 -0.076310 
#    y -0.028770 4.060530 0.027930 
#    z -0.076310 0.027930 4.003950 
# 
# 
# High freq. dielectric constant tensor:
#      x y z
#    x 1.880350 -0.011340 -0.009620 
#    y -0.011340 1.883380 0.009860 
#    z -0.009620 0.009860 1.884730 
# 
# From -- ./inp_files/350000.got.cif
#   From: 2010.06.25/outbox.cif.g09.slc.cpg/sg2_175_cif.got.tgz:350000.got - 2010.06.27 13:26:56.
