data_PCOD8006657
_publ_section_title
;
Structure prediction by ZEFSAII (Michael W. Deem and Ramdas Pophale) SiO2 
 PCOD8006657
Probable space group: P -1
;
_chemical_formula_sum "Si O2"
_cell_formula_units_Z 16
_cell_length_a 15.402110
_cell_length_b 11.558452
_cell_length_c 5.109881
_cell_angle_alpha 82.398101
_cell_angle_beta 119.382827
_cell_angle_gamma 83.540310
_cell_volume 768.942952
_symmetry_space_group_name_H-M "P -1"
_symmetry_group_IT_number 2
_symmetry_cell_setting 'triclinic'
loop_
_space_group_symop_operation_xyz
x,y,z
-x,-y,-z
loop_
_atom_site_type_symbol
_atom_site_label
_atom_site_fract_x
_atom_site_fract_y
_atom_site_fract_z
Si Si1 0.989371 0.857523 0.721972
Si Si2 0.117061 0.027770 0.970943
Si Si3 0.489305 0.648881 0.137851
Si Si4 0.609745 0.554847 0.846941
Si Si5 0.928933 0.628434 0.873161
Si Si6 0.207499 0.331758 0.829535
Si Si7 0.510507 0.098207 0.784136
Si Si8 0.326270 0.085020 0.210530
O O1 0.935116 0.873259 0.351681
O O2 0.999350 0.722291 0.873364
O O3 0.924833 0.947384 0.807117
O O4 0.098528 0.899343 0.873217
O O5 0.234950 0.027582 0.197791
O O6 0.574920 0.590122 0.490194
O O7 0.394236 0.582967 0.053002
O O8 0.449828 0.789541 0.076637
O O9 0.534282 0.636210 0.915788
O O10 0.724706 0.571418 0.037492
O O11 0.841223 0.632388 0.531778
O O12 0.876998 0.662218 0.068627
O O13 0.000000 0.500000 0.000000
O O14 0.275766 0.198513 0.924430
O O15 0.395370 0.144580 0.493075
O O16 0.597153 0.031672 0.741705
O O17 0.500000 0.000000 0.000000
#
# Coordination Sequence:
#
# PCOD8006657 Si02
#       8
#     2   2   2   2   2   2   2   2
#     4  10  20  40  62  93 118 158 205 259 311 377
#     4  10  21  37  66  88 121 162 208 249 309 380
#     4  10  21  40  61  89 132 163 208 264 303 360
#     4  10  21  39  66  90 117 174 216 246 308 376
#     4  12  25  42  65  94 126 157 205 273 318 373
#     4  12  23  41  69  90 123 167 217 249 315 393
#     4  11  25  38  61  96 137 164 212 270 309 362
#     4  11  23  39  61  96 123 175 209 257 313 377
#
# _framework density 20.807784999999999
#
# number of rings (size 3 to 8) (size 9 to 14) (size 15 to 20)
#    0.000    1.250    3.750    1.875    5.250    0.000 
#    2.250    1.250    0.000    0.000    0.000    0.000 
#    0.000    0.000    0.000    0.000    0.000    0.000 
#
# Total GULP energy -198248.342732 kJ/mol
# GULP energy per Si atom -12390.521421 kJ/mol
# Density = 2.076043 g / cm^3
# Si number density = 20.807785 Si / 1000 Ang^3
#
#
#
# Elastic Constant Matrix: (Units=GPa)
#
#
# Indices 1 2 3 4 5 6 
#
# 1 71.4785 36.4062 12.0535 0.4553 8.3537 16.4132
# 2 36.4062 142.2311 23.3685 -4.1975 16.8854 26.4221
# 3 12.0535 23.3685 63.6331 0.2823 2.6440 -10.6173
# 4 0.4553 -4.1975 0.2823 31.8096 -0.6387 -2.6831
# 5 8.3537 16.8854 2.6440 -0.6387 36.0406 4.6551
# 6 16.4132 26.4221 -10.6173 -2.6831 4.6551 32.6766
#
#
#
# Elastic Compliance Matrix: (Units=1/GPa)
#
#
# Indices 1 2 3 4 5 6 
#
# 1 0.017900 -0.002230 -0.003877 -0.001252 -0.001770 -0.008298
# 2 -0.002230 0.010236 -0.004585 0.000676 -0.002874 -0.008182
# 3 -0.003877 -0.004585 0.020174 0.000303 -0.000008 0.012236
# 4 -0.001252 0.000676 0.000303 0.031778 0.000157 0.002768
# 5 -0.001770 -0.002874 -0.000008 0.000157 0.029636 -0.000999
# 6 -0.008298 -0.008182 0.012236 0.002768 -0.000999 0.045732
#
#
# Mechanical properties :
#
#
# Convention : Reuss Voigt Hill
#
# Bulk Modulus (GPa) = 37.14016 46.77770 41.95893
# Shear Modulus (GPa) = 26.90827 33.80630 30.35728
#
# Velocity S-wave (km/s) = 3.59999 4.03512 3.82375
# Velocity P-wave (km/s) = 5.93024 6.65126 6.30107
#
# Compressibility (1/GPa) = 0.02692503
#
# Stress axis : x y z
#
# Youngs Moduli (GPa) = 55.86524 97.69455 49.56847
#
# Poissons Ratio (x) = 0.21786 0.19219
# Poissons Ratio (y) = 0.12458 0.22729
# Poissons Ratio (z) = 0.21660 0.44797
#
# Static dielectric constant tensor:
#      x y z
#    x 3.820960 0.461010 -0.019000 
#    y 0.461010 3.882450 0.358060 
#    z -0.019000 0.358060 3.787130 
# 
# 
# High freq. dielectric constant tensor:
#      x y z
#    x 1.812360 0.029390 -0.012920 
#    y 0.029390 1.818930 0.022310 
#    z -0.012920 0.022310 1.808200 
# 
# From -- ./inp_files/94834.got.cif
#   From: 2010.06.25/outbox.cif.g09.slc.cpg/sg2_48_cif.got.tgz:94834.got - 2010.06.27 13:26:56.
