data_PCOD8006680
_publ_section_title
;
Structure prediction by ZEFSAII (Michael W. Deem and Ramdas Pophale) SiO2 
 PCOD8006680
Probable space group: P -1
;
_chemical_formula_sum "Si O2"
_cell_formula_units_Z 16
_cell_length_a 8.535119
_cell_length_b 10.337374
_cell_length_c 15.063981
_cell_angle_alpha 99.233828
_cell_angle_beta 116.290804
_cell_angle_gamma 42.101828
_cell_volume 767.018993
_symmetry_space_group_name_H-M "P -1"
_symmetry_group_IT_number 2
_symmetry_cell_setting 'triclinic'
loop_
_space_group_symop_operation_xyz
x,y,z
-x,-y,-z
loop_
_atom_site_type_symbol
_atom_site_label
_atom_site_fract_x
_atom_site_fract_y
_atom_site_fract_z
Si Si1 0.888285 0.463145 0.039198
Si Si2 0.061413 0.770264 0.468668
Si Si3 0.533901 0.898206 0.640009
Si Si4 0.253727 0.851055 0.664287
Si Si5 0.664719 0.325443 0.150469
Si Si6 0.817836 0.924721 0.845431
Si Si7 0.080836 0.477261 0.417326
Si Si8 0.668594 0.628447 0.189058
O O1 0.831783 0.561669 0.131584
O O2 0.114431 0.222813 0.079679
O O3 0.611185 0.556466 0.950609
O O4 0.000000 0.500000 0.000000
O O5 0.199887 0.558193 0.444991
O O6 0.238140 0.728253 0.587906
O O7 0.765493 0.893693 0.444266
O O8 0.015844 0.907155 0.395548
O O9 0.512846 0.790147 0.694627
O O10 0.685320 0.934110 0.726096
O O11 0.696432 0.755123 0.579806
O O12 0.277432 0.800726 0.766218
O O13 0.648511 0.486599 0.191128
O O14 0.905770 0.163248 0.124305
O O15 0.626209 0.141065 0.865576
O O16 0.822875 0.613120 0.304768
O O17 0.000000 0.500000 0.500000
#
# Coordination Sequence:
#
# PCOD8006680 Si02
#       8
#     2   2   2   2   2   2   2   2
#     4  11  25  43  70  93 125 168 209 266 320 368
#     4   9  21  39  59  89 127 168 206 255 308 374
#     4  10  20  40  63  84 128 169 204 265 304 365
#     4   9  20  43  59  88 133 167 210 260 312 369
#     4  11  23  40  66  95 126 164 214 261 316 374
#     4  11  22  42  66  92 129 167 207 264 315 375
#     4  12  23  36  64  96 124 168 212 252 320 378
#     4  11  23  43  63  97 130 163 214 261 311 384
#
# _framework density 20.85998
#
# number of rings (size 3 to 8) (size 9 to 14) (size 15 to 20)
#    0.750    0.750    3.750    3.000    0.000    4.500 
#    2.250    1.250    0.000    0.000    0.000    0.000 
#    0.000    0.000    0.000    0.000    0.000    0.000 
#
# Total GULP energy -198343.781300 kJ/mol
# GULP energy per Si atom -12396.486331 kJ/mol
# Density = 2.081250 g / cm^3
# Si number density = 20.859980 Si / 1000 Ang^3
#
#
#
# Elastic Constant Matrix: (Units=GPa)
#
#
# Indices 1 2 3 4 5 6 
#
# 1 74.8473 6.9920 16.9476 16.3181 -9.1893 -2.5180
# 2 6.9920 91.3813 5.0350 3.8683 -12.6870 -2.4237
# 3 16.9476 5.0350 79.9467 4.4327 -12.7776 4.3064
# 4 16.3181 3.8683 4.4327 19.2742 -2.6177 6.2925
# 5 -9.1893 -12.6870 -12.7776 -2.6177 44.0843 -0.4922
# 6 -2.5180 -2.4237 4.3064 6.2925 -0.4922 26.0845
#
#
#
# Elastic Compliance Matrix: (Units=1/GPa)
#
#
# Indices 1 2 3 4 5 6 
#
# 1 0.018047 -0.000088 -0.002931 -0.016341 0.001986 0.006197
# 2 -0.000088 0.011539 -0.000170 -0.002337 0.003134 0.001715
# 3 -0.002931 -0.000170 0.013782 0.000673 0.003345 -0.002673
# 4 -0.016341 -0.002337 0.000673 0.072380 0.000198 -0.019362
# 5 0.001986 0.003134 0.003345 0.000198 0.024985 0.000354
# 6 0.006197 0.001715 -0.002673 -0.019362 0.000354 0.044213
#
#
# Mechanical properties :
#
#
# Convention : Reuss Voigt Hill
#
# Bulk Modulus (GPa) = 27.03354 33.79160 30.41257
# Shear Modulus (GPa) = 24.55160 32.36867 28.46013
#
# Velocity S-wave (km/s) = 3.43442 3.94345 3.69771
# Velocity P-wave (km/s) = 5.35861 6.08020 5.73077
#
# Compressibility (1/GPa) = 0.03699108
#
# Stress axis : x y z
#
# Youngs Moduli (GPa) = 55.40986 86.66511 72.56074
#
# Poissons Ratio (x) = 0.00759 0.21265
# Poissons Ratio (y) = 0.00485 0.01234
# Poissons Ratio (z) = 0.16238 0.01474
#
# Static dielectric constant tensor:
#      x y z
#    x 3.732310 0.069380 0.079510 
#    y 0.069380 3.746430 -0.101540 
#    z 0.079510 -0.101540 3.806720 
# 
# 
# High freq. dielectric constant tensor:
#      x y z
#    x 1.811980 0.007350 0.011900 
#    y 0.007350 1.811300 -0.008450 
#    z 0.011900 -0.008450 1.815590 
# 
# From -- ./inp_files/499195.got.cif
#   From: 2010.06.25/outbox.cif.g09.slc.cpg/sg2_250_cif.got.tgz:499195.got - 2010.06.27 13:26:56.
