data_PCOD8006505
_publ_section_title
;
Structure prediction by ZEFSAII (Michael W. Deem and Ramdas Pophale) SiO2 
 PCOD8006505
Probable space group: P -1
;
_chemical_formula_sum "Si O2"
_cell_formula_units_Z 14
_cell_length_a 9.579173
_cell_length_b 13.377528
_cell_length_c 13.107840
_cell_angle_alpha 147.275201
_cell_angle_beta 64.003315
_cell_angle_gamma 94.286503
_cell_volume 649.825577
_symmetry_space_group_name_H-M "P -1"
_symmetry_group_IT_number 2
_symmetry_cell_setting 'triclinic'
loop_
_space_group_symop_operation_xyz
x,y,z
-x,-y,-z
loop_
_atom_site_type_symbol
_atom_site_label
_atom_site_fract_x
_atom_site_fract_y
_atom_site_fract_z
Si Si1 0.272533 0.467355 0.123798
Si Si2 0.950594 0.815910 0.745898
Si Si3 0.952819 0.022334 0.417422
Si Si4 0.444102 0.833090 0.390677
Si Si5 0.996925 0.594231 0.743890
Si Si6 0.762696 0.289724 0.113121
Si Si7 0.612609 0.396252 0.616523
O O1 0.094420 0.743204 0.414505
O O2 0.413200 0.422594 0.134986
O O3 0.178060 0.333278 0.059093
O O4 0.392127 0.399890 0.923427
O O5 0.924990 0.651635 0.543292
O O6 0.906450 0.792467 0.856683
O O7 0.165465 0.753722 0.622387
O O8 0.794675 0.082868 0.992509
O O9 0.764626 0.030004 0.477042
O O10 0.000000 0.000000 0.500000
O O11 0.127585 0.804688 0.111319
O O12 0.433848 0.767415 0.454042
O O13 0.500000 0.000000 0.500000
O O14 0.167508 0.576635 0.735101
O O15 0.532402 0.471950 0.319133
#
# Coordination Sequence:
#
# PCOD8006505 Si02
#       7
#     2   2   2   2   2   2   2
#     4  10  20  40  59  85 130 161 201 255 312 359
#     4  10  22  46  63  87 131 161 204 260 316 349
#     4  11  21  37  62  87 126 166 199 252 310 365
#     4  11  21  37  58  90 125 159 205 255 306 365
#     4  10  22  40  67  91 121 167 208 257 301 376
#     4  12  21  40  66  93 121 163 213 248 312 363
#     4  10  22  40  61  89 122 163 202 255 306 372
#
# _framework density 21.544242000000001
#
# number of rings (size 3 to 8) (size 9 to 14) (size 15 to 20)
#    0.000    1.429    4.286    4.714    0.000    1.714 
#    2.571    9.286    0.000    0.000    0.000    0.000 
#    0.000    0.000    0.000    0.000    0.000    0.000 
#
# Total GULP energy -173555.785044 kJ/mol
# GULP energy per Si atom -12396.841789 kJ/mol
# Density = 2.149521 g / cm^3
# Si number density = 21.544242 Si / 1000 Ang^3
#
#
#
# Elastic Constant Matrix: (Units=GPa)
#
#
# Indices 1 2 3 4 5 6 
#
# 1 127.7842 70.2306 22.1773 32.8112 -4.3134 -12.7673
# 2 70.2306 137.5393 14.3296 14.0484 -7.1111 13.1114
# 3 22.1773 14.3296 32.0189 11.5285 -8.2669 2.7397
# 4 32.8112 14.0484 11.5285 30.7007 -3.1199 0.0640
# 5 -4.3134 -7.1111 -8.2669 -3.1199 27.8809 5.7930
# 6 -12.7673 13.1114 2.7397 0.0640 5.7930 37.4944
#
#
#
# Elastic Compliance Matrix: (Units=1/GPa)
#
#
# Indices 1 2 3 4 5 6 
#
# 1 0.017650 -0.008241 -0.005772 -0.013421 -0.004674 0.010059
# 2 -0.008241 0.011982 0.000793 0.003449 0.003997 -0.007678
# 3 -0.005772 0.000793 0.041741 -0.008612 0.012211 -0.007165
# 4 -0.013421 0.003449 -0.008612 0.048878 0.002899 -0.005678
# 5 -0.004674 0.003997 0.012211 0.002899 0.042273 -0.010418
# 6 0.010059 -0.007678 -0.007165 -0.005678 -0.010418 0.034923
#
#
# Mechanical properties :
#
#
# Convention : Reuss Voigt Hill
#
# Bulk Modulus (GPa) = 22.25552 56.75750 39.50651
# Shear Modulus (GPa) = 20.93221 31.92220 26.42721
#
# Velocity S-wave (km/s) = 3.12042 3.85347 3.50615
# Velocity P-wave (km/s) = 4.83066 6.79711 5.89644
#
# Compressibility (1/GPa) = 0.04493266
#
# Stress axis : x y z
#
# Youngs Moduli (GPa) = 56.65760 83.45645 23.95702
#
# Poissons Ratio (x) = 0.68775 0.13829
# Poissons Ratio (y) = 0.46690 -0.01899
# Poissons Ratio (z) = 0.32704 -0.06614
#
# Static dielectric constant tensor:
#      x y z
#    x 4.000190 -0.168260 0.197990 
#    y -0.168260 4.367720 -0.159640 
#    z 0.197990 -0.159640 3.638310 
# 
# 
# High freq. dielectric constant tensor:
#      x y z
#    x 1.842860 0.007080 0.011010 
#    y 0.007080 1.861010 -0.011160 
#    z 0.011010 -0.011160 1.825070 
# 
# From -- ./inp_files/313212.got.cif
#   From: 2010.06.25/outbox.cif.g09.slc.cpg/sg2_157_cif.got.tgz:313212.got - 2010.06.27 13:26:56.
