data_PCOD8006049
_publ_section_title
;
Structure prediction by ZEFSAII (Michael W. Deem and Ramdas Pophale) SiO2 
 PCOD8006049
Probable space group: P -1
;
_chemical_formula_sum "Si O2"
_cell_formula_units_Z 14
_cell_length_a 22.633590
_cell_length_b 21.366305
_cell_length_c 5.247235
_cell_angle_alpha 115.500050
_cell_angle_beta 122.649112
_cell_angle_gamma 19.096623
_cell_volume 669.426365
_symmetry_space_group_name_H-M "P -1"
_symmetry_group_IT_number 2
_symmetry_cell_setting 'triclinic'
loop_
_space_group_symop_operation_xyz
x,y,z
-x,-y,-z
loop_
_atom_site_type_symbol
_atom_site_label
_atom_site_fract_x
_atom_site_fract_y
_atom_site_fract_z
Si Si1 0.694831 0.911286 0.368528
Si Si2 0.601799 0.480517 0.694599
Si Si3 0.837916 0.509957 0.257059
Si Si4 0.555898 0.301129 0.785969
Si Si5 0.604657 0.855303 0.290835
Si Si6 0.603137 0.699672 0.524023
Si Si7 0.986197 0.966110 0.158004
O O1 0.700965 0.822577 0.267138
O O2 0.923265 0.727404 0.581886
O O3 0.549022 0.094333 0.529510
O O4 0.574396 0.029382 0.027762
O O5 0.500000 0.500000 0.500000
O O6 0.556307 0.562572 0.475068
O O7 0.840846 0.251059 0.842247
O O8 0.535166 0.584961 0.966988
O O9 0.789030 0.636081 0.430290
O O10 0.729788 0.566003 0.327129
O O11 0.759579 0.566537 0.888793
O O12 0.534888 0.238069 0.621899
O O13 0.788104 0.104045 0.953092
O O14 0.500000 0.000000 0.500000
O O15 0.000000 0.000000 0.500000
O O16 0.000000 0.000000 0.000000
#
# Coordination Sequence:
#
# PCOD8006049 Si02
#       7
#     2   2   2   2   2   2   2
#     4  10  23  41  64  93 134 168 214 272 317 376
#     4  12  23  42  70  95 127 161 208 268 322 376
#     4  11  24  42  67  93 129 175 220 260 321 375
#     4  12  25  43  64  96 132 166 212 267 316 387
#     4  10  20  39  65 100 125 165 220 273 319 366
#     4  11  26  43  61  92 133 173 216 258 315 392
#     4  12  23  40  68  99 123 162 205 259 328 376
#
# _framework density 20.913426999999999
#
# number of rings (size 3 to 8) (size 9 to 14) (size 15 to 20)
#    0.000    0.857    4.286    2.571    2.000    2.857 
#    0.000    0.000    0.000    0.000    0.000    0.000 
#    0.000    0.000    0.000    0.000    0.000    0.000 
#
# Total GULP energy -173502.797174 kJ/mol
# GULP energy per Si atom -12393.056941 kJ/mol
# Density = 2.086583 g / cm^3
# Si number density = 20.913427 Si / 1000 Ang^3
#
#
#
# Elastic Constant Matrix: (Units=GPa)
#
#
# Indices 1 2 3 4 5 6 
#
# 1 99.3838 26.7917 40.6041 -12.3424 -7.4639 -6.6702
# 2 26.7917 137.5879 52.5145 -27.1282 -5.9114 -15.4897
# 3 40.6041 52.5145 90.0492 -11.9760 -4.6413 -7.6156
# 4 -12.3424 -27.1282 -11.9760 44.1241 -7.5355 0.2296
# 5 -7.4639 -5.9114 -4.6413 -7.5355 43.6875 6.4774
# 6 -6.6702 -15.4897 -7.6156 0.2296 6.4774 34.1388
#
#
#
# Elastic Compliance Matrix: (Units=1/GPa)
#
#
# Indices 1 2 3 4 5 6 
#
# 1 0.012715 0.000284 -0.005366 0.002600 0.001936 0.001031
# 2 0.000284 0.010770 -0.005318 0.005474 0.001372 0.003459
# 3 -0.005366 -0.005318 0.016615 -0.000254 0.000050 0.000237
# 4 0.002600 0.005474 -0.000254 0.027649 0.005679 0.001672
# 5 0.001936 0.001372 0.000050 0.005679 0.024949 -0.003760
# 6 0.001031 0.003459 0.000237 0.001672 -0.003760 0.031818
#
#
# Mechanical properties :
#
#
# Convention : Reuss Voigt Hill
#
# Bulk Modulus (GPa) = 51.81193 62.98239 57.39716
# Shear Modulus (GPa) = 32.94912 38.19748 35.57330
#
# Velocity S-wave (km/s) = 3.97356 4.27834 4.12877
# Velocity P-wave (km/s) = 6.77352 7.38829 7.08757
#
# Compressibility (1/GPa) = 0.01930058
#
# Stress axis : x y z
#
# Youngs Moduli (GPa) = 78.64444 92.84975 60.18697
#
# Poissons Ratio (x) = -0.02639 0.32299
# Poissons Ratio (y) = -0.02236 0.32006
# Poissons Ratio (z) = 0.42204 0.49375
#
# Static dielectric constant tensor:
#      x y z
#    x 3.346050 -0.303930 -0.251480 
#    y -0.303930 3.797490 -0.135870 
#    z -0.251480 -0.135870 3.792840 
# 
# 
# High freq. dielectric constant tensor:
#      x y z
#    x 1.823060 -0.001260 -0.008730 
#    y -0.001260 1.827520 0.000020 
#    z -0.008730 0.000020 1.819940 
# 
# From -- ./inp_files/11567.got.cif
#   From: 2010.06.25/outbox.cif.g09.slc.cpg/sg2_6_cif.got.tgz:11567.got - 2010.06.27 13:26:56.
