data_PCOD8006135
_publ_section_title
;
Structure prediction by ZEFSAII (Michael W. Deem and Ramdas Pophale) SiO2 
 PCOD8006135
Probable space group: P -1
;
_chemical_formula_sum "Si O2"
_cell_formula_units_Z 16
_cell_length_a 16.487989
_cell_length_b 12.754057
_cell_length_c 7.611177
_cell_angle_alpha 79.840984
_cell_angle_beta 48.273738
_cell_angle_gamma 42.478856
_cell_volume 630.379440
_symmetry_space_group_name_H-M "P -1"
_symmetry_group_IT_number 2
_symmetry_cell_setting 'triclinic'
loop_
_space_group_symop_operation_xyz
x,y,z
-x,-y,-z
loop_
_atom_site_type_symbol
_atom_site_label
_atom_site_fract_x
_atom_site_fract_y
_atom_site_fract_z
Si Si1 0.790278 0.990915 0.054292
Si Si2 0.988598 0.967387 0.251988
Si Si3 0.700782 0.338594 0.377926
Si Si4 0.662877 0.593001 0.477683
Si Si5 0.227612 0.407255 0.055099
Si Si6 0.888849 0.579608 0.317348
Si Si7 0.323836 0.033942 0.426219
Si Si8 0.963372 0.782159 0.527212
O O1 0.908103 0.812357 0.804372
O O2 0.889787 0.024474 0.898518
O O3 0.779579 0.951462 0.276321
O O4 0.568318 0.184363 0.237795
O O5 0.754618 0.187731 0.460541
O O6 0.998197 0.882154 0.431393
O O7 0.102691 0.805491 0.983934
O O8 0.500000 0.500000 0.500000
O O9 0.689612 0.444103 0.502355
O O10 0.752173 0.549098 0.171025
O O11 0.780467 0.553953 0.479006
O O12 0.436248 0.181106 0.879018
O O13 0.055699 0.455911 0.268699
O O14 0.157305 0.549567 0.263666
O O15 0.711406 0.813830 0.521517
O O16 0.000000 0.500000 0.000000
O O17 0.222334 0.089908 0.371877
#
# Coordination Sequence:
#
# PCOD8006135 Si02
#       8
#     2   2   2   2   2   2   2   2
#     4  11  24  41  66  99 130 171 220 272 315 394
#     4  11  23  37  64  92 129 179 210 264 331 382
#     4  11  21  38  65  98 129 167 223 266 318 391
#     4  10  20  39  65  95 131 168 212 272 317 378
#     4   9  20  39  64  91 128 171 211 269 319 386
#     4   9  20  37  67  98 129 166 219 272 315 391
#     4  10  22  44  67  97 129 177 215 261 341 376
#     4  11  23  43  64  96 137 168 218 272 322 383
#
# _framework density 25.381537000000002
#
# number of rings (size 3 to 8) (size 9 to 14) (size 15 to 20)
#    0.000    1.750    2.500    1.875    5.250    4.500 
#    2.250    3.125    0.000    9.750    0.000    0.000 
#    0.000    0.000    0.000    0.000    0.000    0.000 
#
# Total GULP energy -198288.000891 kJ/mol
# GULP energy per Si atom -12393.000056 kJ/mol
# Density = 2.532377 g / cm^3
# Si number density = 25.381537 Si / 1000 Ang^3
#
#
#
# Elastic Constant Matrix: (Units=GPa)
#
#
# Indices 1 2 3 4 5 6 
#
# 1 113.4693 64.1503 59.5035 9.4709 -19.8153 27.2157
# 2 64.1503 88.8723 55.9341 37.5880 -10.3267 7.8163
# 3 59.5035 55.9341 81.1713 46.1031 -1.2141 2.9406
# 4 9.4709 37.5880 46.1031 39.5750 -7.2328 4.6043
# 5 -19.8153 -10.3267 -1.2141 -7.2328 41.5546 5.8972
# 6 27.2157 7.8163 2.9406 4.6043 5.8972 39.6019
#
#
#
# Elastic Compliance Matrix: (Units=1/GPa)
#
#
# Indices 1 2 3 4 5 6 
#
# 1 -0.021900 0.010893 0.040675 -0.058325 -0.019476 0.019562
# 2 0.010893 0.016439 -0.031362 0.022422 0.014127 -0.013112
# 3 0.040675 -0.031362 -0.031151 0.064754 0.026348 -0.030902
# 4 -0.058325 0.022422 0.064754 -0.069812 -0.038850 0.044751
# 5 -0.019476 0.014127 0.026348 -0.038850 0.010654 0.011570
# 6 0.019562 -0.013112 -0.030902 0.044751 0.011570 0.009765
#
#
# Mechanical properties :
#
#
# Convention : Reuss Voigt Hill
#
# Bulk Modulus (GPa) = 263.21938 71.40986 167.31462
# Shear Modulus (GPa) = -39.95201 31.07463 -4.43869
#
# Velocity S-wave (km/s) = -3.97174 3.50280 -1.32385
# Velocity P-wave (km/s) = 9.10479 6.67496 7.98287
#
# Compressibility (1/GPa) = 0.00379911
#
# Stress axis : x y z
#
# Youngs Moduli (GPa) = -45.66188 60.82968 -32.10149
#
# Poissons Ratio (x) = -0.66261 1.30572
# Poissons Ratio (y) = 0.49739 -1.00677
# Poissons Ratio (z) = 1.85729 1.90775
#
# Static dielectric constant tensor:
#      x y z
#    x 4.804350 0.109460 -0.177380 
#    y 0.109460 4.779690 0.229060 
#    z -0.177380 0.229060 4.600350 
# 
# 
# High freq. dielectric constant tensor:
#      x y z
#    x 2.023150 0.005910 0.003530 
#    y 0.005910 2.021980 0.022170 
#    z 0.003530 0.022170 2.001190 
# 
# From -- ./inp_files/333201.got.cif
#   From: 2010.06.25/outbox.cif.g09.slc.cpg/sg2_167_cif.got.tgz:333201.got - 2010.06.27 13:26:56.
