data_PCOD8006993
_publ_section_title
;
Structure prediction by ZEFSAII (Michael W. Deem and Ramdas Pophale) SiO2 
 PCOD8006993
Probable space group: P -1
;
_chemical_formula_sum "Si O2"
_cell_formula_units_Z 16
_cell_length_a 10.303989
_cell_length_b 27.714287
_cell_length_c 13.222378
_cell_angle_alpha 159.014211
_cell_angle_beta 36.336092
_cell_angle_gamma 141.832240
_cell_volume 790.852509
_symmetry_space_group_name_H-M "P -1"
_symmetry_group_IT_number 2
_symmetry_cell_setting 'triclinic'
loop_
_space_group_symop_operation_xyz
x,y,z
-x,-y,-z
loop_
_atom_site_type_symbol
_atom_site_label
_atom_site_fract_x
_atom_site_fract_y
_atom_site_fract_z
Si Si1 0.728298 0.787933 0.177796
Si Si2 0.519264 0.272518 0.248420
Si Si3 0.614866 0.460017 0.106472
Si Si4 0.866361 0.407691 0.649072
Si Si5 0.524249 0.998371 0.144289
Si Si6 0.295917 0.410681 0.504270
Si Si7 0.826518 0.129686 0.046904
Si Si8 0.013728 0.381443 0.177409
O O1 0.559185 0.889314 0.512548
O O2 0.584582 0.656517 0.957276
O O3 0.841102 0.729126 0.090015
O O4 0.914619 0.865441 0.135605
O O5 0.478125 0.401630 0.596231
O O6 0.391182 0.279547 0.234793
O O7 0.784476 0.290025 0.107924
O O8 0.416960 0.127457 0.074750
O O9 0.778045 0.499147 0.177523
O O10 0.717133 0.404556 0.834993
O O11 0.774080 0.284602 0.390078
O O12 0.879771 0.548570 0.855585
O O13 0.102192 0.373468 0.472689
O O14 0.754598 0.057396 0.057810
O O15 0.322982 0.949020 0.099158
O O16 0.500000 0.500000 0.500000
O O17 0.000000 0.500000 0.500000
#
# Coordination Sequence:
#
# PCOD8006993 Si02
#       8
#     2   2   2   2   2   2   2   2
#     4  12  22  41  64  92 130 167 204 256 318 373
#     4  10  21  40  60  91 125 155 213 253 309 363
#     4  10  23  38  65  97 120 160 212 263 308 367
#     4  12  21  39  64  96 127 159 214 262 314 364
#     4  11  24  42  59  91 133 168 205 254 310 386
#     4  10  20  40  66  91 120 164 205 269 313 357
#     4  11  23  37  63  88 126 172 204 249 318 374
#     4  12  20  35  63  95 122 159 207 260 313 373
#
# _framework density 20.231331999999998
#
# number of rings (size 3 to 8) (size 9 to 14) (size 15 to 20)
#    0.750    0.250    6.250    1.500    0.000    2.500 
#    0.000    0.625    0.000    1.500    0.000    0.000 
#    0.000    0.000    0.000    0.000    0.000    0.000 
#
# Total GULP energy -198230.327784 kJ/mol
# GULP energy per Si atom -12389.395486 kJ/mol
# Density = 2.018528 g / cm^3
# Si number density = 20.231332 Si / 1000 Ang^3
#
#
#
# Elastic Constant Matrix: (Units=GPa)
#
#
# Indices 1 2 3 4 5 6 
#
# 1 30.5306 13.8183 11.2871 8.1745 -4.6087 -3.6538
# 2 13.8183 139.8081 33.9526 11.5074 -12.4028 -22.8912
# 3 11.2871 33.9526 87.5237 13.0515 -3.8053 -10.7496
# 4 8.1745 11.5074 13.0515 31.9890 -8.7753 0.8274
# 5 -4.6087 -12.4028 -3.8053 -8.7753 25.8716 2.5194
# 6 -3.6538 -22.8912 -10.7496 0.8274 2.5194 26.7994
#
#
#
# Elastic Compliance Matrix: (Units=1/GPa)
#
#
# Indices 1 2 3 4 5 6 
#
# 1 0.037140 -0.001814 -0.002612 -0.007089 0.002721 0.002430
# 2 -0.001814 0.009311 -0.002241 -0.001403 0.002692 0.006597
# 3 -0.002612 -0.002241 0.013683 -0.004590 -0.001424 0.003494
# 4 -0.007089 -0.001403 -0.004590 0.038659 0.011110 -0.006245
# 5 0.002721 0.002692 -0.001424 0.011110 0.044220 -0.002401
# 6 0.002430 0.006597 0.003494 -0.006245 -0.002401 0.045100
#
#
# Mechanical properties :
#
#
# Convention : Reuss Voigt Hill
#
# Bulk Modulus (GPa) = 21.36764 41.77535 31.57150
# Shear Modulus (GPa) = 23.03630 30.18564 26.61097
#
# Velocity S-wave (km/s) = 3.37804 3.86686 3.63069
# Velocity P-wave (km/s) = 5.07932 6.37421 5.76324
#
# Compressibility (1/GPa) = 0.04679975
#
# Stress axis : x y z
#
# Youngs Moduli (GPa) = 26.92500 107.40293 73.08087
#
# Poissons Ratio (x) = 0.19480 0.19090
# Poissons Ratio (y) = 0.04884 0.16380
# Poissons Ratio (z) = 0.07033 0.24073
#
# Static dielectric constant tensor:
#      x y z
#    x 2.635860 -0.068670 0.208100 
#    y -0.068670 4.026730 0.150860 
#    z 0.208100 0.150860 3.431670 
# 
# 
# High freq. dielectric constant tensor:
#      x y z
#    x 1.770340 -0.002830 0.008220 
#    y -0.002830 1.805590 0.003870 
#    z 0.008220 0.003870 1.770210 
# 
# From -- ./inp_files/327491.got.cif
#   From: 2010.06.25/outbox.cif.g09.slc.cpg/sg2_164_cif.got.tgz:327491.got - 2010.06.27 13:26:56.
