data_PCOD8006105
_publ_section_title
;
Structure prediction by ZEFSAII (Michael W. Deem and Ramdas Pophale) SiO2 
 PCOD8006105
Probable space group: P -1
;
_chemical_formula_sum "Si O2"
_cell_formula_units_Z 16
_cell_length_a 14.116789
_cell_length_b 8.292105
_cell_length_c 8.797919
_cell_angle_alpha 130.837789
_cell_angle_beta 74.536832
_cell_angle_gamma 89.993316
_cell_volume 729.144089
_symmetry_space_group_name_H-M "P -1"
_symmetry_group_IT_number 2
_symmetry_cell_setting 'triclinic'
loop_
_space_group_symop_operation_xyz
x,y,z
-x,-y,-z
loop_
_atom_site_type_symbol
_atom_site_label
_atom_site_fract_x
_atom_site_fract_y
_atom_site_fract_z
Si Si1 0.930436 0.395013 0.072377
Si Si2 0.100385 0.817838 0.331710
Si Si3 0.305378 0.889109 0.356096
Si Si4 0.376049 0.721640 0.894213
Si Si5 0.068451 0.402436 0.268169
Si Si6 0.721862 0.643453 0.424540
Si Si7 0.430977 0.482987 0.162605
Si Si8 0.290940 0.203970 0.135722
O O1 0.840551 0.580816 0.297219
O O2 0.001955 0.281415 0.112094
O O3 0.883381 0.229724 0.887145
O O4 0.000000 0.500000 0.000000
O O5 0.185434 0.918708 0.435200
O O6 0.096646 0.600704 0.289274
O O7 0.000000 0.000000 0.500000
O O8 0.364174 0.734142 0.371233
O O9 0.329370 0.128277 0.499979
O O10 0.335066 0.763421 0.107277
O O11 0.329878 0.545668 0.719928
O O12 0.497792 0.617211 0.786535
O O13 0.348989 0.948205 0.951492
O O14 0.173690 0.229317 0.155637
O O15 0.000000 0.500000 0.500000
O O16 0.706336 0.681282 0.632803
O O17 0.352431 0.327969 0.071023
O O18 0.500000 0.500000 0.000000
#
# Coordination Sequence:
#
# PCOD8006105 Si02
#       8
#     2   2   2   2   2   2   2   2
#     4  10  21  37  61  94 135 174 218 261 322 397
#     4  11  22  39  64  92 136 176 217 266 329 390
#     4  10  20  39  65  93 126 170 216 275 316 389
#     4  10  23  41  66  88 131 171 211 271 332 386
#     4  11  22  39  63  96 133 172 219 269 328 397
#     4  11  22  40  64  95 131 173 220 264 334 388
#     4  10  22  43  68  95 124 171 223 271 333 382
#     4  11  23  43  65  95 134 171 216 272 329 393
#
# _framework density 21.943536000000002
#
# number of rings (size 3 to 8) (size 9 to 14) (size 15 to 20)
#    0.000    1.500    3.750    1.875    1.750    1.000 
#    2.250    5.000    0.000    0.000    0.000    0.000 
#    0.000    0.000    0.000    0.000    0.000    0.000 
#
# Total GULP energy -198287.285448 kJ/mol
# GULP energy per Si atom -12392.955340 kJ/mol
# Density = 2.189359 g / cm^3
# Si number density = 21.943536 Si / 1000 Ang^3
#
#
#
# Elastic Constant Matrix: (Units=GPa)
#
#
# Indices 1 2 3 4 5 6 
#
# 1 126.1288 54.2401 43.0345 13.9471 -15.2581 -17.8052
# 2 54.2401 120.8945 44.3785 28.0948 -4.6518 -15.0838
# 3 43.0345 44.3785 88.8358 15.7962 6.6734 -3.5111
# 4 13.9471 28.0948 15.7962 36.3358 -1.9892 -7.7340
# 5 -15.2581 -4.6518 6.6734 -1.9892 32.3994 7.6784
# 6 -17.8052 -15.0838 -3.5111 -7.7340 7.6784 41.0362
#
#
#
# Elastic Compliance Matrix: (Units=1/GPa)
#
#
# Indices 1 2 3 4 5 6 
#
# 1 0.011841 -0.003298 -0.004544 0.000848 0.005457 0.002676
# 2 -0.003298 0.012847 -0.003571 -0.006747 0.000216 0.001674
# 3 -0.004544 -0.003571 0.016185 -0.003149 -0.005848 -0.001398
# 4 0.000848 -0.006747 -0.003149 0.034685 0.001281 0.003916
# 5 0.005457 0.000216 -0.005848 0.001281 0.035818 -0.004514
# 6 0.002676 0.001674 -0.001398 0.003916 -0.004514 0.027608
#
#
# Mechanical properties :
#
#
# Convention : Reuss Voigt Hill
#
# Bulk Modulus (GPa) = 55.40371 68.79614 62.09993
# Shear Modulus (GPa) = 29.79281 34.90134 32.34708
#
# Velocity S-wave (km/s) = 3.68870 3.99244 3.84357
# Velocity P-wave (km/s) = 6.59129 7.25757 6.93244
#
# Compressibility (1/GPa) = 0.01804933
#
# Stress axis : x y z
#
# Youngs Moduli (GPa) = 84.45312 77.83805 61.78375
#
# Poissons Ratio (x) = 0.25671 0.28072
# Poissons Ratio (y) = 0.27853 0.22060
# Poissons Ratio (z) = 0.38372 0.27793
#
# Static dielectric constant tensor:
#      x y z
#    x 4.535330 -0.420700 -0.076470 
#    y -0.420700 4.165680 0.014230 
#    z -0.076470 0.014230 3.995510 
# 
# 
# High freq. dielectric constant tensor:
#      x y z
#    x 1.877690 -0.007760 -0.016140 
#    y -0.007760 1.860940 0.007750 
#    z -0.016140 0.007750 1.844380 
# 
# From -- ./inp_files/296759.got.cif
#   From: 2010.06.25/outbox.cif.g09.slc.cpg/sg2_149_cif.got.tgz:296759.got - 2010.06.27 13:26:56.
