data_PCOD8006710
_publ_section_title
;
Structure prediction by ZEFSAII (Michael W. Deem and Ramdas Pophale) SiO2 
 PCOD8006710
Probable space group: P -1
;
_chemical_formula_sum "Si O2"
_cell_formula_units_Z 16
_cell_length_a 14.288585
_cell_length_b 11.398863
_cell_length_c 9.589438
_cell_angle_alpha 76.850652
_cell_angle_beta 120.922396
_cell_angle_gamma 142.339105
_cell_volume 769.245117
_symmetry_space_group_name_H-M "P -1"
_symmetry_group_IT_number 2
_symmetry_cell_setting 'triclinic'
loop_
_space_group_symop_operation_xyz
x,y,z
-x,-y,-z
loop_
_atom_site_type_symbol
_atom_site_label
_atom_site_fract_x
_atom_site_fract_y
_atom_site_fract_z
Si Si1 0.330302 0.932897 0.864577
Si Si2 0.911947 0.172236 0.782638
Si Si3 0.969214 0.487619 0.642694
Si Si4 0.177536 0.212559 0.997315
Si Si5 0.868328 0.651717 0.560203
Si Si6 0.223245 0.016387 0.552290
Si Si7 0.158106 0.958834 0.923005
Si Si8 0.551447 0.549070 0.366516
O O1 0.155197 0.690107 0.810070
O O2 0.315965 0.027118 0.942119
O O3 0.337009 0.001243 0.698806
O O4 0.500000 0.000000 0.000000
O O5 0.904439 0.307016 0.711893
O O6 0.779741 0.989164 0.616672
O O7 0.836976 0.084505 0.903398
O O8 0.116793 0.294268 0.885527
O O9 0.000000 0.500000 0.500000
O O10 0.826444 0.470850 0.563713
O O11 0.364174 0.386558 0.180106
O O12 0.208463 0.147136 0.909856
O O13 0.000000 0.000000 0.000000
O O14 0.672007 0.540273 0.419279
O O15 0.956799 0.761301 0.750356
O O16 0.015559 0.823957 0.508270
O O17 0.321943 0.222769 0.629370
O O18 0.500000 0.500000 0.500000
#
# Coordination Sequence:
#
# PCOD8006710 Si02
#       8
#     2   2   2   2   2   2   2   2
#     4  10  23  41  60  85 133 164 202 257 303 377
#     4  11  19  39  68  89 121 163 208 255 311 367
#     4  10  20  40  63  90 121 170 202 246 317 367
#     4  10  22  38  61  92 128 156 199 265 311 359
#     4  10  22  42  63  90 132 166 204 256 310 377
#     4  10  22  42  64  90 128 169 204 254 320 364
#     4   9  20  41  61  90 121 164 203 260 311 355
#     4  12  23  39  65  97 125 164 213 258 310 370
#
# _framework density 20.799613000000001
#
# number of rings (size 3 to 8) (size 9 to 14) (size 15 to 20)
#    0.000    2.000    2.500    4.125    1.750    4.000 
#    2.250    3.750    0.000    0.000    0.000    0.000 
#    0.000    0.000    0.000    0.000    0.000    0.000 
#
# Total GULP energy -198285.324834 kJ/mol
# GULP energy per Si atom -12392.832802 kJ/mol
# Density = 2.075227 g / cm^3
# Si number density = 20.799613 Si / 1000 Ang^3
#
#
#
# Elastic Constant Matrix: (Units=GPa)
#
#
# Indices 1 2 3 4 5 6 
#
# 1 120.8252 31.9603 52.3815 17.3328 24.5279 -19.2853
# 2 31.9603 67.8784 18.6891 3.7951 9.7696 -21.5755
# 3 52.3815 18.6891 127.9068 5.6463 4.1822 -2.2830
# 4 17.3328 3.7951 5.6463 29.1283 0.4503 -5.5786
# 5 24.5279 9.7696 4.1822 0.4503 50.6399 -0.3787
# 6 -19.2853 -21.5755 -2.2830 -5.5786 -0.3787 33.6713
#
#
#
# Elastic Compliance Matrix: (Units=1/GPa)
#
#
# Indices 1 2 3 4 5 6 
#
# 1 0.013788 -0.002453 -0.004751 -0.005926 -0.005723 0.004957
# 2 -0.002453 0.020385 -0.001745 0.001431 -0.002525 0.011747
# 3 -0.004751 -0.001745 0.009882 0.000525 0.001794 -0.003062
# 4 -0.005926 0.001431 0.000525 0.038287 0.002240 0.003927
# 5 -0.005723 -0.002525 0.001794 0.002240 0.022807 -0.004147
# 6 0.004957 0.011747 -0.003062 0.003927 -0.004147 0.040462
#
#
# Mechanical properties :
#
#
# Convention : Reuss Voigt Hill
#
# Bulk Modulus (GPa) = 38.23014 58.07472 48.15243
# Shear Modulus (GPa) = 29.03117 36.92653 32.97885
#
# Velocity S-wave (km/s) = 3.74003 4.21806 3.98622
# Velocity P-wave (km/s) = 6.08856 7.19057 6.66239
#
# Compressibility (1/GPa) = 0.02615737
#
# Stress axis : x y z
#
# Youngs Moduli (GPa) = 72.52586 49.05510 101.19091
#
# Poissons Ratio (x) = 0.12036 0.48075
# Poissons Ratio (y) = 0.17794 0.17655
# Poissons Ratio (z) = 0.34457 0.08559
#
# Static dielectric constant tensor:
#      x y z
#    x 4.296290 -0.584770 0.080080 
#    y -0.584770 3.850630 -0.123270 
#    z 0.080080 -0.123270 4.044230 
# 
# 
# High freq. dielectric constant tensor:
#      x y z
#    x 1.820610 -0.028630 -0.003570 
#    y -0.028630 1.791420 -0.004030 
#    z -0.003570 -0.004030 1.823040 
# 
# From -- ./inp_files/305171.got.cif
#   From: 2010.06.25/outbox.cif.g09.slc.cpg/sg2_153_cif.got.tgz:305171.got - 2010.06.27 13:26:56.
