data_PCOD8006540
_publ_section_title
;
Structure prediction by ZEFSAII (Michael W. Deem and Ramdas Pophale) SiO2 
 PCOD8006540
Probable space group: P -1
;
_chemical_formula_sum "Si O2"
_cell_formula_units_Z 16
_cell_length_a 12.878571
_cell_length_b 10.614764
_cell_length_c 13.004266
_cell_angle_alpha 35.260621
_cell_angle_beta 134.707457
_cell_angle_gamma 121.567684
_cell_volume 723.742078
_symmetry_space_group_name_H-M "P -1"
_symmetry_group_IT_number 2
_symmetry_cell_setting 'triclinic'
loop_
_space_group_symop_operation_xyz
x,y,z
-x,-y,-z
loop_
_atom_site_type_symbol
_atom_site_label
_atom_site_fract_x
_atom_site_fract_y
_atom_site_fract_z
Si Si1 0.145113 0.811712 0.550544
Si Si2 0.553537 0.035997 0.336976
Si Si3 0.170333 0.506396 0.596137
Si Si4 0.651208 0.770735 0.767576
Si Si5 0.088962 0.568799 0.864309
Si Si6 0.919552 0.203933 0.076123
Si Si7 0.163899 0.930060 0.197543
Si Si8 0.311394 0.029919 0.030168
O O1 0.282318 0.928646 0.606742
O O2 0.220374 0.609901 0.668070
O O3 0.048774 0.726842 0.633448
O O4 0.028776 0.976434 0.292981
O O5 0.459066 0.231031 0.209550
O O6 0.485689 0.992580 0.204249
O O7 0.560272 0.829521 0.559045
O O8 0.191992 0.668499 0.408412
O O9 0.000000 0.500000 0.500000
O O10 0.262151 0.273219 0.788786
O O11 0.774880 0.942764 0.747210
O O12 0.742479 0.532820 0.972593
O O13 0.082389 0.716886 0.861848
O O14 0.974878 0.387515 0.916724
O O15 0.754866 0.154695 0.961696
O O16 0.258367 0.014442 0.118495
O O17 0.000000 0.000000 0.000000
#
# Coordination Sequence:
#
# PCOD8006540 Si02
#       8
#     2   2   2   2   2   2   2   2
#     4  12  22  42  65  93 127 158 206 255 309 370
#     4  10  22  40  63  91 129 161 193 259 314 366
#     4  12  22  33  59  94 122 155 197 252 313 361
#     4  10  20  40  60  91 126 161 199 247 310 372
#     4  11  24  40  70  87 119 170 212 251 306 356
#     4  11  24  44  62  92 122 162 216 259 290 364
#     4  11  19  34  59  89 124 156 192 256 310 358
#     4  11  24  38  59  90 127 159 205 251 309 359
#
# _framework density 22.107322
#
# number of rings (size 3 to 8) (size 9 to 14) (size 15 to 20)
#    0.000    1.000    5.000    2.625    1.750    2.000 
#    0.000    1.250    0.000    0.000    0.000    0.000 
#    0.000    0.000    0.000    0.000    0.000    0.000 
#
# Total GULP energy -198215.884965 kJ/mol
# GULP energy per Si atom -12388.492810 kJ/mol
# Density = 2.205700 g / cm^3
# Si number density = 22.107322 Si / 1000 Ang^3
#
#
#
# Elastic Constant Matrix: (Units=GPa)
#
#
# Indices 1 2 3 4 5 6 
#
# 1 45.1544 2.6147 11.3870 -6.5269 -13.2707 9.8461
# 2 2.6147 104.5705 40.9596 13.9764 -3.0541 11.6029
# 3 11.3870 40.9596 91.8929 8.0793 -20.7981 12.1436
# 4 -6.5269 13.9764 8.0793 35.4050 7.8335 5.5222
# 5 -13.2707 -3.0541 -20.7981 7.8335 33.1386 -2.7731
# 6 9.8461 11.6029 12.1436 5.5222 -2.7731 25.7000
#
#
#
# Elastic Compliance Matrix: (Units=1/GPa)
#
#
# Indices 1 2 3 4 5 6 
#
# 1 0.027885 0.000341 -0.000652 0.004878 0.008747 -0.010634
# 2 0.000341 0.012243 -0.005254 -0.002788 -0.001604 -0.002750
# 3 -0.000652 -0.005254 0.016315 -0.003484 0.010045 -0.003255
# 4 0.004878 -0.002788 -0.003484 0.034212 -0.009189 -0.007307
# 5 0.008747 -0.001604 0.010045 -0.009189 0.041935 -0.000874
# 6 -0.010634 -0.002750 -0.003255 -0.007307 -0.000874 0.047240
#
#
# Mechanical properties :
#
#
# Convention : Reuss Voigt Hill
#
# Bulk Modulus (GPa) = 22.06778 39.06003 30.56391
# Shear Modulus (GPa) = 24.26445 31.29248 27.77847
#
# Velocity S-wave (km/s) = 3.31656 3.76637 3.54860
# Velocity P-wave (km/s) = 4.96688 6.05151 5.53582
#
# Compressibility (1/GPa) = 0.04531493
#
# Stress axis : x y z
#
# Youngs Moduli (GPa) = 35.86131 81.67819 61.29398
#
# Poissons Ratio (x) = -0.02788 0.03994
# Poissons Ratio (y) = -0.01224 0.32203
# Poissons Ratio (z) = 0.02337 0.42913
#
# Static dielectric constant tensor:
#      x y z
#    x 4.780520 -0.280610 1.721390 
#    y -0.280610 4.224890 -0.625660 
#    z 1.721390 -0.625660 7.189270 
# 
# 
# High freq. dielectric constant tensor:
#      x y z
#    x 1.839870 0.020530 -0.018990 
#    y 0.020530 1.863870 0.013330 
#    z -0.018990 0.013330 1.872150 
# 
# From -- ./inp_files/521443.got.cif
#   From: 2010.06.25/outbox.cif.g09.slc.cpg/sg2_261_cif.got.tgz:521443.got - 2010.06.27 13:26:56.
