data_PCOD8006124
_publ_section_title
;
Structure prediction by ZEFSAII (Michael W. Deem and Ramdas Pophale) SiO2 
 PCOD8006124
Probable space group: P -1
;
_chemical_formula_sum "Si O2"
_cell_formula_units_Z 14
_cell_length_a 10.819945
_cell_length_b 13.955089
_cell_length_c 10.688286
_cell_angle_alpha 129.583676
_cell_angle_beta 85.591294
_cell_angle_gamma 137.921555
_cell_volume 534.942689
_symmetry_space_group_name_H-M "P -1"
_symmetry_group_IT_number 2
_symmetry_cell_setting 'triclinic'
loop_
_space_group_symop_operation_xyz
x,y,z
-x,-y,-z
loop_
_atom_site_type_symbol
_atom_site_label
_atom_site_fract_x
_atom_site_fract_y
_atom_site_fract_z
Si Si1 0.257740 0.572358 0.552670
Si Si2 0.025458 0.392560 0.974467
Si Si3 0.971025 0.095467 0.296888
Si Si4 0.278787 0.146981 0.389682
Si Si5 0.990766 0.488974 0.694147
Si Si6 0.696431 0.005270 0.451977
Si Si7 0.355673 0.421691 0.068763
O O1 0.561471 0.788038 0.674419
O O2 0.171648 0.592529 0.473101
O O3 0.029628 0.251108 0.315285
O O4 0.251178 0.638888 0.743154
O O5 0.890182 0.296788 0.043949
O O6 0.364656 0.660975 0.179169
O O7 0.000000 0.500000 0.000000
O O8 0.812852 0.108879 0.674283
O O9 0.253661 0.267786 0.448697
O O10 0.882579 0.074546 0.418813
O O11 0.726852 0.775130 0.004574
O O12 0.952461 0.790044 0.122904
O O13 0.750773 0.190188 0.539049
O O14 0.554475 0.697582 0.359482
O O15 0.500000 0.500000 0.000000
#
# Coordination Sequence:
#
# PCOD8006124 Si02
#       7
#     2   2   2   2   2   2   2
#     4  10  20  44  64 102 132 185 221 268 329 395
#     4  10  20  39  65  94 130 171 221 270 329 386
#     4   9  23  40  72  96 138 172 220 272 329 400
#     4  10  23  43  70  96 132 176 218 271 331 398
#     4   9  20  39  67  93 139 169 227 273 321 392
#     4  10  21  39  68  97 129 172 215 273 337 385
#     4  10  23  44  67  98 133 167 221 277 332 390
#
# _framework density 26.171029000000001
#
# number of rings (size 3 to 8) (size 9 to 14) (size 15 to 20)
#    0.857    1.429    0.000    2.571    2.000    1.714 
#    0.000    8.571    0.000   21.429    0.000    0.000 
#    0.000    0.000    0.000    0.000    0.000    0.000 
#
# Total GULP energy -173488.666056 kJ/mol
# GULP energy per Si atom -12392.047575 kJ/mol
# Density = 2.611146 g / cm^3
# Si number density = 26.171029 Si / 1000 Ang^3
#
#
#
# Elastic Constant Matrix: (Units=GPa)
#
#
# Indices 1 2 3 4 5 6 
#
# 1 139.2291 66.3597 61.9404 3.4454 0.2365 29.6005
# 2 66.3597 143.8640 84.6117 -3.8911 -5.0226 35.7897
# 3 61.9404 84.6117 181.4494 13.0023 -16.9850 3.0270
# 4 3.4454 -3.8911 13.0023 32.0250 -3.6538 -6.7556
# 5 0.2365 -5.0226 -16.9850 -3.6538 34.0777 3.8549
# 6 29.6005 35.7897 3.0270 -6.7556 3.8549 57.1225
#
#
#
# Elastic Compliance Matrix: (Units=1/GPa)
#
#
# Indices 1 2 3 4 5 6 
#
# 1 0.010220 -0.002566 -0.002253 -0.001416 -0.001311 -0.003648
# 2 -0.002566 0.012750 -0.005129 0.002658 0.000315 -0.006094
# 3 -0.002253 -0.005129 0.009124 -0.003028 0.003106 0.003330
# 4 -0.001416 0.002658 -0.003028 0.033828 0.002170 0.003083
# 5 -0.001311 0.000315 0.003106 0.002170 0.031355 -0.001542
# 6 -0.003648 -0.006094 0.003330 0.003083 -0.001542 0.023507
#
#
# Mechanical properties :
#
#
# Convention : Reuss Voigt Hill
#
# Bulk Modulus (GPa) = 81.97167 98.92957 90.45062
# Shear Modulus (GPa) = 34.54306 41.42041 37.98173
#
# Velocity S-wave (km/s) = 3.63698 3.98261 3.81371
# Velocity P-wave (km/s) = 7.00188 7.68319 7.35044
#
# Compressibility (1/GPa) = 0.01219934
#
# Stress axis : x y z
#
# Youngs Moduli (GPa) = 97.84274 78.43185 109.60048
#
# Poissons Ratio (x) = 0.20125 0.24691
# Poissons Ratio (y) = 0.25106 0.56212
# Poissons Ratio (z) = 0.22042 0.40226
#
# Static dielectric constant tensor:
#      x y z
#    x 5.833680 0.539110 -1.052820 
#    y 0.539110 5.485440 -0.493310 
#    z -1.052820 -0.493310 5.584700 
# 
# 
# High freq. dielectric constant tensor:
#      x y z
#    x 2.090320 -0.014160 -0.035290 
#    y -0.014160 2.053910 0.011780 
#    z -0.035290 0.011780 2.038610 
# 
# From -- ./inp_files/431801.got.cif
#   From: 2010.06.25/outbox.cif.g09.slc.cpg/sg2_216_cif.got.tgz:431801.got - 2010.06.27 13:26:56.
