data_PCOD8006687
_publ_section_title
;
Structure prediction by ZEFSAII (Michael W. Deem and Ramdas Pophale) SiO2 
 PCOD8006687
Probable space group: P -1
;
_chemical_formula_sum "Si O2"
_cell_formula_units_Z 16
_cell_length_a 9.149948
_cell_length_b 11.672105
_cell_length_c 17.758906
_cell_angle_alpha 51.716099
_cell_angle_beta 99.602400
_cell_angle_gamma 139.999460
_cell_volume 758.286485
_symmetry_space_group_name_H-M "P -1"
_symmetry_group_IT_number 2
_symmetry_cell_setting 'triclinic'
loop_
_space_group_symop_operation_xyz
x,y,z
-x,-y,-z
loop_
_atom_site_type_symbol
_atom_site_label
_atom_site_fract_x
_atom_site_fract_y
_atom_site_fract_z
Si Si1 0.661284 0.815423 0.645173
Si Si2 0.812194 0.620481 0.737417
Si Si3 0.723237 0.334499 0.082807
Si Si4 0.121791 0.439627 0.395156
Si Si5 0.663838 0.262409 0.452669
Si Si6 0.234609 0.389452 0.907559
Si Si7 0.400763 0.046516 0.680988
Si Si8 0.667102 0.856368 0.995265
O O1 0.780399 0.760082 0.651486
O O2 0.418088 0.654667 0.628342
O O3 0.518818 0.684838 0.768470
O O4 0.925856 0.150874 0.534992
O O5 0.870422 0.572455 0.688791
O O6 0.528398 0.323491 0.874216
O O7 0.077371 0.830851 0.731920
O O8 0.811652 0.557201 0.042518
O O9 0.480222 0.164073 0.069988
O O10 0.597171 0.115057 0.221156
O O11 0.000000 0.500000 0.000000
O O12 0.440730 0.707542 0.348469
O O13 0.997056 0.497126 0.379616
O O14 0.571591 0.190697 0.559644
O O15 0.500000 0.000000 0.500000
O O16 0.270130 0.250304 0.991069
O O17 0.961941 0.180369 0.914453
#
# Coordination Sequence:
#
# PCOD8006687 Si02
#       8
#     2   2   2   2   2   2   2   2
#     4  10  22  43  67  92 125 174 206 265 319 373
#     4  11  23  43  64  94 132 160 215 265 317 373
#     4  12  25  40  65  96 130 168 211 264 319 371
#     4  11  24  40  67  93 130 165 211 261 317 382
#     4  10  20  40  63  86 127 164 204 255 312 373
#     4  10  24  45  69  92 128 168 219 261 317 376
#     4  12  25  40  63  97 132 167 210 258 320 383
#     4  10  24  45  68  94 124 173 215 264 314 380
#
# _framework density 21.100203
#
# number of rings (size 3 to 8) (size 9 to 14) (size 15 to 20)
#    0.000    1.250    3.750    2.625    3.500    1.000 
#    0.000    0.000    0.000    0.000    0.000    0.000 
#    0.000    0.000    0.000    0.000    0.000    0.000 
#
# Total GULP energy -198443.542821 kJ/mol
# GULP energy per Si atom -12402.721426 kJ/mol
# Density = 2.105218 g / cm^3
# Si number density = 21.100203 Si / 1000 Ang^3
#
#
#
# Elastic Constant Matrix: (Units=GPa)
#
#
# Indices 1 2 3 4 5 6 
#
# 1 104.7229 29.4734 26.0798 7.7893 -0.8200 16.1489
# 2 29.4734 98.1282 20.1629 -6.4247 1.3594 11.7660
# 3 26.0798 20.1629 52.9437 -3.5316 0.4261 -0.2553
# 4 7.7893 -6.4247 -3.5316 31.1999 6.2468 3.4268
# 5 -0.8200 1.3594 0.4261 6.2468 31.9530 9.3866
# 6 16.1489 11.7660 -0.2553 3.4268 9.3866 34.0825
#
#
#
# Elastic Compliance Matrix: (Units=1/GPa)
#
#
# Indices 1 2 3 4 5 6 
#
# 1 0.012877 -0.002311 -0.005804 -0.004325 0.003041 -0.005749
# 2 -0.002311 0.012179 -0.003307 0.003113 -0.000141 -0.003408
# 3 -0.005804 -0.003307 0.023271 0.003376 -0.002256 0.004348
# 4 -0.004325 0.003113 0.003376 0.035640 -0.007069 -0.000637
# 5 0.003041 -0.000141 -0.002256 -0.007069 0.035902 -0.010586
# 6 -0.005749 -0.003408 0.004348 -0.000637 -0.010586 0.036254
#
#
# Mechanical properties :
#
#
# Convention : Reuss Voigt Hill
#
# Bulk Modulus (GPa) = 39.24289 45.24746 42.24517
# Shear Modulus (GPa) = 26.67241 31.45232 29.06237
#
# Velocity S-wave (km/s) = 3.55925 3.86504 3.71529
# Velocity P-wave (km/s) = 5.96068 6.43496 6.20236
#
# Compressibility (1/GPa) = 0.02548232
#
# Stress axis : x y z
#
# Youngs Moduli (GPa) = 77.65878 82.10901 42.97243
#
# Poissons Ratio (x) = 0.18976 0.24940
# Poissons Ratio (y) = 0.17947 0.14213
# Poissons Ratio (z) = 0.45070 0.27157
#
# Static dielectric constant tensor:
#      x y z
#    x 4.424800 0.025230 0.094000 
#    y 0.025230 4.275210 -0.198340 
#    z 0.094000 -0.198340 3.812080 
# 
# 
# High freq. dielectric constant tensor:
#      x y z
#    x 1.834530 0.012780 -0.006850 
#    y 0.012780 1.822290 0.003840 
#    z -0.006850 0.003840 1.828900 
# 
# From -- ./inp_files/559784.got.cif
#   From: 2010.06.25/outbox.cif.g09.slc.cpg/sg2_280_cif.got.tgz:559784.got - 2010.06.27 13:26:56.
