data_PCOD8006007
_publ_section_title
;
Structure prediction by ZEFSAII (Michael W. Deem and Ramdas Pophale) SiO2 
 PCOD8006007
Probable space group: P -1
;
_chemical_formula_sum "Si O2"
_cell_formula_units_Z 14
_cell_length_a 5.281445
_cell_length_b 10.457440
_cell_length_c 14.573356
_cell_angle_alpha 76.219454
_cell_angle_beta 118.513134
_cell_angle_gamma 123.840056
_cell_volume 587.029994
_symmetry_space_group_name_H-M "P -1"
_symmetry_group_IT_number 2
_symmetry_cell_setting 'triclinic'
loop_
_space_group_symop_operation_xyz
x,y,z
-x,-y,-z
loop_
_atom_site_type_symbol
_atom_site_label
_atom_site_fract_x
_atom_site_fract_y
_atom_site_fract_z
Si Si1 0.725605 0.040787 0.277065
Si Si2 0.740056 0.177935 0.908350
Si Si3 0.849112 0.605318 0.441858
Si Si4 0.755001 0.071070 0.614709
Si Si5 0.162739 0.470969 0.834348
Si Si6 0.470069 0.300793 0.985605
Si Si7 0.103987 0.374807 0.347450
O O1 0.961007 0.224898 0.284639
O O2 0.530521 0.984904 0.156163
O O3 0.440535 0.989712 0.313958
O O4 0.958404 0.969453 0.343535
O O5 0.807193 0.317833 0.827298
O O6 0.901347 0.810244 0.014034
O O7 0.583305 0.194648 0.972850
O O8 0.473922 0.503797 0.355463
O O9 0.873871 0.674721 0.536522
O O10 0.000000 0.500000 0.500000
O O11 0.065826 0.743840 0.385459
O O12 0.500000 0.000000 0.500000
O O13 0.258931 0.600003 0.907259
O O14 0.121329 0.544670 0.719904
O O15 0.444427 0.420899 0.889341
#
# Coordination Sequence:
#
# PCOD8006007 Si02
#       7
#     2   2   2   2   2   2   2
#     4  12  26  43  65  99 131 180 218 264 332 398
#     4  10  20  39  64  93 126 167 219 261 321 396
#     4  11  26  43  67  94 135 172 226 272 328 379
#     4  12  25  45  68  89 133 180 220 267 325 393
#     4   9  21  38  68  93 130 166 223 265 331 380
#     4   9  20  40  67  95 125 170 218 269 322 396
#     4  11  25  43  62 101 132 174 217 282 321 390
#
# _framework density 23.848865
#
# number of rings (size 3 to 8) (size 9 to 14) (size 15 to 20)
#    0.857    0.571    1.429    3.429    6.000    1.143 
#    0.000    1.429    0.000    0.000    0.000    0.000 
#    0.000    0.000    0.000    0.000    0.000    0.000 
#
# Total GULP energy -173525.106007 kJ/mol
# GULP energy per Si atom -12394.650429 kJ/mol
# Density = 2.379458 g / cm^3
# Si number density = 23.848865 Si / 1000 Ang^3
#
#
#
# Elastic Constant Matrix: (Units=GPa)
#
#
# Indices 1 2 3 4 5 6 
#
# 1 106.0317 26.9731 6.4694 8.5076 4.4151 -4.4119
# 2 26.9731 118.9239 27.4343 30.4356 8.6413 8.4688
# 3 6.4694 27.4343 53.4037 7.7076 9.0266 17.9338
# 4 8.5076 30.4356 7.7076 47.6123 -5.2325 1.3098
# 5 4.4151 8.6413 9.0266 -5.2325 27.1921 4.7364
# 6 -4.4119 8.4688 17.9338 1.3098 4.7364 29.6618
#
#
#
# Elastic Compliance Matrix: (Units=1/GPa)
#
#
# Indices 1 2 3 4 5 6 
#
# 1 0.010234 -0.002089 -0.000813 -0.000587 -0.001337 0.002849
# 2 -0.002089 0.011877 -0.004177 -0.006898 -0.003316 -0.000342
# 3 -0.000813 -0.004177 0.026913 -0.001733 -0.005322 -0.014273
# 4 -0.000587 -0.006898 -0.001733 0.026653 0.007906 0.000491
# 5 -0.001337 -0.003316 -0.005322 0.007906 0.041869 -0.003069
# 6 0.002849 -0.000342 -0.014273 0.000491 -0.003069 0.043333
#
#
# Mechanical properties :
#
#
# Convention : Reuss Voigt Hill
#
# Bulk Modulus (GPa) = 28.68225 44.45697 36.56961
# Shear Modulus (GPa) = 26.78698 35.39206 31.08952
#
# Velocity S-wave (km/s) = 3.35505 3.85647 3.61447
# Velocity P-wave (km/s) = 5.20204 6.20576 5.72593
#
# Compressibility (1/GPa) = 0.03486477
#
# Stress axis : x y z
#
# Youngs Moduli (GPa) = 97.71826 84.19761 37.15723
#
# Poissons Ratio (x) = 0.17590 0.03019
# Poissons Ratio (y) = 0.20415 0.15522
# Poissons Ratio (z) = 0.07941 0.35172
#
# Static dielectric constant tensor:
#      x y z
#    x 5.916680 0.106240 1.193290 
#    y 0.106240 4.311800 0.283290 
#    z 1.193290 0.283290 5.398920 
# 
# 
# High freq. dielectric constant tensor:
#      x y z
#    x 1.930160 -0.004380 0.013840 
#    y -0.004380 1.952000 0.018260 
#    z 0.013840 0.018260 1.939730 
# 
# From -- ./inp_files/548005.got.cif
#   From: 2010.06.25/outbox.cif.g09.slc.cpg/sg2_275_cif.got.tgz:548005.got - 2010.06.27 13:26:56.
