data_PCOD8006791
_publ_section_title
;
Structure prediction by ZEFSAII (Michael W. Deem and Ramdas Pophale) SiO2 
 PCOD8006791
Probable space group: P -1
;
_chemical_formula_sum "Si O2"
_cell_formula_units_Z 16
_cell_length_a 11.746841
_cell_length_b 12.321012
_cell_length_c 12.072172
_cell_angle_alpha 34.204104
_cell_angle_beta 69.360721
_cell_angle_gamma 94.512996
_cell_volume 653.038774
_symmetry_space_group_name_H-M "P -1"
_symmetry_group_IT_number 2
_symmetry_cell_setting 'triclinic'
loop_
_space_group_symop_operation_xyz
x,y,z
-x,-y,-z
loop_
_atom_site_type_symbol
_atom_site_label
_atom_site_fract_x
_atom_site_fract_y
_atom_site_fract_z
Si Si1 0.412207 0.003000 0.669652
Si Si2 0.668677 0.801972 0.657947
Si Si3 0.248991 0.364117 0.735474
Si Si4 0.177144 0.390065 0.323356
Si Si5 0.153431 0.527749 0.446453
Si Si6 0.635917 0.896584 0.163831
Si Si7 0.055607 0.757160 0.650862
Si Si8 0.807295 0.493289 0.147033
O O1 0.365069 0.045609 0.532260
O O2 0.347180 0.064053 0.741825
O O3 0.616340 0.202073 0.437438
O O4 0.324327 0.694653 0.964936
O O5 0.787446 0.794133 0.552870
O O6 0.763138 0.959320 0.607907
O O7 0.500000 0.500000 0.000000
O O8 0.131849 0.376643 0.691774
O O9 0.444426 0.636991 0.412388
O O10 0.231094 0.120264 0.911013
O O11 0.196886 0.338605 0.902971
O O12 0.167760 0.393982 0.454397
O O13 0.991711 0.232205 0.466164
O O14 0.000000 0.500000 0.500000
O O15 0.320361 0.851213 0.122173
O O16 0.067740 0.538562 0.827560
O O17 0.897937 0.665647 0.857476
#
# Coordination Sequence:
#
# PCOD8006791 Si02
#       8
#     2   2   2   2   2   2   2   2
#     4  10  21  41  63  89 124 159 202 250 303 360
#     4  12  25  40  64  91 118 159 206 252 302 360
#     4  10  20  40  64  90 121 158 204 247 298 355
#     4  11  24  42  62  88 125 164 201 249 302 357
#     4  11  23  38  61  92 124 158 199 248 301 357
#     4   9  21  39  63  90 120 159 200 248 300 357
#     4  11  23  40  60  89 124 160 204 247 300 362
#     4  10  21  38  65  90 122 166 199 249 305 353
#
# _framework density 24.500841999999999
#
# number of rings (size 3 to 8) (size 9 to 14) (size 15 to 20)
#    0.000    1.500    0.000    5.250    0.000    4.000 
#    0.000    8.750    0.000    0.000    0.000    0.000 
#    0.000    0.000    0.000    0.000    0.000    0.000 
#
# Total GULP energy -198416.421183 kJ/mol
# GULP energy per Si atom -12401.026324 kJ/mol
# Density = 2.444508 g / cm^3
# Si number density = 24.500842 Si / 1000 Ang^3
#
#
#
# Elastic Constant Matrix: (Units=GPa)
#
#
# Indices 1 2 3 4 5 6 
#
# 1 88.0165 21.5930 -4.9320 3.4836 -2.2237 2.9428
# 2 21.5930 107.0111 13.2124 -12.3731 1.5687 -9.5949
# 3 -4.9320 13.2124 46.9101 6.1097 -8.0400 13.6301
# 4 3.4836 -12.3731 6.1097 16.8303 0.8147 -7.7868
# 5 -2.2237 1.5687 -8.0400 0.8147 30.5135 0.4681
# 6 2.9428 -9.5949 13.6301 -7.7868 0.4681 43.2980
#
#
#
# Elastic Compliance Matrix: (Units=1/GPa)
#
#
# Indices 1 2 3 4 5 6 
#
# 1 0.014205 -0.006155 0.007837 -0.013894 0.003900 -0.007337
# 2 -0.006155 0.016096 -0.012793 0.023725 -0.005470 0.012338
# 3 0.007837 -0.012793 0.039155 -0.036201 0.012855 -0.022343
# 4 -0.013894 0.023725 -0.036201 0.111078 -0.015315 0.037740
# 5 0.003900 -0.005470 0.012855 -0.015315 0.037267 -0.008681
# 6 -0.007337 0.012338 -0.022343 0.037740 -0.008681 0.040243
#
#
# Mechanical properties :
#
#
# Convention : Reuss Voigt Hill
#
# Bulk Modulus (GPa) = 21.17197 33.52049 27.34623
# Shear Modulus (GPa) = 16.89132 32.26597 24.57865
#
# Velocity S-wave (km/s) = 2.62853 3.63289 3.17073
# Velocity P-wave (km/s) = 4.22756 5.59538 4.95886
#
# Compressibility (1/GPa) = 0.04723226
#
# Stress axis : x y z
#
# Youngs Moduli (GPa) = 70.40019 62.12711 25.53984
#
# Poissons Ratio (x) = 0.38242 -0.20016
# Poissons Ratio (y) = 0.43334 0.32673
# Poissons Ratio (z) = -0.55173 0.79480
#
# Static dielectric constant tensor:
#      x y z
#    x 4.340360 -0.182540 -0.089970 
#    y -0.182540 4.584990 -0.122760 
#    z -0.089970 -0.122760 4.391240 
# 
# 
# High freq. dielectric constant tensor:
#      x y z
#    x 1.971440 -0.009170 -0.008100 
#    y -0.009170 1.985900 -0.012620 
#    z -0.008100 -0.012620 1.966090 
# 
# From -- ./inp_files/427378.got.cif
#   From: 2010.06.25/outbox.cif.g09.slc.cpg/sg2_214_cif.got.tgz:427378.got - 2010.06.27 13:26:56.
