data_PCOD8006550
_publ_section_title
;
Structure prediction by ZEFSAII (Michael W. Deem and Ramdas Pophale) SiO2 
 PCOD8006550
Probable space group: P -1
;
_chemical_formula_sum "Si O2"
_cell_formula_units_Z 14
_cell_length_a 7.541294
_cell_length_b 10.160398
_cell_length_c 11.493081
_cell_angle_alpha 80.499251
_cell_angle_beta 109.123083
_cell_angle_gamma 50.301868
_cell_volume 548.797827
_symmetry_space_group_name_H-M "P -1"
_symmetry_group_IT_number 2
_symmetry_cell_setting 'triclinic'
loop_
_space_group_symop_operation_xyz
x,y,z
-x,-y,-z
loop_
_atom_site_type_symbol
_atom_site_label
_atom_site_fract_x
_atom_site_fract_y
_atom_site_fract_z
Si Si1 0.244749 0.022957 0.815019
Si Si2 0.306195 0.551619 0.797243
Si Si3 0.318573 0.720049 0.266117
Si Si4 0.703697 0.575026 0.956035
Si Si5 0.817520 0.894164 0.472272
Si Si6 0.048671 0.595783 0.207969
Si Si7 0.418431 0.247474 0.490100
O O1 0.115319 0.105722 0.645600
O O2 0.007105 0.056910 0.826302
O O3 0.241562 0.172952 0.854491
O O4 0.553746 0.797626 0.913249
O O5 0.532623 0.329859 0.818934
O O6 0.455186 0.604706 0.870270
O O7 0.091407 0.714119 0.630431
O O8 0.163192 0.542285 0.873956
O O9 0.306445 0.563525 0.290100
O O10 0.510520 0.674507 0.415956
O O11 0.940229 0.457650 0.919549
O O12 0.608929 0.877059 0.428756
O O13 0.661145 0.103693 0.465950
O O14 0.120316 0.437313 0.334743
#
# Coordination Sequence:
#
# PCOD8006550 Si02
#       7
#     2   2   2   2   2   2   2
#     4  10  21  37  64  90 116 156 197 249 295 344
#     4  10  22  38  57  92 122 160 192 249 302 342
#     4   9  21  35  59  92 117 147 204 244 294 350
#     4  10  20  40  61  85 129 153 200 245 290 360
#     4  11  24  36  62  89 122 162 194 247 308 343
#     4   9  20  36  61  91 114 156 200 241 293 354
#     4  11  21  39  59  89 125 153 203 248 296 360
#
# _framework density 25.510307000000001
#
# number of rings (size 3 to 8) (size 9 to 14) (size 15 to 20)
#    0.857    1.143    1.429    2.143    4.000    4.000 
#    2.571    0.714    0.000    1.714    0.000    0.000 
#    0.000    0.000    0.000    0.000    0.000    0.000 
#
# Total GULP energy -173483.608594 kJ/mol
# GULP energy per Si atom -12391.686328 kJ/mol
# Density = 2.545224 g / cm^3
# Si number density = 25.510307 Si / 1000 Ang^3
#
#
#
# Elastic Constant Matrix: (Units=GPa)
#
#
# Indices 1 2 3 4 5 6 
#
# 1 37.3321 34.3554 16.7992 7.2918 -7.3879 -7.4646
# 2 34.3554 199.9724 55.7958 11.6509 -3.2545 -2.2510
# 3 16.7992 55.7958 54.2475 7.8602 8.3322 25.3261
# 4 7.2918 11.6509 7.8602 50.1308 3.5500 7.2392
# 5 -7.3879 -3.2545 8.3322 3.5500 31.7717 2.2827
# 6 -7.4646 -2.2510 25.3261 7.2392 2.2827 33.5504
#
#
#
# Elastic Compliance Matrix: (Units=1/GPa)
#
#
# Indices 1 2 3 4 5 6 
#
# 1 0.067073 0.006586 -0.058123 -0.012876 0.028637 0.060070
# 2 0.006586 0.010903 -0.023272 -0.003267 0.007684 0.019947
# 3 -0.058123 -0.023272 0.110137 0.013508 -0.039260 -0.097876
# 4 -0.012876 -0.003267 0.013508 0.023618 -0.008230 -0.017817
# 5 0.028637 0.007684 -0.039260 -0.008230 0.047617 0.035059
# 6 0.060070 0.019947 -0.097876 -0.017817 0.035059 0.119851
#
#
# Mechanical properties :
#
#
# Convention : Reuss Voigt Hill
#
# Bulk Modulus (GPa) = 25.97679 56.16142 41.06910
# Shear Modulus (GPa) = 9.23107 35.39736 22.31422
#
# Velocity S-wave (km/s) = 1.90432 3.72905 2.96076
# Velocity P-wave (km/s) = 3.87817 6.37213 5.27467
#
# Compressibility (1/GPa) = 0.03849591
#
# Stress axis : x y z
#
# Youngs Moduli (GPa) = 14.90904 91.72205 9.07958
#
# Poissons Ratio (x) = -0.60412 0.52773
# Poissons Ratio (y) = -0.09820 0.21130
# Poissons Ratio (z) = 0.86655 2.13459
#
# Static dielectric constant tensor:
#      x y z
#    x 4.532480 0.014350 -0.070310 
#    y 0.014350 4.816480 0.387250 
#    z -0.070310 0.387250 4.219810 
# 
# 
# High freq. dielectric constant tensor:
#      x y z
#    x 2.021630 0.001990 0.014380 
#    y 0.001990 2.032850 0.027970 
#    z 0.014380 0.027970 2.006040 
# 
# From -- ./inp_files/224620.got.cif
#   From: 2010.06.25/outbox.cif.g09.slc.cpg/sg2_113_cif.got.tgz:224620.got - 2010.06.27 13:26:56.
