data_PCOD8006818
_publ_section_title
;
Structure prediction by ZEFSAII (Michael W. Deem and Ramdas Pophale) SiO2 
 PCOD8006818
Probable space group: P -1
;
_chemical_formula_sum "Si O2"
_cell_formula_units_Z 16
_cell_length_a 14.780531
_cell_length_b 8.384624
_cell_length_c 9.153503
_cell_angle_alpha 66.878096
_cell_angle_beta 133.981851
_cell_angle_gamma 91.232688
_cell_volume 694.511197
_symmetry_space_group_name_H-M "P -1"
_symmetry_group_IT_number 2
_symmetry_cell_setting 'triclinic'
loop_
_space_group_symop_operation_xyz
x,y,z
-x,-y,-z
loop_
_atom_site_type_symbol
_atom_site_label
_atom_site_fract_x
_atom_site_fract_y
_atom_site_fract_z
Si Si1 0.557080 0.205710 0.736708
Si Si2 0.998925 0.301802 0.526224
Si Si3 0.331912 0.473838 0.577003
Si Si4 0.292112 0.148533 0.791050
Si Si5 0.327506 0.893133 0.665767
Si Si6 0.104398 0.833477 0.264448
Si Si7 0.722564 0.359699 0.058977
Si Si8 0.499895 0.717287 0.684019
O O1 0.405796 0.350065 0.562986
O O2 0.555705 0.181345 0.569315
O O3 0.674056 0.287411 0.881372
O O4 0.595108 0.003590 0.927723
O O5 0.979355 0.207602 0.685140
O O6 0.883894 0.305739 0.276787
O O7 0.000000 0.500000 0.500000
O O8 0.142964 0.173804 0.667496
O O9 0.318174 0.341474 0.742054
O O10 0.182824 0.641724 0.326034
O O11 0.429582 0.573659 0.705188
O O12 0.303939 0.080026 0.661711
O O13 0.207063 0.923572 0.406872
O O14 0.339646 0.724018 0.850055
O O15 0.460821 0.861925 0.723912
O O16 0.000000 0.000000 0.000000
O O17 0.659950 0.588156 0.907150
#
# Coordination Sequence:
#
# PCOD8006818 Si02
#       8
#     2   2   2   2   2   2   2   2
#     4  10  22  40  70  98 125 168 216 272 318 374
#     4  11  23  42  65  94 128 174 218 257 322 383
#     4  10  20  40  64  93 126 164 212 259 324 374
#     4  11  23  41  64  95 133 168 214 262 320 389
#     4   9  21  38  60  95 124 169 213 261 320 385
#     4  10  22  41  65  89 127 172 212 262 315 382
#     4   9  19  38  66  93 125 169 219 263 309 390
#     4  10  20  41  69  94 125 168 221 265 321 374
#
# _framework density 23.037786000000001
#
# number of rings (size 3 to 8) (size 9 to 14) (size 15 to 20)
#    0.000    2.000    1.250    2.250    3.500    7.500 
#    4.500    3.750    0.000    0.000    0.000    0.000 
#    0.000    0.000    0.000    0.000    0.000    0.000 
#
# Total GULP energy -198244.700130 kJ/mol
# GULP energy per Si atom -12390.293758 kJ/mol
# Density = 2.298535 g / cm^3
# Si number density = 23.037786 Si / 1000 Ang^3
#
#
#
# Elastic Constant Matrix: (Units=GPa)
#
#
# Indices 1 2 3 4 5 6 
#
# 1 98.4139 43.1374 36.3320 -6.2843 11.9580 -16.4632
# 2 43.1374 74.2725 52.9033 -16.1374 -0.2862 -12.6853
# 3 36.3320 52.9033 128.4234 -23.2356 1.3981 -11.6024
# 4 -6.2843 -16.1374 -23.2356 36.0461 -4.4349 1.4722
# 5 11.9580 -0.2862 1.3981 -4.4349 21.9508 -6.0166
# 6 -16.4632 -12.6853 -11.6024 1.4722 -6.0166 41.0623
#
#
#
# Elastic Compliance Matrix: (Units=1/GPa)
#
#
# Indices 1 2 3 4 5 6 
#
# 1 0.015513 -0.008518 -0.001133 -0.002973 -0.008507 0.002128
# 2 -0.008518 0.025047 -0.006547 0.006303 0.007578 0.003357
# 3 -0.001133 -0.006547 0.011676 0.004478 0.000911 0.000796
# 4 -0.002973 0.006303 0.004478 0.033935 0.008848 0.002100
# 5 -0.008507 0.007578 0.000911 0.008848 0.053873 0.006764
# 6 0.002128 0.003357 0.000796 0.002100 0.006764 0.027384
#
#
# Mechanical properties :
#
#
# Convention : Reuss Voigt Hill
#
# Bulk Modulus (GPa) = 50.40241 62.87281 56.63761
# Shear Modulus (GPa) = 24.22045 31.06097 27.64071
#
# Velocity S-wave (km/s) = 3.24595 3.67585 3.46757
# Velocity P-wave (km/s) = 5.99782 6.73545 6.37731
#
# Compressibility (1/GPa) = 0.01984032
#
# Stress axis : x y z
#
# Youngs Moduli (GPa) = 64.46196 39.92565 85.64466
#
# Poissons Ratio (x) = 0.34010 0.09700
# Poissons Ratio (y) = 0.54911 0.56069
# Poissons Ratio (z) = 0.07301 0.26138
#
# Static dielectric constant tensor:
#      x y z
#    x 4.023210 -0.208490 0.331090 
#    y -0.208490 4.432730 -0.126070 
#    z 0.331090 -0.126070 4.200630 
# 
# 
# High freq. dielectric constant tensor:
#      x y z
#    x 1.906910 -0.002760 0.004920 
#    y -0.002760 1.911000 -0.010940 
#    z 0.004920 -0.010940 1.900540 
# 
# From -- ./inp_files/297993.got.cif
#   From: 2010.06.25/outbox.cif.g09.slc.cpg/sg2_149_cif.got.tgz:297993.got - 2010.06.27 13:26:56.
