data_PCOD8006945
_publ_section_title
;
Structure prediction by ZEFSAII (Michael W. Deem and Ramdas Pophale) SiO2 
 PCOD8006945
Probable space group: P -1
;
_chemical_formula_sum "Si O2"
_cell_formula_units_Z 14
_cell_length_a 7.442595
_cell_length_b 22.185666
_cell_length_c 13.332211
_cell_angle_alpha 20.742479
_cell_angle_beta 56.349588
_cell_angle_gamma 56.922642
_cell_volume 646.177843
_symmetry_space_group_name_H-M "P -1"
_symmetry_group_IT_number 2
_symmetry_cell_setting 'triclinic'
loop_
_space_group_symop_operation_xyz
x,y,z
-x,-y,-z
loop_
_atom_site_type_symbol
_atom_site_label
_atom_site_fract_x
_atom_site_fract_y
_atom_site_fract_z
Si Si1 0.299014 0.152534 0.537088
Si Si2 0.351352 0.881744 0.787615
Si Si3 0.859494 0.319057 0.474404
Si Si4 0.934110 0.545707 0.603714
Si Si5 0.534844 0.045875 0.032139
Si Si6 0.518372 0.586100 0.074092
Si Si7 0.914453 0.773741 0.067058
O O1 0.437859 0.282305 0.232795
O O2 0.046174 0.219381 0.504445
O O3 0.334592 0.957239 0.787522
O O4 0.375734 0.128832 0.665967
O O5 0.456772 0.686268 0.042919
O O6 0.500000 0.000000 0.500000
O O7 0.108553 0.892179 0.799610
O O8 0.970245 0.415138 0.379571
O O9 0.703085 0.186943 0.771970
O O10 0.727872 0.455545 0.230646
O O11 0.950947 0.704065 0.277464
O O12 0.079628 0.380788 0.773176
O O13 0.682162 0.514395 0.742045
O O14 0.311787 0.114372 0.047931
O O15 0.500000 0.000000 0.000000
#
# Coordination Sequence:
#
# PCOD8006945 Si02
#       7
#     2   2   2   2   2   2   2
#     4  11  24  42  65  96 135 175 211 271 333 379
#     4   9  20  42  65  94 132 168 214 266 323 390
#     4  12  24  42  70  93 130 174 223 266 323 388
#     4  10  22  41  65  99 127 167 222 273 315 384
#     4  12  25  42  66  97 131 173 221 269 327 388
#     4  10  23  45  66  97 133 167 221 272 318 391
#     4  10  20  40  65  94 134 168 216 273 320 378
#
# _framework density 21.665863000000002
#
# number of rings (size 3 to 8) (size 9 to 14) (size 15 to 20)
#    0.000    1.429    1.429    3.429    2.000    1.143 
#    7.714    2.143    0.000    0.000    0.000    0.000 
#    0.000    0.000    0.000    0.000    0.000    0.000 
#
# Total GULP energy -173586.053504 kJ/mol
# GULP energy per Si atom -12399.003822 kJ/mol
# Density = 2.161655 g / cm^3
# Si number density = 21.665863 Si / 1000 Ang^3
#
#
#
# Elastic Constant Matrix: (Units=GPa)
#
#
# Indices 1 2 3 4 5 6 
#
# 1 127.7324 55.8508 64.5740 -1.6095 -2.5034 -10.5071
# 2 55.8508 105.1425 42.3324 -1.7772 1.9900 -19.4365
# 3 64.5740 42.3324 108.2222 7.9051 -4.0414 -5.7885
# 4 -1.6095 -1.7772 7.9051 27.1046 -10.1205 -0.2537
# 5 -2.5034 1.9900 -4.0414 -10.1205 40.8050 3.6376
# 6 -10.5071 -19.4365 -5.7885 -0.2537 3.6376 47.1432
#
#
#
# Elastic Compliance Matrix: (Units=1/GPa)
#
#
# Indices 1 2 3 4 5 6 
#
# 1 0.012895 -0.004293 -0.006156 0.002666 0.001027 0.000283
# 2 -0.004293 0.013750 -0.002698 0.000967 -0.001362 0.004491
# 3 -0.006156 -0.002698 0.014273 -0.004685 0.000074 -0.000763
# 4 0.002666 0.000967 -0.004685 0.042270 0.010149 -0.000138
# 5 0.001027 -0.001362 0.000074 0.010149 0.027373 -0.002381
# 6 0.000283 0.004491 -0.000763 -0.000138 -0.002381 0.023216
#
#
# Mechanical properties :
#
#
# Convention : Reuss Voigt Hill
#
# Bulk Modulus (GPa) = 68.38393 74.06794 71.22593
# Shear Modulus (GPa) = 30.31274 34.89990 32.60632
#
# Velocity S-wave (km/s) = 3.74451 4.01786 3.88359
# Velocity P-wave (km/s) = 7.09413 7.46893 7.28394
#
# Compressibility (1/GPa) = 0.01462332
#
# Stress axis : x y z
#
# Youngs Moduli (GPa) = 77.54727 72.72677 70.06189
#
# Poissons Ratio (x) = 0.31224 0.43132
# Poissons Ratio (y) = 0.33293 0.18903
# Poissons Ratio (z) = 0.47740 0.19622
#
# Static dielectric constant tensor:
#      x y z
#    x 3.849910 -0.121480 -0.267860 
#    y -0.121480 4.335740 -0.229350 
#    z -0.267860 -0.229350 3.956260 
# 
# 
# High freq. dielectric constant tensor:
#      x y z
#    x 1.842630 -0.013760 -0.018860 
#    y -0.013760 1.869170 -0.006570 
#    z -0.018860 -0.006570 1.847230 
# 
# From -- ./inp_files/118860.got.cif
#   From: 2010.06.25/outbox.cif.g09.slc.cpg/sg2_60_cif.got.tgz:118860.got - 2010.06.27 13:26:56.
