data_PCOD8006325
_publ_section_title
;
Structure prediction by ZEFSAII (Michael W. Deem and Ramdas Pophale) SiO2 
 PCOD8006325
Probable space group: P -1
;
_chemical_formula_sum "Si O2"
_cell_formula_units_Z 16
_cell_length_a 24.824778
_cell_length_b 13.223696
_cell_length_c 9.077622
_cell_angle_alpha 145.152191
_cell_angle_beta 143.364622
_cell_angle_gamma 23.946420
_cell_volume 673.231577
_symmetry_space_group_name_H-M "P -1"
_symmetry_group_IT_number 2
_symmetry_cell_setting 'triclinic'
loop_
_space_group_symop_operation_xyz
x,y,z
-x,-y,-z
loop_
_atom_site_type_symbol
_atom_site_label
_atom_site_fract_x
_atom_site_fract_y
_atom_site_fract_z
Si Si1 0.569658 0.595997 0.855347
Si Si2 0.818952 0.433496 0.259578
Si Si3 0.253490 0.089136 0.263658
Si Si4 0.667200 0.171120 0.183582
Si Si5 0.933566 0.917353 0.994377
Si Si6 0.781954 0.583299 0.031180
Si Si7 0.462600 0.281714 0.402777
Si Si8 0.776390 0.997442 0.506312
O O1 0.440829 0.778103 0.895989
O O2 0.521601 0.735654 0.758684
O O3 0.642262 0.297298 0.634189
O O4 0.666470 0.589311 0.146560
O O5 0.845701 0.593884 0.567973
O O6 0.820971 0.414447 0.062187
O O7 0.916420 0.155618 0.233097
O O8 0.181264 0.019091 0.085801
O O9 0.388333 0.958164 0.488556
O O10 0.290292 0.997891 0.067471
O O11 0.606120 0.451106 0.345704
O O12 0.794144 0.999794 0.371879
O O13 0.912808 0.878976 0.734474
O O14 0.085573 0.643829 0.055468
O O15 0.644992 0.721095 0.810566
O O16 0.765369 0.811366 0.310487
#
# Coordination Sequence:
#
# PCOD8006325 Si02
#       8
#     2   2   2   2   2   2   2   2
#     4   9  20  39  63  95 136 169 212 283 327 381
#     4  10  23  38  68 102 128 167 228 278 327 387
#     4  12  25  43  68  98 138 181 219 264 337 409
#     4  11  23  41  63  98 140 181 213 268 340 398
#     4  11  23  47  71  96 133 173 226 282 327 390
#     4  11  23  41  73 101 129 171 227 284 331 385
#     4  10  22  41  66 100 132 170 225 280 327 390
#     4  10  20  39  67  97 128 173 223 270 328 393
#
# _framework density 23.765968000000001
#
# number of rings (size 3 to 8) (size 9 to 14) (size 15 to 20)
#    0.000    1.500    1.250    5.625    1.750    1.500 
#    2.250    1.250    0.000    0.000    0.000    0.000 
#    0.000    0.000    0.000    0.000    0.000    0.000 
#
# Total GULP energy -198262.740792 kJ/mol
# GULP energy per Si atom -12391.421300 kJ/mol
# Density = 2.371188 g / cm^3
# Si number density = 23.765968 Si / 1000 Ang^3
#
#
#
# Elastic Constant Matrix: (Units=GPa)
#
#
# Indices 1 2 3 4 5 6 
#
# 1 77.2376 40.9843 41.7235 5.9122 1.4391 3.0863
# 2 40.9843 79.0391 22.3317 4.9666 7.7126 -7.1745
# 3 41.7235 22.3317 83.7087 22.8991 4.5025 8.0762
# 4 5.9122 4.9666 22.8991 26.9859 7.0669 11.5382
# 5 1.4391 7.7126 4.5025 7.0669 41.6156 4.8132
# 6 3.0863 -7.1745 8.0762 11.5382 4.8132 26.4219
#
#
#
# Elastic Compliance Matrix: (Units=1/GPa)
#
#
# Indices 1 2 3 4 5 6 
#
# 1 0.024062 -0.010645 -0.010868 0.008143 0.001655 -0.006237
# 2 -0.010645 0.019426 0.000763 -0.004827 -0.003540 0.009038
# 3 -0.010868 0.000763 0.021623 -0.017233 0.000556 0.002292
# 4 0.008143 -0.004827 -0.017233 0.062083 -0.005390 -0.023123
# 5 0.001655 -0.003540 0.000556 -0.005390 0.025910 -0.003691
# 6 -0.006237 0.009038 0.002292 -0.023123 -0.003691 0.051100
#
#
# Mechanical properties :
#
#
# Convention : Reuss Voigt Hill
#
# Bulk Modulus (GPa) = 42.35728 50.00714 46.18221
# Shear Modulus (GPa) = 19.71802 28.00108 23.85955
#
# Velocity S-wave (km/s) = 2.88353 3.43622 3.17194
# Velocity P-wave (km/s) = 5.38031 6.06882 5.73491
#
# Compressibility (1/GPa) = 0.02360869
#
# Stress axis : x y z
#
# Youngs Moduli (GPa) = 41.55947 51.47829 46.24670
#
# Poissons Ratio (x) = 0.54801 0.50262
# Poissons Ratio (y) = 0.44242 -0.03528
# Poissons Ratio (z) = 0.45168 -0.03927
#
# Static dielectric constant tensor:
#      x y z
#    x 4.133550 -0.000530 0.347300 
#    y -0.000530 4.412080 -0.135560 
#    z 0.347300 -0.135560 4.227110 
# 
# 
# High freq. dielectric constant tensor:
#      x y z
#    x 1.921880 -0.006060 0.034830 
#    y -0.006060 1.943520 0.007230 
#    z 0.034830 0.007230 1.927430 
# 
# From -- ./inp_files/346516.got.cif
#   From: 2010.06.25/outbox.cif.g09.slc.cpg/sg2_174_cif.got.tgz:346516.got - 2010.06.27 13:26:56.
