data_PCOD8006107
_publ_section_title
;
Structure prediction by ZEFSAII (Michael W. Deem and Ramdas Pophale) SiO2 
 PCOD8006107
Probable space group: P -1
;
_chemical_formula_sum "Si O2"
_cell_formula_units_Z 16
_cell_length_a 13.793134
_cell_length_b 12.005806
_cell_length_c 9.924409
_cell_angle_alpha 35.938449
_cell_angle_beta 70.194816
_cell_angle_gamma 54.256379
_cell_volume 751.204364
_symmetry_space_group_name_H-M "P -1"
_symmetry_group_IT_number 2
_symmetry_cell_setting 'triclinic'
loop_
_space_group_symop_operation_xyz
x,y,z
-x,-y,-z
loop_
_atom_site_type_symbol
_atom_site_label
_atom_site_fract_x
_atom_site_fract_y
_atom_site_fract_z
Si Si1 0.978185 0.066073 0.290207
Si Si2 0.438714 0.134615 0.033811
Si Si3 0.235147 0.976357 0.684737
Si Si4 0.090015 0.424694 0.195031
Si Si5 0.754239 0.139034 0.693308
Si Si6 0.177204 0.336047 0.946973
Si Si7 0.613836 0.289240 0.878737
Si Si8 0.408769 0.779421 0.550455
O O1 0.876745 0.039910 0.295652
O O2 0.929776 0.330769 0.030950
O O3 0.000000 0.000000 0.500000
O O4 0.113480 0.890515 0.331902
O O5 0.427007 0.975103 0.300709
O O6 0.294864 0.359762 0.856437
O O7 0.517789 0.216056 0.984503
O O8 0.500000 0.000000 0.000000
O O9 0.354766 0.830105 0.676467
O O10 0.182077 0.248417 0.439523
O O11 0.272508 0.888016 0.905152
O O12 0.956722 0.450234 0.250432
O O13 0.153825 0.291573 0.155715
O O14 0.667846 0.295682 0.703031
O O15 0.679749 0.249765 0.480400
O O16 0.780440 0.887715 0.941969
O O17 0.543874 0.542441 0.725188
#
# Coordination Sequence:
#
# PCOD8006107 Si02
#       8
#     2   2   2   2   2   2   2   2
#     4  11  22  40  71  96 120 167 213 261 316 372
#     4  11  22  40  67  92 123 164 210 255 316 371
#     4  12  25  43  61  98 129 164 213 259 320 378
#     4  10  20  39  65  93 127 156 207 273 305 364
#     4  10  20  42  65  95 125 153 224 262 299 385
#     4   9  17  36  65  92 116 151 214 259 295 364
#     4  12  27  41  63  92 134 172 200 265 324 361
#     4  11  23  44  64  93 127 162 224 259 294 395
#
# _framework density 21.299130000000002
#
# number of rings (size 3 to 8) (size 9 to 14) (size 15 to 20)
#    0.000    1.250    6.250    2.250    1.750    3.000 
#    0.000    2.500    0.000    0.000    0.000    0.000 
#    0.000    0.000    0.000    0.000    0.000    0.000 
#
# Total GULP energy -198336.175230 kJ/mol
# GULP energy per Si atom -12396.010952 kJ/mol
# Density = 2.125065 g / cm^3
# Si number density = 21.299130 Si / 1000 Ang^3
#
#
#
# Elastic Constant Matrix: (Units=GPa)
#
#
# Indices 1 2 3 4 5 6 
#
# 1 97.3814 27.3696 11.2404 2.1953 -4.3922 -22.2686
# 2 27.3696 71.3124 13.4131 -5.8587 3.1190 -25.7984
# 3 11.2404 13.4131 64.0079 -10.4423 11.4549 -6.1648
# 4 2.1953 -5.8587 -10.4423 28.5510 -4.8095 4.1331
# 5 -4.3922 3.1190 11.4549 -4.8095 32.5744 0.8161
# 6 -22.2686 -25.7984 -6.1648 4.1331 0.8161 32.9371
#
#
#
# Elastic Compliance Matrix: (Units=1/GPa)
#
#
# Indices 1 2 3 4 5 6 
#
# 1 0.012879 -0.002475 -0.001927 -0.002827 0.002066 0.006711
# 2 -0.002475 0.020583 -0.001999 0.001369 -0.001749 0.013946
# 3 -0.001927 -0.001999 0.018292 0.005468 -0.005694 0.000010
# 4 -0.002827 0.001369 0.005468 0.038788 0.003411 -0.004767
# 5 0.002066 -0.001749 -0.005694 0.003411 0.033709 -0.002302
# 6 0.006711 0.013946 0.000010 -0.004767 -0.002302 0.046479
#
#
# Mechanical properties :
#
#
# Convention : Reuss Voigt Hill
#
# Bulk Modulus (GPa) = 25.67328 37.41645 31.54486
# Shear Modulus (GPa) = 25.44330 30.85773 28.15051
#
# Velocity S-wave (km/s) = 3.46000 3.81041 3.63943
# Velocity P-wave (km/s) = 5.29547 6.07982 5.70115
#
# Compressibility (1/GPa) = 0.03895101
#
# Stress axis : x y z
#
# Youngs Moduli (GPa) = 77.64837 48.58436 54.66747
#
# Poissons Ratio (x) = 0.12024 0.10537
# Poissons Ratio (y) = 0.19217 0.10928
# Poissons Ratio (z) = 0.14966 0.09712
#
# Static dielectric constant tensor:
#      x y z
#    x 3.996860 -0.437090 0.030980 
#    y -0.437090 3.913060 -0.225800 
#    z 0.030980 -0.225800 3.808110 
# 
# 
# High freq. dielectric constant tensor:
#      x y z
#    x 1.830580 -0.029620 -0.004840 
#    y -0.029620 1.835560 -0.021970 
#    z -0.004840 -0.021970 1.823500 
# 
# From -- ./inp_files/306219.got.cif
#   From: 2010.06.25/outbox.cif.g09.slc.cpg/sg2_154_cif.got.tgz:306219.got - 2010.06.27 13:26:56.
