data_PCOD8006138
_publ_section_title
;
Structure prediction by ZEFSAII (Michael W. Deem and Ramdas Pophale) SiO2 
 PCOD8006138
Probable space group: P -1
;
_chemical_formula_sum "Si O2"
_cell_formula_units_Z 16
_cell_length_a 23.944260
_cell_length_b 12.828378
_cell_length_c 10.643399
_cell_angle_alpha 41.556236
_cell_angle_beta 30.217844
_cell_angle_gamma 26.464443
_cell_volume 728.592772
_symmetry_space_group_name_H-M "P -1"
_symmetry_group_IT_number 2
_symmetry_cell_setting 'triclinic'
loop_
_space_group_symop_operation_xyz
x,y,z
-x,-y,-z
loop_
_atom_site_type_symbol
_atom_site_label
_atom_site_fract_x
_atom_site_fract_y
_atom_site_fract_z
Si Si1 0.627685 0.605840 0.460623
Si Si2 0.361662 0.949422 0.861268
Si Si3 0.030399 0.216214 0.761052
Si Si4 0.028969 0.119018 0.420337
Si Si5 0.455516 0.019330 0.868360
Si Si6 0.161764 0.433660 0.737236
Si Si7 0.138137 0.860157 0.687110
Si Si8 0.234440 0.296826 0.282669
O O1 0.504483 0.705619 0.728323
O O2 0.798305 0.508606 0.266371
O O3 0.680331 0.381580 0.501814
O O4 0.543005 0.801189 0.342029
O O5 0.424584 0.932825 0.891894
O O6 0.319848 0.148527 0.675148
O O7 0.200679 0.013188 0.134074
O O8 0.130887 0.260849 0.575566
O O9 0.883779 0.429763 0.760504
O O10 0.154381 0.962870 0.678835
O O11 0.952842 0.205932 0.038477
O O12 0.874316 0.405180 0.450392
O O13 0.031316 0.065299 0.607330
O O14 0.000000 0.000000 0.500000
O O15 0.630374 0.793154 0.796961
O O16 0.311565 0.152486 0.132023
O O17 0.000000 0.500000 0.000000
#
# Coordination Sequence:
#
# PCOD8006138 Si02
#       8
#     2   2   2   2   2   2   2   2
#     4  11  21  40  61  91 133 167 199 256 318 378
#     4  10  23  39  65  93 128 168 206 255 312 376
#     4  10  23  43  67  92 116 167 217 266 312 357
#     4  11  22  40  63  92 128 166 207 252 310 376
#     4  10  20  39  65  96 123 157 205 268 317 359
#     4   9  19  38  61  90 121 160 213 251 292 361
#     4  11  23  41  63  86 134 163 203 260 320 375
#     4  10  21  41  71  93 116 156 224 266 304 365
#
# _framework density 21.960141
#
# number of rings (size 3 to 8) (size 9 to 14) (size 15 to 20)
#    0.000    1.750    2.500    2.250    0.000    3.500 
#    2.250    0.625    8.250    0.000    0.000    0.000 
#    0.000    0.000    0.000    0.000    0.000    0.000 
#
# Total GULP energy -198314.346724 kJ/mol
# GULP energy per Si atom -12394.646670 kJ/mol
# Density = 2.191016 g / cm^3
# Si number density = 21.960141 Si / 1000 Ang^3
#
#
#
# Elastic Constant Matrix: (Units=GPa)
#
#
# Indices 1 2 3 4 5 6 
#
# 1 72.8676 46.1504 39.4323 9.7082 -0.2261 -3.4360
# 2 46.1504 128.1071 51.1336 3.7879 7.0802 3.9109
# 3 39.4323 51.1336 90.1655 -12.3381 3.6207 -1.3503
# 4 9.7082 3.7879 -12.3381 41.2191 -0.6925 7.1898
# 5 -0.2261 7.0802 3.6207 -0.6925 29.8245 2.3065
# 6 -3.4360 3.9109 -1.3503 7.1898 2.3065 32.3253
#
#
#
# Elastic Compliance Matrix: (Units=1/GPa)
#
#
# Indices 1 2 3 4 5 6 
#
# 1 0.022498 -0.004819 -0.008213 -0.008033 0.001793 0.004290
# 2 -0.004819 0.011546 -0.004519 -0.001014 -0.002119 -0.001721
# 3 -0.008213 -0.004519 0.018366 0.008056 -0.000933 -0.001284
# 4 -0.008033 -0.001014 0.008056 0.029899 0.000443 -0.007076
# 5 0.001793 -0.002119 -0.000933 0.000443 0.034335 -0.002140
# 6 0.004290 -0.001721 -0.001284 -0.007076 -0.002140 0.033273
#
#
# Mechanical properties :
#
#
# Convention : Reuss Voigt Hill
#
# Bulk Modulus (GPa) = 57.78217 62.73031 60.25624
# Shear Modulus (GPa) = 26.20683 30.96870 28.58776
#
# Velocity S-wave (km/s) = 3.45828 3.75937 3.61196
# Velocity P-wave (km/s) = 6.50505 6.88994 6.70026
#
# Compressibility (1/GPa) = 0.01730638
#
# Stress axis : x y z
#
# Youngs Moduli (GPa) = 44.44746 86.61225 54.44794
#
# Poissons Ratio (x) = 0.41741 0.44719
# Poissons Ratio (y) = 0.21421 0.24607
# Poissons Ratio (z) = 0.36506 0.39144
#
# Static dielectric constant tensor:
#      x y z
#    x 3.989510 -0.161040 0.287150 
#    y -0.161040 4.411690 -0.130450 
#    z 0.287150 -0.130450 4.123980 
# 
# 
# High freq. dielectric constant tensor:
#      x y z
#    x 1.847690 -0.001520 0.007610 
#    y -0.001520 1.874900 -0.005010 
#    z 0.007610 -0.005010 1.857830 
# 
# From -- ./inp_files/345936.got.cif
#   From: 2010.06.25/outbox.cif.g09.slc.cpg/sg2_173_cif.got.tgz:345936.got - 2010.06.27 13:26:56.
