data_PCOD8006885
_publ_section_title
;
Structure prediction by ZEFSAII (Michael W. Deem and Ramdas Pophale) SiO2 
 PCOD8006885
Probable space group: P -1
;
_chemical_formula_sum "Si O2"
_cell_formula_units_Z 16
_cell_length_a 21.230830
_cell_length_b 18.554114
_cell_length_c 12.388139
_cell_angle_alpha 31.780216
_cell_angle_beta 135.804607
_cell_angle_gamma 159.766539
_cell_volume 796.967371
_symmetry_space_group_name_H-M "P -1"
_symmetry_group_IT_number 2
_symmetry_cell_setting 'triclinic'
loop_
_space_group_symop_operation_xyz
x,y,z
-x,-y,-z
loop_
_atom_site_type_symbol
_atom_site_label
_atom_site_fract_x
_atom_site_fract_y
_atom_site_fract_z
Si Si1 0.880862 0.760415 0.565881
Si Si2 0.272358 0.346021 0.882172
Si Si3 0.543223 0.718577 0.279592
Si Si4 0.601755 0.284443 0.266687
Si Si5 0.963470 0.063022 0.082999
Si Si6 0.386549 0.203686 0.970186
Si Si7 0.340387 0.233918 0.298078
Si Si8 0.098536 0.780153 0.755584
O O1 0.645812 0.445530 0.708710
O O2 0.947507 0.693558 0.722043
O O3 0.914390 0.881475 0.340329
O O4 0.000000 0.000000 0.500000
O O5 0.320439 0.562419 0.713739
O O6 0.468879 0.586587 0.744084
O O7 0.073295 0.058746 0.925776
O O8 0.244868 0.201938 0.130360
O O9 0.500000 0.500000 0.500000
O O10 0.616989 0.866629 0.063265
O O11 0.712003 0.976846 0.244031
O O12 0.500000 0.000000 0.500000
O O13 0.421434 0.136277 0.189790
O O14 0.806286 0.572471 0.079195
O O15 0.824526 0.008131 0.993755
O O16 0.577319 0.566347 0.752977
O O17 0.169653 0.904348 0.560515
O O18 0.000000 0.500000 0.000000
#
# Coordination Sequence:
#
# PCOD8006885 Si02
#       8
#     2   2   2   2   2   2   2   2
#     4  12  22  40  74  96 121 175 226 259 309 390
#     4   9  19  38  65  88 111 166 216 255 302 367
#     4  12  20  41  68  92 123 167 221 260 308 380
#     4  11  24  40  56  92 131 157 200 264 322 374
#     4  11  21  38  69  90 115 165 222 255 305 378
#     4  10  20  40  65  90 118 163 215 261 300 373
#     4   9  17  39  66  84 121 162 210 260 303 370
#     4  12  26  42  59 100 138 166 206 272 333 377
#
# _framework density 20.076103
#
# number of rings (size 3 to 8) (size 9 to 14) (size 15 to 20)
#    0.000    1.250    3.750    4.125    0.000    1.000 
#   11.250    0.000    0.000    0.000    0.000    0.000 
#    0.000    0.000    0.000    0.000    0.000    0.000 
#
# Total GULP energy -198357.162443 kJ/mol
# GULP energy per Si atom -12397.322653 kJ/mol
# Density = 2.003041 g / cm^3
# Si number density = 20.076103 Si / 1000 Ang^3
#
#
#
# Elastic Constant Matrix: (Units=GPa)
#
#
# Indices 1 2 3 4 5 6 
#
# 1 105.8831 52.0353 65.5275 2.9275 1.8026 -1.9377
# 2 52.0353 114.0010 39.5584 7.5707 13.7770 2.4767
# 3 65.5275 39.5584 104.5852 -5.8741 17.8928 -5.1728
# 4 2.9275 7.5707 -5.8741 24.4119 -4.9677 0.9732
# 5 1.8026 13.7770 17.8928 -4.9677 34.2244 9.5192
# 6 -1.9377 2.4767 -5.1728 0.9732 9.5192 40.5180
#
#
#
# Elastic Compliance Matrix: (Units=1/GPa)
#
#
# Indices 1 2 3 4 5 6 
#
# 1 0.019025 -0.005504 -0.011293 -0.001712 0.007396 -0.001892
# 2 -0.005504 0.012394 -0.000607 -0.004369 -0.005071 0.000198
# 3 -0.011293 -0.000607 0.018938 0.003980 -0.009619 0.004079
# 4 -0.001712 -0.004369 0.003980 0.044955 0.006849 -0.001996
# 5 0.007396 -0.005071 -0.009619 0.006849 0.039690 -0.010053
# 6 -0.001892 0.000198 0.004079 -0.001996 -0.010053 0.027508
#
#
# Mechanical properties :
#
#
# Convention : Reuss Voigt Hill
#
# Bulk Modulus (GPa) = 64.31955 70.96797 67.64376
# Shear Modulus (GPa) = 24.69120 30.98739 27.83930
#
# Velocity S-wave (km/s) = 3.51077 3.93300 3.72787
# Velocity P-wave (km/s) = 6.96717 7.48671 7.23161
#
# Compressibility (1/GPa) = 0.01554737
#
# Stress axis : x y z
#
# Youngs Moduli (GPa) = 52.56195 80.68664 52.80444
#
# Poissons Ratio (x) = 0.44412 0.59633
# Poissons Ratio (y) = 0.28931 0.03206
# Poissons Ratio (z) = 0.59359 0.04899
#
# Static dielectric constant tensor:
#      x y z
#    x 3.957410 0.087050 -0.139770 
#    y 0.087050 3.855290 0.269130 
#    z -0.139770 0.269130 3.330070 
# 
# 
# High freq. dielectric constant tensor:
#      x y z
#    x 1.798660 0.009480 -0.015920 
#    y 0.009480 1.799020 0.016370 
#    z -0.015920 0.016370 1.751580 
# 
# From -- ./inp_files/472340.got.cif
#   From: 2010.06.25/outbox.cif.g09.slc.cpg/sg2_237_cif.got.tgz:472340.got - 2010.06.27 13:26:56.
