data_PCOD8006939
_publ_section_title
;
Structure prediction by ZEFSAII (Michael W. Deem and Ramdas Pophale) SiO2 
 PCOD8006939
Probable space group: P -1
;
_chemical_formula_sum "Si O2"
_cell_formula_units_Z 14
_cell_length_a 11.656962
_cell_length_b 27.948497
_cell_length_c 13.977839
_cell_angle_alpha 21.031667
_cell_angle_beta 147.306052
_cell_angle_gamma 158.292745
_cell_volume 593.107706
_symmetry_space_group_name_H-M "P -1"
_symmetry_group_IT_number 2
_symmetry_cell_setting 'triclinic'
loop_
_space_group_symop_operation_xyz
x,y,z
-x,-y,-z
loop_
_atom_site_type_symbol
_atom_site_label
_atom_site_fract_x
_atom_site_fract_y
_atom_site_fract_z
Si Si1 0.227969 0.696240 0.349722
Si Si2 0.689681 0.047016 0.224836
Si Si3 0.098432 0.149259 0.711311
Si Si4 0.214812 0.442345 0.531612
Si Si5 0.822691 0.259312 0.420017
Si Si6 0.177050 0.122668 0.497870
Si Si7 0.272358 0.168244 0.120862
O O1 0.510334 0.722051 0.510207
O O2 0.000000 0.500000 0.500000
O O3 0.081641 0.681242 0.373847
O O4 0.349884 0.875644 0.036829
O O5 0.034764 0.207194 0.221762
O O6 0.409966 0.938833 0.306199
O O7 0.706236 0.901002 0.471723
O O8 0.484583 0.334451 0.634154
O O9 0.974017 0.237588 0.485807
O O10 0.931418 0.028462 0.720912
O O11 0.000000 0.000000 0.000000
O O12 0.097431 0.440839 0.347228
O O13 0.304045 0.327752 0.796890
O O14 0.628932 0.282715 0.182710
O O15 0.915412 0.910208 0.765311
#
# Coordination Sequence:
#
# PCOD8006939 Si02
#       7
#     2   2   2   2   2   2   2
#     4  12  24  37  65 100 136 169 214 272 334 396
#     4  10  21  39  67  95 125 171 212 262 329 393
#     4  12  27  46  69  98 138 175 229 284 331 393
#     4  12  25  45  68 101 134 178 228 277 330 400
#     4  11  24  45  71  99 134 181 224 272 336 398
#     4  10  20  40  65  94 129 166 214 261 325 401
#     4  11  24  46  71  98 136 180 223 275 336 396
#
# _framework density 23.604481
#
# number of rings (size 3 to 8) (size 9 to 14) (size 15 to 20)
#    0.000    0.857    4.286    3.000    2.000    1.143 
#    2.571    0.000    0.000    0.000    0.000    0.000 
#    0.000    0.000    0.000    0.000    0.000    0.000 
#
# Total GULP energy -173467.318222 kJ/mol
# GULP energy per Si atom -12390.522730 kJ/mol
# Density = 2.355076 g / cm^3
# Si number density = 23.604481 Si / 1000 Ang^3
#
#
#
# Elastic Constant Matrix: (Units=GPa)
#
#
# Indices 1 2 3 4 5 6 
#
# 1 52.5773 13.2168 1.6650 6.8872 -0.7524 -8.1512
# 2 13.2168 173.1192 30.8491 25.5246 0.0779 -14.0486
# 3 1.6650 30.8491 34.5105 7.5587 -5.1259 -12.0572
# 4 6.8872 25.5246 7.5587 33.0026 -3.2921 -4.5457
# 5 -0.7524 0.0779 -5.1259 -3.2921 23.9241 -1.4044
# 6 -8.1512 -14.0486 -12.0572 -4.5457 -1.4044 45.0233
#
#
#
# Elastic Compliance Matrix: (Units=1/GPa)
#
#
# Indices 1 2 3 4 5 6 
#
# 1 0.020234 -0.001160 0.002148 -0.003238 0.000865 0.003577
# 2 -0.001160 0.007601 -0.006046 -0.004443 -0.001966 0.000033
# 3 0.002148 -0.006046 0.039304 -0.002666 0.008672 0.009029
# 4 -0.003238 -0.004443 -0.002666 0.035596 0.004301 0.001041
# 5 0.000865 -0.001966 0.008672 0.004301 0.044499 0.003688
# 6 0.003577 0.000033 0.009029 0.001041 0.003688 0.025507
#
#
# Mechanical properties :
#
#
# Convention : Reuss Voigt Hill
#
# Bulk Modulus (GPa) = 17.53668 39.07432 28.30550
# Shear Modulus (GPa) = 24.76907 34.68839 29.72873
#
# Velocity S-wave (km/s) = 3.24286 3.83765 3.55273
# Velocity P-wave (km/s) = 4.63326 6.01884 5.37092
#
# Compressibility (1/GPa) = 0.05702335
#
# Stress axis : x y z
#
# Youngs Moduli (GPa) = 49.42094 131.56179 25.44265
#
# Poissons Ratio (x) = 0.15265 -0.05466
# Poissons Ratio (y) = 0.05734 0.15383
# Poissons Ratio (z) = -0.10617 0.79542
#
# Static dielectric constant tensor:
#      x y z
#    x 4.919850 0.633060 0.660580 
#    y 0.633060 5.838280 1.331810 
#    z 0.660580 1.331810 4.852660 
# 
# 
# High freq. dielectric constant tensor:
#      x y z
#    x 1.939640 0.004390 -0.014990 
#    y 0.004390 1.970840 0.024130 
#    z -0.014990 0.024130 1.895770 
# 
# From -- ./inp_files/285745.got.cif
#   From: 2010.06.25/outbox.cif.g09.slc.cpg/sg2_143_cif.got.tgz:285745.got - 2010.06.27 13:26:56.
