data_PCOD8006679
_publ_section_title
;
Structure prediction by ZEFSAII (Michael W. Deem and Ramdas Pophale) SiO2 
 PCOD8006679
Probable space group: P -1
;
_chemical_formula_sum "Si O2"
_cell_formula_units_Z 16
_cell_length_a 15.866543
_cell_length_b 16.590903
_cell_length_c 8.711958
_cell_angle_alpha 56.139180
_cell_angle_beta 40.771060
_cell_angle_gamma 33.545668
_cell_volume 810.004000
_symmetry_space_group_name_H-M "P -1"
_symmetry_group_IT_number 2
_symmetry_cell_setting 'triclinic'
loop_
_space_group_symop_operation_xyz
x,y,z
-x,-y,-z
loop_
_atom_site_type_symbol
_atom_site_label
_atom_site_fract_x
_atom_site_fract_y
_atom_site_fract_z
Si Si1 0.924900 0.139149 0.377198
Si Si2 0.690397 0.527251 0.730214
Si Si3 0.045062 0.249384 0.686014
Si Si4 0.741397 0.931657 0.136790
Si Si5 0.397165 0.578450 0.269877
Si Si6 0.444035 0.998495 0.249105
Si Si7 0.232648 0.760952 0.837414
Si Si8 0.561420 0.178785 0.370699
O O1 0.745303 0.294569 0.543698
O O2 0.850741 0.151429 0.299252
O O3 0.000000 0.000000 0.500000
O O4 0.108343 0.108445 0.149983
O O5 0.731437 0.417694 0.667790
O O6 0.647466 0.654640 0.572143
O O7 0.884716 0.424556 0.679834
O O8 0.492762 0.612789 0.007079
O O9 0.139581 0.212590 0.764421
O O10 0.213708 0.155224 0.423412
O O11 0.933775 0.208448 0.880270
O O12 0.568756 0.980393 0.228292
O O13 0.650106 0.064286 0.233883
O O14 0.572228 0.415246 0.278357
O O15 0.477072 0.864441 0.377352
O O16 0.500000 0.000000 0.000000
O O17 0.283211 0.824204 0.805393
#
# Coordination Sequence:
#
# PCOD8006679 Si02
#       8
#     2   2   2   2   2   2   2   2
#     4  11  22  31  57  90 124 149 191 245 283 345
#     4   9  18  34  62  89 108 160 191 238 290 343
#     4   9  19  38  63  84 115 151 197 228 294 351
#     4  10  23  40  56  85 114 161 195 233 297 342
#     4   9  18  34  54  85 129 149 184 232 301 353
#     4  11  25  41  59  79 120 162 192 242 293 342
#     4   9  20  36  60  90 113 158 186 240 299 337
#     4  10  20  40  63  84 122 147 203 238 281 361
#
# _framework density 19.752988999999999
#
# number of rings (size 3 to 8) (size 9 to 14) (size 15 to 20)
#    0.000    2.250    0.000    3.375    3.500    5.500 
#    0.000    3.125    0.000    0.000    0.000    0.000 
#    0.000    0.000    0.000    0.000    0.000    0.000 
#
# Total GULP energy -198338.074164 kJ/mol
# GULP energy per Si atom -12396.129635 kJ/mol
# Density = 1.970803 g / cm^3
# Si number density = 19.752989 Si / 1000 Ang^3
#
#
#
# Elastic Constant Matrix: (Units=GPa)
#
#
# Indices 1 2 3 4 5 6 
#
# 1 100.2808 39.3376 35.4638 5.9976 -6.5450 -15.3454
# 2 39.3376 82.8693 38.7042 -1.1495 -3.6035 -25.5608
# 3 35.4638 38.7042 109.8412 2.4312 2.4019 -6.4958
# 4 5.9976 -1.1495 2.4312 27.1189 -6.0953 6.0964
# 5 -6.5450 -3.6035 2.4019 -6.0953 24.0832 -3.1036
# 6 -15.3454 -25.5608 -6.4958 6.0964 -3.1036 31.7858
#
#
#
# Elastic Compliance Matrix: (Units=1/GPa)
#
#
# Indices 1 2 3 4 5 6 
#
# 1 0.013399 -0.003845 -0.002752 -0.003024 0.003051 0.003692
# 2 -0.003845 0.021072 -0.005429 0.000002 0.004508 0.014419
# 3 -0.002752 -0.005429 0.011787 -0.000647 -0.003349 -0.003489
# 4 -0.003024 0.000002 -0.000647 0.041497 0.008624 -0.008707
# 5 0.003051 0.004508 -0.003349 0.008624 0.046484 0.007298
# 6 0.003692 0.014419 -0.003489 -0.008707 0.007298 0.046507
#
#
# Mechanical properties :
#
#
# Convention : Reuss Voigt Hill
#
# Bulk Modulus (GPa) = 45.03854 57.77806 51.40830
# Shear Modulus (GPa) = 23.56255 28.56329 26.06292
#
# Velocity S-wave (km/s) = 3.45753 3.80679 3.63635
# Velocity P-wave (km/s) = 6.22814 6.97395 6.61157
#
# Compressibility (1/GPa) = 0.02220321
#
# Stress axis : x y z
#
# Youngs Moduli (GPa) = 74.63412 47.45659 84.83875
#
# Poissons Ratio (x) = 0.18249 0.23352
# Poissons Ratio (y) = 0.28699 0.46062
# Poissons Ratio (z) = 0.20543 0.25766
#
# Static dielectric constant tensor:
#      x y z
#    x 3.687700 -0.477810 -0.025850 
#    y -0.477810 3.808130 -0.136210 
#    z -0.025850 -0.136210 3.649070 
# 
# 
# High freq. dielectric constant tensor:
#      x y z
#    x 1.764480 -0.028360 -0.001150 
#    y -0.028360 1.769480 -0.002960 
#    z -0.001150 -0.002960 1.763060 
# 
# From -- ./inp_files/312607.got.cif
#   From: 2010.06.25/outbox.cif.g09.slc.cpg/sg2_157_cif.got.tgz:312607.got - 2010.06.27 13:26:56.
