data_PCOD8006734
_publ_section_title
;
Structure prediction by ZEFSAII (Michael W. Deem and Ramdas Pophale) SiO2 
 PCOD8006734
Probable space group: P -1
;
_chemical_formula_sum "Si O2"
_cell_formula_units_Z 16
_cell_length_a 11.523582
_cell_length_b 8.905108
_cell_length_c 12.123103
_cell_angle_alpha 60.128495
_cell_angle_beta 112.823590
_cell_angle_gamma 73.375069
_cell_volume 795.684789
_symmetry_space_group_name_H-M "P -1"
_symmetry_group_IT_number 2
_symmetry_cell_setting 'triclinic'
loop_
_space_group_symop_operation_xyz
x,y,z
-x,-y,-z
loop_
_atom_site_type_symbol
_atom_site_label
_atom_site_fract_x
_atom_site_fract_y
_atom_site_fract_z
Si Si1 0.583794 0.960481 0.717854
Si Si2 0.992906 0.132334 0.346174
Si Si3 0.739538 0.811346 0.597623
Si Si4 0.925542 0.033679 0.136692
Si Si5 0.430921 0.654447 0.080651
Si Si6 0.656068 0.577150 0.016379
Si Si7 0.413436 0.674870 0.311200
Si Si8 0.120141 0.688333 0.169651
O O1 0.403432 0.057405 0.589782
O O2 0.587461 0.124576 0.734572
O O3 0.679540 0.912564 0.658945
O O4 0.674731 0.745817 0.903702
O O5 0.020528 0.990576 0.300238
O O6 0.126874 0.165940 0.398369
O O7 0.825074 0.365104 0.190908
O O8 0.000000 0.000000 0.500000
O O9 0.806427 0.561380 0.714650
O O10 0.746477 0.126236 0.063643
O O11 0.942753 0.202865 0.014067
O O12 0.992301 0.813233 0.174380
O O13 0.432644 0.467127 0.090585
O O14 0.495375 0.579650 0.256613
O O15 0.546863 0.685896 0.044916
O O16 0.500000 0.500000 0.500000
O O17 0.239561 0.744648 0.219024
#
# Coordination Sequence:
#
# PCOD8006734 Si02
#       8
#     2   2   2   2   2   2   2   2
#     4  11  24  39  66  96 126 168 207 271 313 373
#     4  11  25  42  63  96 127 168 210 259 314 380
#     4  11  24  40  63  97 131 157 219 262 316 370
#     4   9  20  38  64  91 125 167 205 260 323 367
#     4   9  21  39  65  89 124 169 214 256 310 384
#     4  10  23  42  66  91 124 173 213 256 316 379
#     4  11  21  37  61  95 129 162 212 259 320 370
#     4  10  20  40  63  93 124 164 208 267 315 371
#
# _framework density 20.108466
#
# number of rings (size 3 to 8) (size 9 to 14) (size 15 to 20)
#    0.000    1.750    1.250    3.000    7.000    6.500 
#    0.000    0.625    0.000    0.000    0.000    0.000 
#    0.000    0.000    0.000    0.000    0.000    0.000 
#
# Total GULP energy -198379.617290 kJ/mol
# GULP energy per Si atom -12398.726081 kJ/mol
# Density = 2.006270 g / cm^3
# Si number density = 20.108466 Si / 1000 Ang^3
#
#
#
# Elastic Constant Matrix: (Units=GPa)
#
#
# Indices 1 2 3 4 5 6 
#
# 1 112.4849 44.7904 38.0578 11.5734 -3.4790 -2.0405
# 2 44.7904 101.0385 54.6971 12.6984 -3.4929 -11.7437
# 3 38.0578 54.6971 126.7284 11.1219 -20.4879 4.6906
# 4 11.5734 12.6984 11.1219 34.9533 -1.8872 -1.6948
# 5 -3.4790 -3.4929 -20.4879 -1.8872 24.7146 -1.3164
# 6 -2.0405 -11.7437 4.6906 -1.6948 -1.3164 32.8636
#
#
#
# Elastic Compliance Matrix: (Units=1/GPa)
#
#
# Indices 1 2 3 4 5 6 
#
# 1 0.011151 -0.003981 -0.001516 -0.001816 -0.000422 -0.000625
# 2 -0.003981 0.015926 -0.006234 -0.002369 -0.003335 0.006078
# 3 -0.001516 -0.006234 0.012751 -0.000979 0.009198 -0.003824
# 4 -0.001816 -0.002369 -0.000979 0.030474 0.000967 0.000791
# 5 -0.000422 -0.003335 0.009198 0.000967 0.047599 -0.000574
# 6 -0.000625 0.006078 -0.003824 0.000791 -0.000574 0.033126
#
#
# Mechanical properties :
#
#
# Convention : Reuss Voigt Hill
#
# Bulk Modulus (GPa) = 61.10640 68.37136 64.73888
# Shear Modulus (GPa) = 27.78621 32.02007 29.90314
#
# Velocity S-wave (km/s) = 3.72131 3.99478 3.86047
# Velocity P-wave (km/s) = 6.99418 7.43994 7.22050
#
# Compressibility (1/GPa) = 0.01636490
#
# Stress axis : x y z
#
# Youngs Moduli (GPa) = 89.67922 62.79028 78.42265
#
# Poissons Ratio (x) = 0.24999 0.11888
# Poissons Ratio (y) = 0.35705 0.48891
# Poissons Ratio (z) = 0.13595 0.39146
#
# Static dielectric constant tensor:
#      x y z
#    x 3.653590 -0.186630 0.026590 
#    y -0.186630 3.747110 0.068030 
#    z 0.026590 0.068030 3.788000 
# 
# 
# High freq. dielectric constant tensor:
#      x y z
#    x 1.778710 -0.011980 0.004140 
#    y -0.011980 1.788840 0.007970 
#    z 0.004140 0.007970 1.786920 
# 
# From -- ./inp_files/416602.got.cif
#   From: 2010.06.25/outbox.cif.g09.slc.cpg/sg2_209_cif.got.tgz:416602.got - 2010.06.27 13:26:56.
