data_PCOD8006748
_publ_section_title
;
Structure prediction by ZEFSAII (Michael W. Deem and Ramdas Pophale) SiO2 
 PCOD8006748
Probable space group: P -1
;
_chemical_formula_sum "Si O2"
_cell_formula_units_Z 16
_cell_length_a 19.778493
_cell_length_b 8.903353
_cell_length_c 12.652616
_cell_angle_alpha 132.360450
_cell_angle_beta 154.261547
_cell_angle_gamma 46.289025
_cell_volume 689.976109
_symmetry_space_group_name_H-M "P -1"
_symmetry_group_IT_number 2
_symmetry_cell_setting 'triclinic'
loop_
_space_group_symop_operation_xyz
x,y,z
-x,-y,-z
loop_
_atom_site_type_symbol
_atom_site_label
_atom_site_fract_x
_atom_site_fract_y
_atom_site_fract_z
Si Si1 0.656138 0.810049 0.134363
Si Si2 0.283191 0.249942 0.040751
Si Si3 0.352126 0.362541 0.731460
Si Si4 0.796214 0.196945 0.301680
Si Si5 0.461465 0.975453 0.556745
Si Si6 0.113297 0.964267 0.016772
Si Si7 0.039055 0.037328 0.402064
Si Si8 0.004553 0.645484 0.828680
O O1 0.630274 0.676615 0.136873
O O2 0.822433 0.876313 0.418424
O O3 0.661651 0.694095 0.972955
O O4 0.500000 0.000000 0.000000
O O5 0.418830 0.224811 0.311566
O O6 0.130810 0.435542 0.948297
O O7 0.243859 0.025587 0.874012
O O8 0.366587 0.604878 0.843751
O O9 0.167210 0.399437 0.450707
O O10 0.461963 0.183642 0.725981
O O11 0.874744 0.183175 0.522497
O O12 0.934903 0.212861 0.420028
O O13 0.289255 0.929293 0.296310
O O14 0.500000 0.000000 0.500000
O O15 0.061427 0.745252 0.850970
O O16 0.994630 0.169515 0.998675
O O17 0.094187 0.010792 0.887226
#
# Coordination Sequence:
#
# PCOD8006748 Si02
#       8
#     2   2   2   2   2   2   2   2
#     4  11  22  39  65  97 133 164 203 279 324 378
#     4  11  24  44  65  98 132 167 218 267 327 375
#     4  11  22  42  67  97 129 168 218 261 330 382
#     4  10  23  39  66  98 128 167 215 269 317 388
#     4  11  25  44  64  92 137 173 211 264 321 387
#     4  10  22  41  67  94 126 171 218 263 311 384
#     4  10  20  40  63  95 130 161 217 264 317 382
#     4  10  22  39  68  96 123 166 219 271 308 379
#
# _framework density 23.189209000000002
#
# number of rings (size 3 to 8) (size 9 to 14) (size 15 to 20)
#    0.000    1.500    2.500    3.000    1.750    3.000 
#    0.000    3.125    0.000    0.000    0.000    0.000 
#    0.000    0.000    0.000    0.000    0.000    0.000 
#
# Total GULP energy -198261.566893 kJ/mol
# GULP energy per Si atom -12391.347931 kJ/mol
# Density = 2.313643 g / cm^3
# Si number density = 23.189209 Si / 1000 Ang^3
#
#
#
# Elastic Constant Matrix: (Units=GPa)
#
#
# Indices 1 2 3 4 5 6 
#
# 1 103.4384 27.1994 17.9755 -7.8253 -25.4836 2.4981
# 2 27.1994 129.2766 34.3519 -33.1644 -14.1476 0.2515
# 3 17.9755 34.3519 99.8236 -26.3814 -34.4374 -0.4461
# 4 -7.8253 -33.1644 -26.3814 42.5699 7.3987 6.7154
# 5 -25.4836 -14.1476 -34.4374 7.3987 36.9892 -12.3260
# 6 2.4981 0.2515 -0.4461 6.7154 -12.3260 25.1623
#
#
#
# Elastic Compliance Matrix: (Units=1/GPa)
#
#
# Indices 1 2 3 4 5 6 
#
# 1 0.012557 -0.002179 0.002381 -0.000711 0.011767 0.004771
# 2 -0.002179 0.010366 -0.001801 0.007234 -0.001525 -0.002597
# 3 0.002381 -0.001801 0.018662 0.005822 0.019936 0.008324
# 4 -0.000711 0.007234 0.005822 0.034743 -0.002759 -0.010522
# 5 0.011767 -0.001525 0.019936 -0.002759 0.064115 0.031344
# 6 0.004771 -0.002597 0.008324 -0.010522 0.031344 0.057604
#
#
# Mechanical properties :
#
#
# Convention : Reuss Voigt Hill
#
# Bulk Modulus (GPa) = 26.04972 54.62137 40.33555
# Shear Modulus (GPa) = 23.36021 37.81173 30.58597
#
# Velocity S-wave (km/s) = 3.17736 4.04242 3.63571
# Velocity P-wave (km/s) = 4.97180 6.73751 5.92084
#
# Compressibility (1/GPa) = 0.03838813
#
# Stress axis : x y z
#
# Youngs Moduli (GPa) = 79.63988 96.46684 53.58534
#
# Poissons Ratio (x) = 0.21017 -0.12760
# Poissons Ratio (y) = 0.17351 0.09650
# Poissons Ratio (z) = -0.18965 0.17373
#
# Static dielectric constant tensor:
#      x y z
#    x 4.489310 0.016430 -0.084080 
#    y 0.016430 4.260980 -0.393860 
#    z -0.084080 -0.393860 4.603950 
# 
# 
# High freq. dielectric constant tensor:
#      x y z
#    x 1.916340 -0.000410 0.003850 
#    y -0.000410 1.906570 -0.024500 
#    z 0.003850 -0.024500 1.935240 
# 
# From -- ./inp_files/470166.got.cif
#   From: 2010.06.25/outbox.cif.g09.slc.cpg/sg2_236_cif.got.tgz:470166.got - 2010.06.27 13:26:56.
