data_PCOD8006099
_publ_section_title
;
Structure prediction by ZEFSAII (Michael W. Deem and Ramdas Pophale) SiO2 
 PCOD8006099
Probable space group: P -1
;
_chemical_formula_sum "Si O2"
_cell_formula_units_Z 14
_cell_length_a 20.572845
_cell_length_b 8.881608
_cell_length_c 5.504567
_cell_angle_alpha 124.834945
_cell_angle_beta 95.011123
_cell_angle_gamma 53.978872
_cell_volume 619.137243
_symmetry_space_group_name_H-M "P -1"
_symmetry_group_IT_number 2
_symmetry_cell_setting 'triclinic'
loop_
_space_group_symop_operation_xyz
x,y,z
-x,-y,-z
loop_
_atom_site_type_symbol
_atom_site_label
_atom_site_fract_x
_atom_site_fract_y
_atom_site_fract_z
Si Si1 0.559579 0.710485 0.998698
Si Si2 0.316017 0.798588 0.676210
Si Si3 0.007681 0.377791 0.638752
Si Si4 0.305492 0.517883 0.787756
Si Si5 0.827225 0.109595 0.563645
Si Si6 0.948116 0.125313 0.349933
Si Si7 0.377108 0.081173 0.107723
O O1 0.599723 0.464739 0.637963
O O2 0.584616 0.863032 0.040130
O O3 0.597217 0.640808 0.218476
O O4 0.455994 0.876540 0.123708
O O5 0.285440 0.745639 0.855541
O O6 0.235561 0.937712 0.589606
O O7 0.333926 0.978290 0.893247
O O8 0.000000 0.500000 0.500000
O O9 0.928301 0.379536 0.590989
O O10 0.100007 0.103216 0.427311
O O11 0.000000 0.500000 0.000000
O O12 0.304007 0.336256 0.458000
O O13 0.231523 0.632605 0.074455
O O14 0.865093 0.145914 0.369095
O O15 0.000000 0.000000 0.500000
O O16 0.000000 0.000000 0.000000
#
# Coordination Sequence:
#
# PCOD8006099 Si02
#       7
#     2   2   2   2   2   2   2
#     4   9  20  39  61  94 133 173 229 277 322 395
#     4  10  22  39  61  96 133 177 218 277 341 391
#     4  11  24  45  69 103 125 167 231 279 339 414
#     4  10  22  39  60  94 132 175 219 274 341 393
#     4  10  24  44  62  90 138 168 217 281 340 412
#     4  10  22  43  72  92 127 177 215 272 345 406
#     4  10  20  39  65  92 132 178 226 271 327 404
#
# _framework density 22.612109
#
# number of rings (size 3 to 8) (size 9 to 14) (size 15 to 20)
#    0.000    2.000    0.000    2.571    6.000    2.857 
#   10.286    0.000    0.000    0.000    0.000    0.000 
#    0.000    0.000    0.000    0.000    0.000    0.000 
#
# Total GULP energy -173450.877536 kJ/mol
# GULP energy per Si atom -12389.348395 kJ/mol
# Density = 2.256064 g / cm^3
# Si number density = 22.612109 Si / 1000 Ang^3
#
#
#
# Elastic Constant Matrix: (Units=GPa)
#
#
# Indices 1 2 3 4 5 6 
#
# 1 129.0529 40.4022 73.2006 14.3999 21.8986 7.0200
# 2 40.4022 102.5956 28.9640 -7.7380 8.7192 4.7021
# 3 73.2006 28.9640 140.4961 -2.4318 18.7132 17.3825
# 4 14.3999 -7.7380 -2.4318 31.6617 9.6187 -0.8081
# 5 21.8986 8.7192 18.7132 9.6187 43.2084 5.1269
# 6 7.0200 4.7021 17.3825 -0.8081 5.1269 34.2080
#
#
#
# Elastic Compliance Matrix: (Units=1/GPa)
#
#
# Indices 1 2 3 4 5 6 
#
# 1 0.013610 -0.004007 -0.006260 -0.007034 -0.001938 0.001063
# 2 -0.004007 0.011863 -0.000019 0.005148 -0.001446 -0.000460
# 3 -0.006260 -0.000019 0.011240 0.004262 -0.002166 -0.003999
# 4 -0.007034 0.005148 0.004262 0.038830 -0.008046 0.000694
# 5 -0.001938 -0.001446 -0.002166 -0.008046 0.027456 -0.002608
# 6 0.001063 -0.000460 -0.003999 0.000694 -0.002608 0.031517
#
#
# Mechanical properties :
#
#
# Convention : Reuss Voigt Hill
#
# Bulk Modulus (GPa) = 61.95658 73.03093 67.49375
# Shear Modulus (GPa) = 31.15868 37.12079 34.13973
#
# Velocity S-wave (km/s) = 3.71612 4.05610 3.88983
# Velocity P-wave (km/s) = 6.77288 7.36908 7.07726
#
# Compressibility (1/GPa) = 0.01614034
#
# Stress axis : x y z
#
# Youngs Moduli (GPa) = 73.47616 84.29884 88.96664
#
# Poissons Ratio (x) = 0.33777 0.55693
# Poissons Ratio (y) = 0.29440 0.00172
# Poissons Ratio (z) = 0.45996 0.00163
#
# Static dielectric constant tensor:
#      x y z
#    x 4.262050 0.011060 0.048830 
#    y 0.011060 4.283780 0.002960 
#    z 0.048830 0.002960 4.108800 
# 
# 
# High freq. dielectric constant tensor:
#      x y z
#    x 1.879060 -0.003970 0.007410 
#    y -0.003970 1.894220 -0.007290 
#    z 0.007410 -0.007290 1.896870 
# 
# From -- ./inp_files/56223.got.cif
#   From: 2010.06.25/outbox.cif.g09.slc.cpg/sg2_29_cif.got.tgz:56223.got - 2010.06.27 13:26:56.
