data_PCOD8006192
_publ_section_title
;
Structure prediction by ZEFSAII (Michael W. Deem and Ramdas Pophale) SiO2 
 PCOD8006192
Probable space group: P -1
;
_chemical_formula_sum "Si O2"
_cell_formula_units_Z 16
_cell_length_a 8.650713
_cell_length_b 11.720714
_cell_length_c 14.599825
_cell_angle_alpha 143.615631
_cell_angle_beta 64.261819
_cell_angle_gamma 99.122537
_cell_volume 738.710087
_symmetry_space_group_name_H-M "P -1"
_symmetry_group_IT_number 2
_symmetry_cell_setting 'triclinic'
loop_
_space_group_symop_operation_xyz
x,y,z
-x,-y,-z
loop_
_atom_site_type_symbol
_atom_site_label
_atom_site_fract_x
_atom_site_fract_y
_atom_site_fract_z
Si Si1 0.811507 0.504175 0.309809
Si Si2 0.464558 0.094031 0.286186
Si Si3 0.920874 0.398915 0.565196
Si Si4 0.760635 0.792723 0.764960
Si Si5 0.516121 0.723104 0.150139
Si Si6 0.783480 0.098369 0.103978
Si Si7 0.082670 0.463041 0.054704
Si Si8 0.157916 0.804307 0.371060
O O1 0.652087 0.732373 0.497721
O O2 0.720044 0.336679 0.245640
O O3 0.954973 0.493333 0.345662
O O4 0.924931 0.436203 0.141933
O O5 0.384320 0.151689 0.242979
O O6 0.675070 0.085030 0.216913
O O7 0.460952 0.869812 0.169168
O O8 0.751597 0.590911 0.691559
O O9 0.863969 0.254347 0.556557
O O10 0.034439 0.258363 0.362266
O O11 0.716702 0.984216 0.967125
O O12 0.355183 0.833845 0.336928
O O13 0.500000 0.500000 0.000000
O O14 0.718134 0.723234 0.126231
O O15 0.000000 0.000000 0.000000
O O16 0.147817 0.636098 0.192826
O O17 0.000000 0.500000 0.000000
O O18 0.000000 0.000000 0.500000
#
# Coordination Sequence:
#
# PCOD8006192 Si02
#       8
#     2   2   2   2   2   2   2   2
#     4  10  21  41  63  88 130 168 204 259 323 374
#     4  11  24  43  63  91 127 166 213 261 319 373
#     4   9  19  38  63  91 130 161 206 258 311 364
#     4  10  21  38  63  92 126 164 208 258 305 375
#     4  10  22  39  65  92 119 164 215 262 313 377
#     4  12  23  38  62  91 127 167 209 255 318 374
#     4  10  22  41  63  89 125 161 208 265 316 374
#     4  10  20  39  66  90 124 169 206 259 314 372
#
# _framework density 21.659378
#
# number of rings (size 3 to 8) (size 9 to 14) (size 15 to 20)
#    0.000    1.750    1.250    3.750    3.500    3.000 
#    2.250    2.500    0.000    0.000    0.000    0.000 
#    0.000    0.000    0.000    0.000    0.000    0.000 
#
# Total GULP energy -198210.078914 kJ/mol
# GULP energy per Si atom -12388.129932 kJ/mol
# Density = 2.161008 g / cm^3
# Si number density = 21.659378 Si / 1000 Ang^3
#
#
#
# Elastic Constant Matrix: (Units=GPa)
#
#
# Indices 1 2 3 4 5 6 
#
# 1 44.1939 39.5201 22.2803 -5.2467 -28.3913 -0.4536
# 2 39.5201 189.1417 59.1036 2.9878 -23.5532 3.3810
# 3 22.2803 59.1036 86.0897 -5.4331 -25.7048 8.3615
# 4 -5.2467 2.9878 -5.4331 41.3052 2.2313 -5.8923
# 5 -28.3913 -23.5532 -25.7048 2.2313 33.3449 -4.0811
# 6 -0.4536 3.3810 8.3615 -5.8923 -4.0811 38.2891
#
#
#
# Elastic Compliance Matrix: (Units=1/GPa)
#
#
# Indices 1 2 3 4 5 6 
#
# 1 0.060237 -0.008072 0.004493 0.007129 0.049406 0.006808
# 2 -0.008072 0.007933 -0.004923 -0.002058 -0.004997 -0.000570
# 3 0.004493 -0.004923 0.018365 0.002342 0.014146 -0.001654
# 4 0.007129 -0.002058 0.002342 0.025904 0.005214 0.004297
# 5 0.049406 -0.004997 0.014146 0.005214 0.079971 0.007264
# 6 0.006808 -0.000570 -0.001654 0.004297 0.007264 0.028045
#
#
# Mechanical properties :
#
#
# Convention : Reuss Voigt Hill
#
# Bulk Modulus (GPa) = 14.38242 62.35923 38.37083
# Shear Modulus (GPa) = 19.18376 35.82258 27.50317
#
# Velocity S-wave (km/s) = 2.97930 4.07124 3.56730
# Velocity P-wave (km/s) = 4.29996 7.13816 5.89250
#
# Compressibility (1/GPa) = 0.06952932
#
# Stress axis : x y z
#
# Youngs Moduli (GPa) = 16.60108 126.06271 54.45026
#
# Poissons Ratio (x) = 1.01757 -0.24462
# Poissons Ratio (y) = 0.13400 0.26808
# Poissons Ratio (z) = -0.07458 0.62067
#
# Static dielectric constant tensor:
#      x y z
#    x 3.644360 0.130240 -0.352340 
#    y 0.130240 4.024490 -0.138810 
#    z -0.352340 -0.138810 4.283250 
# 
# 
# High freq. dielectric constant tensor:
#      x y z
#    x 1.823500 0.003740 -0.032260 
#    y 0.003740 1.857910 -0.002980 
#    z -0.032260 -0.002980 1.860020 
# 
# From -- ./inp_files/494831.got.cif
#   From: 2010.06.25/outbox.cif.g09.slc.cpg/sg2_248_cif.got.tgz:494831.got - 2010.06.27 13:26:56.
