data_PCOD8006712
_publ_section_title
;
Structure prediction by ZEFSAII (Michael W. Deem and Ramdas Pophale) SiO2 
 PCOD8006712
Probable space group: P -1
;
_chemical_formula_sum "Si O2"
_cell_formula_units_Z 14
_cell_length_a 9.581328
_cell_length_b 8.224597
_cell_length_c 19.443713
_cell_angle_alpha 133.829112
_cell_angle_beta 138.937003
_cell_angle_gamma 47.496601
_cell_volume 686.951184
_symmetry_space_group_name_H-M "P -1"
_symmetry_group_IT_number 2
_symmetry_cell_setting 'triclinic'
loop_
_space_group_symop_operation_xyz
x,y,z
-x,-y,-z
loop_
_atom_site_type_symbol
_atom_site_label
_atom_site_fract_x
_atom_site_fract_y
_atom_site_fract_z
Si Si1 0.939002 0.491215 0.175187
Si Si2 0.253722 0.045673 0.228739
Si Si3 0.623191 0.600023 0.214544
Si Si4 0.142173 0.826474 0.409900
Si Si5 0.992886 0.345265 0.546851
Si Si6 0.841988 0.400873 0.958088
Si Si7 0.609235 0.793129 0.533728
O O1 0.739571 0.497296 0.155698
O O2 0.162121 0.276260 0.215075
O O3 0.005904 0.732114 0.274193
O O4 0.864399 0.456846 0.061818
O O5 0.263932 0.114717 0.332216
O O6 0.502392 0.888885 0.248039
O O7 0.088525 0.883946 0.112986
O O8 0.426623 0.484723 0.126085
O O9 0.800185 0.557695 0.330415
O O10 0.091432 0.733026 0.436540
O O11 0.408521 0.711150 0.465204
O O12 0.068000 0.113644 0.458113
O O13 0.794744 0.560480 0.500611
O O14 0.000000 0.500000 0.000000
O O15 0.500000 0.000000 0.500000
#
# Coordination Sequence:
#
# PCOD8006712 Si02
#       7
#     2   2   2   2   2   2   2
#     4  11  21  40  69  92 124 173 211 261 308 383
#     4  10  22  40  65  88 127 165 219 253 320 369
#     4   9  20  38  68  85 126 162 220 250 314 370
#     4  10  21  35  63  93 122 160 215 250 306 377
#     4  10  20  40  63  90 124 165 209 262 301 378
#     4  10  23  41  66  92 131 161 213 269 317 373
#     4  12  24  38  64  92 134 170 197 260 330 374
#
# _framework density 20.379902999999999
#
# number of rings (size 3 to 8) (size 9 to 14) (size 15 to 20)
#    0.857    0.857    4.286    1.286    2.000    0.571 
#    0.000    0.714    6.286    0.000    0.000    0.000 
#    0.000    0.000    0.000    0.000    0.000    0.000 
#
# Total GULP energy -173496.533654 kJ/mol
# GULP energy per Si atom -12392.609547 kJ/mol
# Density = 2.033352 g / cm^3
# Si number density = 20.379903 Si / 1000 Ang^3
#
#
#
# Elastic Constant Matrix: (Units=GPa)
#
#
# Indices 1 2 3 4 5 6 
#
# 1 60.0260 27.3172 41.5828 4.9221 26.4858 -6.5128
# 2 27.3172 104.1656 51.6581 -12.6759 9.8857 -13.9044
# 3 41.5828 51.6581 131.4362 16.8857 19.5099 4.9722
# 4 4.9221 -12.6759 16.8857 37.5440 -3.5245 6.4006
# 5 26.4858 9.8857 19.5099 -3.5245 28.0594 -3.7808
# 6 -6.5128 -13.9044 4.9722 6.4006 -3.7808 30.6143
#
#
#
# Elastic Compliance Matrix: (Units=1/GPa)
#
#
# Indices 1 2 3 4 5 6 
#
# 1 0.036102 -0.005024 -0.004124 -0.008075 -0.029906 0.004063
# 2 -0.005024 0.015502 -0.006670 0.008411 0.005785 0.006011
# 3 -0.004124 -0.006670 0.013353 -0.007279 -0.004647 -0.005128
# 4 -0.008075 0.008411 -0.007279 0.035523 0.013854 -0.002431
# 5 -0.029906 0.005785 -0.004647 0.013854 0.067126 0.002414
# 6 0.004063 0.006011 -0.005128 -0.002431 0.002414 0.037898
#
#
# Mechanical properties :
#
#
# Convention : Reuss Voigt Hill
#
# Bulk Modulus (GPa) = 30.01142 59.63823 44.82482
# Shear Modulus (GPa) = 20.14112 30.91484 25.52798
#
# Velocity S-wave (km/s) = 3.14711 3.89900 3.54306
# Velocity P-wave (km/s) = 5.28807 7.04247 6.22736
#
# Compressibility (1/GPa) = 0.03332065
#
# Stress axis : x y z
#
# Youngs Moduli (GPa) = 27.69963 64.50592 74.88716
#
# Poissons Ratio (x) = 0.32411 0.30883
# Poissons Ratio (y) = 0.13918 0.49950
# Poissons Ratio (z) = 0.11423 0.43025
#
# Static dielectric constant tensor:
#      x y z
#    x 3.641670 -0.341660 0.248400 
#    y -0.341660 3.843630 0.123120 
#    z 0.248400 0.123120 3.968000 
# 
# 
# High freq. dielectric constant tensor:
#      x y z
#    x 1.782860 -0.023780 0.010920 
#    y -0.023780 1.786800 0.011560 
#    z 0.010920 0.011560 1.799730 
# 
# From -- ./inp_files/593759.got.cif
#   From: 2010.06.25/outbox.cif.g09.slc.cpg/sg2_297_cif.got.tgz:593759.got - 2010.06.27 13:26:56.
