data_PCOD8006537
_publ_section_title
;
Structure prediction by ZEFSAII (Michael W. Deem and Ramdas Pophale) SiO2 
 PCOD8006537
Probable space group: P -1
;
_chemical_formula_sum "Si O2"
_cell_formula_units_Z 16
_cell_length_a 15.029653
_cell_length_b 15.569655
_cell_length_c 12.464402
_cell_angle_alpha 144.449123
_cell_angle_beta 35.717640
_cell_angle_gamma 150.510916
_cell_volume 778.077755
_symmetry_space_group_name_H-M "P -1"
_symmetry_group_IT_number 2
_symmetry_cell_setting 'triclinic'
loop_
_space_group_symop_operation_xyz
x,y,z
-x,-y,-z
loop_
_atom_site_type_symbol
_atom_site_label
_atom_site_fract_x
_atom_site_fract_y
_atom_site_fract_z
Si Si1 0.838887 0.511691 0.716552
Si Si2 0.593322 0.429266 0.674099
Si Si3 0.418203 0.603911 0.727655
Si Si4 0.397031 0.057142 0.983072
Si Si5 0.816340 0.821904 0.096449
Si Si6 0.226338 0.642661 0.759029
Si Si7 0.217879 0.610925 0.114834
Si Si8 0.215542 0.150026 0.081357
O O1 0.661322 0.416089 0.710848
O O2 0.756403 0.405358 0.801629
O O3 0.000000 0.500000 0.500000
O O4 0.920068 0.725985 0.871591
O O5 0.361854 0.307489 0.780052
O O6 0.644616 0.337057 0.444190
O O7 0.689032 0.640729 0.758624
O O8 0.500000 0.500000 0.500000
O O9 0.600818 0.821678 0.797725
O O10 0.276959 0.590114 0.764431
O O11 0.287224 0.512063 0.871992
O O12 0.295161 0.061905 0.982227
O O13 0.626428 0.164340 0.837735
O O14 0.277534 0.845702 0.926121
O O15 0.741960 0.850361 0.087046
O O16 0.981178 0.020486 0.193245
O O17 0.001379 0.477269 0.786957
#
# Coordination Sequence:
#
# PCOD8006537 Si02
#       8
#     2   2   2   2   2   2   2   2
#     4  11  20  39  63 100 130 172 209 256 325 373
#     4  11  23  38  66  90 134 170 212 261 311 386
#     4  10  24  45  70  92 124 170 214 267 322 375
#     4  10  23  40  68  93 128 163 213 272 311 383
#     4  10  22  37  64  88 130 175 211 260 307 382
#     4  12  23  43  65  98 126 168 214 264 321 375
#     4  10  23  41  69  89 134 168 206 267 317 378
#     4  10  20  40  60  90 127 167 214 258 316 370
#
# _framework density 20.563499
#
# number of rings (size 3 to 8) (size 9 to 14) (size 15 to 20)
#    0.750    0.750    1.250    5.250    1.750    1.000 
#    2.250    1.875    0.000    0.000    0.000    0.000 
#    0.000    0.000    0.000    0.000    0.000    0.000 
#
# Total GULP energy -198274.605541 kJ/mol
# GULP energy per Si atom -12392.162846 kJ/mol
# Density = 2.051670 g / cm^3
# Si number density = 20.563499 Si / 1000 Ang^3
#
#
#
# Elastic Constant Matrix: (Units=GPa)
#
#
# Indices 1 2 3 4 5 6 
#
# 1 87.2891 24.5967 26.2525 -4.3480 0.8271 -4.7572
# 2 24.5967 98.9295 32.6175 -4.5769 -6.8545 17.7736
# 3 26.2525 32.6175 110.1441 -14.6743 -0.6159 -0.4590
# 4 -4.3480 -4.5769 -14.6743 26.7996 -0.2129 -0.3445
# 5 0.8271 -6.8545 -0.6159 -0.2129 31.0759 -1.1410
# 6 -4.7572 17.7736 -0.4590 -0.3445 -1.1410 30.6744
#
#
#
# Elastic Compliance Matrix: (Units=1/GPa)
#
#
# Indices 1 2 3 4 5 6 
#
# 1 0.013283 -0.003368 -0.002094 0.000476 -0.000990 0.003949
# 2 -0.003368 0.013732 -0.003296 -0.000092 0.002743 -0.008427
# 3 -0.002094 -0.003296 0.011264 0.005285 -0.000346 0.001800
# 4 0.000476 -0.000092 0.005285 0.040281 0.000372 0.000673
# 5 -0.000990 0.002743 -0.000346 0.000372 0.032787 -0.000524
# 6 0.003949 -0.008427 0.001800 0.000673 -0.000524 0.038111
#
#
# Mechanical properties :
#
#
# Convention : Reuss Voigt Hill
#
# Bulk Modulus (GPa) = 48.16286 51.47737 49.82012
# Shear Modulus (GPa) = 28.75276 31.90304 30.32790
#
# Velocity S-wave (km/s) = 3.74336 3.94311 3.84453
# Velocity P-wave (km/s) = 6.49277 6.76894 6.63229
#
# Compressibility (1/GPa) = 0.02076288
#
# Stress axis : x y z
#
# Youngs Moduli (GPa) = 75.28169 72.82187 88.77891
#
# Poissons Ratio (x) = 0.24527 0.18593
# Poissons Ratio (y) = 0.25356 0.29260
# Poissons Ratio (z) = 0.15766 0.24001
#
# Static dielectric constant tensor:
#      x y z
#    x 3.864470 0.088960 0.081130 
#    y 0.088960 3.687820 0.020180 
#    z 0.081130 0.020180 3.680730 
# 
# 
# High freq. dielectric constant tensor:
#      x y z
#    x 1.817040 0.008160 0.008550 
#    y 0.008160 1.798670 -0.003120 
#    z 0.008550 -0.003120 1.781690 
# 
# From -- ./inp_files/455062.got.cif
#   From: 2010.06.25/outbox.cif.g09.slc.cpg/sg2_228_cif.got.tgz:455062.got - 2010.06.27 13:26:56.
