data_PCOD8006013
_publ_section_title
;
Structure prediction by ZEFSAII (Michael W. Deem and Ramdas Pophale) SiO2 
 PCOD8006013
Probable space group: P -1
;
_chemical_formula_sum "Si O2"
_cell_formula_units_Z 16
_cell_length_a 18.051812
_cell_length_b 19.609450
_cell_length_c 8.651570
_cell_angle_alpha 44.019077
_cell_angle_beta 42.629311
_cell_angle_gamma 21.074459
_cell_volume 739.110217
_symmetry_space_group_name_H-M "P -1"
_symmetry_group_IT_number 2
_symmetry_cell_setting 'triclinic'
loop_
_space_group_symop_operation_xyz
x,y,z
-x,-y,-z
loop_
_atom_site_type_symbol
_atom_site_label
_atom_site_fract_x
_atom_site_fract_y
_atom_site_fract_z
Si Si1 0.977597 0.005870 0.844533
Si Si2 0.305449 0.031255 0.282369
Si Si3 0.458015 0.165189 0.317225
Si Si4 0.427674 0.560746 0.337785
Si Si5 0.902097 0.848666 0.291830
Si Si6 0.348690 0.449931 0.157609
Si Si7 0.432921 0.726398 0.573103
Si Si8 0.586486 0.950177 0.194272
O O1 0.794571 0.211587 0.710655
O O2 0.199647 0.866709 0.653068
O O3 0.925640 0.931507 0.025743
O O4 0.000000 0.000000 0.000000
O O5 0.121208 0.127178 0.521923
O O6 0.421544 0.024651 0.212915
O O7 0.457169 0.822877 0.337249
O O8 0.237615 0.133535 0.054452
O O9 0.387816 0.331458 0.170231
O O10 0.457865 0.132898 0.191597
O O11 0.694680 0.958900 0.356664
O O12 0.310950 0.207627 0.584948
O O13 0.500000 0.500000 0.500000
O O14 0.402489 0.470688 0.450343
O O15 0.617593 0.472233 0.103606
O O16 0.111897 0.622150 0.308588
O O17 0.527417 0.309117 0.245966
#
# Coordination Sequence:
#
# PCOD8006013 Si02
#       8
#     2   2   2   2   2   2   2   2
#     4  12  20  41  66  91 128 174 213 248 314 397
#     4  10  20  39  64  94 119 164 217 267 321 368
#     4  10  20  42  67  88 124 171 206 267 329 376
#     4  12  27  40  60  99 138 168 213 267 316 379
#     4  11  21  37  64  94 126 165 214 259 311 398
#     4  12  22  41  65  96 128 172 218 254 321 397
#     4  12  23  39  68  91 128 176 210 258 317 392
#     4   9  20  40  68  86 121 165 216 269 322 374
#
# _framework density 21.647652000000001
#
# number of rings (size 3 to 8) (size 9 to 14) (size 15 to 20)
#    0.000    1.000    7.500    1.125    1.750    0.500 
#    2.250    6.250    0.000    0.000    0.000    0.000 
#    0.000    0.000    0.000    0.000    0.000    0.000 
#
# Total GULP energy -198216.780705 kJ/mol
# GULP energy per Si atom -12388.548794 kJ/mol
# Density = 2.159838 g / cm^3
# Si number density = 21.647652 Si / 1000 Ang^3
#
#
#
# Elastic Constant Matrix: (Units=GPa)
#
#
# Indices 1 2 3 4 5 6 
#
# 1 86.5012 31.2638 48.7486 -16.5956 -5.5902 31.6022
# 2 31.2638 98.8055 35.2538 -7.1873 -10.6248 5.3017
# 3 48.7486 35.2538 97.0530 2.1166 16.1712 -2.0038
# 4 -16.5956 -7.1873 2.1166 20.5505 2.5814 -2.4738
# 5 -5.5902 -10.6248 16.1712 2.5814 20.8410 -6.9005
# 6 31.6022 5.3017 -2.0038 -2.4738 -6.9005 37.5640
#
#
#
# Elastic Compliance Matrix: (Units=1/GPa)
#
#
# Indices 1 2 3 4 5 6 
#
# 1 0.052539 0.002488 -0.032771 0.039043 0.022865 -0.039529
# 2 0.002488 0.014557 -0.008997 0.006095 0.013752 -0.001700
# 3 -0.032771 -0.008997 0.036158 -0.026700 -0.030368 0.023432
# 4 0.039043 0.006095 -0.026700 0.079877 0.015453 -0.027032
# 5 0.022865 0.013752 -0.030368 0.015453 0.080458 -0.006999
# 6 -0.039529 -0.001700 0.023432 -0.027032 -0.006999 0.058300
#
#
# Mechanical properties :
#
#
# Convention : Reuss Voigt Hill
#
# Bulk Modulus (GPa) = 40.49412 56.98801 48.74106
# Shear Modulus (GPa) = 12.23450 26.93069 19.58260
#
# Velocity S-wave (km/s) = 2.37990 3.53093 3.01093
# Velocity P-wave (km/s) = 5.12821 6.55787 5.88660
#
# Compressibility (1/GPa) = 0.02469494
#
# Stress axis : x y z
#
# Youngs Moduli (GPa) = 19.03338 68.69538 27.65618
#
# Poissons Ratio (x) = -0.17093 0.90633
# Poissons Ratio (y) = -0.04736 0.24882
# Poissons Ratio (z) = 0.62375 0.61805
#
# Static dielectric constant tensor:
#      x y z
#    x 3.868980 0.182680 -0.204590 
#    y 0.182680 3.698430 0.260410 
#    z -0.204590 0.260410 4.447350 
# 
# 
# High freq. dielectric constant tensor:
#      x y z
#    x 1.845530 0.026060 -0.011590 
#    y 0.026060 1.821970 -0.004230 
#    z -0.011590 -0.004230 1.855550 
# 
# From -- ./inp_files/349685.got.cif
#   From: 2010.06.25/outbox.cif.g09.slc.cpg/sg2_175_cif.got.tgz:349685.got - 2010.06.27 13:26:56.
