data_PCOD8006169
_publ_section_title
;
Structure prediction by ZEFSAII (Michael W. Deem and Ramdas Pophale) SiO2 
 PCOD8006169
Probable space group: P -1
;
_chemical_formula_sum "Si O2"
_cell_formula_units_Z 16
_cell_length_a 9.768827
_cell_length_b 14.816485
_cell_length_c 11.030587
_cell_angle_alpha 149.248121
_cell_angle_beta 95.148665
_cell_angle_gamma 91.390965
_cell_volume 796.783910
_symmetry_space_group_name_H-M "P -1"
_symmetry_group_IT_number 2
_symmetry_cell_setting 'triclinic'
loop_
_space_group_symop_operation_xyz
x,y,z
-x,-y,-z
loop_
_atom_site_type_symbol
_atom_site_label
_atom_site_fract_x
_atom_site_fract_y
_atom_site_fract_z
Si Si1 0.591086 0.803144 0.545858
Si Si2 0.802694 0.620570 0.232431
Si Si3 0.224665 0.580840 0.424780
Si Si4 0.509053 0.533533 0.679746
Si Si5 0.708947 0.289177 0.677358
Si Si6 0.318101 0.791329 0.913497
Si Si7 0.927046 0.396434 0.164413
Si Si8 0.957339 0.185597 0.690397
O O1 0.712534 0.772664 0.427800
O O2 0.567385 0.642867 0.456761
O O3 0.452620 0.806791 0.459906
O O4 0.635599 0.993614 0.836702
O O5 0.838283 0.537462 0.267628
O O6 0.949239 0.703568 0.278078
O O7 0.714490 0.472701 0.965072
O O8 0.324103 0.432747 0.237414
O O9 0.216365 0.681413 0.413556
O O10 0.299918 0.723857 0.695712
O O11 0.068948 0.492546 0.356410
O O12 0.500000 0.500000 0.500000
O O13 0.434377 0.703157 0.894237
O O14 0.794144 0.161396 0.610807
O O15 0.168795 0.737866 0.906542
O O16 0.984012 0.291435 0.939500
O O17 0.000000 0.000000 0.500000
#
# Coordination Sequence:
#
# PCOD8006169 Si02
#       8
#     2   2   2   2   2   2   2   2
#     4  11  23  40  63  92 128 159 205 258 302 362
#     4  11  20  41  65  85 126 162 204 254 313 360
#     4  10  20  39  66  87 122 163 208 248 303 370
#     4   9  21  39  62  86 123 164 202 244 309 355
#     4  10  21  40  63  91 116 166 204 249 313 365
#     4  11  23  40  63  94 124 165 206 251 305 363
#     4  11  20  40  63  88 124 164 205 253 307 365
#     4  11  22  38  62  93 124 160 207 257 308 365
#
# _framework density 20.080727
#
# number of rings (size 3 to 8) (size 9 to 14) (size 15 to 20)
#    0.000    1.500    3.750    2.250    0.000    5.500 
#    0.000    5.000    0.000    0.000    0.000    0.000 
#    0.000    0.000    0.000    0.000    0.000    0.000 
#
# Total GULP energy -198348.040401 kJ/mol
# GULP energy per Si atom -12396.752525 kJ/mol
# Density = 2.003502 g / cm^3
# Si number density = 20.080727 Si / 1000 Ang^3
#
#
#
# Elastic Constant Matrix: (Units=GPa)
#
#
# Indices 1 2 3 4 5 6 
#
# 1 118.1884 17.7731 56.2253 -2.8945 -4.7508 -7.7397
# 2 17.7731 57.7182 30.0925 -1.7549 -7.9696 -9.2585
# 3 56.2253 30.0925 102.6617 2.1456 -5.3434 -21.8147
# 4 -2.8945 -1.7549 2.1456 24.8476 -5.3805 -0.6795
# 5 -4.7508 -7.9696 -5.3434 -5.3805 31.8523 -0.1561
# 6 -7.7397 -9.2585 -21.8147 -0.6795 -0.1561 30.5967
#
#
#
# Elastic Compliance Matrix: (Units=1/GPa)
#
#
# Indices 1 2 3 4 5 6 
#
# 1 0.011649 -0.000197 -0.006711 0.002068 0.000903 -0.001847
# 2 -0.000197 0.021413 -0.005409 0.003103 0.004958 0.002668
# 3 -0.006711 -0.005409 0.016898 -0.002359 0.000124 0.008662
# 4 0.002068 0.003103 -0.002359 0.042640 0.007895 0.000767
# 5 0.000903 0.004958 0.000124 0.007895 0.034135 0.002167
# 6 -0.001847 0.002668 0.008662 0.000767 0.002167 0.039227
#
#
# Mechanical properties :
#
#
# Convention : Reuss Voigt Hill
#
# Bulk Modulus (GPa) = 39.48383 54.08334 46.78359
# Shear Modulus (GPa) = 25.12085 29.09114 27.10599
#
# Velocity S-wave (km/s) = 3.54077 3.81032 3.67802
# Velocity P-wave (km/s) = 6.03501 6.80805 6.43315
#
# Compressibility (1/GPa) = 0.02532682
#
# Stress axis : x y z
#
# Youngs Moduli (GPa) = 85.84252 46.70054 59.17892
#
# Poissons Ratio (x) = 0.00920 0.39715
# Poissons Ratio (y) = 0.01691 0.32008
# Poissons Ratio (z) = 0.57609 0.25259
#
# Static dielectric constant tensor:
#      x y z
#    x 4.414300 -0.307530 -0.027780 
#    y -0.307530 3.770210 -0.044780 
#    z -0.027780 -0.044780 3.458380 
# 
# 
# High freq. dielectric constant tensor:
#      x y z
#    x 1.805960 -0.000240 -0.004420 
#    y -0.000240 1.781450 -0.011450 
#    z -0.004420 -0.011450 1.757980 
# 
# From -- ./inp_files/174966.got.cif
#   From: 2010.06.25/outbox.cif.g09.slc.cpg/sg2_88_cif.got.tgz:174966.got - 2010.06.27 13:26:56.
