data_PCOD8006454
_publ_section_title
;
Structure prediction by ZEFSAII (Michael W. Deem and Ramdas Pophale) SiO2 
 PCOD8006454
Probable space group: P -1
;
_chemical_formula_sum "Si O2"
_cell_formula_units_Z 16
_cell_length_a 12.468182
_cell_length_b 21.011586
_cell_length_c 7.539521
_cell_angle_alpha 90.450660
_cell_angle_beta 105.680956
_cell_angle_gamma 153.389573
_cell_volume 694.743129
_symmetry_space_group_name_H-M "P -1"
_symmetry_group_IT_number 2
_symmetry_cell_setting 'triclinic'
loop_
_space_group_symop_operation_xyz
x,y,z
-x,-y,-z
loop_
_atom_site_type_symbol
_atom_site_label
_atom_site_fract_x
_atom_site_fract_y
_atom_site_fract_z
Si Si1 0.770313 0.662535 0.257849
Si Si2 0.107413 0.065072 0.351997
Si Si3 0.805122 0.553627 0.422583
Si Si4 0.306576 0.301173 0.444261
Si Si5 0.959795 0.405711 0.766075
Si Si6 0.025103 0.584862 0.831455
Si Si7 0.689468 0.964475 0.648409
Si Si8 0.309437 0.056900 0.957050
O O1 0.950292 0.695161 0.408611
O O2 0.596176 0.607878 0.337205
O O3 0.500000 0.500000 0.000000
O O4 0.034759 0.845569 0.291554
O O5 0.377828 0.262398 0.493347
O O6 0.220328 0.060702 0.321355
O O7 0.838520 0.950464 0.102609
O O8 0.000000 0.000000 0.500000
O O9 0.476383 0.407376 0.336934
O O10 0.803061 0.498279 0.268275
O O11 0.954805 0.606186 0.670255
O O12 0.942769 0.120882 0.259506
O O13 0.632129 0.195831 0.598120
O O14 0.918059 0.458950 0.707260
O O15 0.099401 0.469307 0.026069
O O16 0.390041 0.777985 0.022229
O O17 0.619904 0.938232 0.823508
#
# Coordination Sequence:
#
# PCOD8006454 Si02
#       8
#     2   2   2   2   2   2   2   2
#     4  12  28  47  73 100 145 189 246 298 343 427
#     4  10  20  39  71 101 136 180 230 295 357 414
#     4  12  26  46  72 103 142 194 235 292 351 429
#     4  10  24  46  69 104 140 182 240 295 358 408
#     4  11  26  45  73 106 149 183 234 299 358 427
#     4  11  24  47  72 107 148 183 237 292 363 422
#     4  12  22  46  67 109 142 185 239 292 359 417
#     4  10  23  40  72 105 140 183 230 302 348 428
#
# _framework density 23.030093999999998
#
# number of rings (size 3 to 8) (size 9 to 14) (size 15 to 20)
#    0.750    0.250    2.500    4.125    3.500    2.500 
#    0.000    1.250    0.000    0.000    0.000    0.000 
#    0.000    0.000    0.000    0.000    0.000    0.000 
#
# Total GULP energy -198219.654229 kJ/mol
# GULP energy per Si atom -12388.728389 kJ/mol
# Density = 2.297768 g / cm^3
# Si number density = 23.030094 Si / 1000 Ang^3
#
#
#
# Elastic Constant Matrix: (Units=GPa)
#
#
# Indices 1 2 3 4 5 6 
#
# 1 96.7294 46.7158 42.6594 -13.1295 -13.5277 -13.6790
# 2 46.7158 103.5041 46.4835 -6.1190 -15.7309 1.9530
# 3 42.6594 46.4835 92.8850 -8.7376 -13.9970 -12.6249
# 4 -13.1295 -6.1190 -8.7376 47.1986 -3.0400 1.3726
# 5 -13.5277 -15.7309 -13.9970 -3.0400 34.9910 -11.3027
# 6 -13.6790 1.9530 -12.6249 1.3726 -11.3027 41.1228
#
#
#
# Elastic Compliance Matrix: (Units=1/GPa)
#
#
# Indices 1 2 3 4 5 6 
#
# 1 0.016104 -0.005089 -0.002974 0.003417 0.004963 0.005936
# 2 -0.005089 0.014578 -0.005295 -0.000318 0.001261 -0.003654
# 3 -0.002974 -0.005295 0.016465 0.001694 0.005026 0.005642
# 4 0.003417 -0.000318 0.001694 0.022638 0.004519 0.002158
# 5 0.004963 0.001261 0.005026 0.004519 0.037785 0.013369
# 6 0.005936 -0.003654 0.005642 0.002158 0.013369 0.031800
#
#
# Mechanical properties :
#
#
# Convention : Reuss Voigt Hill
#
# Bulk Modulus (GPa) = 48.94084 62.75957 55.85021
# Shear Modulus (GPa) = 28.91907 35.14646 32.03277
#
# Velocity S-wave (km/s) = 3.54744 3.91078 3.73354
# Velocity P-wave (km/s) = 6.17058 6.90671 6.54899
#
# Compressibility (1/GPa) = 0.02043283
#
# Stress axis : x y z
#
# Youngs Moduli (GPa) = 62.09453 68.59711 60.73503
#
# Poissons Ratio (x) = 0.34909 0.18060
# Poissons Ratio (y) = 0.31600 0.32158
# Poissons Ratio (z) = 0.18464 0.36320
#
# Static dielectric constant tensor:
#      x y z
#    x 3.829440 -0.071470 0.061780 
#    y -0.071470 4.566270 0.070750 
#    z 0.061780 0.070750 3.977200 
# 
# 
# High freq. dielectric constant tensor:
#      x y z
#    x 1.893770 0.005560 -0.003390 
#    y 0.005560 1.925320 -0.010270 
#    z -0.003390 -0.010270 1.901860 
# 
# From -- ./inp_files/281986.got.cif
#   From: 2010.06.25/outbox.cif.g09.slc.cpg/sg2_141_cif.got.tgz:281986.got - 2010.06.27 13:26:56.
