data_PCOD8006185
_publ_section_title
;
Structure prediction by ZEFSAII (Michael W. Deem and Ramdas Pophale) SiO2 
 PCOD8006185
Probable space group: P -1
;
_chemical_formula_sum "Si O2"
_cell_formula_units_Z 16
_cell_length_a 9.521422
_cell_length_b 12.136096
_cell_length_c 9.254780
_cell_angle_alpha 89.608312
_cell_angle_beta 46.285282
_cell_angle_gamma 86.631680
_cell_volume 770.782484
_symmetry_space_group_name_H-M "P -1"
_symmetry_group_IT_number 2
_symmetry_cell_setting 'triclinic'
loop_
_space_group_symop_operation_xyz
x,y,z
-x,-y,-z
loop_
_atom_site_type_symbol
_atom_site_label
_atom_site_fract_x
_atom_site_fract_y
_atom_site_fract_z
Si Si1 0.899876 0.193452 0.764499
Si Si2 0.115891 0.241458 0.332184
Si Si3 0.869741 0.650851 0.204130
Si Si4 0.950144 0.401769 0.228128
Si Si5 0.542691 0.373793 0.438846
Si Si6 0.672516 0.043528 0.281108
Si Si7 0.068002 0.052002 0.146183
Si Si8 0.471234 0.754977 0.816773
O O1 0.948289 0.219948 0.565807
O O2 0.025754 0.252881 0.793091
O O3 0.930128 0.063318 0.770130
O O4 0.674737 0.237055 0.944414
O O5 0.139738 0.143542 0.201043
O O6 0.311821 0.248398 0.281104
O O7 0.065685 0.358942 0.288668
O O8 0.917313 0.534630 0.255731
O O9 0.638618 0.689308 0.370920
O O10 0.927661 0.638895 0.997633
O O11 0.748868 0.339844 0.368423
O O12 0.500000 0.500000 0.500000
O O13 0.559785 0.355000 0.253551
O O14 0.571144 0.143224 0.261919
O O15 0.846118 0.086736 0.255093
O O16 0.500000 0.000000 0.500000
O O17 0.779725 0.953003 0.096745
#
# Coordination Sequence:
#
# PCOD8006185 Si02
#       8
#     2   2   2   2   2   2   2   2
#     4  11  23  41  64  88 133 168 201 260 319 371
#     4  12  25  41  62  94 133 164 207 260 319 372
#     4  10  21  41  68  89 122 166 208 261 314 367
#     4  10  23  40  66  95 121 160 217 262 305 374
#     4  10  20  39  66  90 116 162 213 254 304 371
#     4  10  22  39  66  92 121 166 214 257 303 371
#     4  10  24  40  62  95 126 165 213 260 305 375
#     4  11  23  40  62  93 128 168 206 256 319 374
#
# _framework density 20.758126000000001
#
# number of rings (size 3 to 8) (size 9 to 14) (size 15 to 20)
#    0.000    1.500    2.500    1.875    3.500    4.500 
#    0.000    0.625    0.000    0.000    0.000    0.000 
#    0.000    0.000    0.000    0.000    0.000    0.000 
#
# Total GULP energy -198374.255715 kJ/mol
# GULP energy per Si atom -12398.390982 kJ/mol
# Density = 2.071088 g / cm^3
# Si number density = 20.758126 Si / 1000 Ang^3
#
#
#
# Elastic Constant Matrix: (Units=GPa)
#
#
# Indices 1 2 3 4 5 6 
#
# 1 101.8334 37.3499 29.4931 3.9142 -2.5943 -14.9266
# 2 37.3499 61.2540 26.9695 -0.0211 -0.6344 -2.1290
# 3 29.4931 26.9695 132.8881 -5.0752 -7.8969 -17.7687
# 4 3.9142 -0.0211 -5.0752 28.0658 1.3376 6.8283
# 5 -2.5943 -0.6344 -7.8969 1.3376 32.2877 2.1632
# 6 -14.9266 -2.1290 -17.7687 6.8283 2.1632 30.8556
#
#
#
# Elastic Compliance Matrix: (Units=1/GPa)
#
#
# Indices 1 2 3 4 5 6 
#
# 1 0.014115 -0.008054 -0.000722 -0.003747 0.000509 0.006650
# 2 -0.008054 0.022561 -0.003390 0.001686 -0.000794 -0.004609
# 3 -0.000722 -0.003390 0.009089 0.000587 0.001780 0.004396
# 4 -0.003747 0.001686 0.000587 0.038708 -0.001068 -0.009849
# 5 0.000509 -0.000794 0.001780 -0.001068 0.031527 -0.000758
# 6 0.006650 -0.004609 0.004396 -0.009849 -0.000758 0.040073
#
#
# Mechanical properties :
#
#
# Convention : Reuss Voigt Hill
#
# Bulk Modulus (GPa) = 46.65566 53.73338 50.19452
# Shear Modulus (GPa) = 26.65971 31.71935 29.18953
#
# Velocity S-wave (km/s) = 3.58760 3.91326 3.75397
# Velocity P-wave (km/s) = 6.29967 6.80881 6.55918
#
# Compressibility (1/GPa) = 0.02143363
#
# Stress axis : x y z
#
# Youngs Moduli (GPa) = 70.84841 44.32414 110.01764
#
# Poissons Ratio (x) = 0.35697 0.07941
# Poissons Ratio (y) = 0.57058 0.37301
# Poissons Ratio (z) = 0.05114 0.15028
#
# Static dielectric constant tensor:
#      x y z
#    x 3.910980 0.143900 -0.546340 
#    y 0.143900 3.867040 -0.166300 
#    z -0.546340 -0.166300 5.191700 
# 
# 
# High freq. dielectric constant tensor:
#      x y z
#    x 1.805400 0.005820 -0.012910 
#    y 0.005820 1.811040 0.013120 
#    z -0.012910 0.013120 1.829680 
# 
# From -- ./inp_files/187309.got.cif
#   From: 2010.06.25/outbox.cif.g09.slc.cpg/sg2_94_cif.got.tgz:187309.got - 2010.06.27 13:26:56.
