data_PCOD8006074
_publ_section_title
;
Structure prediction by ZEFSAII (Michael W. Deem and Ramdas Pophale) SiO2 
 PCOD8006074
Probable space group: P -1
;
_chemical_formula_sum "Si O2"
_cell_formula_units_Z 16
_cell_length_a 10.183296
_cell_length_b 9.920842
_cell_length_c 15.028239
_cell_angle_alpha 78.995976
_cell_angle_beta 102.901007
_cell_angle_gamma 40.191121
_cell_volume 781.674172
_symmetry_space_group_name_H-M "P -1"
_symmetry_group_IT_number 2
_symmetry_cell_setting 'triclinic'
loop_
_space_group_symop_operation_xyz
x,y,z
-x,-y,-z
loop_
_atom_site_type_symbol
_atom_site_label
_atom_site_fract_x
_atom_site_fract_y
_atom_site_fract_z
Si Si1 0.537456 0.768789 0.762618
Si Si2 0.766892 0.298765 0.524192
Si Si3 0.980843 0.644261 0.414930
Si Si4 0.364913 0.903715 0.908818
Si Si5 0.541319 0.463177 0.292882
Si Si6 0.981764 0.557447 0.225604
Si Si7 0.264444 0.515827 0.835238
Si Si8 0.025435 0.979217 0.237241
O O1 0.555566 0.760713 0.873478
O O2 0.531769 0.615386 0.753885
O O3 0.775815 0.639369 0.774426
O O4 0.295140 0.056646 0.655008
O O5 0.500000 0.500000 0.500000
O O6 0.760182 0.250653 0.427008
O O7 0.815080 0.420310 0.515254
O O8 0.974290 0.047285 0.651203
O O9 0.047506 0.545542 0.336965
O O10 0.000000 0.500000 0.500000
O O11 0.147178 0.986069 0.838301
O O12 0.237374 0.158035 0.883025
O O13 0.509306 0.723696 0.037879
O O14 0.619774 0.508758 0.228466
O O15 0.300932 0.733891 0.270953
O O16 0.895793 0.474637 0.223011
O O17 0.084693 0.775249 0.828590
#
# Coordination Sequence:
#
# PCOD8006074 Si02
#       8
#     2   2   2   2   2   2   2   2
#     4  11  23  42  67  87 128 178 208 251 327 380
#     4  10  20  39  65  89 126 164 205 255 313 370
#     4  11  23  41  63  93 132 166 207 264 313 378
#     4  11  23  45  65  90 132 169 211 265 318 375
#     4  11  23  40  68  95 124 170 211 261 320 376
#     4  11  24  44  63  93 130 169 212 257 322 382
#     4  12  26  39  66 100 125 161 221 270 309 374
#     4  11  22  42  65  95 129 163 216 263 312 380
#
# _framework density 20.468888
#
# number of rings (size 3 to 8) (size 9 to 14) (size 15 to 20)
#    0.000    1.000    5.000    2.250    0.000    9.500 
#    0.000    0.000    0.000    0.000    0.000    0.000 
#    0.000    0.000    0.000    0.000    0.000    0.000 
#
# Total GULP energy -198452.472668 kJ/mol
# GULP energy per Si atom -12403.279542 kJ/mol
# Density = 2.042230 g / cm^3
# Si number density = 20.468888 Si / 1000 Ang^3
#
#
#
# Elastic Constant Matrix: (Units=GPa)
#
#
# Indices 1 2 3 4 5 6 
#
# 1 123.7437 45.6291 43.8093 -2.7248 -7.7060 6.1106
# 2 45.6291 84.2169 12.7882 -2.8641 -12.0989 -6.5188
# 3 43.8093 12.7882 82.9939 -1.6390 -14.6558 -18.8235
# 4 -2.7248 -2.8641 -1.6390 23.4593 6.4563 -5.8001
# 5 -7.7060 -12.0989 -14.6558 6.4563 30.2445 -1.1220
# 6 6.1106 -6.5188 -18.8235 -5.8001 -1.1220 32.1879
#
#
#
# Elastic Compliance Matrix: (Units=1/GPa)
#
#
# Indices 1 2 3 4 5 6 
#
# 1 0.014636 -0.007923 -0.009635 -0.001356 -0.004206 -0.010409
# 2 -0.007923 0.017166 0.004694 0.001595 0.007089 0.008260
# 3 -0.009635 0.004694 0.021975 0.002233 0.010202 0.016389
# 4 -0.001356 0.001595 0.002233 0.047655 -0.008421 0.010180
# 5 -0.004206 0.007089 0.010202 -0.008421 0.041872 0.008143
# 6 -0.010409 0.008260 0.016389 0.010180 0.008143 0.046419
#
#
# Mechanical properties :
#
#
# Convention : Reuss Voigt Hill
#
# Bulk Modulus (GPa) = 35.65295 55.04530 45.34913
# Shear Modulus (GPa) = 22.24197 29.76018 26.00108
#
# Velocity S-wave (km/s) = 3.29997 3.81717 3.56796
# Velocity P-wave (km/s) = 5.65471 6.81016 6.25915
#
# Compressibility (1/GPa) = 0.02804817
#
# Stress axis : x y z
#
# Youngs Moduli (GPa) = 68.32395 58.25467 45.50673
#
# Poissons Ratio (x) = 0.46154 0.43848
# Poissons Ratio (y) = 0.54132 -0.21360
# Poissons Ratio (z) = 0.65833 -0.27344
#
# Static dielectric constant tensor:
#      x y z
#    x 3.663030 -0.135980 -0.371730 
#    y -0.135980 3.794620 -0.280780 
#    z -0.371730 -0.280780 3.309100 
# 
# 
# High freq. dielectric constant tensor:
#      x y z
#    x 1.809970 -0.001580 -0.001100 
#    y -0.001580 1.808840 0.000800 
#    z -0.001100 0.000800 1.803770 
# 
# From -- ./inp_files/494919.got.cif
#   From: 2010.06.25/outbox.cif.g09.slc.cpg/sg2_248_cif.got.tgz:494919.got - 2010.06.27 13:26:56.
