data_PCOD8006949
_publ_section_title
;
Structure prediction by ZEFSAII (Michael W. Deem and Ramdas Pophale) SiO2 
 PCOD8006949
Probable space group: P -1
;
_chemical_formula_sum "Si O2"
_cell_formula_units_Z 14
_cell_length_a 19.078204
_cell_length_b 12.291004
_cell_length_c 9.585733
_cell_angle_alpha 50.737281
_cell_angle_beta 139.846566
_cell_angle_gamma 153.326037
_cell_volume 640.852548
_symmetry_space_group_name_H-M "P -1"
_symmetry_group_IT_number 2
_symmetry_cell_setting 'triclinic'
loop_
_space_group_symop_operation_xyz
x,y,z
-x,-y,-z
loop_
_atom_site_type_symbol
_atom_site_label
_atom_site_fract_x
_atom_site_fract_y
_atom_site_fract_z
Si Si1 0.451335 0.422606 0.148235
Si Si2 0.388986 0.070936 0.469126
Si Si3 0.177298 0.289571 0.019318
Si Si4 0.090838 0.823547 0.439738
Si Si5 0.212655 0.238028 0.406434
Si Si6 0.165974 0.482738 0.217464
Si Si7 0.927838 0.448323 0.713565
O O1 0.375465 0.183939 0.246016
O O2 0.624999 0.633705 0.344748
O O3 0.500000 0.500000 0.000000
O O4 0.297715 0.374767 0.998296
O O5 0.607657 0.261223 0.674696
O O6 0.291647 0.015620 0.511340
O O7 0.274960 0.819509 0.434961
O O8 0.084875 0.345562 0.801949
O O9 0.293169 0.394700 0.256076
O O10 0.000000 0.000000 0.000000
O O11 0.050954 0.646982 0.616539
O O12 0.091965 0.969276 0.413866
O O13 0.096676 0.246009 0.292678
O O14 0.115532 0.479345 0.297746
O O15 0.052441 0.453019 0.956771
#
# Coordination Sequence:
#
# PCOD8006949 Si02
#       7
#     2   2   2   2   2   2   2
#     4  11  24  39  66 103 131 172 223 276 344 389
#     4  11  23  45  67  94 138 178 223 278 331 409
#     4  10  20  40  65  95 133 172 212 279 337 389
#     4  11  24  41  70 102 129 176 232 269 343 396
#     4  10  22  43  67  97 134 171 218 286 329 400
#     4  10  25  42  69  91 137 182 224 272 348 383
#     4  11  25  46  64  98 135 185 223 276 327 414
#
# _framework density 21.845898999999999
#
# number of rings (size 3 to 8) (size 9 to 14) (size 15 to 20)
#    0.000    1.429    2.857    2.143    8.000    3.429 
#    2.571    0.000    0.000    0.000    0.000    0.000 
#    0.000    0.000    0.000    0.000    0.000    0.000 
#
# Total GULP energy -173507.764340 kJ/mol
# GULP energy per Si atom -12393.411739 kJ/mol
# Density = 2.179618 g / cm^3
# Si number density = 21.845899 Si / 1000 Ang^3
#
#
#
# Elastic Constant Matrix: (Units=GPa)
#
#
# Indices 1 2 3 4 5 6 
#
# 1 94.8049 21.4618 35.1213 7.9662 -6.9464 6.8879
# 2 21.4618 69.3965 26.9832 -10.9636 -14.5240 -0.8857
# 3 35.1213 26.9832 94.4300 11.1170 -9.2237 13.1192
# 4 7.9662 -10.9636 11.1170 29.7011 2.4826 2.5569
# 5 -6.9464 -14.5240 -9.2237 2.4826 38.3017 1.9144
# 6 6.8879 -0.8857 13.1192 2.5569 1.9144 41.6057
#
#
#
# Elastic Compliance Matrix: (Units=1/GPa)
#
#
# Indices 1 2 3 4 5 6 
#
# 1 0.012874 -0.003099 -0.003314 -0.003325 0.000626 -0.000977
# 2 -0.003099 0.020125 -0.005512 0.009744 0.005018 0.001850
# 3 -0.003314 -0.005512 0.014854 -0.006493 0.001503 -0.003922
# 4 -0.003325 0.009744 -0.006493 0.040651 -0.001124 0.000359
# 5 0.000626 0.005018 0.001503 -0.001124 0.028645 -0.001720
# 6 -0.000977 0.001850 -0.003922 0.000359 -0.001720 0.025530
#
#
# Mechanical properties :
#
#
# Convention : Reuss Voigt Hill
#
# Bulk Modulus (GPa) = 41.66486 47.30710 44.48598
# Shear Modulus (GPa) = 28.64832 33.59271 31.12051
#
# Velocity S-wave (km/s) = 3.62523 3.92562 3.77841
# Velocity P-wave (km/s) = 6.05282 6.49994 6.28036
#
# Compressibility (1/GPa) = 0.02400104
#
# Stress axis : x y z
#
# Youngs Moduli (GPa) = 77.67865 49.68957 67.32329
#
# Poissons Ratio (x) = 0.15401 0.22312
# Poissons Ratio (y) = 0.24076 0.37108
# Poissons Ratio (z) = 0.25744 0.27389
#
# Static dielectric constant tensor:
#      x y z
#    x 4.187910 -0.205930 -0.251750 
#    y -0.205930 3.689880 -0.000680 
#    z -0.251750 -0.000680 4.179900 
# 
# 
# High freq. dielectric constant tensor:
#      x y z
#    x 1.869880 -0.008800 0.001210 
#    y -0.008800 1.835570 0.005860 
#    z 0.001210 0.005860 1.870030 
# 
# From -- ./inp_files/279140.got.cif
#   From: 2010.06.25/outbox.cif.g09.slc.cpg/sg2_140_cif.got.tgz:279140.got - 2010.06.27 13:26:56.
