data_PCOD8006724
_publ_section_title
;
Structure prediction by ZEFSAII (Michael W. Deem and Ramdas Pophale) SiO2 
 PCOD8006724
Probable space group: P -1
;
_chemical_formula_sum "Si O2"
_cell_formula_units_Z 16
_cell_length_a 8.999138
_cell_length_b 9.790610
_cell_length_c 15.976304
_cell_angle_alpha 43.152698
_cell_angle_beta 69.255828
_cell_angle_gamma 95.470673
_cell_volume 750.104000
_symmetry_space_group_name_H-M "P -1"
_symmetry_group_IT_number 2
_symmetry_cell_setting 'triclinic'
loop_
_space_group_symop_operation_xyz
x,y,z
-x,-y,-z
loop_
_atom_site_type_symbol
_atom_site_label
_atom_site_fract_x
_atom_site_fract_y
_atom_site_fract_z
Si Si1 0.938321 0.936191 0.237840
Si Si2 0.874818 0.756778 0.084752
Si Si3 0.461348 0.375716 0.326615
Si Si4 0.102493 0.282113 0.362473
Si Si5 0.462524 0.734485 0.815842
Si Si6 0.552741 0.829601 0.405166
Si Si7 0.119603 0.490428 0.654097
Si Si8 0.794402 0.736162 0.827797
O O1 0.708268 0.797019 0.342742
O O2 0.990634 0.753449 0.270889
O O3 0.020639 0.024462 0.275961
O O4 0.040681 0.182858 0.052555
O O5 0.647496 0.646677 0.180791
O O6 0.893886 0.563950 0.219028
O O7 0.000000 0.000000 0.000000
O O8 0.283930 0.399219 0.335487
O O9 0.486850 0.254671 0.295694
O O10 0.422135 0.193429 0.490817
O O11 0.160384 0.369356 0.215685
O O12 0.969934 0.352106 0.403757
O O13 0.000000 0.000000 0.500000
O O14 0.646324 0.810451 0.801961
O O15 0.395346 0.915411 0.753254
O O16 0.290231 0.472022 0.993623
O O17 0.334527 0.636295 0.510222
#
# Coordination Sequence:
#
# PCOD8006724 Si02
#       8
#     2   2   2   2   2   2   2   2
#     4  11  22  41  62  95 128 166 214 262 314 380
#     4   9  20  39  61  87 128 166 205 258 314 378
#     4  10  20  40  63  91 126 168 211 263 314 379
#     4  11  23  42  66  95 129 168 214 261 321 381
#     4  10  21  39  62  92 130 165 206 264 319 370
#     4  11  23  37  64  93 125 169 217 261 311 374
#     4  10  23  43  64  89 130 171 209 262 321 376
#     4  10  22  39  64  94 129 160 212 264 313 374
#
# _framework density 21.330375
#
# number of rings (size 3 to 8) (size 9 to 14) (size 15 to 20)
#    0.000    1.750    1.250    3.000    1.750    3.500 
#    0.000   11.875    0.000    0.000    0.000    0.000 
#    0.000    0.000    0.000    0.000    0.000    0.000 
#
# Total GULP energy -198242.143836 kJ/mol
# GULP energy per Si atom -12390.133990 kJ/mol
# Density = 2.128183 g / cm^3
# Si number density = 21.330375 Si / 1000 Ang^3
#
#
#
# Elastic Constant Matrix: (Units=GPa)
#
#
# Indices 1 2 3 4 5 6 
#
# 1 123.6414 56.7264 49.9512 -14.8171 -14.7140 -0.9389
# 2 56.7264 74.6520 22.3979 -11.7465 4.1349 -3.3370
# 3 49.9512 22.3979 104.3439 0.4418 1.7104 -4.4920
# 4 -14.8171 -11.7465 0.4418 25.9112 4.0466 -2.4400
# 5 -14.7140 4.1349 1.7104 4.0466 34.2491 -2.2973
# 6 -0.9389 -3.3370 -4.4920 -2.4400 -2.2973 37.8638
#
#
#
# Elastic Compliance Matrix: (Units=1/GPa)
#
#
# Indices 1 2 3 4 5 6 
#
# 1 0.016983 -0.011084 -0.005927 0.003413 0.008492 -0.000524
# 2 -0.011084 0.023050 0.000540 0.005528 -0.008112 0.001685
# 3 -0.005927 0.000540 0.012407 -0.002818 -0.002830 0.001019
# 4 0.003413 0.005528 -0.002818 0.044000 -0.004070 0.002826
# 5 0.008492 -0.008112 -0.002830 -0.004070 0.034514 0.000992
# 6 -0.000524 0.001685 0.001019 0.002826 0.000992 0.026909
#
#
# Mechanical properties :
#
#
# Convention : Reuss Voigt Hill
#
# Bulk Modulus (GPa) = 51.28371 62.30981 56.79676
# Shear Modulus (GPa) = 25.34141 31.17560 28.25850
#
# Velocity S-wave (km/s) = 3.45054 3.82718 3.64373
# Velocity P-wave (km/s) = 6.32216 6.98605 6.66238
#
# Compressibility (1/GPa) = 0.01949937
#
# Stress axis : x y z
#
# Youngs Moduli (GPa) = 58.88155 43.38396 80.59713
#
# Poissons Ratio (x) = 0.48085 0.47772
# Poissons Ratio (y) = 0.65262 -0.04354
# Poissons Ratio (z) = 0.34900 -0.02344
#
# Static dielectric constant tensor:
#      x y z
#    x 4.171210 0.113520 -0.105200 
#    y 0.113520 3.715750 0.377890 
#    z -0.105200 0.377890 4.411090 
# 
# 
# High freq. dielectric constant tensor:
#      x y z
#    x 1.831930 0.018570 -0.005770 
#    y 0.018570 1.812140 0.008340 
#    z -0.005770 0.008340 1.854670 
# 
# From -- ./inp_files/305310.got.cif
#   From: 2010.06.25/outbox.cif.g09.slc.cpg/sg2_153_cif.got.tgz:305310.got - 2010.06.27 13:26:56.
