data_PCOD8006683
_publ_section_title
;
Structure prediction by ZEFSAII (Michael W. Deem and Ramdas Pophale) SiO2 
 PCOD8006683
Probable space group: P -1
;
_chemical_formula_sum "Si O2"
_cell_formula_units_Z 16
_cell_length_a 12.035990
_cell_length_b 13.656389
_cell_length_c 11.586527
_cell_angle_alpha 67.944079
_cell_angle_beta 148.106853
_cell_angle_gamma 126.187440
_cell_volume 775.954299
_symmetry_space_group_name_H-M "P -1"
_symmetry_group_IT_number 2
_symmetry_cell_setting 'triclinic'
loop_
_space_group_symop_operation_xyz
x,y,z
-x,-y,-z
loop_
_atom_site_type_symbol
_atom_site_label
_atom_site_fract_x
_atom_site_fract_y
_atom_site_fract_z
Si Si1 0.251243 0.955378 0.371846
Si Si2 0.930542 0.872982 0.785754
Si Si3 0.744762 0.882217 0.377921
Si Si4 0.419095 0.738796 0.953007
Si Si5 0.127363 0.287707 0.991942
Si Si6 0.413759 0.605411 0.801595
Si Si7 0.948995 0.538620 0.275456
Si Si8 0.476978 0.970151 0.798844
O O1 0.291502 0.913975 0.550269
O O2 0.012660 0.839840 0.149014
O O3 0.500000 0.000000 0.500000
O O4 0.197099 0.064971 0.286862
O O5 0.810329 0.830818 0.571046
O O6 0.860535 0.745836 0.849771
O O7 0.232057 0.969387 0.004505
O O8 0.549913 0.922524 0.215199
O O9 0.608869 0.769718 0.213515
O O10 0.000000 0.000000 0.500000
O O11 0.541718 0.728645 0.945730
O O12 0.151235 0.603171 0.798352
O O13 0.380119 0.853830 0.853744
O O14 0.998537 0.366723 0.826966
O O15 0.399114 0.387464 0.131623
O O16 0.268708 0.480504 0.814250
O O17 0.204744 0.605954 0.540833
#
# Coordination Sequence:
#
# PCOD8006683 Si02
#       8
#     2   2   2   2   2   2   2   2
#     4  11  24  35  60  95 125 162 196 243 320 372
#     4  11  25  39  58  94 125 164 200 249 305 370
#     4  11  24  41  61  91 123 163 207 253 303 361
#     4  10  20  40  63  86 122 155 206 253 300 362
#     4  12  22  37  63  87 132 157 196 251 310 373
#     4   9  21  39  60  92 122 152 206 247 306 354
#     4   9  22  39  60  93 121 157 203 252 308 354
#     4  11  22  39  60  92 123 155 204 256 308 358
#
# _framework density 20.619769999999999
#
# number of rings (size 3 to 8) (size 9 to 14) (size 15 to 20)
#    0.750    0.750    2.500    2.625    5.250    0.000 
#    2.250    0.625    0.000    1.500    0.000    0.000 
#    0.000    0.000    0.000    0.000    0.000    0.000 
#
# Total GULP energy -198242.272345 kJ/mol
# GULP energy per Si atom -12390.142022 kJ/mol
# Density = 2.057284 g / cm^3
# Si number density = 20.619770 Si / 1000 Ang^3
#
#
#
# Elastic Constant Matrix: (Units=GPa)
#
#
# Indices 1 2 3 4 5 6 
#
# 1 73.0726 32.2262 54.3060 -1.5876 -13.0765 9.0115
# 2 32.2262 97.2379 37.5528 -24.3390 -25.2051 22.4751
# 3 54.3060 37.5528 77.1708 -6.1860 -32.7861 15.5209
# 4 -1.5876 -24.3390 -6.1860 35.8837 7.2414 -13.7646
# 5 -13.0765 -25.2051 -32.7861 7.2414 45.8868 -1.5315
# 6 9.0115 22.4751 15.5209 -13.7646 -1.5315 23.2737
#
#
#
# Elastic Compliance Matrix: (Units=1/GPa)
#
#
# Indices 1 2 3 4 5 6 
#
# 1 0.034589 -0.006571 -0.029585 -0.000804 -0.014389 0.011261
# 2 -0.006571 0.018081 0.002377 0.005909 0.008409 -0.012453
# 3 -0.029585 0.002377 0.049322 -0.006855 0.028332 -0.025922
# 4 -0.000804 0.005909 -0.006855 0.040978 -0.007583 0.022913
# 5 -0.014389 0.008409 0.028332 -0.007583 0.042980 -0.023100
# 6 0.011261 -0.012453 -0.025922 0.022913 -0.023100 0.079951
#
#
# Mechanical properties :
#
#
# Convention : Reuss Voigt Hill
#
# Bulk Modulus (GPa) = 29.04260 55.07236 42.05748
# Shear Modulus (GPa) = 14.49531 29.23525 21.86528
#
# Velocity S-wave (km/s) = 2.65426 3.76949 3.25992
# Velocity P-wave (km/s) = 4.84859 6.76106 5.88306
#
# Compressibility (1/GPa) = 0.03443218
#
# Stress axis : x y z
#
# Youngs Moduli (GPa) = 28.91070 55.30582 20.27492
#
# Poissons Ratio (x) = 0.36344 0.59984
# Poissons Ratio (y) = 0.18998 -0.04818
# Poissons Ratio (z) = 0.85533 -0.13144
#
# Static dielectric constant tensor:
#      x y z
#    x 3.706430 0.181680 -0.117160 
#    y 0.181680 3.704440 -0.026550 
#    z -0.117160 -0.026550 4.046360 
# 
# 
# High freq. dielectric constant tensor:
#      x y z
#    x 1.780200 0.013920 -0.009950 
#    y 0.013920 1.786340 -0.010710 
#    z -0.009950 -0.010710 1.825290 
# 
# From -- ./inp_files/432767.got.cif
#   From: 2010.06.25/outbox.cif.g09.slc.cpg/sg2_217_cif.got.tgz:432767.got - 2010.06.27 13:26:56.
