data_PCOD8006093
_publ_section_title
;
Structure prediction by ZEFSAII (Michael W. Deem and Ramdas Pophale) SiO2 
 PCOD8006093
Probable space group: P -1
;
_chemical_formula_sum "Si O2"
_cell_formula_units_Z 14
_cell_length_a 19.104757
_cell_length_b 8.411457
_cell_length_c 14.153506
_cell_angle_alpha 49.838166
_cell_angle_beta 148.458391
_cell_angle_gamma 145.703703
_cell_volume 656.793782
_symmetry_space_group_name_H-M "P -1"
_symmetry_group_IT_number 2
_symmetry_cell_setting 'triclinic'
loop_
_space_group_symop_operation_xyz
x,y,z
-x,-y,-z
loop_
_atom_site_type_symbol
_atom_site_label
_atom_site_fract_x
_atom_site_fract_y
_atom_site_fract_z
Si Si1 0.244651 0.095524 0.188209
Si Si2 0.021271 0.726738 0.548846
Si Si3 0.768676 0.833422 0.218336
Si Si4 0.476386 0.093371 0.600412
Si Si5 0.561232 0.715729 0.850799
Si Si6 0.846286 0.714071 0.824642
Si Si7 0.181010 0.910342 0.466184
O O1 0.351681 0.030231 0.392608
O O2 0.362897 0.285433 0.160451
O O3 0.229078 0.282272 0.163649
O O4 0.038735 0.797862 0.032845
O O5 0.177253 0.916087 0.573592
O O6 0.853038 0.699831 0.339423
O O7 0.955078 0.418833 0.599538
O O8 0.093979 0.870803 0.679611
O O9 0.586661 0.610533 0.158246
O O10 0.725037 0.906822 0.043129
O O11 0.689240 0.397429 0.720128
O O12 0.465730 0.835487 0.683844
O O13 0.388450 0.087923 0.598759
O O14 0.890356 0.949989 0.713050
#
# Coordination Sequence:
#
# PCOD8006093 Si02
#       7
#     2   2   2   2   2   2   2
#     4  10  22  41  62  89 125 164 200 258 304 366
#     4  10  21  40  66  89 119 167 204 255 312 353
#     4  10  23  40  60  91 122 166 204 258 296 370
#     4  11  23  41  63  95 125 162 202 259 303 377
#     4  11  23  41  59  89 131 158 209 249 307 365
#     4  10  23  40  63  95 122 161 207 253 312 366
#     4  10  20  39  65  92 125 156 207 258 304 370
#
# _framework density 21.315670000000001
#
# number of rings (size 3 to 8) (size 9 to 14) (size 15 to 20)
#    0.000    1.714    1.429    3.000    4.000    4.000 
#    0.000    0.714    0.000    0.000    0.000    0.000 
#    0.000    0.000    0.000    0.000    0.000    0.000 
#
# Total GULP energy -173616.466043 kJ/mol
# GULP energy per Si atom -12401.176146 kJ/mol
# Density = 2.126715 g / cm^3
# Si number density = 21.315670 Si / 1000 Ang^3
#
#
#
# Elastic Constant Matrix: (Units=GPa)
#
#
# Indices 1 2 3 4 5 6 
#
# 1 73.8952 5.2373 14.0444 -8.6801 -11.2950 18.9289
# 2 5.2373 70.7808 30.6195 0.8934 -7.3052 5.5360
# 3 14.0444 30.6195 111.2448 7.7622 -3.2017 4.7312
# 4 -8.6801 0.8934 7.7622 26.3227 5.8235 0.3447
# 5 -11.2950 -7.3052 -3.2017 5.8235 22.8679 -1.5360
# 6 18.9289 5.5360 4.7312 0.3447 -1.5360 29.6509
#
#
#
# Elastic Compliance Matrix: (Units=1/GPa)
#
#
# Indices 1 2 3 4 5 6 
#
# 1 0.018515 0.001200 -0.002354 0.005342 0.007075 -0.011364
# 2 0.001200 0.016735 -0.004492 0.000062 0.005099 -0.002910
# 3 -0.002354 -0.004492 0.010756 -0.003786 -0.000083 0.000665
# 4 0.005342 0.000062 -0.003786 0.042919 -0.009055 -0.003786
# 5 0.007075 0.005099 -0.000083 -0.009055 0.050965 -0.002710
# 6 -0.011364 -0.002910 0.000665 -0.003786 -0.002710 0.041321
#
#
# Mechanical properties :
#
#
# Convention : Reuss Voigt Hill
#
# Bulk Modulus (GPa) = 28.80551 39.52480 34.16515
# Shear Modulus (GPa) = 24.50085 29.50295 27.00190
#
# Velocity S-wave (km/s) = 3.39400 3.72438 3.56302
# Velocity P-wave (km/s) = 5.37607 6.08913 5.74368
#
# Compressibility (1/GPa) = 0.03471559
#
# Stress axis : x y z
#
# Youngs Moduli (GPa) = 54.01065 59.75328 92.97024
#
# Poissons Ratio (x) = -0.07169 0.21881
# Poissons Ratio (y) = -0.06480 0.41759
# Poissons Ratio (z) = 0.12712 0.26839
#
# Static dielectric constant tensor:
#      x y z
#    x 3.922910 0.196210 0.012220 
#    y 0.196210 3.553800 0.070490 
#    z 0.012220 0.070490 3.964700 
# 
# 
# High freq. dielectric constant tensor:
#      x y z
#    x 1.842300 0.012610 -0.001460 
#    y 0.012610 1.820850 0.002150 
#    z -0.001460 0.002150 1.835960 
# 
# From -- ./inp_files/324759.got.cif
#   From: 2010.06.25/outbox.cif.g09.slc.cpg/sg2_163_cif.got.tgz:324759.got - 2010.06.27 13:26:56.
