data_PCOD8006771
_publ_section_title
;
Structure prediction by ZEFSAII (Michael W. Deem and Ramdas Pophale) SiO2 
 PCOD8006771
Probable space group: P -1
;
_chemical_formula_sum "Si O2"
_cell_formula_units_Z 16
_cell_length_a 21.560366
_cell_length_b 25.479292
_cell_length_c 8.854911
_cell_angle_alpha 150.123348
_cell_angle_beta 27.266114
_cell_angle_gamma 159.190399
_cell_volume 771.873112
_symmetry_space_group_name_H-M "P -1"
_symmetry_group_IT_number 2
_symmetry_cell_setting 'triclinic'
loop_
_space_group_symop_operation_xyz
x,y,z
-x,-y,-z
loop_
_atom_site_type_symbol
_atom_site_label
_atom_site_fract_x
_atom_site_fract_y
_atom_site_fract_z
Si Si1 0.543007 0.687083 0.419064
Si Si2 0.547434 0.284263 0.835068
Si Si3 0.232967 0.350514 0.350500
Si Si4 0.135184 0.673892 0.660307
Si Si5 0.475839 0.837625 0.738510
Si Si6 0.178388 0.821576 0.228610
Si Si7 0.207070 0.169095 0.469316
Si Si8 0.824500 0.638801 0.153206
O O1 0.353958 0.522511 0.479606
O O2 0.468190 0.758334 0.701970
O O3 0.697067 0.789793 0.473534
O O4 0.647902 0.684827 0.049184
O O5 0.644936 0.247091 0.639143
O O6 0.545355 0.243889 0.568384
O O7 0.329822 0.176727 0.095774
O O8 0.661546 0.458700 0.031583
O O9 0.203213 0.324197 0.529315
O O10 0.025915 0.239645 0.430202
O O11 0.000000 0.500000 0.500000
O O12 0.111121 0.699719 0.947002
O O13 0.046018 0.715170 0.848048
O O14 0.682449 0.012147 0.729077
O O15 0.299772 0.825177 0.102926
O O16 0.195821 0.286200 0.745443
O O17 0.000000 0.000000 0.500000
#
# Coordination Sequence:
#
# PCOD8006771 Si02
#       8
#     2   2   2   2   2   2   2   2
#     4  11  25  39  57  92 124 152 201 251 291 344
#     4  10  20  40  64  86 115 161 200 236 298 362
#     4  10  22  40  64  87 118 160 202 242 291 355
#     4   8  17  35  65  88 107 146 209 243 279 351
#     4  10  22  39  64  90 121 156 196 247 296 355
#     4   9  20  39  64  89 116 158 202 236 297 360
#     4  12  27  39  57  90 125 155 198 249 300 349
#     4  10  20  41  64  84 116 162 200 242 293 359
#
# _framework density 20.728795000000002
#
# number of rings (size 3 to 8) (size 9 to 14) (size 15 to 20)
#    0.000    2.000    1.250    1.125    8.750    1.000 
#    0.000    1.875    0.000    0.000    0.000    0.000 
#    0.000    0.000    0.000    0.000    0.000    0.000 
#
# Total GULP energy -198290.157095 kJ/mol
# GULP energy per Si atom -12393.134818 kJ/mol
# Density = 2.068162 g / cm^3
# Si number density = 20.728795 Si / 1000 Ang^3
#
#
#
# Elastic Constant Matrix: (Units=GPa)
#
#
# Indices 1 2 3 4 5 6 
#
# 1 98.9627 30.9793 15.8242 6.4536 -15.6136 2.9267
# 2 30.9793 93.9470 12.2584 -10.3051 -11.4618 13.6091
# 3 15.8242 12.2584 44.2114 -1.3465 -13.1306 -3.6564
# 4 6.4536 -10.3051 -1.3465 23.5796 8.8680 -7.5454
# 5 -15.6136 -11.4618 -13.1306 8.8680 33.8076 2.8032
# 6 2.9267 13.6091 -3.6564 -7.5454 2.8032 28.0357
#
#
#
# Elastic Compliance Matrix: (Units=1/GPa)
#
#
# Indices 1 2 3 4 5 6 
#
# 1 0.013375 -0.003874 -0.002276 -0.008854 0.006538 -0.002849
# 2 -0.003874 0.013668 -0.002369 0.004758 0.001122 -0.005371
# 3 -0.002276 -0.002369 0.026905 -0.000852 0.008502 0.003817
# 4 -0.008854 0.004758 -0.000852 0.059603 -0.019812 0.016526
# 5 0.006538 0.001122 0.008502 -0.019812 0.042280 -0.009678
# 6 -0.002849 -0.005371 0.003817 0.016526 -0.009678 0.044487
#
#
# Mechanical properties :
#
#
# Convention : Reuss Voigt Hill
#
# Bulk Modulus (GPa) = 27.09423 39.47164 33.28294
# Shear Modulus (GPa) = 21.77135 28.95519 25.36327
#
# Velocity S-wave (km/s) = 3.24434 3.74151 3.50176
# Velocity P-wave (km/s) = 5.20899 6.14398 5.69570
#
# Compressibility (1/GPa) = 0.03690823
#
# Stress axis : x y z
#
# Youngs Moduli (GPa) = 74.76728 73.16525 37.16757
#
# Poissons Ratio (x) = 0.28345 0.08461
# Poissons Ratio (y) = 0.28966 0.08805
# Poissons Ratio (z) = 0.17020 0.17334
#
# Static dielectric constant tensor:
#      x y z
#    x 3.846810 0.433890 -0.513650 
#    y 0.433890 3.684480 -0.122370 
#    z -0.513650 -0.122370 4.134310 
# 
# 
# High freq. dielectric constant tensor:
#      x y z
#    x 1.806320 0.031570 -0.021180 
#    y 0.031570 1.798880 0.005280 
#    z -0.021180 0.005280 1.821130 
# 
# From -- ./inp_files/186052.got.cif
#   From: 2010.06.25/outbox.cif.g09.slc.cpg/sg2_94_cif.got.tgz:186052.got - 2010.06.27 13:26:56.
