data_PCOD8006010
_publ_section_title
;
Structure prediction by ZEFSAII (Michael W. Deem and Ramdas Pophale) SiO2 
 PCOD8006010
Probable space group: P -1
;
_chemical_formula_sum "Si O2"
_cell_formula_units_Z 16
_cell_length_a 17.286476
_cell_length_b 13.413801
_cell_length_c 7.946213
_cell_angle_alpha 83.620201
_cell_angle_beta 106.722892
_cell_angle_gamma 154.720653
_cell_volume 701.708534
_symmetry_space_group_name_H-M "P -1"
_symmetry_group_IT_number 2
_symmetry_cell_setting 'triclinic'
loop_
_space_group_symop_operation_xyz
x,y,z
-x,-y,-z
loop_
_atom_site_type_symbol
_atom_site_label
_atom_site_fract_x
_atom_site_fract_y
_atom_site_fract_z
Si Si1 0.923563 0.017605 0.008685
Si Si2 0.400700 0.051365 0.064988
Si Si3 0.814641 0.352504 0.832098
Si Si4 0.707161 0.429342 0.937636
Si Si5 0.355429 0.151518 0.595913
Si Si6 0.077528 0.673673 0.641040
Si Si7 0.440008 0.287160 0.250531
Si Si8 0.190175 0.159667 0.661523
O O1 0.075669 0.274034 0.988208
O O2 0.883634 0.978479 0.189626
O O3 0.714686 0.796750 0.823715
O O4 0.000000 0.000000 0.000000
O O5 0.635245 0.318421 0.102799
O O6 0.260765 0.859196 0.852761
O O7 0.350117 0.103732 0.097119
O O8 0.371291 0.938350 0.220580
O O9 0.728001 0.349564 0.870875
O O10 0.876887 0.464278 0.666606
O O11 0.000000 0.500000 0.000000
O O12 0.535966 0.312392 0.790202
O O13 0.450454 0.254424 0.450167
O O14 0.292213 0.192583 0.598959
O O15 0.151425 0.852198 0.541997
O O16 0.000000 0.500000 0.500000
O O17 0.650390 0.569398 0.259643
O O18 0.000000 0.000000 0.500000
#
# Coordination Sequence:
#
# PCOD8006010 Si02
#       8
#     2   2   2   2   2   2   2   2
#     4  12  23  39  65  98 129 171 220 271 327 388
#     4  10  22  40  63  95 128 167 218 270 322 386
#     4  10  20  39  64  93 127 171 218 267 320 384
#     4  11  22  41  64  92 131 173 214 270 329 388
#     4  11  24  43  63  95 133 174 221 271 328 394
#     4  10  21  40  65  93 129 173 216 268 326 386
#     4  12  24  43  68  97 131 172 220 274 326 391
#     4  12  25  45  68  97 134 175 217 271 331 393
#
# _framework density 22.801489
#
# number of rings (size 3 to 8) (size 9 to 14) (size 15 to 20)
#    0.000    1.000    0.000    8.625    0.000    1.000 
#    0.000   10.625    0.000    0.000    0.000    0.000 
#    0.000    0.000    0.000    0.000    0.000    0.000 
#
# Total GULP energy -198240.823312 kJ/mol
# GULP energy per Si atom -12390.051457 kJ/mol
# Density = 2.274959 g / cm^3
# Si number density = 22.801489 Si / 1000 Ang^3
#
#
#
# Elastic Constant Matrix: (Units=GPa)
#
#
# Indices 1 2 3 4 5 6 
#
# 1 129.1581 25.4725 7.0039 14.5941 -3.8254 4.0937
# 2 25.4725 192.8801 31.1658 -17.6834 -2.2843 2.2763
# 3 7.0039 31.1658 36.5792 7.4709 -7.2334 5.5878
# 4 14.5941 -17.6834 7.4709 40.4058 5.1678 -9.1275
# 5 -3.8254 -2.2843 -7.2334 5.1678 37.2911 1.4077
# 6 4.0937 2.2763 5.5878 -9.1275 1.4077 41.3708
#
#
#
# Elastic Compliance Matrix: (Units=1/GPa)
#
#
# Indices 1 2 3 4 5 6 
#
# 1 0.008694 -0.001809 0.001577 -0.004941 0.001852 -0.002127
# 2 -0.001809 0.007178 -0.007768 0.006013 -0.002170 0.002234
# 3 0.001577 -0.007768 0.039878 -0.014546 0.009764 -0.008656
# 4 -0.004941 0.006013 -0.014546 0.035203 -0.008222 0.010169
# 5 0.001852 -0.002170 0.009764 -0.008222 0.030066 -0.004220
# 6 -0.002127 0.002234 -0.008656 0.010169 -0.004220 0.027816
#
#
# Mechanical properties :
#
#
# Convention : Reuss Voigt Hill
#
# Bulk Modulus (GPa) = 25.15696 53.98908 39.57302
# Shear Modulus (GPa) = 28.07653 43.47854 35.77753
#
# Velocity S-wave (km/s) = 3.51286 4.37146 3.96547
# Velocity P-wave (km/s) = 5.24505 7.01490 6.19352
#
# Compressibility (1/GPa) = 0.03975043
#
# Stress axis : x y z
#
# Youngs Moduli (GPa) = 115.01887 139.31906 25.07640
#
# Poissons Ratio (x) = 0.25201 -0.03954
# Poissons Ratio (y) = 0.20806 0.19478
# Poissons Ratio (z) = -0.18134 1.08218
#
# Static dielectric constant tensor:
#      x y z
#    x 3.799440 0.403670 -0.069290 
#    y 0.403670 4.721340 -0.574530 
#    z -0.069290 -0.574530 3.978940 
# 
# 
# High freq. dielectric constant tensor:
#      x y z
#    x 1.905100 0.001270 -0.009300 
#    y 0.001270 1.938420 -0.020490 
#    z -0.009300 -0.020490 1.868780 
# 
# From -- ./inp_files/307591.got.cif
#   From: 2010.06.25/outbox.cif.g09.slc.cpg/sg2_154_cif.got.tgz:307591.got - 2010.06.27 13:26:56.
