data_PCOD8006927
_publ_section_title
;
Structure prediction by ZEFSAII (Michael W. Deem and Ramdas Pophale) SiO2 
 PCOD8006927
Probable space group: P -1
;
_chemical_formula_sum "Si O2"
_cell_formula_units_Z 16
_cell_length_a 14.899982
_cell_length_b 9.712714
_cell_length_c 8.424459
_cell_angle_alpha 49.130023
_cell_angle_beta 87.867974
_cell_angle_gamma 66.021881
_cell_volume 794.887228
_symmetry_space_group_name_H-M "P -1"
_symmetry_group_IT_number 2
_symmetry_cell_setting 'triclinic'
loop_
_space_group_symop_operation_xyz
x,y,z
-x,-y,-z
loop_
_atom_site_type_symbol
_atom_site_label
_atom_site_fract_x
_atom_site_fract_y
_atom_site_fract_z
Si Si1 0.987302 0.576998 0.704843
Si Si2 0.121584 0.201546 0.763074
Si Si3 0.859591 0.469065 0.015960
Si Si4 0.659006 0.613285 0.093109
Si Si5 0.546652 0.027212 0.316967
Si Si6 0.714976 0.650680 0.409749
Si Si7 0.788591 0.274727 0.919818
Si Si8 0.619663 0.330098 0.115969
O O1 0.945265 0.737872 0.440046
O O2 0.052335 0.337881 0.813228
O O3 0.060018 0.632344 0.766212
O O4 0.892297 0.602047 0.799370
O O5 0.218466 0.236988 0.708380
O O6 0.158187 0.959350 0.979596
O O7 0.745431 0.634123 0.969080
O O8 0.856897 0.285295 0.053011
O O9 0.680127 0.599510 0.286718
O O10 0.669805 0.387758 0.216952
O O11 0.545263 0.809979 0.914758
O O12 0.610231 0.802798 0.397437
O O13 0.500000 0.000000 0.500000
O O14 0.629019 0.102831 0.298922
O O15 0.782178 0.432847 0.664020
O O16 0.673445 0.341964 0.940233
O O17 0.500000 0.500000 0.000000
#
# Coordination Sequence:
#
# PCOD8006927 Si02
#       8
#     2   2   2   2   2   2   2   2
#     4  10  22  41  65  92 124 166 212 263 310 370
#     4  11  23  42  65  91 126 167 208 260 318 365
#     4  10  20  40  65  93 126 162 212 259 309 367
#     4  10  22  39  64  92 128 164 208 258 305 374
#     4  11  22  40  68  93 126 169 202 253 316 369
#     4  12  22  43  61  96 129 163 206 257 311 372
#     4  11  23  40  65  89 127 167 204 260 310 369
#     4   9  19  39  60  91 121 158 208 247 302 372
#
# _framework density 20.128641999999999
#
# number of rings (size 3 to 8) (size 9 to 14) (size 15 to 20)
#    0.000    1.500    3.750    2.625    0.000    1.000 
#    2.250    8.125    0.000    0.000    0.000    0.000 
#    0.000    0.000    0.000    0.000    0.000    0.000 
#
# Total GULP energy -198371.136715 kJ/mol
# GULP energy per Si atom -12398.196045 kJ/mol
# Density = 2.008283 g / cm^3
# Si number density = 20.128642 Si / 1000 Ang^3
#
#
#
# Elastic Constant Matrix: (Units=GPa)
#
#
# Indices 1 2 3 4 5 6 
#
# 1 97.0868 43.1234 32.2463 4.7474 -0.8978 6.5563
# 2 43.1234 128.0282 57.4050 7.3945 4.6833 6.0323
# 3 32.2463 57.4050 82.4863 1.9263 2.6738 18.4819
# 4 4.7474 7.3945 1.9263 35.3236 2.0159 2.5670
# 5 -0.8978 4.6833 2.6738 2.0159 26.8801 3.5890
# 6 6.5563 6.0323 18.4819 2.5670 3.5890 36.3088
#
#
#
# Elastic Compliance Matrix: (Units=1/GPa)
#
#
# Indices 1 2 3 4 5 6 
#
# 1 0.012639 -0.002978 -0.002793 -0.000969 0.001349 -0.000431
# 2 -0.002978 0.012459 -0.008050 -0.001880 -0.001711 0.002867
# 3 -0.002793 -0.008050 0.020757 0.001555 0.000311 -0.008865
# 4 -0.000969 -0.001880 0.001555 0.029007 -0.001743 -0.002183
# 5 0.001349 -0.001711 0.000311 -0.001743 0.038148 -0.003765
# 6 -0.000431 0.002867 -0.008865 -0.002183 -0.003765 0.032182
#
#
# Mechanical properties :
#
#
# Convention : Reuss Voigt Hill
#
# Bulk Modulus (GPa) = 54.90326 63.68342 59.29334
# Shear Modulus (GPa) = 27.94771 31.35759 29.65265
#
# Velocity S-wave (km/s) = 3.73024 3.95125 3.84234
# Velocity P-wave (km/s) = 6.77409 7.24731 7.01469
#
# Compressibility (1/GPa) = 0.01821386
#
# Stress axis : x y z
#
# Youngs Moduli (GPa) = 79.11712 80.26188 48.17627
#
# Poissons Ratio (x) = 0.23902 0.13457
# Poissons Ratio (y) = 0.23561 0.38780
# Poissons Ratio (z) = 0.22100 0.64608
#
# Static dielectric constant tensor:
#      x y z
#    x 4.110330 0.128180 -0.026700 
#    y 0.128180 3.976760 -0.020920 
#    z -0.026700 -0.020920 3.393660 
# 
# 
# High freq. dielectric constant tensor:
#      x y z
#    x 1.804200 -0.002750 -0.003610 
#    y -0.002750 1.796170 0.010010 
#    z -0.003610 0.010010 1.753650 
# 
# From -- ./inp_files/214679.got.cif
#   From: 2010.06.25/outbox.cif.g09.slc.cpg/sg2_108_cif.got.tgz:214679.got - 2010.06.27 13:26:56.
