data_PCOD8006937
_publ_section_title
;
Structure prediction by ZEFSAII (Michael W. Deem and Ramdas Pophale) SiO2 
 PCOD8006937
Probable space group: P -1
;
_chemical_formula_sum "Si O2"
_cell_formula_units_Z 16
_cell_length_a 17.805821
_cell_length_b 8.983507
_cell_length_c 9.673235
_cell_angle_alpha 100.907977
_cell_angle_beta 144.692280
_cell_angle_gamma 63.239573
_cell_volume 749.396862
_symmetry_space_group_name_H-M "P -1"
_symmetry_group_IT_number 2
_symmetry_cell_setting 'triclinic'
loop_
_space_group_symop_operation_xyz
x,y,z
-x,-y,-z
loop_
_atom_site_type_symbol
_atom_site_label
_atom_site_fract_x
_atom_site_fract_y
_atom_site_fract_z
Si Si1 0.630763 0.085898 0.916304
Si Si2 0.904807 0.806287 0.940419
Si Si3 0.176572 0.478836 0.209393
Si Si4 0.413404 0.941435 0.623037
Si Si5 0.429003 0.735030 0.862369
Si Si6 0.259602 0.552476 0.626663
Si Si7 0.966735 0.873552 0.332626
Si Si8 0.479209 0.342403 0.484223
O O1 0.599885 0.198003 0.748874
O O2 0.496664 0.048004 0.735844
O O3 0.625251 0.206858 0.052824
O O4 0.800748 0.908446 0.135420
O O5 0.877311 0.656049 0.939740
O O6 0.759933 0.952126 0.666925
O O7 0.949768 0.902022 0.144099
O O8 0.047662 0.688565 0.031511
O O9 0.222629 0.448554 0.436897
O O10 0.311144 0.437475 0.304529
O O11 0.406056 0.899514 0.765411
O O12 0.509550 0.756296 0.657396
O O13 0.320597 0.659829 0.645491
O O14 0.607312 0.584770 0.096266
O O15 0.113460 0.673345 0.528682
O O16 0.000000 0.000000 0.500000
O O17 0.500000 0.500000 0.500000
#
# Coordination Sequence:
#
# PCOD8006937 Si02
#       8
#     2   2   2   2   2   2   2   2
#     4  12  23  44  67  92 135 173 217 272 322 392
#     4  10  21  40  67  95 131 167 218 275 324 385
#     4  10  20  40  65  94 128 175 214 268 331 381
#     4  12  24  41  67 102 128 170 225 267 328 386
#     4  11  23  40  67  94 130 176 215 265 325 391
#     4  10  21  40  64  91 132 169 218 264 324 387
#     4  11  22  39  65  93 124 178 213 265 332 383
#     4  12  24  40  64  98 132 171 221 267 326 389
#
# _framework density 21.350501999999999
#
# number of rings (size 3 to 8) (size 9 to 14) (size 15 to 20)
#    0.000    1.000    5.000    2.250    1.750    0.000 
#    2.250    3.750    0.000    0.000    0.000    0.000 
#    0.000    0.000    0.000    0.000    0.000    0.000 
#
# Total GULP energy -198226.816583 kJ/mol
# GULP energy per Si atom -12389.176036 kJ/mol
# Density = 2.130191 g / cm^3
# Si number density = 21.350502 Si / 1000 Ang^3
#
#
#
# Elastic Constant Matrix: (Units=GPa)
#
#
# Indices 1 2 3 4 5 6 
#
# 1 55.1366 22.0082 36.0453 -21.0185 13.7688 -6.5309
# 2 22.0082 76.7361 29.8845 -2.4894 2.4289 -6.6996
# 3 36.0453 29.8845 111.1097 -14.0995 21.7669 -2.1077
# 4 -21.0185 -2.4894 -14.0995 37.1940 -12.5386 5.1355
# 5 13.7688 2.4289 21.7669 -12.5386 37.2683 -16.6143
# 6 -6.5309 -6.6996 -2.1077 5.1355 -16.6143 38.1066
#
#
#
# Elastic Compliance Matrix: (Units=1/GPa)
#
#
# Indices 1 2 3 4 5 6 
#
# 1 0.030222 -0.005689 -0.006108 0.013489 -0.002218 0.001057
# 2 -0.005689 0.016151 -0.003525 -0.002681 0.003862 0.003715
# 3 -0.006108 -0.003525 0.013191 -0.000558 -0.007187 -0.003995
# 4 0.013489 -0.002681 -0.000558 0.036783 0.008055 0.000364
# 5 -0.002218 0.003862 -0.007187 0.008055 0.041930 0.017097
# 6 0.001057 0.003715 -0.003995 0.000364 0.017097 0.034260
#
#
# Mechanical properties :
#
#
# Convention : Reuss Voigt Hill
#
# Bulk Modulus (GPa) = 34.57770 46.53981 40.55875
# Shear Modulus (GPa) = 23.49406 32.85006 28.17206
#
# Velocity S-wave (km/s) = 3.32082 3.92677 3.63644
# Velocity P-wave (km/s) = 5.56186 6.51188 6.05553
#
# Compressibility (1/GPa) = 0.02892038
#
# Stress axis : x y z
#
# Youngs Moduli (GPa) = 33.08892 61.91533 75.80952
#
# Poissons Ratio (x) = 0.35223 0.46304
# Poissons Ratio (y) = 0.18824 0.26721
# Poissons Ratio (z) = 0.20210 0.21824
#
# Static dielectric constant tensor:
#      x y z
#    x 3.782880 -0.364370 0.359300 
#    y -0.364370 3.964460 0.085930 
#    z 0.359300 0.085930 4.147030 
# 
# 
# High freq. dielectric constant tensor:
#      x y z
#    x 1.816320 -0.033690 0.029380 
#    y -0.033690 1.842850 0.008980 
#    z 0.029380 0.008980 1.847640 
# 
# From -- ./inp_files/261487.got.cif
#   From: 2010.06.25/outbox.cif.g09.slc.cpg/sg2_131_cif.got.tgz:261487.got - 2010.06.27 13:26:56.
