data_PCOD8006729
_publ_section_title
;
Structure prediction by ZEFSAII (Michael W. Deem and Ramdas Pophale) SiO2 
 PCOD8006729
Probable space group: P -1
;
_chemical_formula_sum "Si O2"
_cell_formula_units_Z 16
_cell_length_a 9.666786
_cell_length_b 11.400971
_cell_length_c 22.414855
_cell_angle_alpha 43.993152
_cell_angle_beta 34.700940
_cell_angle_gamma 68.810680
_cell_volume 794.548714
_symmetry_space_group_name_H-M "P -1"
_symmetry_group_IT_number 2
_symmetry_cell_setting 'triclinic'
loop_
_space_group_symop_operation_xyz
x,y,z
-x,-y,-z
loop_
_atom_site_type_symbol
_atom_site_label
_atom_site_fract_x
_atom_site_fract_y
_atom_site_fract_z
Si Si1 0.571284 0.620147 0.869384
Si Si2 0.293361 0.332824 0.960251
Si Si3 0.836007 0.080890 0.856436
Si Si4 0.757015 0.501617 0.512517
Si Si5 0.791328 0.604210 0.596650
Si Si6 0.288408 0.816795 0.834374
Si Si7 0.840202 0.981094 0.503573
Si Si8 0.153072 0.102002 0.846150
O O1 0.487587 0.472428 0.896266
O O2 0.387703 0.718551 0.884916
O O3 0.500000 0.500000 0.000000
O O4 0.929282 0.790643 0.689542
O O5 0.522010 0.398813 0.800269
O O6 0.032542 0.353562 0.021133
O O7 0.136661 0.092329 0.120762
O O8 0.065604 0.302035 0.665001
O O9 0.906158 0.095106 0.896371
O O10 0.500000 0.000000 0.000000
O O11 0.736864 0.581802 0.554155
O O12 0.420862 0.342995 0.668181
O O13 0.904679 0.375319 0.506350
O O14 0.805825 0.803999 0.538990
O O15 0.518140 0.924342 0.657451
O O16 0.274332 0.984257 0.814020
O O17 0.000000 0.000000 0.500000
O O18 0.000000 0.000000 0.000000
#
# Coordination Sequence:
#
# PCOD8006729 Si02
#       8
#     2   2   2   2   2   2   2   2
#     4  11  24  39  63  97 125 160 214 266 320 367
#     4  11  22  42  63  92 124 172 209 257 321 390
#     4  11  24  41  64  95 134 165 211 269 322 377
#     4  11  23  40  65  95 131 171 211 274 319 379
#     4  11  22  38  69  91 128 169 223 255 328 383
#     4  10  22  42  68  86 127 168 211 258 315 384
#     4  10  20  40  63  92 121 168 211 259 310 387
#     4  11  25  44  67  98 129 170 221 259 325 391
#
# _framework density 20.137217
#
# number of rings (size 3 to 8) (size 9 to 14) (size 15 to 20)
#    0.000    1.250    3.750    3.750    3.500    1.000 
#    0.000    5.625    0.000    0.000    0.000    0.000 
#    0.000    0.000    0.000    0.000    0.000    0.000 
#
# Total GULP energy -198268.115279 kJ/mol
# GULP energy per Si atom -12391.757205 kJ/mol
# Density = 2.009138 g / cm^3
# Si number density = 20.137217 Si / 1000 Ang^3
#
#
#
# Elastic Constant Matrix: (Units=GPa)
#
#
# Indices 1 2 3 4 5 6 
#
# 1 130.7988 52.2525 66.8225 1.9484 2.4209 6.9219
# 2 52.2525 122.2565 63.4405 2.9463 0.7999 12.4655
# 3 66.8225 63.4405 152.4369 -4.0907 4.5023 8.7717
# 4 1.9484 2.9463 -4.0907 37.5232 -0.2767 1.5213
# 5 2.4209 0.7999 4.5023 -0.2767 42.0916 2.1839
# 6 6.9219 12.4655 8.7717 1.5213 2.1839 21.9186
#
#
#
# Elastic Compliance Matrix: (Units=1/GPa)
#
#
# Indices 1 2 3 4 5 6 
#
# 1 0.010520 -0.002617 -0.003516 -0.000711 -0.000165 -0.000361
# 2 -0.002617 0.011552 -0.003452 -0.000967 0.000519 -0.004347
# 3 -0.003516 -0.003452 0.009647 0.001533 -0.000711 -0.000823
# 4 -0.000711 -0.000967 0.001533 0.027002 0.000162 -0.001729
# 5 -0.000165 0.000519 -0.000711 0.000162 0.023957 -0.002357
# 6 -0.000361 -0.004347 -0.000823 -0.001729 -0.002357 0.048894
#
#
# Mechanical properties :
#
#
# Convention : Reuss Voigt Hill
#
# Bulk Modulus (GPa) = 79.67798 85.61367 82.64582
# Shear Modulus (GPa) = 32.27401 35.17179 33.72290
#
# Velocity S-wave (km/s) = 4.00772 4.18378 4.09669
# Velocity P-wave (km/s) = 7.81468 8.12072 7.96917
#
# Compressibility (1/GPa) = 0.01255052
#
# Stress axis : x y z
#
# Youngs Moduli (GPa) = 95.06111 86.56334 103.65495
#
# Poissons Ratio (x) = 0.22650 0.36443
# Poissons Ratio (y) = 0.24874 0.35781
# Poissons Ratio (z) = 0.33422 0.29881
#
# Static dielectric constant tensor:
#      x y z
#    x 3.661760 0.027710 0.182010 
#    y 0.027710 3.628300 -0.086300 
#    z 0.182010 -0.086300 2.946320 
# 
# 
# High freq. dielectric constant tensor:
#      x y z
#    x 1.777790 0.008250 -0.011380 
#    y 0.008250 1.790090 -0.006760 
#    z -0.011380 -0.006760 1.803390 
# 
# From -- ./inp_files/589529.got.cif
#   From: 2010.06.25/outbox.cif.g09.slc.cpg/sg2_295_cif.got.tgz:589529.got - 2010.06.27 13:26:56.
