data_PCOD8006699
_publ_section_title
;
Structure prediction by ZEFSAII (Michael W. Deem and Ramdas Pophale) SiO2 
 PCOD8006699
Probable space group: P -1
;
_chemical_formula_sum "Si O2"
_cell_formula_units_Z 16
_cell_length_a 9.430647
_cell_length_b 8.975386
_cell_length_c 16.152087
_cell_angle_alpha 40.947750
_cell_angle_beta 60.385772
_cell_angle_gamma 76.850702
_cell_volume 753.042603
_symmetry_space_group_name_H-M "P -1"
_symmetry_group_IT_number 2
_symmetry_cell_setting 'triclinic'
loop_
_space_group_symop_operation_xyz
x,y,z
-x,-y,-z
loop_
_atom_site_type_symbol
_atom_site_label
_atom_site_fract_x
_atom_site_fract_y
_atom_site_fract_z
Si Si1 0.798341 0.804061 0.894758
Si Si2 0.822550 0.056128 0.514733
Si Si3 0.588895 0.000136 0.752746
Si Si4 0.708311 0.494579 0.346668
Si Si5 0.071847 0.181919 0.975439
Si Si6 0.752738 0.263443 0.114803
Si Si7 0.157606 0.013414 0.644439
Si Si8 0.342260 0.439615 0.491507
O O1 0.644247 0.896141 0.865061
O O2 0.957830 0.895027 0.749273
O O3 0.850619 0.914909 0.925013
O O4 0.737730 0.521911 0.034563
O O5 0.832040 0.331815 0.403343
O O6 0.758513 0.987062 0.469302
O O7 0.689682 0.926584 0.676673
O O8 0.000000 0.000000 0.500000
O O9 0.393503 0.876165 0.845633
O O10 0.626953 0.279753 0.639040
O O11 0.772699 0.628260 0.188245
O O12 0.510621 0.360642 0.448083
O O13 0.708102 0.657814 0.359444
O O14 0.927926 0.300258 0.999386
O O15 0.000000 0.000000 0.000000
O O16 0.750616 0.118405 0.260910
O O17 0.191133 0.291416 0.540658
#
# Coordination Sequence:
#
# PCOD8006699 Si02
#       8
#     2   2   2   2   2   2   2   2
#     4  11  23  41  62  92 132 168 209 259 316 377
#     4  11  22  38  61  93 125 161 203 269 311 369
#     4  11  24  43  64  92 136 165 210 259 326 371
#     4  10  20  40  63  88 125 161 214 251 311 374
#     4  11  22  39  65  92 123 169 216 257 302 381
#     4  11  23  41  66  91 124 176 212 258 307 378
#     4  11  21  40  65  95 124 160 222 255 319 375
#     4  10  22  40  66  93 124 167 203 266 316 377
#
# _framework density 21.247136999999999
#
# number of rings (size 3 to 8) (size 9 to 14) (size 15 to 20)
#    0.000    1.250    1.250    7.875    0.000    3.500 
#    2.250    2.500    0.000    0.000    0.000    0.000 
#    0.000    0.000    0.000    0.000    0.000    0.000 
#
# Total GULP energy -198298.431908 kJ/mol
# GULP energy per Si atom -12393.651994 kJ/mol
# Density = 2.119878 g / cm^3
# Si number density = 21.247137 Si / 1000 Ang^3
#
#
#
# Elastic Constant Matrix: (Units=GPa)
#
#
# Indices 1 2 3 4 5 6 
#
# 1 122.3880 39.6826 47.2249 0.5914 15.1454 3.1871
# 2 39.6826 92.9404 52.4732 3.5418 5.1170 8.4582
# 3 47.2249 52.4732 90.0341 14.3581 2.1974 5.1290
# 4 0.5914 3.5418 14.3581 42.5700 3.0686 -4.3566
# 5 15.1454 5.1170 2.1974 3.0686 33.9964 0.8658
# 6 3.1871 8.4582 5.1290 -4.3566 0.8658 38.0922
#
#
#
# Elastic Compliance Matrix: (Units=1/GPa)
#
#
# Indices 1 2 3 4 5 6 
#
# 1 0.011278 -0.001795 -0.005120 0.002103 -0.004625 0.000490
# 2 -0.001795 0.016769 -0.008918 0.001504 -0.001228 -0.002173
# 3 -0.005120 -0.008918 0.019975 -0.006243 0.002923 -0.001061
# 4 0.002103 0.001504 -0.006243 0.026018 -0.003194 0.003379
# 5 -0.004625 -0.001228 0.002923 -0.003194 0.031781 -0.000821
# 6 0.000490 -0.002173 -0.001061 0.003379 -0.000821 0.027242
#
#
# Mechanical properties :
#
#
# Convention : Reuss Voigt Hill
#
# Bulk Modulus (GPa) = 61.13814 64.90266 63.02040
# Shear Modulus (GPa) = 29.38092 33.99718 31.68905
#
# Velocity S-wave (km/s) = 3.72266 4.00444 3.86612
# Velocity P-wave (km/s) = 6.87858 7.21066 7.04658
#
# Compressibility (1/GPa) = 0.01635640
#
# Stress axis : x y z
#
# Youngs Moduli (GPa) = 88.67095 59.63443 50.06356
#
# Poissons Ratio (x) = 0.10702 0.25632
# Poissons Ratio (y) = 0.15913 0.44646
# Poissons Ratio (z) = 0.45398 0.53181
#
# Static dielectric constant tensor:
#      x y z
#    x 3.884910 0.047920 -0.010380 
#    y 0.047920 3.902860 0.197040 
#    z -0.010380 0.197040 3.972800 
# 
# 
# High freq. dielectric constant tensor:
#      x y z
#    x 1.827600 0.004970 -0.000540 
#    y 0.004970 1.831610 0.009970 
#    z -0.000540 0.009970 1.831330 
# 
# From -- ./inp_files/244397.got.cif
#   From: 2010.06.25/outbox.cif.g09.slc.cpg/sg2_123_cif.got.tgz:244397.got - 2010.06.27 13:26:56.
