data_PCOD8006709
_publ_section_title
;
Structure prediction by ZEFSAII (Michael W. Deem and Ramdas Pophale) SiO2 
 PCOD8006709
Probable space group: P -1
;
_chemical_formula_sum "Si O2"
_cell_formula_units_Z 16
_cell_length_a 15.031002
_cell_length_b 12.974195
_cell_length_c 8.171799
_cell_angle_alpha 104.784098
_cell_angle_beta 127.868988
_cell_angle_gamma 40.482606
_cell_volume 743.783400
_symmetry_space_group_name_H-M "P -1"
_symmetry_group_IT_number 2
_symmetry_cell_setting 'triclinic'
loop_
_space_group_symop_operation_xyz
x,y,z
-x,-y,-z
loop_
_atom_site_type_symbol
_atom_site_label
_atom_site_fract_x
_atom_site_fract_y
_atom_site_fract_z
Si Si1 0.531678 0.226649 0.774427
Si Si2 0.224847 0.330448 0.334036
Si Si3 0.032959 0.191832 0.438596
Si Si4 0.667393 0.187953 0.269761
Si Si5 0.102337 0.365186 0.710353
Si Si6 0.253209 0.072066 0.346516
Si Si7 0.652330 0.427665 0.261971
Si Si8 0.419598 0.226039 0.193542
O O1 0.371186 0.256598 0.610543
O O2 0.431789 0.409405 0.666602
O O3 0.693037 0.065598 0.769180
O O4 0.617467 0.186786 0.030645
O O5 0.232398 0.196509 0.271656
O O6 0.280591 0.348474 0.237019
O O7 0.019685 0.522553 0.220363
O O8 0.119740 0.227364 0.644602
O O9 0.062920 0.186168 0.273759
O O10 0.819601 0.341736 0.301563
O O11 0.138072 0.008345 0.542340
O O12 0.701572 0.289130 0.373988
O O13 0.502845 0.274643 0.239879
O O14 0.000000 0.500000 0.500000
O O15 0.309115 0.252201 0.931506
O O16 0.409796 0.971592 0.623515
O O17 0.500000 0.500000 0.000000
#
# Coordination Sequence:
#
# PCOD8006709 Si02
#       8
#     2   2   2   2   2   2   2   2
#     4  10  20  40  63  90 121 165 206 247 312 359
#     4  11  21  39  59  92 134 162 198 252 308 377
#     4  11  23  40  63  91 123 159 211 251 310 362
#     4  10  23  39  66  87 122 164 209 256 295 368
#     4  12  23  37  62  92 129 167 202 252 306 376
#     4  10  23  39  62  93 134 157 196 258 309 376
#     4  10  22  42  67  86 117 163 213 256 302 361
#     4  10  23  38  58  94 125 162 203 246 311 363
#
# _framework density 21.511641000000001
#
# number of rings (size 3 to 8) (size 9 to 14) (size 15 to 20)
#    0.000    1.500    2.500    3.000    5.250    1.000 
#    0.000    8.125    0.000    0.000    0.000    0.000 
#    0.000    0.000    0.000    0.000    0.000    0.000 
#
# Total GULP energy -198299.058058 kJ/mol
# GULP energy per Si atom -12393.691129 kJ/mol
# Density = 2.146268 g / cm^3
# Si number density = 21.511641 Si / 1000 Ang^3
#
#
#
# Elastic Constant Matrix: (Units=GPa)
#
#
# Indices 1 2 3 4 5 6 
#
# 1 120.2582 59.9092 11.8252 14.3098 0.3774 -9.7977
# 2 59.9092 144.0389 -2.4435 20.2418 -4.8503 2.4477
# 3 11.8252 -2.4435 51.0120 4.7481 -2.9878 -5.4180
# 4 14.3098 20.2418 4.7481 21.0309 0.2016 1.0401
# 5 0.3774 -4.8503 -2.9878 0.2016 27.6172 -4.2449
# 6 -9.7977 2.4477 -5.4180 1.0401 -4.2449 38.8361
#
#
#
# Elastic Compliance Matrix: (Units=1/GPa)
#
#
# Indices 1 2 3 4 5 6 
#
# 1 0.011327 -0.004386 -0.002290 -0.003101 -0.000717 0.002819
# 2 -0.004386 0.009863 0.002139 -0.006959 0.001915 -0.001034
# 3 -0.002290 0.002139 0.021221 -0.005458 0.003164 0.002740
# 4 -0.003101 -0.006959 -0.005458 0.057760 -0.002644 -0.002941
# 5 -0.000717 0.001915 0.003164 -0.002644 0.037581 0.004318
# 6 0.002819 -0.001034 0.002740 -0.002941 0.004318 0.027459
#
#
# Mechanical properties :
#
#
# Convention : Reuss Voigt Hill
#
# Bulk Modulus (GPa) = 29.99616 50.43232 40.21424
# Shear Modulus (GPa) = 26.96941 33.89808 30.43375
#
# Velocity S-wave (km/s) = 3.54462 3.97394 3.76541
# Velocity P-wave (km/s) = 5.54318 6.67468 6.13507
#
# Compressibility (1/GPa) = 0.03333760
#
# Stress axis : x y z
#
# Youngs Moduli (GPa) = 88.28832 101.38744 47.12356
#
# Poissons Ratio (x) = 0.44470 0.10790
# Poissons Ratio (y) = 0.38724 -0.10081
# Poissons Ratio (z) = 0.20215 -0.21690
#
# Static dielectric constant tensor:
#      x y z
#    x 4.590780 0.304390 0.143000 
#    y 0.304390 4.461820 0.066090 
#    z 0.143000 0.066090 3.694070 
# 
# 
# High freq. dielectric constant tensor:
#      x y z
#    x 1.846370 -0.004930 0.004580 
#    y -0.004930 1.850140 -0.008330 
#    z 0.004580 -0.008330 1.823000 
# 
# From -- ./inp_files/200962.got.cif
#   From: 2010.06.25/outbox.cif.g09.slc.cpg/sg2_101_cif.got.tgz:200962.got - 2010.06.27 13:26:56.
