data_PCOD8006385
_publ_section_title
;
Structure prediction by ZEFSAII (Michael W. Deem and Ramdas Pophale) SiO2 
 PCOD8006385
Probable space group: P -1
;
_chemical_formula_sum "Si O2"
_cell_formula_units_Z 14
_cell_length_a 21.414193
_cell_length_b 12.224874
_cell_length_c 8.289490
_cell_angle_alpha 57.767851
_cell_angle_beta 138.878592
_cell_angle_gamma 152.856885
_cell_volume 579.248757
_symmetry_space_group_name_H-M "P -1"
_symmetry_group_IT_number 2
_symmetry_cell_setting 'triclinic'
loop_
_space_group_symop_operation_xyz
x,y,z
-x,-y,-z
loop_
_atom_site_type_symbol
_atom_site_label
_atom_site_fract_x
_atom_site_fract_y
_atom_site_fract_z
Si Si1 0.223815 0.559038 0.256208
Si Si2 0.787456 0.703417 0.746927
Si Si3 0.444696 0.360999 0.842276
Si Si4 0.918227 0.218731 0.451651
Si Si5 0.442145 0.922652 0.701545
Si Si6 0.112015 0.707430 0.326101
Si Si7 0.307110 0.534570 0.935835
O O1 0.194441 0.371941 0.310914
O O2 0.332940 0.706988 0.521204
O O3 0.340585 0.774408 0.169107
O O4 0.005716 0.362477 0.993121
O O5 0.659385 0.673192 0.467272
O O6 0.658840 0.470783 0.811043
O O7 0.000000 0.000000 0.000000
O O8 0.285741 0.060427 0.814601
O O9 0.500000 0.500000 0.000000
O O10 0.641216 0.526145 0.027950
O O11 0.874800 0.174919 0.593759
O O12 0.985526 0.434173 0.346802
O O13 0.077096 0.297476 0.655563
O O14 0.324926 0.915579 0.514284
O O15 0.444723 0.827050 0.936230
#
# Coordination Sequence:
#
# PCOD8006385 Si02
#       7
#     2   2   2   2   2   2   2
#     4  11  22  43  64 100 140 168 222 279 337 396
#     4  12  25  47  69  98 139 183 228 273 324 408
#     4  12  26  45  68 100 136 178 226 277 334 395
#     4  10  22  41  68 101 132 170 227 278 327 403
#     4  10  24  40  69 102 132 172 218 285 342 389
#     4  10  20  39  68  98 130 174 217 275 337 397
#     4  11  23  46  70  96 130 180 228 275 332 393
#
# _framework density 24.169236999999999
#
# number of rings (size 3 to 8) (size 9 to 14) (size 15 to 20)
#    0.000    1.143    2.857    2.571    2.000    2.286 
#    7.714    0.000    0.000    0.000    0.000    0.000 
#    0.000    0.000    0.000    0.000    0.000    0.000 
#
# Total GULP energy -173601.620317 kJ/mol
# GULP energy per Si atom -12400.115737 kJ/mol
# Density = 2.411423 g / cm^3
# Si number density = 24.169237 Si / 1000 Ang^3
#
#
#
# Elastic Constant Matrix: (Units=GPa)
#
#
# Indices 1 2 3 4 5 6 
#
# 1 141.2236 31.5777 54.3177 14.7860 34.1161 -23.9357
# 2 31.5777 69.5526 23.3485 3.8584 -6.0974 -5.8106
# 3 54.3177 23.3485 96.9918 2.2286 22.1209 -13.8464
# 4 14.7860 3.8584 2.2286 33.8274 -9.3098 -8.6734
# 5 34.1161 -6.0974 22.1209 -9.3098 39.3632 1.1917
# 6 -23.9357 -5.8106 -13.8464 -8.6734 1.1917 40.1796
#
#
#
# Elastic Compliance Matrix: (Units=1/GPa)
#
#
# Indices 1 2 3 4 5 6 
#
# 1 0.014696 -0.006185 -0.002461 -0.008055 -0.014390 0.005700
# 2 -0.006185 0.019241 -0.004159 0.003469 0.011557 -0.001929
# 3 -0.002461 -0.004159 0.014747 -0.000560 -0.007026 0.003102
# 4 -0.008055 0.003469 -0.000560 0.038171 0.016762 0.003253
# 5 -0.014390 0.011557 -0.007026 0.016762 0.047794 -0.007121
# 6 0.005700 -0.001929 0.003102 0.003253 -0.007121 0.029988
#
#
# Mechanical properties :
#
#
# Convention : Reuss Voigt Hill
#
# Bulk Modulus (GPa) = 43.33511 58.47287 50.90399
# Shear Modulus (GPa) = 25.26037 35.90898 30.58467
#
# Velocity S-wave (km/s) = 3.23638 3.85870 3.56116
# Velocity P-wave (km/s) = 5.65105 6.64066 6.16574
#
# Compressibility (1/GPa) = 0.02307598
#
# Stress axis : x y z
#
# Youngs Moduli (GPa) = 68.04614 51.97161 67.80845
#
# Poissons Ratio (x) = 0.32142 0.16685
# Poissons Ratio (y) = 0.42084 0.28203
# Poissons Ratio (z) = 0.16743 0.21616
#
# Static dielectric constant tensor:
#      x y z
#    x 4.652250 -0.156840 0.250810 
#    y -0.156840 4.496830 -0.170000 
#    z 0.250810 -0.170000 4.385050 
# 
# 
# High freq. dielectric constant tensor:
#      x y z
#    x 1.965790 -0.012870 0.015250 
#    y -0.012870 1.949680 -0.002600 
#    z 0.015250 -0.002600 1.961220 
# 
# From -- ./inp_files/283336.got.cif
#   From: 2010.06.25/outbox.cif.g09.slc.cpg/sg2_142_cif.got.tgz:283336.got - 2010.06.27 13:26:56.
