data_PCOD8006034
_publ_section_title
;
Structure prediction by ZEFSAII (Michael W. Deem and Ramdas Pophale) SiO2 
 PCOD8006034
Probable space group: P -1
;
_chemical_formula_sum "Si O2"
_cell_formula_units_Z 16
_cell_length_a 11.471165
_cell_length_b 9.031725
_cell_length_c 12.222990
_cell_angle_alpha 113.574966
_cell_angle_beta 134.710144
_cell_angle_gamma 54.262417
_cell_volume 730.372057
_symmetry_space_group_name_H-M "P -1"
_symmetry_group_IT_number 2
_symmetry_cell_setting 'triclinic'
loop_
_space_group_symop_operation_xyz
x,y,z
-x,-y,-z
loop_
_atom_site_type_symbol
_atom_site_label
_atom_site_fract_x
_atom_site_fract_y
_atom_site_fract_z
Si Si1 0.547424 0.704180 0.767119
Si Si2 0.824893 0.596794 0.107961
Si Si3 0.437291 0.439501 0.720056
Si Si4 0.186802 0.270343 0.464424
Si Si5 0.216872 0.644985 0.829066
Si Si6 0.688729 0.099978 0.912964
Si Si7 0.785075 0.741792 0.761264
Si Si8 0.674371 0.899601 0.265328
O O1 0.496301 0.538910 0.694144
O O2 0.616145 0.715376 0.693066
O O3 0.364579 0.895368 0.729714
O O4 0.715482 0.682322 0.950211
O O5 0.725121 0.490487 0.068602
O O6 0.819225 0.755400 0.232556
O O7 0.035634 0.454915 0.176697
O O8 0.251713 0.427178 0.560783
O O9 0.385106 0.564254 0.831189
O O10 0.605925 0.239863 0.797266
O O11 0.265964 0.176177 0.371133
O O12 0.259502 0.135398 0.575277
O O13 0.965340 0.354513 0.342281
O O14 0.186697 0.842266 0.909555
O O15 0.517900 0.110417 0.874538
O O16 0.816271 0.894530 0.894080
#
# Coordination Sequence:
#
# PCOD8006034 Si02
#       8
#     2   2   2   2   2   2   2   2
#     4  11  23  40  61  94 131 168 206 255 315 378
#     4  11  20  38  67  94 126 161 212 263 313 362
#     4  11  21  38  68  93 127 161 215 261 308 369
#     4  10  23  41  67  91 128 167 210 257 315 373
#     4  11  20  37  69  98 121 158 218 267 312 352
#     4  10  20  39  64  97 121 161 213 261 303 367
#     4  10  25  40  65  93 133 166 205 253 324 377
#     4  10  22  40  69  93 123 166 215 260 309 365
#
# _framework density 21.906642999999999
#
# number of rings (size 3 to 8) (size 9 to 14) (size 15 to 20)
#    0.000    1.500    3.750    2.250    1.750    8.000 
#    0.000    0.625   11.000    0.000    0.000    0.000 
#    0.000    0.000    0.000    0.000    0.000    0.000 
#
# Total GULP energy -198319.769695 kJ/mol
# GULP energy per Si atom -12394.985606 kJ/mol
# Density = 2.185678 g / cm^3
# Si number density = 21.906643 Si / 1000 Ang^3
#
#
#
# Elastic Constant Matrix: (Units=GPa)
#
#
# Indices 1 2 3 4 5 6 
#
# 1 72.5068 39.8223 16.7834 2.8863 0.9853 -7.5179
# 2 39.8223 138.8186 27.1599 7.4586 4.3963 -11.0150
# 3 16.7834 27.1599 77.0519 -1.2092 2.6189 -7.1481
# 4 2.8863 7.4586 -1.2092 26.6876 -0.8025 -5.1635
# 5 0.9853 4.3963 2.6189 -0.8025 26.1694 7.8882
# 6 -7.5179 -11.0150 -7.1481 -5.1635 7.8882 38.1602
#
#
#
# Elastic Compliance Matrix: (Units=1/GPa)
#
#
# Indices 1 2 3 4 5 6 
#
# 1 0.016790 -0.004262 -0.001995 -0.000393 -0.000241 0.001700
# 2 -0.004262 0.009116 -0.002122 -0.001948 -0.001663 0.001474
# 3 -0.001995 -0.002122 0.014459 0.001858 -0.001650 0.002295
# 4 -0.000393 -0.001948 0.001858 0.039111 -0.000162 0.005034
# 5 -0.000241 -0.001663 -0.001650 -0.000162 0.041506 -0.009438
# 6 0.001700 0.001474 0.002295 0.005034 -0.009438 0.030028
#
#
# Mechanical properties :
#
#
# Convention : Reuss Voigt Hill
#
# Bulk Modulus (GPa) = 42.36245 50.65649 46.50947
# Shear Modulus (GPa) = 28.46778 31.84421 30.15600
#
# Velocity S-wave (km/s) = 3.60878 3.81679 3.71424
# Velocity P-wave (km/s) = 6.06169 6.52670 6.29849
#
# Compressibility (1/GPa) = 0.02360581
#
# Stress axis : x y z
#
# Youngs Moduli (GPa) = 59.55986 109.69905 69.16098
#
# Poissons Ratio (x) = 0.46758 0.13797
# Poissons Ratio (y) = 0.25387 0.14677
# Poissons Ratio (z) = 0.11882 0.23279
#
# Static dielectric constant tensor:
#      x y z
#    x 3.827900 0.037310 -0.175580 
#    y 0.037310 3.979870 0.068070 
#    z -0.175580 0.068070 3.877340 
# 
# 
# High freq. dielectric constant tensor:
#      x y z
#    x 1.851100 -0.000620 -0.009420 
#    y -0.000620 1.856650 0.003510 
#    z -0.009420 0.003510 1.849260 
# 
# From -- ./inp_files/298418.got.cif
#   From: 2010.06.25/outbox.cif.g09.slc.cpg/sg2_150_cif.got.tgz:298418.got - 2010.06.27 13:26:56.
