data_PCOD8006083
_publ_section_title
;
Structure prediction by ZEFSAII (Michael W. Deem and Ramdas Pophale) SiO2 
 PCOD8006083
Probable space group: P -1
;
_chemical_formula_sum "Si O2"
_cell_formula_units_Z 16
_cell_length_a 9.171133
_cell_length_b 8.555069
_cell_length_c 12.533605
_cell_angle_alpha 98.198846
_cell_angle_beta 50.991009
_cell_angle_gamma 94.362553
_cell_volume 756.204594
_symmetry_space_group_name_H-M "P -1"
_symmetry_group_IT_number 2
_symmetry_cell_setting 'triclinic'
loop_
_space_group_symop_operation_xyz
x,y,z
-x,-y,-z
loop_
_atom_site_type_symbol
_atom_site_label
_atom_site_fract_x
_atom_site_fract_y
_atom_site_fract_z
Si Si1 0.807781 0.427964 0.619207
Si Si2 0.169499 0.191204 0.733676
Si Si3 0.181211 0.846551 0.750346
Si Si4 0.784195 0.913665 0.870306
Si Si5 0.064808 0.891497 0.362383
Si Si6 0.803125 0.219014 0.021396
Si Si7 0.546752 0.628059 0.903696
Si Si8 0.453039 0.647598 0.464483
O O1 0.835499 0.267809 0.657732
O O2 0.712198 0.562997 0.747314
O O3 0.679952 0.396409 0.574364
O O4 0.000000 0.500000 0.500000
O O5 0.350558 0.296245 0.667469
O O6 0.114756 0.151718 0.632239
O O7 0.214697 0.032616 0.763497
O O8 0.993010 0.277812 0.881692
O O9 0.177370 0.767305 0.859870
O O10 0.351905 0.779498 0.595419
O O11 0.981241 0.816663 0.782537
O O12 0.613950 0.792689 0.940620
O O13 0.786318 0.011621 0.767554
O O14 0.759377 0.038523 0.990323
O O15 0.000000 0.000000 0.500000
O O16 0.638699 0.339590 0.076055
O O17 0.500000 0.500000 0.000000
O O18 0.500000 0.500000 0.500000
#
# Coordination Sequence:
#
# PCOD8006083 Si02
#       8
#     2   2   2   2   2   2   2   2
#     4  12  25  43  64  93 129 166 206 256 313 371
#     4  10  22  41  62  90 124 158 205 260 307 362
#     4  10  21  41  66  91 119 158 206 258 307 364
#     4  10  22  41  64  91 123 161 208 260 308 365
#     4  10  20  39  65  91 121 166 208 254 309 367
#     4  10  22  42  65  91 121 161 206 256 307 369
#     4  12  25  41  62  93 127 165 207 255 310 371
#     4  12  25  40  60  92 127 165 203 253 311 369
#
# _framework density 21.158294999999999
#
# number of rings (size 3 to 8) (size 9 to 14) (size 15 to 20)
#    0.000    1.500    0.000    8.250    0.000    5.000 
#    0.000    1.875    0.000    0.000    0.000    0.000 
#    0.000    0.000    0.000    0.000    0.000    0.000 
#
# Total GULP energy -198445.999587 kJ/mol
# GULP energy per Si atom -12402.874974 kJ/mol
# Density = 2.111014 g / cm^3
# Si number density = 21.158295 Si / 1000 Ang^3
#
#
#
# Elastic Constant Matrix: (Units=GPa)
#
#
# Indices 1 2 3 4 5 6 
#
# 1 138.7846 56.0088 59.1027 -26.6404 -5.8960 -8.8737
# 2 56.0088 87.0272 32.0223 -21.1154 -10.5112 -13.5142
# 3 59.1027 32.0223 109.2815 -8.6041 -9.8477 5.0680
# 4 -26.6404 -21.1154 -8.6041 44.0862 -2.3991 -4.0077
# 5 -5.8960 -10.5112 -9.8477 -2.3991 42.4716 -1.6234
# 6 -8.8737 -13.5142 5.0680 -4.0077 -1.6234 44.8048
#
#
#
# Elastic Compliance Matrix: (Units=1/GPa)
#
#
# Indices 1 2 3 4 5 6 
#
# 1 0.012148 -0.004686 -0.004977 0.004283 -0.000312 0.001927
# 2 -0.004686 0.018120 -0.002197 0.006127 0.003880 0.005475
# 3 -0.004977 -0.002197 0.012624 -0.001806 0.001469 -0.003185
# 4 0.004283 0.006127 -0.001806 0.028552 0.003519 0.005582
# 5 -0.000312 0.003880 0.001469 0.003519 0.025084 0.002166
# 6 0.001927 0.005475 -0.003185 0.005582 0.002166 0.025290
#
#
# Mechanical properties :
#
#
# Convention : Reuss Voigt Hill
#
# Bulk Modulus (GPa) = 52.15967 69.92899 61.04433
# Shear Modulus (GPa) = 32.90956 38.80314 35.85635
#
# Velocity S-wave (km/s) = 3.94813 4.28710 4.12110
# Velocity P-wave (km/s) = 6.74457 7.59130 7.18043
#
# Compressibility (1/GPa) = 0.01917190
#
# Stress axis : x y z
#
# Youngs Moduli (GPa) = 82.31536 55.18640 79.21264
#
# Poissons Ratio (x) = 0.25861 0.39427
# Poissons Ratio (y) = 0.38573 0.17405
# Poissons Ratio (z) = 0.40971 0.12126
#
# Static dielectric constant tensor:
#      x y z
#    x 3.914120 -0.209930 -0.065110 
#    y -0.209930 3.892970 0.247060 
#    z -0.065110 0.247060 4.327590 
# 
# 
# High freq. dielectric constant tensor:
#      x y z
#    x 1.835540 -0.014880 -0.001100 
#    y -0.014880 1.829960 0.001690 
#    z -0.001100 0.001690 1.837830 
# 
# From -- ./inp_files/261811.got.cif
#   From: 2010.06.25/outbox.cif.g09.slc.cpg/sg2_131_cif.got.tgz:261811.got - 2010.06.27 13:26:56.
