data_PCOD8006779
_publ_section_title
;
Structure prediction by ZEFSAII (Michael W. Deem and Ramdas Pophale) SiO2 
 PCOD8006779
Probable space group: P -1
;
_chemical_formula_sum "Si O2"
_cell_formula_units_Z 16
_cell_length_a 14.369841
_cell_length_b 19.877275
_cell_length_c 8.502301
_cell_angle_alpha 100.932147
_cell_angle_beta 87.196727
_cell_angle_gamma 160.046601
_cell_volume 750.628384
_symmetry_space_group_name_H-M "P -1"
_symmetry_group_IT_number 2
_symmetry_cell_setting 'triclinic'
loop_
_space_group_symop_operation_xyz
x,y,z
-x,-y,-z
loop_
_atom_site_type_symbol
_atom_site_label
_atom_site_fract_x
_atom_site_fract_y
_atom_site_fract_z
Si Si1 0.289295 0.075092 0.956861
Si Si2 0.101560 0.807859 0.179054
Si Si3 0.795664 0.481635 0.278839
Si Si4 0.067738 0.780249 0.797935
Si Si5 0.469019 0.332763 0.502359
Si Si6 0.826743 0.752905 0.122326
Si Si7 0.330432 0.847752 0.589441
Si Si8 0.845480 0.920399 0.296868
O O1 0.303532 0.148159 0.869053
O O2 0.257184 0.980146 0.829997
O O3 0.604341 0.292470 0.116447
O O4 0.007281 0.889686 0.007957
O O5 0.944989 0.640004 0.218824
O O6 0.979565 0.797981 0.229449
O O7 0.453591 0.055473 0.299965
O O8 0.049126 0.755179 0.975695
O O9 0.561774 0.357430 0.351014
O O10 0.035771 0.610232 0.426919
O O11 0.231048 0.831904 0.723683
O O12 0.741565 0.565174 0.656705
O O13 0.346440 0.194279 0.584037
O O14 0.187336 0.183051 0.406984
O O15 0.825455 0.823444 0.245502
O O16 0.500000 0.500000 0.000000
O O17 0.500000 0.000000 0.500000
#
# Coordination Sequence:
#
# PCOD8006779 Si02
#       8
#     2   2   2   2   2   2   2   2
#     4  11  22  38  62  91 119 160 202 245 299 360
#     4  10  21  39  67  87 119 162 205 243 301 361
#     4  10  20  40  64  88 121 157 201 254 303 347
#     4  10  21  40  62  89 120 156 205 243 303 363
#     4  10  22  39  55  86 124 161 201 247 297 356
#     4  11  22  36  60  91 119 157 207 241 291 362
#     4   9  20  41  64  89 119 158 197 252 304 355
#     4  11  22  39  58  85 129 163 201 244 300 354
#
# _framework density 21.315474999999999
#
# number of rings (size 3 to 8) (size 9 to 14) (size 15 to 20)
#    0.000    1.750    1.250    3.750    1.750    0.500 
#   13.500    5.000    2.750    0.000    0.000    0.000 
#    0.000    0.000    0.000    0.000    0.000    0.000 
#
# Total GULP energy -198280.372443 kJ/mol
# GULP energy per Si atom -12392.523278 kJ/mol
# Density = 2.126696 g / cm^3
# Si number density = 21.315475 Si / 1000 Ang^3
#
#
#
# Elastic Constant Matrix: (Units=GPa)
#
#
# Indices 1 2 3 4 5 6 
#
# 1 87.3220 34.5821 52.0228 24.6979 10.7907 2.2123
# 2 34.5821 95.9169 48.6941 17.1461 1.2901 7.2892
# 3 52.0228 48.6941 135.8706 36.9245 10.7702 2.8291
# 4 24.6979 17.1461 36.9245 47.4784 3.8389 0.5440
# 5 10.7907 1.2901 10.7702 3.8389 16.3501 3.8163
# 6 2.2123 7.2892 2.8291 0.5440 3.8163 23.0800
#
#
#
# Elastic Compliance Matrix: (Units=1/GPa)
#
#
# Indices 1 2 3 4 5 6 
#
# 1 0.017135 -0.003641 -0.003492 -0.004248 -0.008042 0.001366
# 2 -0.003641 0.014029 -0.003775 -0.000586 0.004953 -0.004424
# 3 -0.003492 -0.003775 0.011926 -0.005773 -0.004103 0.000880
# 4 -0.004248 -0.000586 -0.005773 0.027972 -0.000067 0.000652
# 5 -0.008042 0.004953 -0.004103 -0.000067 0.071629 -0.012133
# 6 0.001366 -0.004424 0.000880 0.000652 -0.012133 0.046477
#
#
# Mechanical properties :
#
#
# Convention : Reuss Voigt Hill
#
# Bulk Modulus (GPa) = 47.00694 65.52307 56.26501
# Shear Modulus (GPa) = 22.92778 29.63574 26.28176
#
# Velocity S-wave (km/s) = 3.28325 3.73277 3.51520
# Velocity P-wave (km/s) = 6.03936 7.02741 6.55204
#
# Compressibility (1/GPa) = 0.02127345
#
# Stress axis : x y z
#
# Youngs Moduli (GPa) = 58.35937 71.27921 83.85152
#
# Poissons Ratio (x) = 0.25955 0.29284
# Poissons Ratio (y) = 0.21250 0.31653
# Poissons Ratio (z) = 0.20381 0.26907
#
# Static dielectric constant tensor:
#      x y z
#    x 3.689350 0.228310 0.171660 
#    y 0.228310 4.122750 0.231190 
#    z 0.171660 0.231190 4.245240 
# 
# 
# High freq. dielectric constant tensor:
#      x y z
#    x 1.796270 0.012350 0.007770 
#    y 0.012350 1.850300 0.006760 
#    z 0.007770 0.006760 1.858120 
# 
# From -- ./inp_files/217890.got.cif
#   From: 2010.06.25/outbox.cif.g09.slc.cpg/sg2_109_cif.got.tgz:217890.got - 2010.06.27 13:26:56.
