data_PCOD8006337
_publ_section_title
;
Structure prediction by ZEFSAII (Michael W. Deem and Ramdas Pophale) SiO2 
 PCOD8006337
Probable space group: P -1
;
_chemical_formula_sum "Si O2"
_cell_formula_units_Z 16
_cell_length_a 12.913984
_cell_length_b 10.658475
_cell_length_c 7.916867
_cell_angle_alpha 51.533255
_cell_angle_beta 113.058441
_cell_angle_gamma 84.402154
_cell_volume 691.415621
_symmetry_space_group_name_H-M "P -1"
_symmetry_group_IT_number 2
_symmetry_cell_setting 'triclinic'
loop_
_space_group_symop_operation_xyz
x,y,z
-x,-y,-z
loop_
_atom_site_type_symbol
_atom_site_label
_atom_site_fract_x
_atom_site_fract_y
_atom_site_fract_z
Si Si1 0.285503 0.994266 0.754203
Si Si2 0.882459 0.113185 0.487725
Si Si3 0.423789 0.132296 0.494259
Si Si4 0.228908 0.608617 0.527333
Si Si5 0.420365 0.693179 0.376618
Si Si6 0.011834 0.248542 0.973651
Si Si7 0.806050 0.634702 0.071571
Si Si8 0.023513 0.304297 0.304873
O O1 0.230616 0.906981 0.656662
O O2 0.401937 0.016323 0.726111
O O3 0.170690 0.197129 0.555819
O O4 0.335359 0.857582 0.058558
O O5 0.815100 0.291240 0.408407
O O6 0.977511 0.146648 0.395152
O O7 0.962534 0.952983 0.804167
O O8 0.493167 0.242150 0.518136
O O9 0.500000 0.000000 0.500000
O O10 0.287125 0.284736 0.214058
O O11 0.338153 0.647563 0.494369
O O12 0.267418 0.400980 0.787848
O O13 0.122994 0.650056 0.285066
O O14 0.500000 0.500000 0.500000
O O15 0.009804 0.363407 0.047773
O O16 0.132475 0.233105 0.951076
O O17 0.937260 0.453946 0.257446
#
# Coordination Sequence:
#
# PCOD8006337 Si02
#       8
#     2   2   2   2   2   2   2   2
#     4  11  23  47  72 102 139 185 238 294 353 415
#     4  10  20  39  68 100 138 180 220 287 366 423
#     4  12  28  51  73  98 147 196 241 280 346 426
#     4  11  25  41  64 100 143 178 230 296 349 417
#     4  12  30  47  73 104 138 193 246 292 333 420
#     4  11  20  39  66 103 137 173 229 290 363 414
#     4  11  25  43  70 104 137 185 229 290 361 420
#     4  10  21  39  71 103 136 176 226 296 362 414
#
# _framework density 23.140930000000001
#
# number of rings (size 3 to 8) (size 9 to 14) (size 15 to 20)
#    0.000    1.000    2.500    5.250    7.000    1.500 
#    2.250    0.000    0.000    0.000    0.000    0.000 
#    0.000    0.000    0.000    0.000    0.000    0.000 
#
# Total GULP energy -198276.576072 kJ/mol
# GULP energy per Si atom -12392.286005 kJ/mol
# Density = 2.308826 g / cm^3
# Si number density = 23.140930 Si / 1000 Ang^3
#
#
#
# Elastic Constant Matrix: (Units=GPa)
#
#
# Indices 1 2 3 4 5 6 
#
# 1 170.7338 28.7048 26.3811 -3.1683 -22.3568 28.1724
# 2 28.7048 72.0800 13.0534 6.4614 12.9972 10.3064
# 3 26.3811 13.0534 73.4327 -7.3350 7.3976 4.0447
# 4 -3.1683 6.4614 -7.3350 15.4939 8.0859 10.5394
# 5 -22.3568 12.9972 7.3976 8.0859 42.5595 -4.7278
# 6 28.1724 10.3064 4.0447 10.5394 -4.7278 34.9367
#
#
#
# Elastic Compliance Matrix: (Units=1/GPa)
#
#
# Indices 1 2 3 4 5 6 
#
# 1 0.008386 -0.003202 -0.002135 0.004009 0.004304 -0.006197
# 2 -0.003202 0.017171 -0.001600 -0.004130 -0.006072 -0.001874
# 3 -0.002135 -0.001600 0.017331 0.016121 -0.007338 -0.005669
# 4 0.004009 -0.004130 0.016121 0.117884 -0.026614 -0.043044
# 5 0.004304 -0.006072 -0.007338 -0.026614 0.035274 0.011972
# 6 -0.006197 -0.001874 -0.005669 -0.043044 0.011972 0.049435
#
#
# Mechanical properties :
#
#
# Convention : Reuss Voigt Hill
#
# Bulk Modulus (GPa) = 34.46588 50.28057 42.37322
# Shear Modulus (GPa) = 18.58550 35.13852 26.86201
#
# Velocity S-wave (km/s) = 2.83705 3.90097 3.41075
# Velocity P-wave (km/s) = 5.06538 6.48577 5.81908
#
# Compressibility (1/GPa) = 0.02901420
#
# Stress axis : x y z
#
# Youngs Moduli (GPa) = 119.24633 58.23653 57.69957
#
# Poissons Ratio (x) = 0.18649 0.12321
# Poissons Ratio (y) = 0.38186 0.09229
# Poissons Ratio (z) = 0.25463 0.09315
#
# Static dielectric constant tensor:
#      x y z
#    x 4.662480 0.380780 -0.411480 
#    y 0.380780 4.119800 -0.291940 
#    z -0.411480 -0.291940 4.350200 
# 
# 
# High freq. dielectric constant tensor:
#      x y z
#    x 1.941430 0.022510 -0.022900 
#    y 0.022510 1.910800 -0.009790 
#    z -0.022900 -0.009790 1.914990 
# 
# From -- ./inp_files/261692.got.cif
#   From: 2010.06.25/outbox.cif.g09.slc.cpg/sg2_131_cif.got.tgz:261692.got - 2010.06.27 13:26:56.
