data_PCOD8006407
_publ_section_title
;
Structure prediction by ZEFSAII (Michael W. Deem and Ramdas Pophale) SiO2 
 PCOD8006407
Probable space group: P -1
;
_chemical_formula_sum "Si O2"
_cell_formula_units_Z 12
_cell_length_a 15.204503
_cell_length_b 5.182695
_cell_length_c 13.696391
_cell_angle_alpha 113.168779
_cell_angle_beta 27.790175
_cell_angle_gamma 119.160362
_cell_volume 437.542960
_symmetry_space_group_name_H-M "P -1"
_symmetry_group_IT_number 2
_symmetry_cell_setting 'triclinic'
loop_
_space_group_symop_operation_xyz
x,y,z
-x,-y,-z
loop_
_atom_site_type_symbol
_atom_site_label
_atom_site_fract_x
_atom_site_fract_y
_atom_site_fract_z
Si Si1 0.404277 0.942165 0.812487
Si Si2 0.899315 0.569547 0.329484
Si Si3 0.820385 0.741432 0.051570
Si Si4 0.063809 0.125363 0.350101
Si Si5 0.689320 0.760924 0.388523
Si Si6 0.716950 0.370430 0.674190
O O1 0.243117 0.047938 0.929072
O O2 0.492847 0.133047 0.852493
O O3 0.330583 0.594011 0.854611
O O4 0.604414 0.010151 0.555585
O O5 0.806780 0.627461 0.329204
O O6 0.753098 0.549609 0.561814
O O7 0.095959 0.868140 0.208943
O O8 0.969688 0.280715 0.199789
O O9 0.833668 0.871708 0.168403
O O10 0.260926 0.414775 0.220121
O O11 0.888402 0.218739 0.486881
O O12 0.000000 0.000000 0.500000
O O13 0.500000 0.500000 0.500000
#
# Coordination Sequence:
#
# PCOD8006407 Si02
#       6
#     2   2   2   2   2   2
#     4  11  23  43  65  93 131 173 216 259 311 385
#     4  11  22  41  64  96 131 165 211 273 318 370
#     4  11  26  40  63  98 137 167 210 264 326 367
#     4   9  20  37  66  93 120 159 223 259 318 377
#     4  10  21  42  65  93 126 175 218 254 307 386
#     4  10  20  39  69  90 120 171 219 258 311 390
#
# _framework density 27.425882000000001
#
# number of rings (size 3 to 8) (size 9 to 14) (size 15 to 20)
#    0.000    1.667    1.667    3.000    4.667    1.333 
#    0.000    6.667    0.000    0.000    0.000    0.000 
#    0.000    0.000    0.000    0.000    0.000    0.000 
#
# Total GULP energy -148742.535916 kJ/mol
# GULP energy per Si atom -12395.211326 kJ/mol
# Density = 2.736346 g / cm^3
# Si number density = 27.425882 Si / 1000 Ang^3
#
#
#
# Elastic Constant Matrix: (Units=GPa)
#
#
# Indices 1 2 3 4 5 6 
#
# 1 142.3589 23.7624 11.6957 0.9384 -11.6106 8.8324
# 2 23.7624 74.6149 -3.2829 21.7579 5.1176 12.9638
# 3 11.6957 -3.2829 67.7457 20.5703 -1.5059 -2.9391
# 4 0.9384 21.7579 20.5703 45.1302 -1.9286 8.7508
# 5 -11.6106 5.1176 -1.5059 -1.9286 34.8685 5.8748
# 6 8.8324 12.9638 -2.9391 8.7508 5.8748 39.0781
#
#
#
# Elastic Compliance Matrix: (Units=1/GPa)
#
#
# Indices 1 2 3 4 5 6 
#
# 1 0.008256 -0.003595 -0.002625 0.003339 0.003715 -0.002177
# 2 -0.003595 0.018492 0.004599 -0.010723 -0.003972 -0.001978
# 3 -0.002625 0.004599 0.019060 -0.011590 -0.001938 0.003388
# 4 0.003339 -0.010723 -0.011590 0.034014 0.005155 -0.006461
# 5 0.003715 -0.003972 -0.001938 0.005155 0.031641 -0.005579
# 6 -0.002177 -0.001978 0.003388 -0.006461 -0.005579 0.029278
#
#
# Mechanical properties :
#
#
# Convention : Reuss Voigt Hill
#
# Bulk Modulus (GPa) = 23.49345 38.78555 31.13950
# Shear Modulus (GPa) = 31.61077 40.65165 36.13121
#
# Velocity S-wave (km/s) = 3.39866 3.85416 3.63356
# Velocity P-wave (km/s) = 4.89755 5.82913 5.38353
#
# Compressibility (1/GPa) = 0.04256505
#
# Stress axis : x y z
#
# Youngs Moduli (GPa) = 121.11905 54.07649 52.46534
#
# Poissons Ratio (x) = 0.19441 0.13774
# Poissons Ratio (y) = 0.43544 -0.24127
# Poissons Ratio (z) = 0.31798 -0.24867
#
# Static dielectric constant tensor:
#      x y z
#    x 0.319070 5.790230 -1.051190 
#    y 5.790230 0.740620 1.684410 
#    z -1.051190 1.684410 4.987670 
# 
# 
# High freq. dielectric constant tensor:
#      x y z
#    x 2.113390 0.030990 0.003240 
#    y 0.030990 2.142330 -0.004330 
#    z 0.003240 -0.004330 2.095460 
# 
# From -- ./inp_files/27289.got.cif
#   From: 2010.06.25/outbox.cif.g09.slc.cpg/sg2_14_cif.got.tgz:27289.got - 2010.06.27 13:26:56.
