data_PCOD8006423
_publ_section_title
;
Structure prediction by ZEFSAII (Michael W. Deem and Ramdas Pophale) SiO2 
 PCOD8006423
Probable space group: P -1
;
_chemical_formula_sum "Si O2"
_cell_formula_units_Z 12
_cell_length_a 19.921629
_cell_length_b 7.909461
_cell_length_c 9.881853
_cell_angle_alpha 90.273734
_cell_angle_beta 145.167345
_cell_angle_gamma 113.237715
_cell_volume 637.192408
_symmetry_space_group_name_H-M "P -1"
_symmetry_group_IT_number 2
_symmetry_cell_setting 'triclinic'
loop_
_space_group_symop_operation_xyz
x,y,z
-x,-y,-z
loop_
_atom_site_type_symbol
_atom_site_label
_atom_site_fract_x
_atom_site_fract_y
_atom_site_fract_z
Si Si1 0.097129 0.784882 0.812728
Si Si2 0.900325 0.592090 0.222779
Si Si3 0.878839 0.554038 0.705591
Si Si4 0.689422 0.691968 0.782553
Si Si5 0.198173 0.193012 0.333937
Si Si6 0.123565 0.805071 0.350252
O O1 0.171456 0.669591 0.921680
O O2 0.952082 0.665381 0.464062
O O3 0.022980 0.739487 0.838441
O O4 0.234978 0.065922 0.019918
O O5 0.063691 0.784263 0.402882
O O6 0.765013 0.595711 0.965828
O O7 0.750121 0.581899 0.500923
O O8 0.785330 0.286563 0.507920
O O9 0.958640 0.618748 0.986981
O O10 0.500000 0.500000 0.500000
O O11 0.713922 0.727317 0.662988
O O12 0.245148 0.074351 0.499545
O O13 0.000000 0.000000 0.000000
#
# Coordination Sequence:
#
# PCOD8006423 Si02
#       6
#     2   2   2   2   2   2
#     4  10  20  35  56  82 108 140 183 225 265 316
#     4  10  20  35  56  82 108 140 183 225 265 316
#     4   9  15  27  52  78  96 126 180 227 252 292
#     4  12  23  34  52  84 117 142 173 220 278 324
#     4  10  16  30  51  75  99 133 181 221 245 305
#     4   9  15  27  52  78  96 126 180 227 252 292
#
# _framework density 18.832616000000002
#
# number of rings (size 3 to 8) (size 9 to 14) (size 15 to 20)
#    0.000    2.000    6.667    0.500    0.000    0.667 
#    0.000    0.000    0.000    4.000    0.000    7.000 
#    0.000    0.000    0.000    0.000    0.000    0.000 
#
# Total GULP energy -148704.250447 kJ/mol
# GULP energy per Si atom -12392.020871 kJ/mol
# Density = 1.878975 g / cm^3
# Si number density = 18.832616 Si / 1000 Ang^3
#
#
#
# Elastic Constant Matrix: (Units=GPa)
#
#
# Indices 1 2 3 4 5 6 
#
# 1 95.3497 59.3333 33.1806 8.1216 7.4555 -15.6051
# 2 59.3333 155.6560 39.7988 -4.7130 14.9945 -36.7294
# 3 33.1806 39.7988 34.4094 3.2680 6.6990 -9.5616
# 4 8.1216 -4.7130 3.2680 16.7943 2.2589 -2.8874
# 5 7.4555 14.9945 6.6990 2.2589 16.0476 -1.9300
# 6 -15.6051 -36.7294 -9.5616 -2.8874 -1.9300 44.2513
#
#
#
# Elastic Compliance Matrix: (Units=1/GPa)
#
#
# Indices 1 2 3 4 5 6 
#
# 1 0.017707 -0.004135 -0.011946 -0.007658 0.001678 -0.000195
# 2 -0.004135 0.012948 -0.008347 0.009553 -0.007100 0.007799
# 3 -0.011946 -0.008347 0.052111 -0.005777 -0.007663 -0.000592
# 4 -0.007658 0.009553 -0.005777 0.070027 -0.011848 0.008033
# 5 0.001678 -0.007100 -0.007663 -0.011848 0.072486 -0.004569
# 6 -0.000195 0.007799 -0.000592 0.008033 -0.004569 0.029200
#
#
# Mechanical properties :
#
#
# Convention : Reuss Voigt Hill
#
# Bulk Modulus (GPa) = 29.48873 61.11561 45.30217
# Shear Modulus (GPa) = 15.89126 25.62547 20.75836
#
# Velocity S-wave (km/s) = 2.90800 3.69276 3.32363
# Velocity P-wave (km/s) = 5.19304 7.12071 6.23186
#
# Compressibility (1/GPa) = 0.03391126
#
# Stress axis : x y z
#
# Youngs Moduli (GPa) = 56.47575 77.23004 19.18973
#
# Poissons Ratio (x) = 0.31933 0.22923
# Poissons Ratio (y) = 0.23352 0.16018
# Poissons Ratio (z) = 0.67464 0.64464
#
# Static dielectric constant tensor:
#      x y z
#    x 3.826540 -0.627170 -0.163030 
#    y -0.627170 4.535640 -0.136180 
#    z -0.163030 -0.136180 2.653290 
# 
# 
# High freq. dielectric constant tensor:
#      x y z
#    x 1.748610 -0.014940 -0.021480 
#    y -0.014940 1.766840 -0.013520 
#    z -0.021480 -0.013520 1.634560 
# 
# From -- ./inp_files/150481.got.cif
#   From: 2010.06.25/outbox.cif.g09.slc.cpg/sg2_76_cif.got.tgz:150481.got - 2010.06.27 13:26:56.
