data_PCOD8006142
_publ_section_title
;
Structure prediction by ZEFSAII (Michael W. Deem and Ramdas Pophale) SiO2 
 PCOD8006142
Probable space group: P -1
;
_chemical_formula_sum "Si O2"
_cell_formula_units_Z 14
_cell_length_a 7.961122
_cell_length_b 11.008266
_cell_length_c 11.201040
_cell_angle_alpha 127.547456
_cell_angle_beta 123.706030
_cell_angle_gamma 43.387399
_cell_volume 523.192105
_symmetry_space_group_name_H-M "P -1"
_symmetry_group_IT_number 2
_symmetry_cell_setting 'triclinic'
loop_
_space_group_symop_operation_xyz
x,y,z
-x,-y,-z
loop_
_atom_site_type_symbol
_atom_site_label
_atom_site_fract_x
_atom_site_fract_y
_atom_site_fract_z
Si Si1 0.548521 0.311308 0.857002
Si Si2 0.824714 0.307904 0.298179
Si Si3 0.324730 0.957785 0.619295
Si Si4 0.763093 0.934785 0.862517
Si Si5 0.897940 0.684197 0.383117
Si Si6 0.928309 0.936489 0.184618
Si Si7 0.659513 0.398433 0.618933
O O1 0.283802 0.382065 0.733129
O O2 0.772531 0.218389 0.793670
O O3 0.626725 0.151544 0.893565
O O4 0.500000 0.500000 0.000000
O O5 0.527443 0.480795 0.269783
O O6 0.955228 0.206663 0.163457
O O7 0.972248 0.373464 0.469916
O O8 0.843927 0.149423 0.293754
O O9 0.613384 0.851112 0.709816
O O10 0.253932 0.817312 0.471579
O O11 0.273119 0.086598 0.560893
O O12 0.162298 0.100915 0.751419
O O13 0.791221 0.922185 0.008057
O O14 0.100853 0.596673 0.301052
O O15 0.500000 0.500000 0.500000
#
# Coordination Sequence:
#
# PCOD8006142 Si02
#       7
#     2   2   2   2   2   2   2
#     4  10  23  44  64  92 127 171 216 264 319 377
#     4  10  21  42  65  96 129 169 215 261 320 376
#     4  11  22  41  66  99 127 169 212 261 330 372
#     4  10  24  44  67  91 131 174 215 259 316 385
#     4  10  22  42  65  96 130 164 211 270 323 377
#     4  11  22  43  64  90 135 172 212 260 315 387
#     4  10  20  39  65  96 131 162 210 265 314 383
#
# _framework density 26.758817000000001
#
# number of rings (size 3 to 8) (size 9 to 14) (size 15 to 20)
#    0.000    1.714    2.857    2.571    0.000    8.000 
#    7.714    1.429    0.000    0.000    0.000    0.000 
#    0.000    0.000    0.000    0.000    0.000    0.000 
#
# Total GULP energy -173553.036874 kJ/mol
# GULP energy per Si atom -12396.645491 kJ/mol
# Density = 2.669791 g / cm^3
# Si number density = 26.758817 Si / 1000 Ang^3
#
#
#
# Elastic Constant Matrix: (Units=GPa)
#
#
# Indices 1 2 3 4 5 6 
#
# 1 89.1290 5.7410 12.1154 18.6710 4.1123 -32.6993
# 2 5.7410 81.6673 22.4623 15.2375 -4.7576 -22.5657
# 3 12.1154 22.4623 82.2655 9.3759 -0.7736 -10.8275
# 4 18.6710 15.2375 9.3759 44.7178 -8.0428 2.8470
# 5 4.1123 -4.7576 -0.7736 -8.0428 40.7778 -2.8328
# 6 -32.6993 -22.5657 -10.8275 2.8470 -2.8328 42.8897
#
#
#
# Elastic Compliance Matrix: (Units=1/GPa)
#
#
# Indices 1 2 3 4 5 6 
#
# 1 0.020870 0.006384 -0.000829 -0.012412 -0.002454 0.019723
# 2 0.006384 0.018335 -0.003010 -0.009082 0.000647 0.014399
# 3 -0.000829 -0.003010 0.013443 -0.001569 -0.000234 0.001267
# 4 -0.012412 -0.009082 -0.001569 0.033012 0.005530 -0.016464
# 5 -0.002454 0.000647 -0.000234 0.005530 0.025915 -0.000245
# 6 0.019723 0.014399 0.001267 -0.016464 -0.000245 0.047325
#
#
# Mechanical properties :
#
#
# Convention : Reuss Voigt Hill
#
# Bulk Modulus (GPa) = 17.31991 37.07768 27.19880
# Shear Modulus (GPa) = 28.89223 39.85994 34.37608
#
# Velocity S-wave (km/s) = 3.28949 3.86372 3.58811
# Velocity P-wave (km/s) = 4.57321 5.81298 5.22996
#
# Compressibility (1/GPa) = 0.05773703
#
# Stress axis : x y z
#
# Youngs Moduli (GPa) = 47.91468 54.54090 74.38746
#
# Poissons Ratio (x) = -0.34816 0.06168
# Poissons Ratio (y) = -0.30587 0.22391
# Poissons Ratio (z) = 0.03973 0.16417
#
# Static dielectric constant tensor:
#      x y z
#    x 5.260930 -0.456240 -0.077770 
#    y -0.456240 5.221830 0.036520 
#    z -0.077770 0.036520 4.565590 
# 
# 
# High freq. dielectric constant tensor:
#      x y z
#    x 2.078990 -0.010170 -0.005330 
#    y -0.010170 2.091130 -0.012870 
#    z -0.005330 -0.012870 2.053120 
# 
# From -- ./inp_files/393159.got.cif
#   From: 2010.06.25/outbox.cif.g09.slc.cpg/sg2_197_cif.got.tgz:393159.got - 2010.06.27 13:26:56.
