data_PCOD8006120
_publ_section_title
;
Structure prediction by ZEFSAII (Michael W. Deem and Ramdas Pophale) SiO2 
 PCOD8006120
Probable space group: P -1
;
_chemical_formula_sum "Si O2"
_cell_formula_units_Z 16
_cell_length_a 6.757380
_cell_length_b 8.802441
_cell_length_c 17.315233
_cell_angle_alpha 55.356391
_cell_angle_beta 76.341618
_cell_angle_gamma 58.294202
_cell_volume 717.982108
_symmetry_space_group_name_H-M "P -1"
_symmetry_group_IT_number 2
_symmetry_cell_setting 'triclinic'
loop_
_space_group_symop_operation_xyz
x,y,z
-x,-y,-z
loop_
_atom_site_type_symbol
_atom_site_label
_atom_site_fract_x
_atom_site_fract_y
_atom_site_fract_z
Si Si1 0.882642 0.583871 0.904413
Si Si2 0.428537 0.999995 0.122596
Si Si3 0.116438 0.143631 0.958564
Si Si4 0.787728 0.217396 0.691437
Si Si5 0.582459 0.039765 0.564580
Si Si6 0.322867 0.613311 0.597277
Si Si7 0.018378 0.194082 0.300031
Si Si8 0.865003 0.641870 0.399494
O O1 0.627890 0.789433 0.882232
O O2 0.018954 0.666374 0.813232
O O3 0.895852 0.381813 0.917279
O O4 0.000000 0.500000 0.000000
O O5 0.709055 0.875826 0.121923
O O6 0.340134 0.851699 0.213197
O O7 0.282277 0.076570 0.036167
O O8 0.000000 0.000000 0.000000
O O9 0.592973 0.442139 0.611844
O O10 0.989402 0.267103 0.688257
O O11 0.904323 0.044983 0.663351
O O12 0.709396 0.181346 0.504003
O O13 0.369829 0.152347 0.611121
O O14 0.500000 0.000000 0.500000
O O15 0.780358 0.826001 0.651184
O O16 0.170385 0.513467 0.608590
O O17 0.235888 0.691070 0.670198
O O18 0.000000 0.500000 0.500000
#
# Coordination Sequence:
#
# PCOD8006120 Si02
#       8
#     2   2   2   2   2   2   2   2
#     4   9  20  41  66  92 131 169 210 269 332 387
#     4   9  21  39  62  91 128 164 210 268 320 393
#     4  10  20  39  65  94 125 164 211 264 333 385
#     4  11  23  42  64  95 128 175 224 269 330 390
#     4  12  24  43  64  95 136 182 223 276 332 391
#     4  12  24  42  66  93 136 174 224 280 329 390
#     4  11  23  41  66  97 131 176 223 272 332 401
#     4  12  23  41  66  93 132 177 225 272 332 389
#
# _framework density 22.284676999999999
#
# number of rings (size 3 to 8) (size 9 to 14) (size 15 to 20)
#    0.000    1.250    2.500    3.750    0.000    2.500 
#    0.000    0.000    5.500    0.000    0.000    0.000 
#    0.000    0.000    0.000    0.000    0.000    0.000 
#
# Total GULP energy -198227.005229 kJ/mol
# GULP energy per Si atom -12389.187827 kJ/mol
# Density = 2.223396 g / cm^3
# Si number density = 22.284677 Si / 1000 Ang^3
#
#
#
# Elastic Constant Matrix: (Units=GPa)
#
#
# Indices 1 2 3 4 5 6 
#
# 1 117.2066 53.2053 35.9700 3.8413 -35.1636 8.6577
# 2 53.2053 147.0132 30.6078 2.9512 -20.8707 5.7945
# 3 35.9700 30.6078 96.6424 -0.0457 -21.9993 0.6267
# 4 3.8413 2.9512 -0.0457 29.4608 -5.6249 -4.2021
# 5 -35.1636 -20.8707 -21.9993 -5.6249 35.4444 -2.2786
# 6 8.6577 5.7945 0.6267 -4.2021 -2.2786 20.8712
#
#
#
# Elastic Compliance Matrix: (Units=1/GPa)
#
#
# Indices 1 2 3 4 5 6 
#
# 1 0.013927 -0.003005 -0.001770 -0.000004 0.010709 -0.003721
# 2 -0.003005 0.008349 -0.001290 -0.000397 0.001007 -0.001003
# 3 -0.001770 -0.001290 0.012715 0.001719 0.005757 0.001685
# 4 -0.000004 -0.000397 0.001719 0.036521 0.007152 0.008194
# 5 0.010709 0.001007 0.005757 0.007152 0.044227 0.001374
# 6 -0.003721 -0.001003 0.001685 0.008194 0.001374 0.051484
#
#
# Mechanical properties :
#
#
# Convention : Reuss Voigt Hill
#
# Bulk Modulus (GPa) = 43.74310 66.71427 55.22869
# Shear Modulus (GPa) = 26.74185 33.22722 29.98453
#
# Velocity S-wave (km/s) = 3.46787 3.86558 3.67212
# Velocity P-wave (km/s) = 5.97551 7.06583 6.54342
#
# Compressibility (1/GPa) = 0.02286075
#
# Stress axis : x y z
#
# Youngs Moduli (GPa) = 71.80308 119.78082 78.64485
#
# Poissons Ratio (x) = 0.35991 0.13921
# Poissons Ratio (y) = 0.21575 0.10148
# Poissons Ratio (z) = 0.12710 0.15455
#
# Static dielectric constant tensor:
#      x y z
#    x 3.895640 -0.017850 -0.253340 
#    y -0.017850 4.715690 -0.009390 
#    z -0.253340 -0.009390 3.958170 
# 
# 
# High freq. dielectric constant tensor:
#      x y z
#    x 1.848570 -0.007640 -0.014650 
#    y -0.007640 1.905000 0.001980 
#    z -0.014650 0.001980 1.877210 
# 
# From -- ./inp_files/348423.got.cif
#   From: 2010.06.25/outbox.cif.g09.slc.cpg/sg2_175_cif.got.tgz:348423.got - 2010.06.27 13:26:56.
