data_PCOD8006973
_publ_section_title
;
Structure prediction by ZEFSAII (Michael W. Deem and Ramdas Pophale) SiO2 
 PCOD8006973
Probable space group: P -1
;
_chemical_formula_sum "Si O2"
_cell_formula_units_Z 16
_cell_length_a 15.886928
_cell_length_b 8.614487
_cell_length_c 14.854405
_cell_angle_alpha 39.015175
_cell_angle_beta 144.404660
_cell_angle_gamma 131.239916
_cell_volume 742.822265
_symmetry_space_group_name_H-M "P -1"
_symmetry_group_IT_number 2
_symmetry_cell_setting 'triclinic'
loop_
_space_group_symop_operation_xyz
x,y,z
-x,-y,-z
loop_
_atom_site_type_symbol
_atom_site_label
_atom_site_fract_x
_atom_site_fract_y
_atom_site_fract_z
Si Si1 0.813615 0.278718 0.063488
Si Si2 0.311626 0.037361 0.745616
Si Si3 0.593022 0.456715 0.013959
Si Si4 0.373726 0.438773 0.345658
Si Si5 0.829406 0.246741 0.727672
Si Si6 0.552501 0.431820 0.339844
Si Si7 0.149237 0.296572 0.950743
Si Si8 0.140721 0.280743 0.342942
O O1 0.751879 0.049479 0.173845
O O2 0.974194 0.224742 0.192717
O O3 0.707309 0.320007 0.868100
O O4 0.819500 0.529918 0.013526
O O5 0.421060 0.277000 0.745451
O O6 0.177092 0.094251 0.538644
O O7 0.405151 0.834040 0.872112
O O8 0.523607 0.602605 0.806239
O O9 0.758250 0.582990 0.107410
O O10 0.500000 0.500000 0.000000
O O11 0.500000 0.500000 0.500000
O O12 0.447946 0.312656 0.381478
O O13 0.248993 0.249650 0.366667
O O14 0.701166 0.298503 0.524213
O O15 0.829910 0.436537 0.725797
O O16 0.802105 0.974179 0.865731
O O17 0.978925 0.283639 0.784644
#
# Coordination Sequence:
#
# PCOD8006973 Si02
#       8
#     2   2   2   2   2   2   2   2
#     4  10  21  38  60  87 124 158 198 248 302 354
#     4  10  20  40  66  86 123 156 205 248 305 355
#     4  11  24  40  61  86 121 159 201 247 303 362
#     4  12  21  36  58  89 123 154 197 251 296 356
#     4   9  19  37  62  82 117 153 197 239 300 353
#     4  11  22  40  61  90 118 160 198 254 303 351
#     4   9  19  39  59  83 115 158 193 244 294 357
#     4  10  21  36  62  93 116 156 203 248 299 358
#
# _framework density 21.539474999999999
#
# number of rings (size 3 to 8) (size 9 to 14) (size 15 to 20)
#    0.000    1.750    5.000    1.125    0.000    3.500 
#    2.250    0.625    0.000    0.000    0.000    0.000 
#    0.000    0.000    0.000    0.000    0.000    0.000 
#
# Total GULP energy -198358.184539 kJ/mol
# GULP energy per Si atom -12397.386534 kJ/mol
# Density = 2.149045 g / cm^3
# Si number density = 21.539475 Si / 1000 Ang^3
#
#
#
# Elastic Constant Matrix: (Units=GPa)
#
#
# Indices 1 2 3 4 5 6 
#
# 1 158.1396 32.4645 56.5250 11.5099 2.5621 26.7581
# 2 32.4645 35.4332 17.2361 -7.5033 8.4008 13.7662
# 3 56.5250 17.2361 137.3650 15.7575 -0.4518 11.1845
# 4 11.5099 -7.5033 15.7575 36.4342 0.6795 2.3739
# 5 2.5621 8.4008 -0.4518 0.6795 34.6293 3.1588
# 6 26.7581 13.7662 11.1845 2.3739 3.1588 26.7282
#
#
#
# Elastic Compliance Matrix: (Units=1/GPa)
#
#
# Indices 1 2 3 4 5 6 
#
# 1 0.009588 -0.006657 -0.002338 -0.003084 0.001399 -0.005083
# 2 -0.006657 0.048131 -0.003678 0.014882 -0.009998 -0.016726
# 3 -0.002338 -0.003678 0.009117 -0.004026 0.001205 0.000635
# 4 -0.003084 0.014882 -0.004026 0.033650 -0.003597 -0.005457
# 5 0.001399 -0.009998 0.001205 -0.003597 0.031298 -0.000135
# 6 -0.005083 -0.016726 0.000635 -0.005457 -0.000135 0.051352
#
#
# Mechanical properties :
#
#
# Convention : Reuss Voigt Hill
#
# Bulk Modulus (GPa) = 24.10228 60.37655 42.23942
# Shear Modulus (GPa) = 22.49102 34.53916 28.51509
#
# Velocity S-wave (km/s) = 3.23488 4.00875 3.64243
# Velocity P-wave (km/s) = 5.01664 7.03692 6.11085
#
# Compressibility (1/GPa) = 0.04148985
#
# Stress axis : x y z
#
# Youngs Moduli (GPa) = 104.30164 20.77674 109.67934
#
# Poissons Ratio (x) = 0.13831 0.25640
# Poissons Ratio (y) = 0.69435 0.40341
# Poissons Ratio (z) = 0.24383 0.07642
#
# Static dielectric constant tensor:
#      x y z
#    x 4.003050 0.394930 0.195510 
#    y 0.394930 3.696670 0.105160 
#    z 0.195510 0.105160 4.150810 
# 
# 
# High freq. dielectric constant tensor:
#      x y z
#    x 1.837620 0.031560 0.014830 
#    y 0.031560 1.817760 0.005290 
#    z 0.014830 0.005290 1.859560 
# 
# From -- ./inp_files/528136.got.cif
#   From: 2010.06.25/outbox.cif.g09.slc.cpg/sg2_265_cif.got.tgz:528136.got - 2010.06.27 13:26:56.
