data_PCOD8006613
_publ_section_title
;
Structure prediction by ZEFSAII (Michael W. Deem and Ramdas Pophale) SiO2 
 PCOD8006613
Probable space group: P -1
;
_chemical_formula_sum "Si O2"
_cell_formula_units_Z 16
_cell_length_a 8.458862
_cell_length_b 13.068764
_cell_length_c 14.160836
_cell_angle_alpha 109.815320
_cell_angle_beta 110.930380
_cell_angle_gamma 128.194737
_cell_volume 743.164930
_symmetry_space_group_name_H-M "P -1"
_symmetry_group_IT_number 2
_symmetry_cell_setting 'triclinic'
loop_
_space_group_symop_operation_xyz
x,y,z
-x,-y,-z
loop_
_atom_site_type_symbol
_atom_site_label
_atom_site_fract_x
_atom_site_fract_y
_atom_site_fract_z
Si Si1 0.804997 0.302614 0.713456
Si Si2 0.333217 0.329022 0.195812
Si Si3 0.469523 0.052372 0.394805
Si Si4 0.641371 0.289496 0.332754
Si Si5 0.595251 0.701630 0.370101
Si Si6 0.382231 0.049162 0.026466
Si Si7 0.939012 0.897408 0.313087
Si Si8 0.520094 0.692898 0.979718
O O1 0.784567 0.247458 0.583027
O O2 0.682394 0.359834 0.711019
O O3 0.166319 0.492816 0.879243
O O4 0.601868 0.115579 0.684219
O O5 0.459043 0.305548 0.288477
O O6 0.468713 0.516944 0.319852
O O7 0.424300 0.351807 0.114466
O O8 0.959693 0.134347 0.058088
O O9 0.469626 0.119561 0.319192
O O10 0.199346 0.945424 0.375860
O O11 0.634459 0.223632 0.211958
O O12 0.000000 0.500000 0.500000
O O13 0.714230 0.748879 0.304627
O O14 0.876646 0.889160 0.559874
O O15 0.394827 0.136752 0.968856
O O16 0.500000 0.000000 0.000000
O O17 0.745970 0.783219 0.140573
#
# Coordination Sequence:
#
# PCOD8006613 Si02
#       8
#     2   2   2   2   2   2   2   2
#     4  10  22  38  63  91 124 156 199 259 302 358
#     4  11  23  42  64  88 126 164 204 252 301 368
#     4  10  20  40  62  88 120 161 205 245 302 362
#     4  11  24  41  66  92 121 165 209 248 300 369
#     4  10  23  41  60  92 124 158 201 250 310 357
#     4  11  24  41  61  90 127 162 203 257 305 359
#     4  10  22  39  62  87 121 159 200 251 303 364
#     4  11  22  40  62  90 120 161 206 247 307 361
#
# _framework density 21.529539
#
# number of rings (size 3 to 8) (size 9 to 14) (size 15 to 20)
#    0.000    1.500    0.000    6.000    0.000   10.500 
#    0.000    3.750    0.000    0.000    0.000    0.000 
#    0.000    0.000    0.000    0.000    0.000    0.000 
#
# Total GULP energy -198362.202151 kJ/mol
# GULP energy per Si atom -12397.637634 kJ/mol
# Density = 2.148054 g / cm^3
# Si number density = 21.529539 Si / 1000 Ang^3
#
#
#
# Elastic Constant Matrix: (Units=GPa)
#
#
# Indices 1 2 3 4 5 6 
#
# 1 102.3543 30.1443 27.8318 10.7678 4.4967 -16.1617
# 2 30.1443 101.0127 29.1227 5.7870 -3.8862 -21.7054
# 3 27.8318 29.1227 110.5913 4.9034 13.6909 -7.0619
# 4 10.7678 5.7870 4.9034 35.2595 -1.0099 -3.7558
# 5 4.4967 -3.8862 13.6909 -1.0099 24.3647 10.7428
# 6 -16.1617 -21.7054 -7.0619 -3.7558 10.7428 38.4409
#
#
#
# Elastic Compliance Matrix: (Units=1/GPa)
#
#
# Indices 1 2 3 4 5 6 
#
# 1 0.011965 -0.002180 -0.001592 -0.002725 -0.003654 0.004262
# 2 -0.002180 0.012494 -0.002581 -0.000429 0.001539 0.005192
# 3 -0.001592 -0.002581 0.011170 -0.000650 -0.007255 0.001889
# 4 -0.002725 -0.000429 -0.000650 0.029499 0.001616 0.000923
# 5 -0.003654 0.001539 -0.007255 0.001616 0.053512 -0.016797
# 6 0.004262 0.005192 0.001889 0.000923 -0.016797 0.035869
#
#
# Mechanical properties :
#
#
# Convention : Reuss Voigt Hill
#
# Bulk Modulus (GPa) = 43.62551 54.23955 48.93253
# Shear Modulus (GPa) = 28.59485 34.73699 31.66592
#
# Velocity S-wave (km/s) = 3.64836 4.02114 3.83928
# Velocity P-wave (km/s) = 6.16883 6.84158 6.51390
#
# Compressibility (1/GPa) = 0.02292237
#
# Stress axis : x y z
#
# Youngs Moduli (GPa) = 83.57634 80.03835 89.52385
#
# Poissons Ratio (x) = 0.17452 0.14250
# Poissons Ratio (y) = 0.18223 0.23109
# Poissons Ratio (z) = 0.13303 0.20661
#
# Static dielectric constant tensor:
#      x y z
#    x 5.894020 -0.350680 -1.232310 
#    y -0.350680 3.957390 0.289480 
#    z -1.232310 0.289480 4.726670 
# 
# 
# High freq. dielectric constant tensor:
#      x y z
#    x 1.842240 -0.008810 0.008380 
#    y -0.008810 1.847150 0.010880 
#    z 0.008380 0.010880 1.852700 
# 
# From -- ./inp_files/320565.got.cif
#   From: 2010.06.25/outbox.cif.g09.slc.cpg/sg2_161_cif.got.tgz:320565.got - 2010.06.27 13:26:56.
