data_PCOD8006173
_publ_section_title
;
Structure prediction by ZEFSAII (Michael W. Deem and Ramdas Pophale) SiO2 
 PCOD8006173
Probable space group: P -1
;
_chemical_formula_sum "Si O2"
_cell_formula_units_Z 16
_cell_length_a 9.057625
_cell_length_b 9.764493
_cell_length_c 19.990077
_cell_angle_alpha 49.693699
_cell_angle_beta 64.404234
_cell_angle_gamma 103.934855
_cell_volume 795.241946
_symmetry_space_group_name_H-M "P -1"
_symmetry_group_IT_number 2
_symmetry_cell_setting 'triclinic'
loop_
_space_group_symop_operation_xyz
x,y,z
-x,-y,-z
loop_
_atom_site_type_symbol
_atom_site_label
_atom_site_fract_x
_atom_site_fract_y
_atom_site_fract_z
Si Si1 0.442446 0.539283 0.652349
Si Si2 0.307202 0.037298 0.822345
Si Si3 0.117737 0.834712 0.648776
Si Si4 0.450111 0.660309 0.105594
Si Si5 0.333125 0.885534 0.728034
Si Si6 0.762692 0.595363 0.117073
Si Si7 0.814005 0.397946 0.404109
Si Si8 0.379815 0.889990 0.159897
O O1 0.472752 0.355077 0.688376
O O2 0.314183 0.465173 0.771839
O O3 0.268627 0.478328 0.647713
O O4 0.719892 0.854123 0.497205
O O5 0.475132 0.019757 0.827774
O O6 0.231964 0.913006 0.802268
O O7 0.059802 0.871267 0.966692
O O8 0.164321 0.800728 0.724765
O O9 0.198589 0.746722 0.610125
O O10 0.828505 0.644288 0.756397
O O11 0.626028 0.635786 0.088780
O O12 0.465333 0.801233 0.122271
O O13 0.544506 0.851700 0.963240
O O14 0.308290 0.654864 0.821488
O O15 0.624282 0.173289 0.568856
O O16 0.083422 0.637039 0.309725
#
# Coordination Sequence:
#
# PCOD8006173 Si02
#       8
#     2   2   2   2   2   2   2   2
#     4  11  21  38  64  91 118 156 205 246 288 354
#     4  12  26  38  59  92 127 156 197 247 304 353
#     4  10  20  40  65  90 118 156 202 248 292 354
#     4  10  22  37  64  91 117 155 205 251 290 345
#     4  11  23  42  62  88 123 162 193 245 306 354
#     4  12  22  40  62  90 118 161 205 243 288 360
#     4  10  20  39  66  88 120 157 202 244 294 357
#     4  10  22  38  59  93 123 154 194 254 301 343
#
# _framework density 20.119662000000002
#
# number of rings (size 3 to 8) (size 9 to 14) (size 15 to 20)
#    0.000    1.250    3.750    3.000    3.500    4.000 
#    0.000    3.750    0.000    0.000    0.000    0.000 
#    0.000    0.000    0.000    0.000    0.000    0.000 
#
# Total GULP energy -198490.024884 kJ/mol
# GULP energy per Si atom -12405.626555 kJ/mol
# Density = 2.007387 g / cm^3
# Si number density = 20.119662 Si / 1000 Ang^3
#
#
#
# Elastic Constant Matrix: (Units=GPa)
#
#
# Indices 1 2 3 4 5 6 
#
# 1 116.7932 17.4659 69.0701 -12.4408 -4.1528 9.5569
# 2 17.4659 67.6874 32.1334 -7.5699 5.0682 3.5486
# 3 69.0701 32.1334 113.7022 -18.3691 3.8724 -3.4549
# 4 -12.4408 -7.5699 -18.3691 14.5122 -4.8308 10.3565
# 5 -4.1528 5.0682 3.8724 -4.8308 32.9912 -5.3649
# 6 9.5569 3.5486 -3.4549 10.3565 -5.3649 17.5033
#
#
#
# Elastic Compliance Matrix: (Units=1/GPa)
#
#
# Indices 1 2 3 4 5 6 
#
# 1 0.018556 0.003816 -0.008807 0.027742 0.002231 -0.028374
# 2 0.003816 0.019724 -0.005090 0.020642 -0.002177 -0.019968
# 3 -0.008807 -0.005090 0.017058 0.008249 -0.000439 0.004192
# 4 0.027742 0.020642 0.008249 0.220579 0.007944 -0.145782
# 5 0.002231 -0.002177 -0.000439 0.007944 0.032875 0.004512
# 6 -0.028374 -0.019968 0.004192 -0.145782 0.004512 0.165140
#
#
# Mechanical properties :
#
#
# Convention : Reuss Voigt Hill
#
# Bulk Modulus (GPa) = 28.42828 59.50240 43.96534
# Shear Modulus (GPa) = 9.88495 24.96891 17.42693
#
# Velocity S-wave (km/s) = 2.21895 3.52663 2.94626
# Velocity P-wave (km/s) = 4.55250 6.79863 5.78561
#
# Compressibility (1/GPa) = 0.03517625
#
# Stress axis : x y z
#
# Youngs Moduli (GPa) = 53.89113 50.69993 58.62276
#
# Poissons Ratio (x) = -0.19346 0.51628
# Poissons Ratio (y) = -0.20564 0.29839
# Poissons Ratio (z) = 0.47461 0.25806
#
# Static dielectric constant tensor:
#      x y z
#    x 3.600280 -0.028050 0.098090 
#    y -0.028050 3.416030 -0.148250 
#    z 0.098090 -0.148250 3.874870 
# 
# 
# High freq. dielectric constant tensor:
#      x y z
#    x 1.786990 0.001420 0.005450 
#    y 0.001420 1.762760 -0.011550 
#    z 0.005450 -0.011550 1.801330 
# 
# From -- ./inp_files/190160.got.cif
#   From: 2010.06.25/outbox.cif.g09.slc.cpg/sg2_96_cif.got.tgz:190160.got - 2010.06.27 13:26:56.
