data_PCOD8006726
_publ_section_title
;
Structure prediction by ZEFSAII (Michael W. Deem and Ramdas Pophale) SiO2 
 PCOD8006726
Probable space group: P -1
;
_chemical_formula_sum "Si O2"
_cell_formula_units_Z 16
_cell_length_a 8.501387
_cell_length_b 8.973477
_cell_length_c 15.468942
_cell_angle_alpha 63.728369
_cell_angle_beta 81.017295
_cell_angle_gamma 123.748472
_cell_volume 740.992810
_symmetry_space_group_name_H-M "P -1"
_symmetry_group_IT_number 2
_symmetry_cell_setting 'triclinic'
loop_
_space_group_symop_operation_xyz
x,y,z
-x,-y,-z
loop_
_atom_site_type_symbol
_atom_site_label
_atom_site_fract_x
_atom_site_fract_y
_atom_site_fract_z
Si Si1 0.787608 0.779605 0.020923
Si Si2 0.551060 0.054323 0.767160
Si Si3 0.522839 0.822235 0.531247
Si Si4 0.917899 0.272552 0.026330
Si Si5 0.062514 0.060574 0.576996
Si Si6 0.572145 0.731214 0.742612
Si Si7 0.787768 0.461312 0.517763
Si Si8 0.719182 0.088568 0.915859
O O1 0.588638 0.540767 0.151043
O O2 0.900118 0.731132 0.957280
O O3 0.683475 0.863721 0.962005
O O4 0.000000 0.000000 0.000000
O O5 0.600405 0.242155 0.651290
O O6 0.745481 0.181281 0.792508
O O7 0.326393 0.949317 0.860755
O O8 0.518102 0.856146 0.770827
O O9 0.743184 0.934936 0.424931
O O10 0.531791 0.739017 0.643599
O O11 0.300957 0.599019 0.557206
O O12 0.500000 0.000000 0.500000
O O13 0.919864 0.279054 0.917741
O O14 0.000000 0.500000 0.000000
O O15 0.161314 0.315512 0.517253
O O16 0.000000 0.000000 0.500000
O O17 0.833127 0.868405 0.701575
O O18 0.000000 0.500000 0.500000
O O19 0.500000 0.000000 0.000000
#
# Coordination Sequence:
#
# PCOD8006726 Si02
#       8
#     2   2   2   2   2   2   2   2
#     4  10  22  42  67  95 129 170 222 274 329 397
#     4  11  22  42  65  94 134 176 217 266 338 389
#     4  11  23  44  69 100 136 176 225 276 339 397
#     4  10  20  40  63  91 128 165 218 276 320 389
#     4  10  23  43  65  98 134 173 223 279 328 402
#     4  11  22  44  69  96 136 176 223 277 335 399
#     4  12  23  43  69  99 137 174 223 278 332 405
#     4   9  22  41  62  90 127 171 215 268 327 385
#
# _framework density 21.592651
#
# number of rings (size 3 to 8) (size 9 to 14) (size 15 to 20)
#    0.000    1.500    3.750    1.125    0.000    8.500 
#    2.250    3.750    0.000    0.000    0.000    0.000 
#    0.000    0.000    0.000    0.000    0.000    0.000 
#
# Total GULP energy -198231.318933 kJ/mol
# GULP energy per Si atom -12389.457433 kJ/mol
# Density = 2.154350 g / cm^3
# Si number density = 21.592651 Si / 1000 Ang^3
#
#
#
# Elastic Constant Matrix: (Units=GPa)
#
#
# Indices 1 2 3 4 5 6 
#
# 1 154.0747 45.1200 29.3870 -2.9458 -17.2655 -20.5399
# 2 45.1200 140.5921 32.2512 -3.6356 6.0041 -12.6625
# 3 29.3870 32.2512 81.2934 -10.5236 -2.5257 1.1635
# 4 -2.9458 -3.6356 -10.5236 39.1849 2.3112 5.1073
# 5 -17.2655 6.0041 -2.5257 2.3112 30.9183 1.7832
# 6 -20.5399 -12.6625 1.1635 5.1073 1.7832 40.7935
#
#
#
# Elastic Compliance Matrix: (Units=1/GPa)
#
#
# Indices 1 2 3 4 5 6 
#
# 1 0.008557 -0.002132 -0.002267 -0.000922 0.004868 0.003614
# 2 -0.002132 0.008754 -0.002851 -0.000170 -0.003220 0.001887
# 3 -0.002267 -0.002851 0.014811 0.003906 0.000376 -0.002954
# 4 -0.000922 -0.000170 0.003906 0.027113 -0.001962 -0.003937
# 5 0.004868 -0.003220 0.000376 -0.001962 0.035857 0.000119
# 6 0.003614 0.001887 -0.002954 -0.003937 0.000119 0.027491
#
#
# Mechanical properties :
#
#
# Convention : Reuss Voigt Hill
#
# Bulk Modulus (GPa) = 56.74988 65.49740 61.12364
# Shear Modulus (GPa) = 34.97520 40.12615 37.55067
#
# Velocity S-wave (km/s) = 4.02901 4.31551 4.17471
# Velocity P-wave (km/s) = 6.92697 7.43172 7.18378
#
# Compressibility (1/GPa) = 0.01762118
#
# Stress axis : x y z
#
# Youngs Moduli (GPa) = 116.86611 114.23053 67.51557
#
# Poissons Ratio (x) = 0.24357 0.15306
# Poissons Ratio (y) = 0.24919 0.19250
# Poissons Ratio (z) = 0.26494 0.32570
#
# Static dielectric constant tensor:
#      x y z
#    x 4.575040 0.135460 -0.094970 
#    y 0.135460 4.151900 0.174630 
#    z -0.094970 0.174630 3.850840 
# 
# 
# High freq. dielectric constant tensor:
#      x y z
#    x 1.868250 -0.005970 -0.015740 
#    y -0.005970 1.859140 0.004730 
#    z -0.015740 0.004730 1.823800 
# 
# From -- ./inp_files/494660.got.cif
#   From: 2010.06.25/outbox.cif.g09.slc.cpg/sg2_248_cif.got.tgz:494660.got - 2010.06.27 13:26:56.
