data_PCOD8006788
_publ_section_title
;
Structure prediction by ZEFSAII (Michael W. Deem and Ramdas Pophale) SiO2 
 PCOD8006788
Probable space group: P -1
;
_chemical_formula_sum "Si O2"
_cell_formula_units_Z 16
_cell_length_a 6.785942
_cell_length_b 19.794695
_cell_length_c 20.170275
_cell_angle_alpha 158.697258
_cell_angle_beta 64.024411
_cell_angle_gamma 103.701703
_cell_volume 753.565481
_symmetry_space_group_name_H-M "P -1"
_symmetry_group_IT_number 2
_symmetry_cell_setting 'triclinic'
loop_
_space_group_symop_operation_xyz
x,y,z
-x,-y,-z
loop_
_atom_site_type_symbol
_atom_site_label
_atom_site_fract_x
_atom_site_fract_y
_atom_site_fract_z
Si Si1 0.002863 0.551945 0.389755
Si Si2 0.260092 0.351766 0.748754
Si Si3 0.215416 0.012255 0.098855
Si Si4 0.095170 0.732109 0.939321
Si Si5 0.533924 0.379958 0.102820
Si Si6 0.562270 0.895448 0.231251
Si Si7 0.804737 0.724848 0.768738
Si Si8 0.338075 0.385142 0.914640
O O1 0.231076 0.557622 0.321965
O O2 0.136513 0.329885 0.212482
O O3 0.824816 0.782283 0.662857
O O4 0.837086 0.498423 0.314602
O O5 0.326449 0.530415 0.880722
O O6 0.363224 0.278642 0.741493
O O7 0.398011 0.154934 0.497013
O O8 0.959834 0.439629 0.867181
O O9 0.144000 0.094919 0.108273
O O10 0.040514 0.919046 0.064121
O O11 0.508118 0.810114 0.874871
O O12 0.852833 0.819889 0.102981
O O13 0.335421 0.692880 0.911405
O O14 0.562986 0.172597 0.870347
O O15 0.547253 0.803082 0.219914
O O16 0.000000 0.500000 0.500000
O O17 0.500000 0.500000 0.000000
#
# Coordination Sequence:
#
# PCOD8006788 Si02
#       8
#     2   2   2   2   2   2   2   2
#     4  10  22  40  62  90 124 158 203 254 299 360
#     4  11  24  41  65  89 122 163 201 252 308 358
#     4  10  20  40  64  89 124 162 200 252 305 353
#     4  11  23  40  64  91 122 162 204 247 304 365
#     4  11  22  42  61  90 127 156 205 256 294 365
#     4  11  24  42  64  92 120 161 205 247 309 363
#     4   9  19  39  64  90 125 159 203 255 296 355
#     4  11  23  43  63  91 124 156 207 255 298 365
#
# _framework density 21.232392000000001
#
# number of rings (size 3 to 8) (size 9 to 14) (size 15 to 20)
#    0.000    1.500    3.750    1.125    0.000    3.000 
#    2.250    5.625    0.000    0.000    0.000    0.000 
#    0.000    0.000    0.000    0.000    0.000    0.000 
#
# Total GULP energy -198330.412984 kJ/mol
# GULP energy per Si atom -12395.650811 kJ/mol
# Density = 2.118407 g / cm^3
# Si number density = 21.232392 Si / 1000 Ang^3
#
#
#
# Elastic Constant Matrix: (Units=GPa)
#
#
# Indices 1 2 3 4 5 6 
#
# 1 107.9246 21.7499 37.4780 -0.8640 10.6458 4.3724
# 2 21.7499 93.7012 0.2327 5.0460 -1.4719 23.4708
# 3 37.4780 0.2327 104.2430 -13.4515 5.2191 10.9243
# 4 -0.8640 5.0460 -13.4515 28.3043 -1.4167 2.0075
# 5 10.6458 -1.4719 5.2191 -1.4167 20.7064 6.5178
# 6 4.3724 23.4708 10.9243 2.0075 6.5178 23.3161
#
#
#
# Elastic Compliance Matrix: (Units=1/GPa)
#
#
# Indices 1 2 3 4 5 6 
#
# 1 0.012440 -0.004668 -0.005088 -0.002103 -0.007830 0.007120
# 2 -0.004668 0.016983 0.003360 0.000334 0.009203 -0.020396
# 3 -0.005088 0.003360 0.013125 0.006349 0.003128 -0.009999
# 4 -0.002103 0.000334 0.006349 0.038987 0.004547 -0.007544
# 5 -0.007830 0.009203 0.003128 0.004547 0.060893 -0.026675
# 6 0.007120 -0.020396 -0.009999 -0.007544 -0.026675 0.074876
#
#
# Mechanical properties :
#
#
# Convention : Reuss Voigt Hill
#
# Bulk Modulus (GPa) = 33.60552 47.19890 40.40221
# Shear Modulus (GPa) = 20.83205 30.89259 25.86232
#
# Velocity S-wave (km/s) = 3.13572 3.81855 3.49386
# Velocity P-wave (km/s) = 5.38258 6.45908 5.94524
#
# Compressibility (1/GPa) = 0.02975702
#
# Stress axis : x y z
#
# Youngs Moduli (GPa) = 80.38348 58.88264 76.18968
#
# Poissons Ratio (x) = 0.27488 0.38763
# Poissons Ratio (y) = 0.37525 -0.25601
# Poissons Ratio (z) = 0.40896 -0.19786
#
# Static dielectric constant tensor:
#      x y z
#    x 3.707470 -0.063720 -0.009280 
#    y -0.063720 4.413370 0.006580 
#    z -0.009280 0.006580 3.646660 
# 
# 
# High freq. dielectric constant tensor:
#      x y z
#    x 1.821660 0.006900 0.001100 
#    y 0.006900 1.859890 -0.007060 
#    z 0.001100 -0.007060 1.817720 
# 
# From -- ./inp_files/11197.got.cif
#   From: 2010.06.25/outbox.cif.g09.slc.cpg/sg2_6_cif.got.tgz:11197.got - 2010.06.27 13:26:56.
