data_PCOD8006716
_publ_section_title
;
Structure prediction by ZEFSAII (Michael W. Deem and Ramdas Pophale) SiO2 
 PCOD8006716
Probable space group: P -1
;
_chemical_formula_sum "Si O2"
_cell_formula_units_Z 16
_cell_length_a 11.480915
_cell_length_b 17.542359
_cell_length_c 20.655171
_cell_angle_alpha 160.698641
_cell_angle_beta 40.854921
_cell_angle_gamma 147.004674
_cell_volume 734.340988
_symmetry_space_group_name_H-M "P -1"
_symmetry_group_IT_number 2
_symmetry_cell_setting 'triclinic'
loop_
_space_group_symop_operation_xyz
x,y,z
-x,-y,-z
loop_
_atom_site_type_symbol
_atom_site_label
_atom_site_fract_x
_atom_site_fract_y
_atom_site_fract_z
Si Si1 0.809349 0.285308 0.731104
Si Si2 0.812210 0.697024 0.471814
Si Si3 0.689706 0.137939 0.403973
Si Si4 0.953484 0.726971 0.835487
Si Si5 0.658107 0.684632 0.668964
Si Si6 0.086648 0.170007 0.923664
Si Si7 0.837776 0.199823 0.795765
Si Si8 0.643767 0.170156 0.302197
O O1 0.875428 0.221737 0.720501
O O2 0.984268 0.324506 0.636434
O O3 0.566179 0.037246 0.612654
O O4 0.822089 0.573600 0.959941
O O5 0.777643 0.737876 0.593141
O O6 0.588396 0.402358 0.305317
O O7 0.871757 0.971248 0.626628
O O8 0.791836 0.445160 0.636602
O O9 0.729643 0.153180 0.322462
O O10 0.803494 0.994435 0.270879
O O11 0.188758 0.779408 0.783578
O O12 0.849949 0.694112 0.922651
O O13 0.000000 0.000000 0.000000
O O14 0.627044 0.431155 0.520020
O O15 0.822128 0.967146 0.867218
O O16 0.593011 0.110919 0.840500
O O17 0.000000 0.500000 0.000000
#
# Coordination Sequence:
#
# PCOD8006716 Si02
#       8
#     2   2   2   2   2   2   2   2
#     4  11  25  41  63  94 126 172 214 252 319 384
#     4  10  22  42  65  92 124 164 213 262 325 368
#     4  11  24  44  61  91 141 165 205 268 305 378
#     4  12  23  38  66  95 122 169 216 252 315 375
#     4  10  21  40  67  92 125 163 204 273 314 365
#     4  12  24  41  65  95 128 169 213 257 316 377
#     4  10  22  40  64  89 127 166 207 265 319 377
#     4  10  20  40  63  90 130 166 203 263 322 362
#
# _framework density 21.788243000000001
#
# number of rings (size 3 to 8) (size 9 to 14) (size 15 to 20)
#    0.000    1.250    2.500    3.375    0.000    3.000 
#    2.250    0.000    0.000    0.000    0.000    0.000 
#    0.000    0.000    0.000    0.000    0.000    0.000 
#
# Total GULP energy -198392.999528 kJ/mol
# GULP energy per Si atom -12399.562471 kJ/mol
# Density = 2.173865 g / cm^3
# Si number density = 21.788243 Si / 1000 Ang^3
#
#
#
# Elastic Constant Matrix: (Units=GPa)
#
#
# Indices 1 2 3 4 5 6 
#
# 1 82.6573 31.2873 43.5492 14.6052 -2.0021 7.4881
# 2 31.2873 117.4920 42.8512 11.7888 7.1027 20.2676
# 3 43.5492 42.8512 122.6738 27.3471 8.1992 17.2860
# 4 14.6052 11.7888 27.3471 35.3279 4.2699 -2.1643
# 5 -2.0021 7.1027 8.1992 4.2699 35.5815 13.7076
# 6 7.4881 20.2676 17.2860 -2.1643 13.7076 37.6230
#
#
#
# Elastic Compliance Matrix: (Units=1/GPa)
#
#
# Indices 1 2 3 4 5 6 
#
# 1 0.015932 -0.002383 -0.004179 -0.003023 0.003202 -0.001307
# 2 -0.002383 0.010783 -0.001983 -0.001365 0.000080 -0.004531
# 3 -0.004179 -0.001983 0.012647 -0.007640 -0.000187 -0.004282
# 4 -0.003023 -0.001365 -0.007640 0.037237 -0.006163 0.009235
# 5 0.003202 0.000080 -0.000187 -0.006163 0.034220 -0.013417
# 6 -0.001307 -0.004531 -0.004282 0.009235 -0.013417 0.036667
#
#
# Mechanical properties :
#
#
# Convention : Reuss Voigt Hill
#
# Bulk Modulus (GPa) = 44.90089 62.02206 53.46148
# Shear Modulus (GPa) = 29.06959 35.38218 32.22589
#
# Velocity S-wave (km/s) = 3.65662 4.03415 3.85001
# Velocity P-wave (km/s) = 6.20325 7.08709 6.65985
#
# Compressibility (1/GPa) = 0.02227127
#
# Stress axis : x y z
#
# Youngs Moduli (GPa) = 62.76549 92.74010 79.06915
#
# Poissons Ratio (x) = 0.22101 0.33045
# Poissons Ratio (y) = 0.14957 0.15681
# Poissons Ratio (z) = 0.26232 0.18392
#
# Static dielectric constant tensor:
#      x y z
#    x 4.169880 0.123900 -0.096920 
#    y 0.123900 4.085350 0.227450 
#    z -0.096920 0.227450 3.783990 
# 
# 
# High freq. dielectric constant tensor:
#      x y z
#    x 1.868050 0.001870 -0.006560 
#    y 0.001870 1.859640 0.022090 
#    z -0.006560 0.022090 1.844590 
# 
# From -- ./inp_files/97598.got.cif
#   From: 2010.06.25/outbox.cif.g09.slc.cpg/sg2_49_cif.got.tgz:97598.got - 2010.06.27 13:26:56.
