data_PCOD8006066
_publ_section_title
;
Structure prediction by ZEFSAII (Michael W. Deem and Ramdas Pophale) SiO2 
 PCOD8006066
Probable space group: P -1
;
_chemical_formula_sum "Si O2"
_cell_formula_units_Z 16
_cell_length_a 12.562129
_cell_length_b 8.300905
_cell_length_c 9.492807
_cell_angle_alpha 93.440620
_cell_angle_beta 100.184960
_cell_angle_gamma 49.721294
_cell_volume 741.342770
_symmetry_space_group_name_H-M "P -1"
_symmetry_group_IT_number 2
_symmetry_cell_setting 'triclinic'
loop_
_space_group_symop_operation_xyz
x,y,z
-x,-y,-z
loop_
_atom_site_type_symbol
_atom_site_label
_atom_site_fract_x
_atom_site_fract_y
_atom_site_fract_z
Si Si1 0.506481 0.957174 0.662000
Si Si2 0.868979 0.882993 0.133595
Si Si3 0.605211 0.536146 0.582640
Si Si4 0.703052 0.582364 0.318897
Si Si5 0.796091 0.734242 0.843750
Si Si6 0.176132 0.667298 0.144795
Si Si7 0.034557 0.488830 0.668790
Si Si8 0.660245 0.356383 0.079784
O O1 0.515210 0.753662 0.666391
O O2 0.637817 0.921895 0.764588
O O3 0.500000 0.000000 0.500000
O O4 0.371570 0.171311 0.714982
O O5 0.894757 0.741923 0.265157
O O6 0.008773 0.861348 0.142855
O O7 0.728697 0.125326 0.144929
O O8 0.841653 0.803825 0.984535
O O9 0.500000 0.500000 0.500000
O O10 0.685583 0.549623 0.475848
O O11 0.730447 0.351166 0.704053
O O12 0.863342 0.454532 0.300526
O O13 0.640540 0.501491 0.207281
O O14 0.807324 0.539410 0.885430
O O15 0.895881 0.672729 0.731077
O O16 0.230941 0.699682 0.019617
O O17 0.000000 0.500000 0.500000
O O18 0.500000 0.500000 0.000000
#
# Coordination Sequence:
#
# PCOD8006066 Si02
#       8
#     2   2   2   2   2   2   2   2
#     4   9  19  37  61  88 118 161 207 246 305 377
#     4  11  23  41  63  91 123 167 210 251 314 383
#     4  10  21  39  62  89 122 163 206 253 310 379
#     4  11  22  39  60  89 122 156 202 260 304 356
#     4  10  20  39  65  89 118 165 209 251 308 380
#     4  10  21  41  62  85 122 165 205 249 307 380
#     4  11  22  40  65  94 123 153 203 268 317 364
#     4  12  25  40  59  91 128 162 204 262 310 357
#
# _framework density 21.582457999999999
#
# number of rings (size 3 to 8) (size 9 to 14) (size 15 to 20)
#    0.000    1.500    0.000    7.875    0.000    4.000 
#    0.000    9.375    0.000    0.000    0.000    0.000 
#    0.000    0.000    0.000    0.000    0.000    0.000 
#
# Total GULP energy -198332.158093 kJ/mol
# GULP energy per Si atom -12395.759881 kJ/mol
# Density = 2.153334 g / cm^3
# Si number density = 21.582458 Si / 1000 Ang^3
#
#
#
# Elastic Constant Matrix: (Units=GPa)
#
#
# Indices 1 2 3 4 5 6 
#
# 1 86.9110 19.3888 26.9165 3.7394 11.5206 -3.0899
# 2 19.3888 89.0159 41.4916 4.4477 14.4333 -0.0696
# 3 26.9165 41.4916 126.2309 -1.8792 17.1631 2.0093
# 4 3.7394 4.4477 -1.8792 29.7060 0.9332 8.3049
# 5 11.5206 14.4333 17.1631 0.9332 48.0286 0.4373
# 6 -3.0899 -0.0696 2.0093 8.3049 0.4373 23.0327
#
#
#
# Elastic Compliance Matrix: (Units=1/GPa)
#
#
# Indices 1 2 3 4 5 6 
#
# 1 0.012922 -0.001406 -0.002112 -0.002263 -0.001903 0.002766
# 2 -0.001406 0.013912 -0.004003 -0.002395 -0.002376 0.001111
# 3 -0.002112 -0.004003 0.010006 0.002084 -0.001889 -0.001884
# 4 -0.002263 -0.002395 0.002084 0.038455 -0.000099 -0.014357
# 5 -0.001903 -0.002376 -0.001889 -0.000099 0.022673 -0.000493
# 6 0.002766 0.001111 -0.001884 -0.014357 -0.000493 0.049141
#
#
# Mechanical properties :
#
#
# Convention : Reuss Voigt Hill
#
# Bulk Modulus (GPa) = 45.87777 53.08352 49.48064
# Shear Modulus (GPa) = 29.51272 34.44419 31.97845
#
# Velocity S-wave (km/s) = 3.70190 3.99925 3.85345
# Velocity P-wave (km/s) = 6.29089 6.78044 6.54025
#
# Compressibility (1/GPa) = 0.02179705
#
# Stress axis : x y z
#
# Youngs Moduli (GPa) = 77.38830 71.87993 99.93893
#
# Poissons Ratio (x) = 0.10108 0.21108
# Poissons Ratio (y) = 0.10882 0.40008
# Poissons Ratio (z) = 0.16345 0.28775
#
# Static dielectric constant tensor:
#      x y z
#    x 4.113760 -0.318930 0.188090 
#    y -0.318930 4.583190 -0.151840 
#    z 0.188090 -0.151840 4.022880 
# 
# 
# High freq. dielectric constant tensor:
#      x y z
#    x 1.852890 -0.009390 0.010180 
#    y -0.009390 1.838930 -0.007130 
#    z 0.010180 -0.007130 1.858080 
# 
# From -- ./inp_files/184259.got.cif
#   From: 2010.06.25/outbox.cif.g09.slc.cpg/sg2_93_cif.got.tgz:184259.got - 2010.06.27 13:26:56.
