data_PCOD8006405
_publ_section_title
;
Structure prediction by ZEFSAII (Michael W. Deem and Ramdas Pophale) SiO2 
 PCOD8006405
Probable space group: P -1
;
_chemical_formula_sum "Si O2"
_cell_formula_units_Z 16
_cell_length_a 18.721929
_cell_length_b 15.481644
_cell_length_c 5.855839
_cell_angle_alpha 90.148150
_cell_angle_beta 83.867692
_cell_angle_gamma 154.322079
_cell_volume 713.749109
_symmetry_space_group_name_H-M "P -1"
_symmetry_group_IT_number 2
_symmetry_cell_setting 'triclinic'
loop_
_space_group_symop_operation_xyz
x,y,z
-x,-y,-z
loop_
_atom_site_type_symbol
_atom_site_label
_atom_site_fract_x
_atom_site_fract_y
_atom_site_fract_z
Si Si1 0.859822 0.419766 0.018260
Si Si2 0.715049 0.015312 0.504110
Si Si3 0.238537 0.064329 0.904142
Si Si4 0.987504 0.700767 0.292246
Si Si5 0.571142 0.008846 0.302824
Si Si6 0.750270 0.442371 0.752962
Si Si7 0.443806 0.641343 0.889986
Si Si8 0.589414 0.581596 0.219322
O O1 0.873344 0.501790 0.220402
O O2 0.673739 0.172485 0.073798
O O3 0.869766 0.491809 0.792202
O O4 0.000000 0.500000 0.000000
O O5 0.712127 0.103559 0.379525
O O6 0.849310 0.170288 0.661430
O O7 0.779769 0.009109 0.321111
O O8 0.527470 0.789458 0.662233
O O9 0.249630 0.178090 0.837832
O O10 0.411067 0.223102 0.973727
O O11 0.064493 0.858609 0.102459
O O12 0.857775 0.604098 0.514885
O O13 0.500000 0.000000 0.500000
O O14 0.433285 0.794456 0.248086
O O15 0.713640 0.476146 0.953276
O O16 0.362123 0.466593 0.802963
O O17 0.500000 0.500000 0.500000
O O18 0.500000 0.500000 0.000000
#
# Coordination Sequence:
#
# PCOD8006405 Si02
#       8
#     2   2   2   2   2   2   2   2
#     4  12  27  43  62  90 128 180 232 274 335 408
#     4  11  22  41  66  92 127 173 225 275 338 406
#     4  10  20  41  66  98 131 173 222 272 340 411
#     4  11  25  42  62  91 133 181 219 273 342 415
#     4  12  24  41  64  93 126 172 225 289 337 394
#     4  12  25  43  63  96 136 175 221 284 349 402
#     4  10  22  38  69 100 131 172 217 286 346 404
#     4  10  20  39  69 110 138 173 231 290 343 422
#
# _framework density 22.416841000000002
#
# number of rings (size 3 to 8) (size 9 to 14) (size 15 to 20)
#    0.000    1.000    3.750    3.375    3.500    1.000 
#    0.000    0.625    0.000    3.000    0.000    0.000 
#    0.000    0.000    0.000    0.000    0.000    0.000 
#
# Total GULP energy -198259.907516 kJ/mol
# GULP energy per Si atom -12391.244220 kJ/mol
# Density = 2.236582 g / cm^3
# Si number density = 22.416841 Si / 1000 Ang^3
#
#
#
# Elastic Constant Matrix: (Units=GPa)
#
#
# Indices 1 2 3 4 5 6 
#
# 1 71.0825 37.6455 27.0196 -12.4270 -12.3859 -19.1231
# 2 37.6455 93.0651 38.6399 -21.1603 -5.8060 -20.0077
# 3 27.0196 38.6399 139.6423 -28.7301 -15.3518 -15.2648
# 4 -12.4270 -21.1603 -28.7301 43.0134 4.7783 3.7259
# 5 -12.3859 -5.8060 -15.3518 4.7783 32.4113 2.2860
# 6 -19.1231 -20.0077 -15.2648 3.7259 2.2860 33.7936
#
#
#
# Elastic Compliance Matrix: (Units=1/GPa)
#
#
# Indices 1 2 3 4 5 6 
#
# 1 0.020638 -0.005810 -0.000654 0.001381 0.005811 0.007398
# 2 -0.005810 0.015901 -0.001952 0.004567 -0.001310 0.004830
# 3 -0.000654 -0.001952 0.009313 0.004567 0.002999 0.001974
# 4 0.001381 0.004567 0.004567 0.028836 -0.000913 0.002431
# 5 0.005811 -0.001310 0.002999 -0.000913 0.034278 0.001649
# 6 0.007398 0.004830 0.001974 0.002431 0.001649 0.037150
#
#
# Mechanical properties :
#
#
# Convention : Reuss Voigt Hill
#
# Bulk Modulus (GPa) = 34.45875 56.71110 45.58493
# Shear Modulus (GPa) = 28.96535 35.20930 32.08733
#
# Velocity S-wave (km/s) = 3.59851 3.96746 3.78748
# Velocity P-wave (km/s) = 5.71585 6.80742 6.28538
#
# Compressibility (1/GPa) = 0.02902020
#
# Stress axis : x y z
#
# Youngs Moduli (GPa) = 48.45479 62.89021 107.37644
#
# Poissons Ratio (x) = 0.36536 0.07022
# Poissons Ratio (y) = 0.28150 0.20962
# Poissons Ratio (z) = 0.03169 0.12277
#
# Static dielectric constant tensor:
#      x y z
#    x 3.981250 -0.327920 0.163440 
#    y -0.327920 4.308780 -0.006730 
#    z 0.163440 -0.006730 4.261940 
# 
# 
# High freq. dielectric constant tensor:
#      x y z
#    x 1.863260 -0.016380 0.006610 
#    y -0.016380 1.884980 -0.002980 
#    z 0.006610 -0.002980 1.896060 
# 
# From -- ./inp_files/38484.got.cif
#   From: 2010.06.25/outbox.cif.g09.slc.cpg/sg2_20_cif.got.tgz:38484.got - 2010.06.27 13:26:56.
