data_PCOD8006659
_publ_section_title
;
Structure prediction by ZEFSAII (Michael W. Deem and Ramdas Pophale) SiO2 
 PCOD8006659
Probable space group: P -1
;
_chemical_formula_sum "Si O2"
_cell_formula_units_Z 16
_cell_length_a 7.688445
_cell_length_b 18.384455
_cell_length_c 22.192662
_cell_angle_alpha 17.827779
_cell_angle_beta 117.280709
_cell_angle_gamma 126.764864
_cell_volume 685.351910
_symmetry_space_group_name_H-M "P -1"
_symmetry_group_IT_number 2
_symmetry_cell_setting 'triclinic'
loop_
_space_group_symop_operation_xyz
x,y,z
-x,-y,-z
loop_
_atom_site_type_symbol
_atom_site_label
_atom_site_fract_x
_atom_site_fract_y
_atom_site_fract_z
Si Si1 0.951895 0.150124 0.424813
Si Si2 0.544938 0.294277 0.941525
Si Si3 0.540518 0.670381 0.967085
Si Si4 0.909265 0.975784 0.343187
Si Si5 0.282034 0.605669 0.863758
Si Si6 0.994606 0.286333 0.540049
Si Si7 0.736262 0.395121 0.558002
Si Si8 0.374134 0.555647 0.623424
O O1 0.184791 0.483542 0.217529
O O2 0.889341 0.953445 0.630002
O O3 0.737179 0.161792 0.358086
O O4 0.000000 0.000000 0.500000
O O5 0.358808 0.311229 0.856099
O O6 0.578244 0.429856 0.906988
O O7 0.460987 0.960488 0.193106
O O8 0.403644 0.744805 0.838784
O O9 0.812601 0.959469 0.796033
O O10 0.544661 0.420532 0.131643
O O11 0.653777 0.856928 0.429226
O O12 0.892619 0.731770 0.489637
O O13 0.017221 0.286925 0.082174
O O14 0.831591 0.410256 0.410952
O O15 0.233317 0.475173 0.472629
O O16 0.668724 0.531549 0.386229
O O17 0.000000 0.500000 0.500000
#
# Coordination Sequence:
#
# PCOD8006659 Si02
#       8
#     2   2   2   2   2   2   2   2
#     4  11  25  40  63  95 124 166 209 256 318 375
#     4  11  22  38  63  93 121 161 211 249 317 374
#     4  10  21  40  60  92 120 166 208 255 316 369
#     4  10  23  43  60  97 122 164 213 251 319 373
#     4  10  23  40  62  87 128 160 208 263 309 371
#     4  10  22  41  64  87 127 162 207 260 308 370
#     4  10  20  40  62  93 123 161 210 255 311 374
#     4  10  22  38  64  88 125 162 200 262 308 368
#
# _framework density 23.345672
#
# number of rings (size 3 to 8) (size 9 to 14) (size 15 to 20)
#    0.000    1.750    2.500    1.500    5.250    3.500 
#    0.000    5.000    0.000    0.000    0.000    0.000 
#    0.000    0.000    0.000    0.000    0.000    0.000 
#
# Total GULP energy -198216.806002 kJ/mol
# GULP energy per Si atom -12388.550375 kJ/mol
# Density = 2.329254 g / cm^3
# Si number density = 23.345672 Si / 1000 Ang^3
#
#
#
# Elastic Constant Matrix: (Units=GPa)
#
#
# Indices 1 2 3 4 5 6 
#
# 1 42.1769 18.5140 -7.2453 -1.2929 7.8477 -5.9773
# 2 18.5140 149.1146 20.1396 21.2288 23.4354 -10.2550
# 3 -7.2453 20.1396 37.8245 2.4971 4.9160 0.4097
# 4 -1.2929 21.2288 2.4971 43.1074 12.3406 1.9441
# 5 7.8477 23.4354 4.9160 12.3406 28.7633 -1.7777
# 6 -5.9773 -10.2550 0.4097 1.9441 -1.7777 40.6406
#
#
#
# Elastic Compliance Matrix: (Units=1/GPa)
#
#
# Indices 1 2 3 4 5 6 
#
# 1 0.028821 -0.003922 0.008305 0.004439 -0.007831 0.002611
# 2 -0.003922 0.009055 -0.004861 -0.003234 -0.003982 0.001738
# 3 0.008305 -0.004861 0.031076 0.002186 -0.004593 -0.000624
# 4 0.004439 -0.003234 0.002186 0.028071 -0.011118 -0.002014
# 5 -0.007831 -0.003982 -0.004593 -0.011118 0.045729 0.000422
# 6 0.002611 0.001738 -0.000624 -0.002014 0.000422 0.025549
#
#
# Mechanical properties :
#
#
# Convention : Reuss Voigt Hill
#
# Bulk Modulus (GPa) = 14.70621 32.43696 23.57158
# Shear Modulus (GPa) = 26.05228 35.68277 30.86753
#
# Velocity S-wave (km/s) = 3.34419 3.91379 3.64014
# Velocity P-wave (km/s) = 4.60700 5.86072 5.27126
#
# Compressibility (1/GPa) = 0.06799847
#
# Stress axis : x y z
#
# Youngs Moduli (GPa) = 34.69698 110.43087 32.17896
#
# Poissons Ratio (x) = 0.43309 -0.26725
# Poissons Ratio (y) = 0.13607 0.15641
# Poissons Ratio (z) = -0.28817 0.53675
#
# Static dielectric constant tensor:
#      x y z
#    x 3.940330 -0.298530 -0.012050 
#    y -0.298530 4.138990 0.001330 
#    z -0.012050 0.001330 4.127600 
# 
# 
# High freq. dielectric constant tensor:
#      x y z
#    x 1.907330 0.005330 -0.008660 
#    y 0.005330 1.942170 0.005990 
#    z -0.008660 0.005990 1.905350 
# 
# From -- ./inp_files/590895.got.cif
#   From: 2010.06.25/outbox.cif.g09.slc.cpg/sg2_296_cif.got.tgz:590895.got - 2010.06.27 13:26:56.
