data_PCOD8006282
_publ_section_title
;
Structure prediction by ZEFSAII (Michael W. Deem and Ramdas Pophale) SiO2 
 PCOD8006282
Probable space group: P -1
;
_chemical_formula_sum "Si O2"
_cell_formula_units_Z 16
_cell_length_a 13.171153
_cell_length_b 14.393347
_cell_length_c 14.351885
_cell_angle_alpha 150.079793
_cell_angle_beta 149.052932
_cell_angle_gamma 40.376545
_cell_volume 696.077726
_symmetry_space_group_name_H-M "P -1"
_symmetry_group_IT_number 2
_symmetry_cell_setting 'triclinic'
loop_
_space_group_symop_operation_xyz
x,y,z
-x,-y,-z
loop_
_atom_site_type_symbol
_atom_site_label
_atom_site_fract_x
_atom_site_fract_y
_atom_site_fract_z
Si Si1 0.405997 0.867310 0.176480
Si Si2 0.353880 0.196686 0.868143
Si Si3 0.852618 0.423141 0.932880
Si Si4 0.751424 0.674347 0.752782
Si Si5 0.927262 0.027732 0.124011
Si Si6 0.659626 0.170723 0.709360
Si Si7 0.313146 0.796015 0.549320
Si Si8 0.264688 0.734975 0.665523
O O1 0.552730 0.768979 0.130050
O O2 0.411084 0.750103 0.175566
O O3 0.480742 0.073208 0.434600
O O4 0.179813 0.876218 0.967091
O O5 0.269670 0.992941 0.633308
O O6 0.178263 0.354048 0.885259
O O7 0.520783 0.204863 0.085088
O O8 0.726809 0.332442 0.836666
O O9 0.784018 0.361719 0.724422
O O10 0.084532 0.362963 0.070080
O O11 0.544742 0.734642 0.691468
O O12 0.739264 0.488165 0.519383
O O13 0.812804 0.839848 0.879808
O O14 0.160995 0.984899 0.260301
O O15 0.901834 0.160679 0.310159
O O16 0.217628 0.801194 0.580670
#
# Coordination Sequence:
#
# PCOD8006282 Si02
#       8
#     2   2   2   2   2   2   2   2
#     4  10  20  39  67  90 119 168 205 252 317 370
#     4  11  23  41  68  90 126 167 208 258 312 371
#     4  11  25  40  64  94 130 164 207 262 311 368
#     4  11  23  40  63  91 127 167 210 254 311 364
#     4  10  22  41  63  92 126 163 206 258 309 371
#     4  10  21  40  65  91 125 161 204 261 314 367
#     4  12  23  46  62  90 131 168 211 257 309 370
#     4  11  24  39  69  90 123 171 212 252 310 374
#
# _framework density 22.985938999999998
#
# number of rings (size 3 to 8) (size 9 to 14) (size 15 to 20)
#    0.000    1.250    5.000    1.125    1.750    1.000 
#    0.000    3.125    0.000    3.750    0.000    0.000 
#    0.000    0.000    0.000    0.000    0.000    0.000 
#
# Total GULP energy -198422.235033 kJ/mol
# GULP energy per Si atom -12401.389690 kJ/mol
# Density = 2.293362 g / cm^3
# Si number density = 22.985939 Si / 1000 Ang^3
#
#
#
# Elastic Constant Matrix: (Units=GPa)
#
#
# Indices 1 2 3 4 5 6 
#
# 1 72.6604 27.4537 35.3394 -7.2794 -35.4163 7.6827
# 2 27.4537 72.6935 24.7678 1.2628 -16.1812 -9.0758
# 3 35.3394 24.7678 78.9367 0.9931 -17.4589 -6.4077
# 4 -7.2794 1.2628 0.9931 46.4636 1.1467 -0.5123
# 5 -35.4163 -16.1812 -17.4589 1.1467 29.6084 -5.8627
# 6 7.6827 -9.0758 -6.4077 -0.5123 -5.8627 24.5843
#
#
#
# Elastic Compliance Matrix: (Units=1/GPa)
#
#
# Indices 1 2 3 4 5 6 
#
# 1 0.039459 -0.004493 -0.008449 0.005466 0.038169 -0.006976
# 2 -0.004493 0.018434 -0.001818 -0.001201 0.005458 0.009012
# 3 -0.008449 -0.001818 0.017760 -0.001598 0.000771 0.006748
# 4 0.005466 -0.001201 -0.001598 0.022338 0.003839 -0.001187
# 5 0.038169 0.005458 0.000771 0.003839 0.084816 0.010595
# 6 -0.006976 0.009012 0.006748 -0.001187 0.010595 0.050444
#
#
# Mechanical properties :
#
#
# Convention : Reuss Voigt Hill
#
# Bulk Modulus (GPa) = 21.67708 44.37916 33.02812
# Shear Modulus (GPa) = 17.97602 29.24658 23.61130
#
# Velocity S-wave (km/s) = 2.79954 3.57090 3.20848
# Velocity P-wave (km/s) = 4.46105 6.02916 5.30338
#
# Compressibility (1/GPa) = 0.04613168
#
# Stress axis : x y z
#
# Youngs Moduli (GPa) = 25.34288 54.24777 56.30737
#
# Poissons Ratio (x) = 0.24376 0.47572
# Poissons Ratio (y) = 0.11387 0.10239
# Poissons Ratio (z) = 0.21411 0.09865
#
# Static dielectric constant tensor:
#      x y z
#    x 4.024270 -0.053240 -0.069340 
#    y -0.053240 4.083120 -0.042760 
#    z -0.069340 -0.042760 4.253700 
# 
# 
# High freq. dielectric constant tensor:
#      x y z
#    x 1.902660 -0.001310 -0.007140 
#    y -0.001310 1.896510 -0.012430 
#    z -0.007140 -0.012430 1.915040 
# 
# From -- ./inp_files/534641.got.cif
#   From: 2010.06.25/outbox.cif.g09.slc.cpg/sg2_268_cif.got.tgz:534641.got - 2010.06.27 13:26:56.
