data_PCOD8006636
_publ_section_title
;
Structure prediction by ZEFSAII (Michael W. Deem and Ramdas Pophale) SiO2 
 PCOD8006636
Probable space group: P -1
;
_chemical_formula_sum "Si O2"
_cell_formula_units_Z 14
_cell_length_a 18.322648
_cell_length_b 24.930296
_cell_length_c 9.201758
_cell_angle_alpha 151.058581
_cell_angle_beta 142.855790
_cell_angle_gamma 20.062741
_cell_volume 689.879954
_symmetry_space_group_name_H-M "P -1"
_symmetry_group_IT_number 2
_symmetry_cell_setting 'triclinic'
loop_
_space_group_symop_operation_xyz
x,y,z
-x,-y,-z
loop_
_atom_site_type_symbol
_atom_site_label
_atom_site_fract_x
_atom_site_fract_y
_atom_site_fract_z
Si Si1 0.396541 0.541048 0.782020
Si Si2 0.485265 0.617130 0.851153
Si Si3 0.980705 0.753692 0.741753
Si Si4 0.695725 0.794150 0.740190
Si Si5 0.127752 0.571180 0.841052
Si Si6 0.419733 0.793778 0.898718
Si Si7 0.682020 0.792521 0.371533
O O1 0.368375 0.673216 0.950497
O O2 0.553515 0.333517 0.462514
O O3 0.165654 0.657316 0.701660
O O4 0.500000 0.500000 0.000000
O O5 0.500000 0.500000 0.500000
O O6 0.365367 0.800936 0.997862
O O7 0.729909 0.467700 0.914158
O O8 0.910341 0.677889 0.419340
O O9 0.071184 0.692459 0.903400
O O10 0.774823 0.988642 0.959279
O O11 0.735536 0.639839 0.497508
O O12 0.648777 0.824972 0.568174
O O13 0.913205 0.698343 0.888576
O O14 0.500000 0.000000 0.000000
O O15 0.644323 0.695029 0.025446
O O16 0.500000 0.000000 0.500000
#
# Coordination Sequence:
#
# PCOD8006636 Si02
#       7
#     2   2   2   2   2   2   2
#     4  11  23  41  63  89 119 164 215 245 290 368
#     4  10  21  42  62  86 125 162 201 257 300 346
#     4  10  22  39  64  93 119 162 202 245 310 364
#     4  10  21  38  64  93 119 163 203 243 304 371
#     4  10  20  40  62  90 127 155 200 257 300 356
#     4  10  22  42  63  87 127 159 194 263 309 349
#     4   9  19  39  60  90 126 148 191 255 307 356
#
# _framework density 20.293385000000001
#
# number of rings (size 3 to 8) (size 9 to 14) (size 15 to 20)
#    0.000    2.000    2.857    0.000    0.000    5.143 
#   10.286    0.000    0.000    0.000    0.000    0.000 
#    0.000    0.000    0.000    0.000    0.000    0.000 
#
# Total GULP energy -173460.203921 kJ/mol
# GULP energy per Si atom -12390.014566 kJ/mol
# Density = 2.024720 g / cm^3
# Si number density = 20.293385 Si / 1000 Ang^3
#
#
#
# Elastic Constant Matrix: (Units=GPa)
#
#
# Indices 1 2 3 4 5 6 
#
# 1 130.3392 62.3139 45.8055 -3.4912 12.9032 5.0453
# 2 62.3139 118.3859 51.6420 -5.9097 2.8458 7.7917
# 3 45.8055 51.6420 84.8607 -7.5708 6.6806 -4.2793
# 4 -3.4912 -5.9097 -7.5708 34.4770 -0.0614 0.7791
# 5 12.9032 2.8458 6.6806 -0.0614 25.1253 2.5737
# 6 5.0453 7.7917 -4.2793 0.7791 2.5737 43.8826
#
#
#
# Elastic Compliance Matrix: (Units=1/GPa)
#
#
# Indices 1 2 3 4 5 6 
#
# 1 0.011368 -0.004504 -0.003099 -0.000297 -0.004449 -0.000543
# 2 -0.004504 0.013650 -0.006168 0.000594 0.002683 -0.002675
# 3 -0.003099 -0.006168 0.017816 0.002461 -0.002780 0.003308
# 4 -0.000297 0.000594 0.002461 0.029624 -0.000463 -0.000330
# 5 -0.004449 0.002683 -0.002780 -0.000463 0.042800 -0.002738
# 6 -0.000543 -0.002675 0.003308 -0.000330 -0.002738 0.023815
#
#
# Mechanical properties :
#
#
# Convention : Reuss Voigt Hill
#
# Bulk Modulus (GPa) = 65.39870 72.56764 68.98317
# Shear Modulus (GPa) = 29.11848 32.28528 30.70188
#
# Velocity S-wave (km/s) = 3.79208 3.99297 3.89382
# Velocity P-wave (km/s) = 7.17424 7.55614 7.36767
#
# Compressibility (1/GPa) = 0.01529082
#
# Stress axis : x y z
#
# Youngs Moduli (GPa) = 87.96416 73.26115 56.12996
#
# Poissons Ratio (x) = 0.32998 0.17394
# Poissons Ratio (y) = 0.39620 0.34624
# Poissons Ratio (z) = 0.27259 0.45191
#
# Static dielectric constant tensor:
#      x y z
#    x 4.201860 0.184070 0.569720 
#    y 0.184070 3.938270 -0.329390 
#    z 0.569720 -0.329390 3.526250 
# 
# 
# High freq. dielectric constant tensor:
#      x y z
#    x 1.806270 0.013760 0.032450 
#    y 0.013760 1.802760 -0.026040 
#    z 0.032450 -0.026040 1.762780 
# 
# From -- ./inp_files/306928.got.cif
#   From: 2010.06.25/outbox.cif.g09.slc.cpg/sg2_154_cif.got.tgz:306928.got - 2010.06.27 13:26:56.
