data_PCOD8006960
_publ_section_title
;
Structure prediction by ZEFSAII (Michael W. Deem and Ramdas Pophale) SiO2 
 PCOD8006960
Probable space group: P -1
;
_chemical_formula_sum "Si O2"
_cell_formula_units_Z 16
_cell_length_a 12.947687
_cell_length_b 18.808756
_cell_length_c 9.555863
_cell_angle_alpha 105.569164
_cell_angle_beta 134.951096
_cell_angle_gamma 37.822149
_cell_volume 752.001890
_symmetry_space_group_name_H-M "P -1"
_symmetry_group_IT_number 2
_symmetry_cell_setting 'triclinic'
loop_
_space_group_symop_operation_xyz
x,y,z
-x,-y,-z
loop_
_atom_site_type_symbol
_atom_site_label
_atom_site_fract_x
_atom_site_fract_y
_atom_site_fract_z
Si Si1 0.895859 0.741280 0.271418
Si Si2 0.298137 0.926345 0.504894
Si Si3 0.826702 0.626303 0.007455
Si Si4 0.582024 0.878889 0.494820
Si Si5 0.795126 0.043563 0.049546
Si Si6 0.175632 0.065944 0.729886
Si Si7 0.788566 0.424803 0.223830
Si Si8 0.725206 0.611407 0.191982
O O1 0.971955 0.644030 0.178658
O O2 0.003730 0.775299 0.346588
O O3 0.046113 0.645142 0.506107
O O4 0.531699 0.912267 0.035964
O O5 0.531922 0.862534 0.588690
O O6 0.130800 0.058167 0.522055
O O7 0.480878 0.790243 0.709940
O O8 0.056172 0.984903 0.214722
O O9 0.847529 0.565816 0.129947
O O10 0.000000 0.500000 0.000000
O O11 0.333580 0.953929 0.190263
O O12 0.939985 0.714189 0.702612
O O13 0.500000 0.000000 0.500000
O O14 0.522409 0.215512 0.933476
O O15 0.957968 0.928170 0.274796
O O16 0.613880 0.577671 0.093471
O O17 0.500000 0.500000 0.000000
O O18 0.000000 0.500000 0.500000
#
# Coordination Sequence:
#
# PCOD8006960 Si02
#       8
#     2   2   2   2   2   2   2   2
#     4  10  20  40  65  99 126 182 217 282 329 402
#     4  11  25  41  70 103 133 171 229 288 339 398
#     4  11  23  41  67  97 135 181 223 275 350 397
#     4  12  26  46  65 101 143 179 220 285 351 394
#     4  12  24  44  71 104 131 182 230 282 336 408
#     4  10  20  40  72  95 135 167 235 271 338 401
#     4  12  26  44  70 101 134 183 231 274 336 417
#     4  12  22  44  70  94 135 181 232 275 332 409
#
# _framework density 21.276543
#
# number of rings (size 3 to 8) (size 9 to 14) (size 15 to 20)
#    0.000    0.750    6.250    2.250    7.000    0.000 
#    2.250    0.000    0.000    4.500    0.000    0.000 
#    0.000    0.000    0.000    0.000    0.000    0.000 
#
# Total GULP energy -198256.250037 kJ/mol
# GULP energy per Si atom -12391.015627 kJ/mol
# Density = 2.122812 g / cm^3
# Si number density = 21.276543 Si / 1000 Ang^3
#
#
#
# Elastic Constant Matrix: (Units=GPa)
#
#
# Indices 1 2 3 4 5 6 
#
# 1 136.0633 60.1680 51.3914 7.1254 -7.6687 16.9494
# 2 60.1680 149.1743 38.9550 21.7627 -7.4806 28.0203
# 3 51.3914 38.9550 87.7549 23.7416 0.2873 1.1354
# 4 7.1254 21.7627 23.7416 25.1569 5.7461 -3.3675
# 5 -7.6687 -7.4806 0.2873 5.7461 40.2836 0.2559
# 6 16.9494 28.0203 1.1354 -3.3675 0.2559 38.3984
#
#
#
# Elastic Compliance Matrix: (Units=1/GPa)
#
#
# Indices 1 2 3 4 5 6 
#
# 1 0.011269 -0.003180 -0.006607 0.005332 0.000854 -0.001996
# 2 -0.003180 0.011110 -0.000222 -0.010196 0.002962 -0.007611
# 3 -0.006607 -0.000222 0.019889 -0.016787 0.000947 0.001012
# 4 0.005332 -0.010196 -0.016787 0.066810 -0.010362 0.011511
# 5 0.000854 0.002962 0.000947 -0.010362 0.027031 -0.003655
# 6 -0.001996 -0.007611 0.001012 0.011511 -0.003655 0.033482
#
#
# Mechanical properties :
#
#
# Convention : Reuss Voigt Hill
#
# Bulk Modulus (GPa) = 44.94710 74.89126 59.91918
# Shear Modulus (GPa) = 25.37740 35.59967 30.48853
#
# Velocity S-wave (km/s) = 3.45735 4.09490 3.78956
# Velocity P-wave (km/s) = 6.09170 7.59164 6.88265
#
# Compressibility (1/GPa) = 0.02224838
#
# Stress axis : x y z
#
# Youngs Moduli (GPa) = 88.74004 90.01144 50.27907
#
# Poissons Ratio (x) = 0.28622 0.33221
# Poissons Ratio (y) = 0.28218 0.01118
# Poissons Ratio (z) = 0.58634 0.02001
#
# Static dielectric constant tensor:
#      x y z
#    x 11.065250 6.864860 -5.608810 
#    y 6.864860 10.137820 -5.113690 
#    z -5.608810 -5.113690 8.389040 
# 
# 
# High freq. dielectric constant tensor:
#      x y z
#    x 1.839610 0.025360 -0.015040 
#    y 0.025360 1.831320 0.012710 
#    z -0.015040 0.012710 1.833510 
# 
# From -- ./inp_files/279561.got.cif
#   From: 2010.06.25/outbox.cif.g09.slc.cpg/sg2_140_cif.got.tgz:279561.got - 2010.06.27 13:26:56.
