data_PCOD8006339
_publ_section_title
;
Structure prediction by ZEFSAII (Michael W. Deem and Ramdas Pophale) SiO2 
 PCOD8006339
Probable space group: P -1
;
_chemical_formula_sum "Si O2"
_cell_formula_units_Z 16
_cell_length_a 17.520781
_cell_length_b 11.832639
_cell_length_c 12.023983
_cell_angle_alpha 142.994426
_cell_angle_beta 31.466949
_cell_angle_gamma 128.701796
_cell_volume 770.727380
_symmetry_space_group_name_H-M "P -1"
_symmetry_group_IT_number 2
_symmetry_cell_setting 'triclinic'
loop_
_space_group_symop_operation_xyz
x,y,z
-x,-y,-z
loop_
_atom_site_type_symbol
_atom_site_label
_atom_site_fract_x
_atom_site_fract_y
_atom_site_fract_z
Si Si1 0.173735 0.954811 0.761914
Si Si2 0.658958 0.712664 0.224931
Si Si3 0.333472 0.927663 0.778493
Si Si4 0.670800 0.518646 0.286362
Si Si5 0.705971 0.439941 0.760270
Si Si6 0.166180 0.895509 0.187884
Si Si7 0.596302 0.697499 0.924689
Si Si8 0.360674 0.148208 0.248121
O O1 0.238838 0.920809 0.779048
O O2 0.187676 0.760521 0.522135
O O3 0.262785 0.103571 0.708799
O O4 0.000000 0.000000 0.000000
O O5 0.479394 0.761497 0.469793
O O6 0.695386 0.572623 0.172661
O O7 0.740817 0.594656 0.927399
O O8 0.219630 0.918137 0.013374
O O9 0.403541 0.118716 0.852401
O O10 0.500000 0.500000 0.500000
O O11 0.703273 0.691370 0.457822
O O12 0.791768 0.329390 0.013079
O O13 0.723080 0.531687 0.688077
O O14 0.547783 0.389473 0.944729
O O15 0.244929 0.011284 0.267998
O O16 0.000000 0.000000 0.500000
O O17 0.612063 0.740675 0.810424
O O18 0.500000 0.000000 0.000000
#
# Coordination Sequence:
#
# PCOD8006339 Si02
#       8
#     2   2   2   2   2   2   2   2
#     4  12  28  45  64 101 143 179 221 289 353 404
#     4  12  24  44  73 101 135 178 239 283 328 420
#     4  11  21  46  71  94 138 179 232 283 339 413
#     4  12  23  42  73 105 135 182 236 286 341 407
#     4  11  23  38  70  97 128 172 230 275 336 392
#     4  11  27  46  68 103 143 185 226 290 354 410
#     4  10  20  39  68 101 122 170 229 284 320 396
#     4  11  23  41  69 100 137 175 235 284 335 405
#
# _framework density 20.759612000000001
#
# number of rings (size 3 to 8) (size 9 to 14) (size 15 to 20)
#    0.000    0.750    5.000    3.375    1.750    3.000 
#    4.500    0.000    0.000    0.000    0.000    0.000 
#    0.000    0.000    0.000    0.000    0.000    0.000 
#
# Total GULP energy -198225.828049 kJ/mol
# GULP energy per Si atom -12389.114253 kJ/mol
# Density = 2.071236 g / cm^3
# Si number density = 20.759612 Si / 1000 Ang^3
#
#
#
# Elastic Constant Matrix: (Units=GPa)
#
#
# Indices 1 2 3 4 5 6 
#
# 1 92.7443 33.4816 35.5161 3.5007 -1.2706 -1.9814
# 2 33.4816 88.6612 34.6792 19.1335 -4.8070 -14.7174
# 3 35.5161 34.6792 112.6889 18.7280 -9.8505 2.5864
# 4 3.5007 19.1335 18.7280 38.0976 2.5608 0.4037
# 5 -1.2706 -4.8070 -9.8505 2.5608 27.9698 -1.1758
# 6 -1.9814 -14.7174 2.5864 0.4037 -1.1758 32.8793
#
#
#
# Elastic Compliance Matrix: (Units=1/GPa)
#
#
# Indices 1 2 3 4 5 6 
#
# 1 0.013653 -0.004714 -0.003467 0.002945 -0.001727 -0.001112
# 2 -0.004714 0.017011 -0.002491 -0.007156 0.002811 0.007715
# 3 -0.003467 -0.002491 0.011873 -0.004508 0.003922 -0.002063
# 4 0.002945 -0.007156 -0.004508 0.032211 -0.005770 -0.003273
# 5 -0.001727 0.002811 0.003922 -0.005770 0.038163 0.002281
# 6 -0.001112 0.007715 -0.002063 -0.003273 0.002281 0.034085
#
#
# Mechanical properties :
#
#
# Convention : Reuss Voigt Hill
#
# Bulk Modulus (GPa) = 47.18724 55.71645 51.45184
# Shear Modulus (GPa) = 28.50567 32.48382 30.49474
#
# Velocity S-wave (km/s) = 3.70960 3.96000 3.83684
# Velocity P-wave (km/s) = 6.41310 6.91418 6.66835
#
# Compressibility (1/GPa) = 0.02119217
#
# Stress axis : x y z
#
# Youngs Moduli (GPa) = 73.24282 58.78650 84.22503
#
# Poissons Ratio (x) = 0.27709 0.29205
# Poissons Ratio (y) = 0.34523 0.20984
# Poissons Ratio (z) = 0.25397 0.14646
#
# Static dielectric constant tensor:
#      x y z
#    x 3.932280 -0.177520 -0.025080 
#    y -0.177520 4.232090 0.455950 
#    z -0.025080 0.455950 3.744140 
# 
# 
# High freq. dielectric constant tensor:
#      x y z
#    x 1.817090 -0.007930 0.011820 
#    y -0.007930 1.829290 0.024010 
#    z 0.011820 0.024010 1.801370 
# 
# From -- ./inp_files/464873.got.cif
#   From: 2010.06.25/outbox.cif.g09.slc.cpg/sg2_233_cif.got.tgz:464873.got - 2010.06.27 13:26:56.
