data_PCOD8006844
_publ_section_title
;
Structure prediction by ZEFSAII (Michael W. Deem and Ramdas Pophale) SiO2 
 PCOD8006844
Probable space group: P -1
;
_chemical_formula_sum "Si O2"
_cell_formula_units_Z 14
_cell_length_a 8.784050
_cell_length_b 12.342083
_cell_length_c 12.723421
_cell_angle_alpha 137.647816
_cell_angle_beta 47.371320
_cell_angle_gamma 131.692809
_cell_volume 644.902917
_symmetry_space_group_name_H-M "P -1"
_symmetry_group_IT_number 2
_symmetry_cell_setting 'triclinic'
loop_
_space_group_symop_operation_xyz
x,y,z
-x,-y,-z
loop_
_atom_site_type_symbol
_atom_site_label
_atom_site_fract_x
_atom_site_fract_y
_atom_site_fract_z
Si Si1 0.541578 0.647146 0.172100
Si Si2 0.493027 0.771988 0.833299
Si Si3 0.794728 0.557805 0.169516
Si Si4 0.794794 0.004886 0.230737
Si Si5 0.762382 0.068435 0.057463
Si Si6 0.258570 0.360506 0.522685
Si Si7 0.097239 0.633547 0.459588
O O1 0.737321 0.650716 0.162421
O O2 0.317160 0.599046 0.304377
O O3 0.594293 0.838753 0.239937
O O4 0.500000 0.500000 0.000000
O O5 0.417929 0.600866 0.813982
O O6 0.278648 0.769551 0.862651
O O7 0.701225 0.794337 0.672974
O O8 0.565397 0.914607 0.990269
O O9 0.828928 0.680886 0.345609
O O10 0.000000 0.500000 0.000000
O O11 0.728417 0.069644 0.198476
O O12 0.850911 0.166689 0.396277
O O13 0.999192 0.937624 0.081096
O O14 0.500000 0.500000 0.500000
O O15 0.073580 0.418168 0.593222
O O16 0.000000 0.500000 0.500000
#
# Coordination Sequence:
#
# PCOD8006844 Si02
#       7
#     2   2   2   2   2   2   2
#     4  12  27  45  70 101 140 179 224 284 344 405
#     4  10  20  40  64  98 125 173 225 275 331 398
#     4  11  23  40  66  93 134 174 223 273 341 400
#     4  11  25  43  67 103 139 175 228 279 342 400
#     4  10  22  38  70  94 132 172 226 280 332 404
#     4  10  22  40  64  96 128 169 227 276 327 400
#     4  12  26  44  71 100 138 184 229 280 340 406
#
# _framework density 21.708694999999999
#
# number of rings (size 3 to 8) (size 9 to 14) (size 15 to 20)
#    0.000    1.143    1.429    4.714   10.000    0.000 
#    0.000    0.714    0.000    0.000    0.000    0.000 
#    0.000    0.000    0.000    0.000    0.000    0.000 
#
# Total GULP energy -173494.544210 kJ/mol
# GULP energy per Si atom -12392.467444 kJ/mol
# Density = 2.165928 g / cm^3
# Si number density = 21.708695 Si / 1000 Ang^3
#
#
#
# Elastic Constant Matrix: (Units=GPa)
#
#
# Indices 1 2 3 4 5 6 
#
# 1 127.3028 6.4435 25.2026 -7.7946 6.5658 -3.5430
# 2 6.4435 89.0762 22.5011 1.6220 8.0019 3.4205
# 3 25.2026 22.5011 115.7296 -16.1100 4.6619 4.4847
# 4 -7.7946 1.6220 -16.1100 31.2982 5.4786 -0.1540
# 5 6.5658 8.0019 4.6619 5.4786 41.0453 -1.4955
# 6 -3.5430 3.4205 4.4847 -0.1540 -1.4955 26.7245
#
#
#
# Elastic Compliance Matrix: (Units=1/GPa)
#
#
# Indices 1 2 3 4 5 6 
#
# 1 0.008372 -0.000170 -0.001580 0.001511 -0.001280 0.001334
# 2 -0.000170 0.012095 -0.002409 -0.001584 -0.001892 -0.001281
# 3 -0.001580 -0.002409 0.010295 0.005233 -0.001206 -0.001666
# 4 0.001511 -0.001584 0.005233 0.036038 -0.005358 -0.000567
# 5 -0.001280 -0.001892 -0.001206 -0.005358 0.025851 0.001691
# 6 0.001334 -0.001281 -0.001666 -0.000567 0.001691 0.038131
#
#
# Mechanical properties :
#
#
# Convention : Reuss Voigt Hill
#
# Bulk Modulus (GPa) = 44.55599 48.93365 46.74482
# Shear Modulus (GPa) = 34.11055 38.34437 36.22746
#
# Velocity S-wave (km/s) = 3.96824 4.20731 4.08953
# Velocity P-wave (km/s) = 6.44709 6.79647 6.62408
#
# Compressibility (1/GPa) = 0.02244367
#
# Stress axis : x y z
#
# Youngs Moduli (GPa) = 119.44071 82.67679 97.13485
#
# Poissons Ratio (x) = 0.01408 0.15346
# Poissons Ratio (y) = 0.02034 0.23402
# Poissons Ratio (z) = 0.18871 0.19919
#
# Static dielectric constant tensor:
#      x y z
#    x 4.136890 -0.068920 0.115290 
#    y -0.068920 3.703590 0.118970 
#    z 0.115290 0.118970 4.723000 
# 
# 
# High freq. dielectric constant tensor:
#      x y z
#    x 1.870590 -0.001890 0.003350 
#    y -0.001890 1.831150 0.000850 
#    z 0.003350 0.000850 1.867390 
# 
# From -- ./inp_files/189115.got.cif
#   From: 2010.06.25/outbox.cif.g09.slc.cpg/sg2_95_cif.got.tgz:189115.got - 2010.06.27 13:26:56.
