data_PCOD8006530
_publ_section_title
;
Structure prediction by ZEFSAII (Michael W. Deem and Ramdas Pophale) SiO2 
 PCOD8006530
Probable space group: P -1
;
_chemical_formula_sum "Si O2"
_cell_formula_units_Z 16
_cell_length_a 19.757919
_cell_length_b 17.270884
_cell_length_c 8.788553
_cell_angle_alpha 64.367038
_cell_angle_beta 52.740788
_cell_angle_gamma 20.530088
_cell_volume 733.711288
_symmetry_space_group_name_H-M "P -1"
_symmetry_group_IT_number 2
_symmetry_cell_setting 'triclinic'
loop_
_space_group_symop_operation_xyz
x,y,z
-x,-y,-z
loop_
_atom_site_type_symbol
_atom_site_label
_atom_site_fract_x
_atom_site_fract_y
_atom_site_fract_z
Si Si1 0.681239 0.812053 0.272723
Si Si2 0.731241 0.119288 0.804739
Si Si3 0.450618 0.958075 0.182187
Si Si4 0.773545 0.330464 0.991462
Si Si5 0.199445 0.619448 0.417102
Si Si6 0.740102 0.166879 0.082100
Si Si7 0.453090 0.889246 0.925142
Si Si8 0.093349 0.534610 0.553484
O O1 0.918349 0.539081 0.257574
O O2 0.500000 0.000000 0.500000
O O3 0.587705 0.827037 0.268839
O O4 0.732354 0.854248 0.081612
O O5 0.486019 0.387732 0.818265
O O6 0.764992 0.147324 0.882617
O O7 0.681068 0.070607 0.975524
O O8 0.985418 0.881100 0.564622
O O9 0.163609 0.216902 0.397082
O O10 0.500000 0.000000 0.000000
O O11 0.517434 0.823823 0.074957
O O12 0.808795 0.351805 0.773633
O O13 0.741389 0.261101 0.063306
O O14 0.019491 0.113608 0.943270
O O15 0.475985 0.375416 0.315739
O O16 0.136795 0.578584 0.559074
O O17 0.703772 0.667146 0.681852
#
# Coordination Sequence:
#
# PCOD8006530 Si02
#       8
#     2   2   2   2   2   2   2   2
#     4   9  22  39  61  86 119 163 208 253 306 361
#     4  11  21  41  62  96 128 168 203 264 313 372
#     4  10  22  39  59  87 119 158 209 259 310 366
#     4  10  23  43  66  92 131 162 207 255 320 380
#     4  11  22  39  66  93 129 163 211 258 315 369
#     4  10  23  43  66  95 123 167 206 258 313 387
#     4  10  20  40  60  87 124 161 212 253 312 364
#     4  11  21  41  61  86 125 164 208 263 305 369
#
# _framework density 21.806943
#
# number of rings (size 3 to 8) (size 9 to 14) (size 15 to 20)
#    0.000    1.750    3.750    1.500    0.000   10.500 
#    2.250    5.000    0.000    0.000    0.000    0.000 
#    0.000    0.000    0.000    0.000    0.000    0.000 
#
# Total GULP energy -198228.922297 kJ/mol
# GULP energy per Si atom -12389.307644 kJ/mol
# Density = 2.175731 g / cm^3
# Si number density = 21.806943 Si / 1000 Ang^3
#
#
#
# Elastic Constant Matrix: (Units=GPa)
#
#
# Indices 1 2 3 4 5 6 
#
# 1 52.9616 25.2711 17.7243 3.1856 2.2654 -7.0182
# 2 25.2711 126.6210 35.3522 22.9374 1.7554 -9.2008
# 3 17.7243 35.3522 46.4652 26.3906 9.9059 -2.6982
# 4 3.1856 22.9374 26.3906 42.8258 6.7042 -2.8859
# 5 2.2654 1.7554 9.9059 6.7042 37.5209 0.7191
# 6 -7.0182 -9.2008 -2.6982 -2.8859 0.7191 33.2259
#
#
#
# Elastic Compliance Matrix: (Units=1/GPa)
#
#
# Indices 1 2 3 4 5 6 
#
# 1 0.023801 -0.002696 -0.010451 0.006345 0.000238 0.003978
# 2 -0.002696 0.010609 -0.006303 -0.001737 0.001609 0.001671
# 3 -0.010451 -0.006303 0.044216 -0.022183 -0.006743 -0.002143
# 4 0.006345 -0.001737 -0.022183 0.037834 -0.001251 0.002371
# 5 0.000238 0.001609 -0.006743 -0.001251 0.028581 -0.000779
# 6 0.003978 0.001671 -0.002143 0.002371 -0.000779 0.031449
#
#
# Mechanical properties :
#
#
# Convention : Reuss Voigt Hill
#
# Bulk Modulus (GPa) = 25.17254 42.52701 33.84978
# Shear Modulus (GPa) = 21.86932 32.56120 27.21526
#
# Velocity S-wave (km/s) = 3.17023 3.86833 3.53655
# Velocity P-wave (km/s) = 4.99689 6.28458 5.67736
#
# Compressibility (1/GPa) = 0.03972583
#
# Stress axis : x y z
#
# Youngs Moduli (GPa) = 42.01515 94.25853 22.61648
#
# Poissons Ratio (x) = 0.25410 0.23637
# Poissons Ratio (y) = 0.11327 0.14255
# Poissons Ratio (z) = 0.43911 0.59410
#
# Static dielectric constant tensor:
#      x y z
#    x 3.982440 -0.087180 -0.161510 
#    y -0.087180 4.376290 0.046150 
#    z -0.161510 0.046150 3.573180 
# 
# 
# High freq. dielectric constant tensor:
#      x y z
#    x 1.857420 0.010120 0.001230 
#    y 0.010120 1.853050 0.018510 
#    z 0.001230 0.018510 1.851400 
# 
# From -- ./inp_files/348407.got.cif
#   From: 2010.06.25/outbox.cif.g09.slc.cpg/sg2_175_cif.got.tgz:348407.got - 2010.06.27 13:26:56.
