data_PCOD8006846
_publ_section_title
;
Structure prediction by ZEFSAII (Michael W. Deem and Ramdas Pophale) SiO2 
 PCOD8006846
Probable space group: P -1
;
_chemical_formula_sum "Si O2"
_cell_formula_units_Z 16
_cell_length_a 21.433454
_cell_length_b 15.254138
_cell_length_c 9.055053
_cell_angle_alpha 78.332610
_cell_angle_beta 110.899930
_cell_angle_gamma 161.872221
_cell_volume 759.263577
_symmetry_space_group_name_H-M "P -1"
_symmetry_group_IT_number 2
_symmetry_cell_setting 'triclinic'
loop_
_space_group_symop_operation_xyz
x,y,z
-x,-y,-z
loop_
_atom_site_type_symbol
_atom_site_label
_atom_site_fract_x
_atom_site_fract_y
_atom_site_fract_z
Si Si1 0.375478 0.635396 0.569608
Si Si2 0.144643 0.670928 0.331300
Si Si3 0.964366 0.660628 0.758595
Si Si4 0.167541 0.427156 0.045662
Si Si5 0.753676 0.655498 0.687925
Si Si6 0.821217 0.662039 0.182499
Si Si7 0.307027 0.881395 0.719404
Si Si8 0.415449 0.214199 0.785756
O O1 0.258886 0.567686 0.404913
O O2 0.339424 0.495547 0.499569
O O3 0.257536 0.480783 0.681578
O O4 0.658498 0.016795 0.693211
O O5 0.089644 0.513430 0.240294
O O6 0.242671 0.764933 0.541419
O O7 0.900811 0.415685 0.238346
O O8 0.002686 0.730006 0.943442
O O9 0.201651 0.995376 0.754801
O O10 0.178394 0.343720 0.159450
O O11 0.427972 0.810458 0.120651
O O12 0.077480 0.290045 0.849913
O O13 0.551596 0.445035 0.691544
O O14 0.976534 0.005308 0.731541
O O15 0.593050 0.413926 0.998817
O O16 0.301456 0.982458 0.684823
#
# Coordination Sequence:
#
# PCOD8006846 Si02
#       8
#     2   2   2   2   2   2   2   2
#     4  11  20  33  51  84 102 128 168 217 253 295
#     4  10  16  30  53  77 100 134 171 205 244 297
#     4  10  20  32  55  76 105 131 170 205 251 308
#     4   9  17  34  51  76 103 134 172 201 248 311
#     4   9  17  35  56  74  94 139 178 205 240 306
#     4  10  20  35  55  71 105 134 170 213 255 285
#     4   8  15  28  53  75  95 128 177 204 230 297
#     4   9  17  35  54  78  97 134 174 207 242 308
#
# _framework density 21.073049999999999
#
# number of rings (size 3 to 8) (size 9 to 14) (size 15 to 20)
#    0.000    2.750    3.750    2.250    0.000    0.000 
#    0.000   13.750    0.000    0.000    0.000    0.000 
#    0.000    0.000    0.000    0.000    0.000    0.000 
#
# Total GULP energy -198223.767816 kJ/mol
# GULP energy per Si atom -12388.985488 kJ/mol
# Density = 2.102509 g / cm^3
# Si number density = 21.073050 Si / 1000 Ang^3
#
#
#
# Elastic Constant Matrix: (Units=GPa)
#
#
# Indices 1 2 3 4 5 6 
#
# 1 67.0428 44.3951 30.0874 0.5648 -35.4389 25.1105
# 2 44.3951 147.6765 37.1764 -1.0838 -31.2409 18.1844
# 3 30.0874 37.1764 56.5123 -15.2258 -36.5894 -0.3145
# 4 0.5648 -1.0838 -15.2258 27.6651 8.7434 -11.8585
# 5 -35.4389 -31.2409 -36.5894 8.7434 34.8947 -4.7159
# 6 25.1105 18.1844 -0.3145 -11.8585 -4.7159 28.6259
#
#
#
# Elastic Compliance Matrix: (Units=1/GPa)
#
#
# Indices 1 2 3 4 5 6 
#
# 1 1.345730 0.137014 -0.419918 -1.316819 1.159182 -1.626655
# 2 0.137014 0.024321 -0.051267 -0.143128 0.119266 -0.175845
# 3 -0.419918 -0.051267 0.208845 0.445020 -0.291977 0.539464
# 4 -1.316819 -0.143128 0.445020 1.353221 -1.118005 1.627318
# 5 1.159182 0.119266 -0.291977 -1.118005 1.100485 -1.377646
# 6 -1.626655 -0.175845 0.539464 1.627318 -1.377646 2.026632
#
#
# Mechanical properties :
#
#
# Convention : Reuss Voigt Hill
#
# Bulk Modulus (GPa) = 1.09823 54.94992 28.02408
# Shear Modulus (GPa) = 0.71113 28.87533 14.79323
#
# Velocity S-wave (km/s) = 0.58154 3.70570 2.65240
# Velocity P-wave (km/s) = 0.98651 6.66650 4.76526
#
# Compressibility (1/GPa) = 0.91055320
#
# Stress axis : x y z
#
# Youngs Moduli (GPa) = 0.74309 41.11634 4.78823
#
# Poissons Ratio (x) = -5.63352 2.01067
# Poissons Ratio (y) = -0.10181 0.24548
# Poissons Ratio (z) = 0.31204 2.10792
#
# Static dielectric constant tensor:
#      x y z
#    x 3.679790 0.519410 -0.559390 
#    y 0.519410 4.250360 0.105810 
#    z -0.559390 0.105810 3.654960 
# 
# 
# High freq. dielectric constant tensor:
#      x y z
#    x 1.790200 0.029600 -0.049190 
#    y 0.029600 1.840650 0.007840 
#    z -0.049190 0.007840 1.799590 
# 
# From -- ./inp_files/215145.got.cif
#   From: 2010.06.25/outbox.cif.g09.slc.cpg/sg2_108_cif.got.tgz:215145.got - 2010.06.27 13:26:56.
