data_PCOD8006201
_publ_section_title
;
Structure prediction by ZEFSAII (Michael W. Deem and Ramdas Pophale) SiO2 
 PCOD8006201
Probable space group: P -1
;
_chemical_formula_sum "Si O2"
_cell_formula_units_Z 16
_cell_length_a 12.358910
_cell_length_b 19.188614
_cell_length_c 9.552274
_cell_angle_alpha 33.877977
_cell_angle_beta 36.875813
_cell_angle_gamma 36.463859
_cell_volume 688.087714
_symmetry_space_group_name_H-M "P -1"
_symmetry_group_IT_number 2
_symmetry_cell_setting 'triclinic'
loop_
_space_group_symop_operation_xyz
x,y,z
-x,-y,-z
loop_
_atom_site_type_symbol
_atom_site_label
_atom_site_fract_x
_atom_site_fract_y
_atom_site_fract_z
Si Si1 0.917365 0.113615 0.234838
Si Si2 0.269135 0.499527 0.591229
Si Si3 0.644822 0.258293 0.524414
Si Si4 0.454930 0.127706 0.432110
Si Si5 0.190187 0.795579 0.096524
Si Si6 0.999098 0.828533 0.513435
Si Si7 0.358908 0.012989 0.995379
Si Si8 0.829078 0.646786 0.839313
O O1 0.732640 0.212090 0.355224
O O2 0.122009 0.081400 0.161417
O O3 0.928656 0.190430 0.949834
O O4 0.891756 0.970633 0.473709
O O5 0.438673 0.393285 0.492584
O O6 0.289422 0.641798 0.316151
O O7 0.036213 0.532748 0.750396
O O8 0.301408 0.428193 0.832052
O O9 0.805753 0.278137 0.426362
O O10 0.591909 0.141829 0.848641
O O11 0.280239 0.264398 0.327616
O O12 0.500000 0.000000 0.500000
O O13 0.400632 0.101117 0.686959
O O14 0.650975 0.150421 0.203099
O O15 0.050041 0.883064 0.221629
O O16 0.865532 0.745592 0.755093
O O17 0.500000 0.000000 0.000000
#
# Coordination Sequence:
#
# PCOD8006201 Si02
#       8
#     2   2   2   2   2   2   2   2
#     4  11  23  42  64  94 129 166 211 263 325 377
#     4  10  23  41  62  91 130 173 215 253 315 381
#     4  11  24  40  63  92 130 172 211 257 317 389
#     4  12  23  38  65  99 125 156 211 271 321 364
#     4  11  23  40  65  92 129 170 210 260 313 380
#     4  10  20  39  66  92 120 163 214 268 323 368
#     4  11  23  41  64  94 128 162 207 263 322 375
#     4  10  22  40  66  96 128 164 214 271 313 371
#
# _framework density 23.252851
#
# number of rings (size 3 to 8) (size 9 to 14) (size 15 to 20)
#    0.000    1.250    0.000    7.875    0.000    9.000 
#    0.000    0.000    0.000    3.750    0.000    0.000 
#    0.000    0.000    0.000    0.000    0.000    0.000 
#
# Total GULP energy -198248.024770 kJ/mol
# GULP energy per Si atom -12390.501548 kJ/mol
# Density = 2.319993 g / cm^3
# Si number density = 23.252851 Si / 1000 Ang^3
#
#
#
# Elastic Constant Matrix: (Units=GPa)
#
#
# Indices 1 2 3 4 5 6 
#
# 1 116.8593 34.7754 28.1741 -1.4970 19.6181 -8.5704
# 2 34.7754 107.9120 19.6935 23.2779 10.8259 -12.6503
# 3 28.1741 19.6935 103.9349 -11.5747 13.0801 3.4637
# 4 -1.4970 23.2779 -11.5747 32.5399 -0.9075 5.2872
# 5 19.6181 10.8259 13.0801 -0.9075 42.1946 0.1430
# 6 -8.5704 -12.6503 3.4637 5.2872 0.1430 24.2041
#
#
#
# Elastic Compliance Matrix: (Units=1/GPa)
#
#
# Indices 1 2 3 4 5 6 
#
# 1 0.010610 -0.002728 -0.001833 0.001308 -0.003645 0.002329
# 2 -0.002728 0.015396 -0.003904 -0.014330 -0.001816 0.010780
# 3 -0.001833 -0.003904 0.012171 0.007992 -0.001726 -0.006167
# 4 0.001308 -0.014330 0.007992 0.046926 0.001663 -0.018431
# 5 -0.003645 -0.001816 -0.001726 0.001663 0.026440 -0.002512
# 6 0.002329 0.010780 -0.006167 -0.018431 -0.002512 0.052698
#
#
# Mechanical properties :
#
#
# Convention : Reuss Voigt Hill
#
# Bulk Modulus (GPa) = 47.06589 54.88800 50.97695
# Shear Modulus (GPa) = 26.56005 36.19195 31.37600
#
# Velocity S-wave (km/s) = 3.38335 3.94947 3.67732
# Velocity P-wave (km/s) = 5.96218 6.66737 6.32461
#
# Compressibility (1/GPa) = 0.02124681
#
# Stress axis : x y z
#
# Youngs Moduli (GPa) = 94.24635 64.95391 82.16485
#
# Poissons Ratio (x) = 0.17721 0.15057
# Poissons Ratio (y) = 0.25713 0.32078
# Poissons Ratio (z) = 0.17271 0.25359
#
# Static dielectric constant tensor:
#      x y z
#    x 4.375340 -0.276610 0.258670 
#    y -0.276610 4.106550 -0.028410 
#    z 0.258670 -0.028410 4.952970 
# 
# 
# High freq. dielectric constant tensor:
#      x y z
#    x 1.909940 -0.024430 0.006150 
#    y -0.024430 1.910030 0.002300 
#    z 0.006150 0.002300 1.932380 
# 
# From -- ./inp_files/278745.got.cif
#   From: 2010.06.25/outbox.cif.g09.slc.cpg/sg2_140_cif.got.tgz:278745.got - 2010.06.27 13:26:56.
