data_PCOD8006686
_publ_section_title
;
Structure prediction by ZEFSAII (Michael W. Deem and Ramdas Pophale) SiO2 
 PCOD8006686
Probable space group: P -1
;
_chemical_formula_sum "Si O2"
_cell_formula_units_Z 16
_cell_length_a 15.004943
_cell_length_b 9.206921
_cell_length_c 14.706237
_cell_angle_alpha 91.597499
_cell_angle_beta 28.686868
_cell_angle_gamma 110.038904
_cell_volume 729.673059
_symmetry_space_group_name_H-M "P -1"
_symmetry_group_IT_number 2
_symmetry_cell_setting 'triclinic'
loop_
_space_group_symop_operation_xyz
x,y,z
-x,-y,-z
loop_
_atom_site_type_symbol
_atom_site_label
_atom_site_fract_x
_atom_site_fract_y
_atom_site_fract_z
Si Si1 0.262199 0.559692 0.782741
Si Si2 0.137375 0.274988 0.415121
Si Si3 0.496382 0.396423 0.610194
Si Si4 0.416874 0.110038 0.358513
Si Si5 0.083377 0.194788 0.671746
Si Si6 0.459387 0.128216 0.779847
Si Si7 0.710003 0.348231 0.741869
Si Si8 0.638580 0.914764 0.798874
O O1 0.263074 0.385523 0.801405
O O2 0.439091 0.666615 0.537611
O O3 0.367097 0.696139 0.778565
O O4 0.000000 0.500000 0.000000
O O5 0.100019 0.262804 0.556487
O O6 0.336390 0.501168 0.211022
O O7 0.246753 0.181418 0.281598
O O8 0.861433 0.149519 0.613277
O O9 0.737694 0.617485 0.421637
O O10 0.423132 0.249856 0.752755
O O11 0.159821 0.062992 0.603297
O O12 0.485069 0.144093 0.190544
O O13 0.408131 0.936486 0.394609
O O14 0.807983 0.066406 0.952790
O O15 0.632878 0.249854 0.711505
O O16 0.000000 0.500000 0.500000
O O17 0.572720 0.178442 0.937104
#
# Coordination Sequence:
#
# PCOD8006686 Si02
#       8
#     2   2   2   2   2   2   2   2
#     4  10  22  45  70  96 129 169 213 272 333 390
#     4  10  20  40  63  86 126 174 217 262 317 381
#     4  10  23  43  70  99 127 168 219 266 331 393
#     4  10  24  41  64  98 129 172 221 268 324 388
#     4  10  21  43  66  91 133 172 214 268 326 380
#     4  12  24  41  67  97 134 172 215 271 324 385
#     4  12  25  36  59  98 131 173 223 262 320 387
#     4  10  22  41  62  89 131 173 214 266 317 379
#
# _framework density 21.927630000000001
#
# number of rings (size 3 to 8) (size 9 to 14) (size 15 to 20)
#    0.000    1.500    2.500    1.875    1.750    3.500 
#    2.250    8.750    0.000    0.000    0.000    0.000 
#    0.000    0.000    0.000    0.000    0.000    0.000 
#
# Total GULP energy -198315.567420 kJ/mol
# GULP energy per Si atom -12394.722964 kJ/mol
# Density = 2.187772 g / cm^3
# Si number density = 21.927630 Si / 1000 Ang^3
#
#
#
# Elastic Constant Matrix: (Units=GPa)
#
#
# Indices 1 2 3 4 5 6 
#
# 1 121.3287 24.7850 30.2337 6.6968 -8.5180 2.3279
# 2 24.7850 97.3703 25.3187 0.8769 -3.8932 -11.7489
# 3 30.2337 25.3187 61.4351 -5.0011 -7.2712 -14.3467
# 4 6.6968 0.8769 -5.0011 34.4022 -4.8385 -0.5825
# 5 -8.5180 -3.8932 -7.2712 -4.8385 33.3572 3.7755
# 6 2.3279 -11.7489 -14.3467 -0.5825 3.7755 28.9899
#
#
#
# Elastic Compliance Matrix: (Units=1/GPa)
#
#
# Indices 1 2 3 4 5 6 
#
# 1 0.010265 -0.001649 -0.005459 -0.002634 0.001357 -0.004424
# 2 -0.001649 0.011972 -0.003410 -0.000453 -0.000208 0.003315
# 3 -0.005459 -0.003410 0.023574 0.005163 0.002913 0.010447
# 4 -0.002634 -0.000453 0.005163 0.031035 0.004607 0.002607
# 5 0.001357 -0.000208 0.002913 0.004607 0.031923 -0.002817
# 6 -0.004424 0.003315 0.010447 0.002607 -0.002817 0.041783
#
#
# Mechanical properties :
#
#
# Convention : Reuss Voigt Hill
#
# Bulk Modulus (GPa) = 40.36251 48.97874 44.67063
# Shear Modulus (GPa) = 27.80177 32.66966 30.23572
#
# Velocity S-wave (km/s) = 3.56460 3.86409 3.71736
# Velocity P-wave (km/s) = 5.94886 6.50333 6.23227
#
# Compressibility (1/GPa) = 0.02477547
#
# Stress axis : x y z
#
# Youngs Moduli (GPa) = 97.42077 83.52649 42.42029
#
# Poissons Ratio (x) = 0.13775 0.23156
# Poissons Ratio (y) = 0.16067 0.14464
# Poissons Ratio (z) = 0.53178 0.28480
#
# Static dielectric constant tensor:
#      x y z
#    x 4.152070 -0.231730 -0.197730 
#    y -0.231730 4.691670 0.012160 
#    z -0.197730 0.012160 3.411240 
# 
# 
# High freq. dielectric constant tensor:
#      x y z
#    x 1.874930 -0.005520 -0.016020 
#    y -0.005520 1.888510 0.015740 
#    z -0.016020 0.015740 1.833900 
# 
# From -- ./inp_files/315222.got.cif
#   From: 2010.06.25/outbox.cif.g09.slc.cpg/sg2_158_cif.got.tgz:315222.got - 2010.06.27 13:26:56.
