data_PCOD8006439
_publ_section_title
;
Structure prediction by ZEFSAII (Michael W. Deem and Ramdas Pophale) SiO2 
 PCOD8006439
Probable space group: P -1
;
_chemical_formula_sum "Si O2"
_cell_formula_units_Z 16
_cell_length_a 16.812392
_cell_length_b 11.762613
_cell_length_c 20.072675
_cell_angle_alpha 132.758204
_cell_angle_beta 19.186157
_cell_angle_gamma 142.901284
_cell_volume 729.376887
_symmetry_space_group_name_H-M "P -1"
_symmetry_group_IT_number 2
_symmetry_cell_setting 'triclinic'
loop_
_space_group_symop_operation_xyz
x,y,z
-x,-y,-z
loop_
_atom_site_type_symbol
_atom_site_label
_atom_site_fract_x
_atom_site_fract_y
_atom_site_fract_z
Si Si1 0.686218 0.962270 0.631574
Si Si2 0.712874 0.473543 0.245823
Si Si3 0.231769 0.820971 0.055971
Si Si4 0.637470 0.128341 0.376425
Si Si5 0.329860 0.296205 0.735136
Si Si6 0.370543 0.188328 0.158200
Si Si7 0.621853 0.616932 0.117315
Si Si8 0.405097 0.072067 0.800222
O O1 0.561711 0.760582 0.606925
O O2 0.481681 0.878139 0.825757
O O3 0.637901 0.102566 0.685069
O O4 0.052450 0.091037 0.413814
O O5 0.597411 0.522888 0.293447
O O6 0.000000 0.500000 0.000000
O O7 0.861192 0.632214 0.254323
O O8 0.330589 0.755395 0.014658
O O9 0.270943 0.020419 0.115415
O O10 0.528893 0.259432 0.518225
O O11 0.500000 0.000000 0.500000
O O12 0.505407 0.987663 0.360000
O O13 0.009707 0.259726 0.132791
O O14 0.465037 0.375458 0.734373
O O15 0.957410 0.098894 0.956147
O O16 0.458022 0.388119 0.133924
O O17 0.520095 0.715805 0.188657
#
# Coordination Sequence:
#
# PCOD8006439 Si02
#       8
#     2   2   2   2   2   2   2   2
#     4  11  24  42  66  95 128 169 205 262 322 374
#     4  10  20  39  70  93 123 164 207 267 318 354
#     4  10  23  45  64  90 131 164 215 266 307 373
#     4  11  21  37  63  97 123 163 215 262 316 365
#     4  11  20  39  66  97 127 160 209 271 313 366
#     4  11  26  42  64  92 132 172 210 250 319 390
#     4  11  23  40  63  93 131 172 205 259 316 380
#     4  11  22  38  64  94 131 159 212 266 311 371
#
# _framework density 21.936534000000002
#
# number of rings (size 3 to 8) (size 9 to 14) (size 15 to 20)
#    0.000    1.250    5.000    2.625    3.500    4.000 
#    0.000    0.625    0.000    0.000    0.000    0.000 
#    0.000    0.000    0.000    0.000    0.000    0.000 
#
# Total GULP energy -198281.049948 kJ/mol
# GULP energy per Si atom -12392.565622 kJ/mol
# Density = 2.188661 g / cm^3
# Si number density = 21.936534 Si / 1000 Ang^3
#
#
#
# Elastic Constant Matrix: (Units=GPa)
#
#
# Indices 1 2 3 4 5 6 
#
# 1 61.9317 34.6322 3.2463 1.3656 -7.6443 -18.4581
# 2 34.6322 143.7447 14.2887 10.7477 -4.2986 -25.0516
# 3 3.2463 14.2887 45.6391 14.0695 2.1099 -2.5617
# 4 1.3656 10.7477 14.0695 36.9680 2.3913 -3.7984
# 5 -7.6443 -4.2986 2.1099 2.3913 22.3543 7.2360
# 6 -18.4581 -25.0516 -2.5617 -3.7984 7.2360 40.0297
#
#
#
# Elastic Compliance Matrix: (Units=1/GPa)
#
#
# Indices 1 2 3 4 5 6 
#
# 1 0.020703 -0.003757 -0.000395 0.000873 0.004199 0.006494
# 2 -0.003757 0.008755 -0.001849 -0.001305 -0.000447 0.003585
# 3 -0.000395 -0.001849 0.025367 -0.009007 -0.001845 -0.000238
# 4 0.000873 -0.001305 -0.009007 0.031302 -0.003284 0.002573
# 5 0.004199 -0.000447 -0.001845 -0.003284 0.049084 -0.007646
# 6 0.006494 0.003585 -0.000238 0.002573 -0.007646 0.031831
#
#
# Mechanical properties :
#
#
# Convention : Reuss Voigt Hill
#
# Bulk Modulus (GPa) = 23.35275 39.51666 31.43471
# Shear Modulus (GPa) = 25.86409 33.14697 29.50553
#
# Velocity S-wave (km/s) = 3.43744 3.89143 3.67146
# Velocity P-wave (km/s) = 5.14037 6.18418 5.68628
#
# Compressibility (1/GPa) = 0.04282151
#
# Stress axis : x y z
#
# Youngs Moduli (GPa) = 48.30296 114.22366 39.42167
#
# Poissons Ratio (x) = 0.42909 0.01559
# Poissons Ratio (y) = 0.18145 0.07291
# Poissons Ratio (z) = 0.01910 0.21124
#
# Static dielectric constant tensor:
#      x y z
#    x 4.082600 0.277010 -0.028830 
#    y 0.277010 4.689390 0.143370 
#    z -0.028830 0.143370 4.241300 
# 
# 
# High freq. dielectric constant tensor:
#      x y z
#    x 1.847070 -0.014760 -0.000780 
#    y -0.014760 1.868640 0.016050 
#    z -0.000780 0.016050 1.865270 
# 
# From -- ./inp_files/600084.got.cif
#   From: 2010.06.25/outbox.cif.g09.slc.cpg/sg2_301_cif.got.tgz:600084.got - 2010.06.27 13:26:56.
