data_PCOD8006383
_publ_section_title
;
Structure prediction by ZEFSAII (Michael W. Deem and Ramdas Pophale) SiO2 
 PCOD8006383
Probable space group: P -1
;
_chemical_formula_sum "Si O2"
_cell_formula_units_Z 16
_cell_length_a 24.695612
_cell_length_b 17.832899
_cell_length_c 15.571950
_cell_angle_alpha 27.520534
_cell_angle_beta 161.968335
_cell_angle_gamma 160.316257
_cell_volume 712.645349
_symmetry_space_group_name_H-M "P -1"
_symmetry_group_IT_number 2
_symmetry_cell_setting 'triclinic'
loop_
_space_group_symop_operation_xyz
x,y,z
-x,-y,-z
loop_
_atom_site_type_symbol
_atom_site_label
_atom_site_fract_x
_atom_site_fract_y
_atom_site_fract_z
Si Si1 0.655635 0.785827 0.645576
Si Si2 0.926691 0.037293 0.438124
Si Si3 0.841510 0.380668 0.138789
Si Si4 0.167214 0.004127 0.127066
Si Si5 0.339214 0.792829 0.532270
Si Si6 0.329450 0.267397 0.932041
Si Si7 0.465904 0.999644 0.070457
Si Si8 0.322677 0.410767 0.401396
O O1 0.609024 0.936012 0.385358
O O2 0.445382 0.533423 0.553134
O O3 0.658238 0.797374 0.741408
O O4 0.897374 0.861608 0.896084
O O5 0.831529 0.846449 0.557151
O O6 0.718244 0.035885 0.102683
O O7 0.000000 0.000000 0.500000
O O8 0.156960 0.252567 0.619661
O O9 0.122222 0.542844 0.420181
O O10 0.665342 0.262395 0.077065
O O11 0.726202 0.161854 0.131279
O O12 0.847070 0.550830 0.921703
O O13 0.228216 0.848305 0.378125
O O14 0.188819 0.087243 0.980098
O O15 0.521289 0.768932 0.863984
O O16 0.500000 0.000000 0.500000
O O17 0.500000 0.500000 0.000000
O O18 0.500000 0.500000 0.500000
#
# Coordination Sequence:
#
# PCOD8006383 Si02
#       8
#     2   2   2   2   2   2   2   2
#     4  10  23  41  66  97 132 172 220 294 331 398
#     4  12  27  43  66 103 140 173 226 285 342 405
#     4  10  20  39  68  98 123 174 230 274 337 408
#     4  10  23  42  65  92 131 176 233 263 341 403
#     4  10  21  40  64  93 129 172 226 267 325 413
#     4  11  25  42  69  93 137 182 220 269 342 413
#     4  10  23  40  67  99 134 164 224 292 342 393
#     4  11  20  40  69  95 133 175 228 270 340 405
#
# _framework density 22.451559
#
# number of rings (size 3 to 8) (size 9 to 14) (size 15 to 20)
#    0.000    1.500    1.250    3.750    8.750    0.000 
#    0.000    1.875    0.000    0.000    0.000    0.000 
#    0.000    0.000    0.000    0.000    0.000    0.000 
#
# Total GULP energy -198215.594330 kJ/mol
# GULP energy per Si atom -12388.474646 kJ/mol
# Density = 2.240046 g / cm^3
# Si number density = 22.451559 Si / 1000 Ang^3
#
#
#
# Elastic Constant Matrix: (Units=GPa)
#
#
# Indices 1 2 3 4 5 6 
#
# 1 100.2386 2.7815 37.5677 7.2115 15.3296 -7.3768
# 2 2.7815 72.5043 7.5267 12.1026 7.7371 -3.7355
# 3 37.5677 7.5267 104.2869 3.8215 24.4781 -1.5604
# 4 7.2115 12.1026 3.8215 31.3274 -8.9205 3.7714
# 5 15.3296 7.7371 24.4781 -8.9205 43.1463 2.5794
# 6 -7.3768 -3.7355 -1.5604 3.7714 2.5794 23.0914
#
#
#
# Elastic Compliance Matrix: (Units=1/GPa)
#
#
# Indices 1 2 3 4 5 6 
#
# 1 0.012575 0.001381 -0.003416 -0.004807 -0.004085 0.005251
# 2 0.001381 0.016032 0.000025 -0.008685 -0.005478 0.005067
# 3 -0.003416 0.000025 0.012447 -0.002693 -0.006464 0.000916
# 4 -0.004807 -0.008685 -0.002693 0.042150 0.014201 -0.011593
# 5 -0.004085 -0.005478 -0.006464 0.014201 0.032728 -0.008603
# 6 0.005251 0.005067 0.000916 -0.011593 -0.008603 0.048720
#
#
# Mechanical properties :
#
#
# Convention : Reuss Voigt Hill
#
# Bulk Modulus (GPa) = 27.00125 41.42018 34.21071
# Shear Modulus (GPa) = 27.62162 34.78993 31.20577
#
# Velocity S-wave (km/s) = 3.51133 3.94071 3.73220
# Velocity P-wave (km/s) = 5.33778 6.26054 5.81748
#
# Compressibility (1/GPa) = 0.03703533
#
# Stress axis : x y z
#
# Youngs Moduli (GPa) = 79.52127 62.37530 80.33880
#
# Poissons Ratio (x) = -0.08615 0.27444
# Poissons Ratio (y) = -0.10983 -0.00204
# Poissons Ratio (z) = 0.27165 -0.00158
#
# Static dielectric constant tensor:
#      x y z
#    x 3.981990 -0.458670 0.301940 
#    y -0.458670 3.392980 0.138700 
#    z 0.301940 0.138700 4.336300 
# 
# 
# High freq. dielectric constant tensor:
#      x y z
#    x 1.870500 -0.016600 0.017940 
#    y -0.016600 1.879030 0.011120 
#    z 0.017940 0.011120 1.895720 
# 
# From -- ./inp_files/257957.got.cif
#   From: 2010.06.25/outbox.cif.g09.slc.cpg/sg2_129_cif.got.tgz:257957.got - 2010.06.27 13:26:56.
