data_PCOD8006012
_publ_section_title
;
Structure prediction by ZEFSAII (Michael W. Deem and Ramdas Pophale) SiO2 
 PCOD8006012
Probable space group: P -1
;
_chemical_formula_sum "Si O2"
_cell_formula_units_Z 12
_cell_length_a 13.971848
_cell_length_b 5.067559
_cell_length_c 14.013816
_cell_angle_alpha 71.747216
_cell_angle_beta 29.640377
_cell_angle_gamma 60.411274
_cell_volume 410.914263
_symmetry_space_group_name_H-M "P -1"
_symmetry_group_IT_number 2
_symmetry_cell_setting 'triclinic'
loop_
_space_group_symop_operation_xyz
x,y,z
-x,-y,-z
loop_
_atom_site_type_symbol
_atom_site_label
_atom_site_fract_x
_atom_site_fract_y
_atom_site_fract_z
Si Si1 0.564868 0.610314 0.216078
Si Si2 0.584233 0.966219 0.325359
Si Si3 0.904425 0.917026 0.338218
Si Si4 0.055192 0.487886 0.821130
Si Si5 0.380126 0.384318 0.042572
Si Si6 0.849600 0.867364 0.602773
O O1 0.576800 0.275614 0.253411
O O2 0.799982 0.598977 0.020076
O O3 0.455889 0.833374 0.380793
O O4 0.477666 0.730142 0.168536
O O5 0.500000 0.000000 0.500000
O O6 0.841566 0.702829 0.147345
O O7 0.155853 0.687861 0.173862
O O8 0.768837 0.011519 0.548201
O O9 0.825048 0.734862 0.351494
O O10 0.893660 0.222289 0.262668
O O11 0.330846 0.111395 0.162644
O O12 0.500000 0.500000 0.000000
O O13 0.000000 0.500000 0.500000
O O14 0.000000 0.000000 0.500000
#
# Coordination Sequence:
#
# PCOD8006012 Si02
#       6
#     2   2   2   2   2   2
#     4  11  23  44  69  97 135 180 226 278 343 420
#     4  12  26  45  68 100 133 172 226 292 352 406
#     4  10  21  40  66 100 134 176 225 274 336 415
#     4  11  22  43  71  98 130 177 227 277 340 417
#     4  10  23  43  69 104 142 185 233 287 342 404
#     4  10  20  39  64  93 133 178 223 274 330 402
#
# _framework density 29.203174000000001
#
# number of rings (size 3 to 8) (size 9 to 14) (size 15 to 20)
#    0.000    1.333    0.000    7.500    0.000    2.667 
#    0.000   25.833    0.000    0.000    0.000    0.000 
#    0.000    0.000    0.000    0.000    0.000    0.000 
#
# Total GULP energy -148904.054820 kJ/mol
# GULP energy per Si atom -12408.671235 kJ/mol
# Density = 2.913671 g / cm^3
# Si number density = 29.203174 Si / 1000 Ang^3
#
#
#
# Elastic Constant Matrix: (Units=GPa)
#
#
# Indices 1 2 3 4 5 6 
#
# 1 259.9815 97.4396 63.8632 -11.9298 38.4831 17.4540
# 2 97.4396 211.6281 63.9542 -39.7433 24.3837 3.7944
# 3 63.8632 63.9542 162.3096 -6.1853 13.3627 0.5724
# 4 -11.9298 -39.7433 -6.1853 71.1349 -1.1227 7.7407
# 5 38.4831 24.3837 13.3627 -1.1227 47.8817 -6.3050
# 6 17.4540 3.7944 0.5724 7.7407 -6.3050 65.3389
#
#
#
# Elastic Compliance Matrix: (Units=1/GPa)
#
#
# Indices 1 2 3 4 5 6 
#
# 1 0.005379 -0.001717 -0.001160 -0.000032 -0.003342 -0.001646
# 2 -0.001717 0.006893 -0.001774 0.003436 -0.001619 -0.000489
# 3 -0.001160 -0.001774 0.007306 -0.000597 -0.000164 0.000404
# 4 -0.000032 0.003436 -0.000597 0.016141 -0.001474 -0.002240
# 5 -0.003342 -0.001619 -0.000164 -0.001474 0.024876 0.003563
# 6 -0.001646 -0.000489 0.000404 -0.002240 0.003563 0.016379
#
#
# Mechanical properties :
#
#
# Convention : Reuss Voigt Hill
#
# Bulk Modulus (GPa) = 97.33082 120.49258 108.91170
# Shear Modulus (GPa) = 55.74106 64.11524 59.92815
#
# Velocity S-wave (km/s) = 4.37364 4.69069 4.53494
# Velocity P-wave (km/s) = 7.67504 8.40752 8.04962
#
# Compressibility (1/GPa) = 0.01027424
#
# Stress axis : x y z
#
# Youngs Moduli (GPa) = 185.91644 145.07833 136.87615
#
# Poissons Ratio (x) = 0.24916 0.15876
# Poissons Ratio (y) = 0.31930 0.24286
# Poissons Ratio (z) = 0.21565 0.25741
#
# Static dielectric constant tensor:
#      x y z
#    x 9.239510 -0.886200 1.181000 
#    y -0.886200 6.427040 1.430200 
#    z 1.181000 1.430200 8.004250 
# 
# 
# High freq. dielectric constant tensor:
#      x y z
#    x 2.265170 -0.033630 -0.010470 
#    y -0.033630 2.211740 0.047990 
#    z -0.010470 0.047990 2.255670 
# 
# From -- ./inp_files/441145.got.cif
#   From: 2010.06.25/outbox.cif.g09.slc.cpg/sg2_221_cif.got.tgz:441145.got - 2010.06.27 13:26:56.
