data_PCOD8006763
_publ_section_title
;
Structure prediction by ZEFSAII (Michael W. Deem and Ramdas Pophale) SiO2 
 PCOD8006763
Probable space group: P -1
;
_chemical_formula_sum "Si O2"
_cell_formula_units_Z 12
_cell_length_a 16.023031
_cell_length_b 10.214707
_cell_length_c 15.645022
_cell_angle_alpha 46.193444
_cell_angle_beta 153.268724
_cell_angle_gamma 144.007126
_cell_volume 672.399109
_symmetry_space_group_name_H-M "P -1"
_symmetry_group_IT_number 2
_symmetry_cell_setting 'triclinic'
loop_
_space_group_symop_operation_xyz
x,y,z
-x,-y,-z
loop_
_atom_site_type_symbol
_atom_site_label
_atom_site_fract_x
_atom_site_fract_y
_atom_site_fract_z
Si Si1 0.135101 0.247731 0.551252
Si Si2 0.272374 0.731875 0.006183
Si Si3 0.576837 0.805132 0.407025
Si Si4 0.483136 0.748404 0.024252
Si Si5 0.771483 0.564349 0.626740
Si Si6 0.169195 0.701450 0.625255
O O1 0.331407 0.306052 0.772497
O O2 0.252165 0.425544 0.501139
O O3 0.954573 0.272441 0.420968
O O4 0.000000 0.000000 0.500000
O O5 0.007045 0.597205 0.849600
O O6 0.372744 0.985682 0.964352
O O7 0.400950 0.704490 0.212566
O O8 0.310319 0.637888 0.996921
O O9 0.763957 0.755622 0.581496
O O10 0.439230 0.681477 0.423559
O O11 0.698087 0.069030 0.411570
O O12 0.342944 0.655978 0.848428
O O13 0.000000 0.500000 0.500000
#
# Coordination Sequence:
#
# PCOD8006763 Si02
#       6
#     2   2   2   2   2   2
#     4  12  18  35  59  82 106 140 177 220 269 315
#     4  10  16  30  52  82 106 133 171 225 267 309
#     4  10  21  33  51  85 110 135 175 220 271 311
#     4  10  18  30  55  79 104 136 185 217 255 315
#     4  11  19  31  55  84 110 134 167 228 272 313
#     4  11  23  38  55  77 109 145 183 220 257 315
#
# _framework density 17.846543
#
# number of rings (size 3 to 8) (size 9 to 14) (size 15 to 20)
#    0.000    1.333    6.667    1.500    0.000    0.667 
#    0.000    0.833    0.000    1.000    0.000    0.000 
#    0.000    0.000    0.000    0.000    0.000    0.000 
#
# Total GULP energy -148782.815331 kJ/mol
# GULP energy per Si atom -12398.567944 kJ/mol
# Density = 1.780592 g / cm^3
# Si number density = 17.846543 Si / 1000 Ang^3
#
#
#
# Elastic Constant Matrix: (Units=GPa)
#
#
# Indices 1 2 3 4 5 6 
#
# 1 70.7494 36.7111 14.0569 3.3578 -1.1404 22.6202
# 2 36.7111 72.5754 35.6122 7.1860 -16.7456 10.7438
# 3 14.0569 35.6122 95.8216 5.5671 1.7528 5.7650
# 4 3.3578 7.1860 5.5671 21.6893 1.3509 -6.8146
# 5 -1.1404 -16.7456 1.7528 1.3509 32.1946 -0.4353
# 6 22.6202 10.7438 5.7650 -6.8146 -0.4353 27.3152
#
#
#
# Elastic Compliance Matrix: (Units=1/GPa)
#
#
# Indices 1 2 3 4 5 6 
#
# 1 0.026406 -0.012336 0.002331 -0.006270 -0.005604 -0.019160
# 2 -0.012336 0.028447 -0.008637 -0.006397 0.015091 -0.000506
# 3 0.002331 -0.008637 0.013576 -0.001226 -0.005122 -0.001786
# 4 -0.006270 -0.006397 -0.001226 0.056784 -0.005567 0.022045
# 5 -0.005604 0.015091 -0.005122 -0.005567 0.039211 -0.000978
# 6 -0.019160 -0.000506 -0.001786 0.022045 -0.000978 0.058537
#
#
# Mechanical properties :
#
#
# Convention : Reuss Voigt Hill
#
# Bulk Modulus (GPa) = 32.10835 45.76743 38.93789
# Shear Modulus (GPa) = 18.47559 26.42422 22.44991
#
# Velocity S-wave (km/s) = 3.22102 3.85208 3.55059
# Velocity P-wave (km/s) = 5.64479 6.74428 6.21888
#
# Compressibility (1/GPa) = 0.03114455
#
# Stress axis : x y z
#
# Youngs Moduli (GPa) = 37.87049 35.15275 73.65744
#
# Poissons Ratio (x) = 0.43366 -0.17167
# Poissons Ratio (y) = 0.46719 0.63616
# Poissons Ratio (z) = -0.08826 0.30360
#
# Static dielectric constant tensor:
#      x y z
#    x 2.931090 0.717440 -0.057300 
#    y 0.717440 2.531260 -0.081280 
#    z -0.057300 -0.081280 3.727620 
# 
# 
# High freq. dielectric constant tensor:
#      x y z
#    x 1.685300 0.032090 0.008940 
#    y 0.032090 1.639970 -0.015030 
#    z 0.008940 -0.015030 1.711810 
# 
# From -- ./inp_files/150520.got.cif
#   From: 2010.06.25/outbox.cif.g09.slc.cpg/sg2_76_cif.got.tgz:150520.got - 2010.06.27 13:26:56.
