data_PCOD8006487
_publ_section_title
;
Structure prediction by ZEFSAII (Michael W. Deem and Ramdas Pophale) SiO2 
 PCOD8006487
Probable space group: P -1
;
_chemical_formula_sum "Si O2"
_cell_formula_units_Z 16
_cell_length_a 8.777930
_cell_length_b 7.623824
_cell_length_c 24.306711
_cell_angle_alpha 62.553065
_cell_angle_beta 149.191118
_cell_angle_gamma 115.614389
_cell_volume 736.968542
_symmetry_space_group_name_H-M "P -1"
_symmetry_group_IT_number 2
_symmetry_cell_setting 'triclinic'
loop_
_space_group_symop_operation_xyz
x,y,z
-x,-y,-z
loop_
_atom_site_type_symbol
_atom_site_label
_atom_site_fract_x
_atom_site_fract_y
_atom_site_fract_z
Si Si1 0.803362 0.924268 0.000608
Si Si2 0.341262 0.886986 0.657931
Si Si3 0.270759 0.076850 0.498499
Si Si4 0.771360 0.515741 0.377539
Si Si5 0.025071 0.176618 0.126990
Si Si6 0.889323 0.465548 0.825792
Si Si7 0.876270 0.145786 0.204023
Si Si8 0.807192 0.178726 0.586942
O O1 0.920895 0.724122 0.090997
O O2 0.468581 0.875992 0.882822
O O3 0.801934 0.101787 0.019850
O O4 0.000000 0.000000 0.000000
O O5 0.333445 0.699234 0.643740
O O6 0.659052 0.900370 0.784591
O O7 0.074810 0.871280 0.622359
O O8 0.322998 0.065226 0.582192
O O9 0.522604 0.235516 0.527336
O O10 0.297522 0.874484 0.500694
O O11 0.460466 0.610973 0.281979
O O12 0.000000 0.500000 0.500000
O O13 0.941178 0.639611 0.362876
O O14 0.054332 0.415511 0.114710
O O15 0.919593 0.064889 0.166891
O O16 0.000388 0.620676 0.789382
O O17 0.065058 0.019239 0.321158
#
# Coordination Sequence:
#
# PCOD8006487 Si02
#       8
#     2   2   2   2   2   2   2   2
#     4  12  24  40  69  96 117 163 213 259 313 371
#     4  10  20  40  57  89 124 168 196 251 312 372
#     4  10  21  34  62  86 122 163 204 243 310 367
#     4  11  21  37  60  92 126 163 203 255 307 368
#     4   9  22  41  64  86 130 158 205 255 312 364
#     4   9  23  42  62  91 125 165 205 251 314 372
#     4  10  22  44  61  87 127 162 207 258 312 366
#     4  11  21  37  62  91 121 162 206 254 301 369
#
# _framework density 21.710560000000001
#
# number of rings (size 3 to 8) (size 9 to 14) (size 15 to 20)
#    0.750    1.000    2.500    1.500    5.250    1.000 
#    0.000    1.250    0.000    0.000    0.000    0.000 
#    0.000    0.000    0.000    0.000    0.000    0.000 
#
# Total GULP energy -198217.275509 kJ/mol
# GULP energy per Si atom -12388.579719 kJ/mol
# Density = 2.166115 g / cm^3
# Si number density = 21.710560 Si / 1000 Ang^3
#
#
#
# Elastic Constant Matrix: (Units=GPa)
#
#
# Indices 1 2 3 4 5 6 
#
# 1 83.3948 14.5991 27.4610 6.9772 22.4095 21.9090
# 2 14.5991 54.9356 13.9971 2.9939 -0.8006 18.4877
# 3 27.4610 13.9971 71.6882 10.1862 26.9133 13.7774
# 4 6.9772 2.9939 10.1862 29.2782 6.2472 6.9096
# 5 22.4095 -0.8006 26.9133 6.2472 45.3554 11.4780
# 6 21.9090 18.4877 13.7774 6.9096 11.4780 41.0702
#
#
#
# Elastic Compliance Matrix: (Units=1/GPa)
#
#
# Indices 1 2 3 4 5 6 
#
# 1 0.015980 -0.001755 -0.002897 -0.000330 -0.004805 -0.005365
# 2 -0.001755 0.023177 -0.004404 0.000565 0.006312 -0.009879
# 3 -0.002897 -0.004404 0.020239 -0.003779 -0.010192 0.000223
# 4 -0.000330 0.000565 -0.003779 0.036896 -0.001503 -0.004598
# 5 -0.004805 0.006312 -0.010192 -0.001503 0.032207 -0.005608
# 6 -0.005365 -0.009879 0.000223 -0.004598 -0.005608 0.033923
#
#
# Mechanical properties :
#
#
# Convention : Reuss Voigt Hill
#
# Bulk Modulus (GPa) = 24.22281 35.79255 30.00768
# Shear Modulus (GPa) = 25.73349 33.40485 29.56917
#
# Velocity S-wave (km/s) = 3.44655 3.92681 3.69449
# Velocity P-wave (km/s) = 5.19804 6.08949 5.66134
#
# Compressibility (1/GPa) = 0.04128340
#
# Stress axis : x y z
#
# Youngs Moduli (GPa) = 62.57654 43.14535 49.40845
#
# Poissons Ratio (x) = 0.07573 0.14315
# Poissons Ratio (y) = 0.10984 0.21762
# Poissons Ratio (z) = 0.18130 0.19003
#
# Static dielectric constant tensor:
#      x y z
#    x 3.892990 0.268770 0.350980 
#    y 0.268770 3.838380 0.308090 
#    z 0.350980 0.308090 4.264260 
# 
# 
# High freq. dielectric constant tensor:
#      x y z
#    x 1.845950 0.016650 0.022190 
#    y 0.016650 1.830270 0.015180 
#    z 0.022190 0.015180 1.850190 
# 
# From -- ./inp_files/493688.got.cif
#   From: 2010.06.25/outbox.cif.g09.slc.cpg/sg2_247_cif.got.tgz:493688.got - 2010.06.27 13:26:56.
