data_PCOD8006220
_publ_section_title
;
Structure prediction by ZEFSAII (Michael W. Deem and Ramdas Pophale) SiO2 
 PCOD8006220
Probable space group: P -1
;
_chemical_formula_sum "Si O2"
_cell_formula_units_Z 16
_cell_length_a 14.844451
_cell_length_b 13.417314
_cell_length_c 11.532061
_cell_angle_alpha 42.912678
_cell_angle_beta 30.315123
_cell_angle_gamma 55.185578
_cell_volume 776.718208
_symmetry_space_group_name_H-M "P -1"
_symmetry_group_IT_number 2
_symmetry_cell_setting 'triclinic'
loop_
_space_group_symop_operation_xyz
x,y,z
-x,-y,-z
loop_
_atom_site_type_symbol
_atom_site_label
_atom_site_fract_x
_atom_site_fract_y
_atom_site_fract_z
Si Si1 0.141157 0.462199 0.548020
Si Si2 0.345960 0.094405 0.289920
Si Si3 0.900434 0.099493 0.444468
Si Si4 0.803648 0.367668 0.878565
Si Si5 0.992574 0.161832 0.695557
Si Si6 0.847770 0.844203 0.094047
Si Si7 0.756462 0.253264 0.675366
Si Si8 0.532064 0.101670 0.491439
O O1 0.250209 0.529328 0.253229
O O2 0.176764 0.298835 0.674305
O O3 0.204909 0.569915 0.493826
O O4 0.925752 0.463105 0.761246
O O5 0.205714 0.203424 0.389936
O O6 0.272503 0.006160 0.330580
O O7 0.345153 0.971229 0.495364
O O8 0.541886 0.193727 0.970571
O O9 0.827550 0.225989 0.491450
O O10 0.000000 0.000000 0.500000
O O11 0.043604 0.181913 0.121054
O O12 0.942836 0.262651 0.767743
O O13 0.625309 0.268726 0.211812
O O14 0.862788 0.171835 0.720675
O O15 0.956481 0.987116 0.920241
O O16 0.649854 0.879526 0.255439
O O17 0.500000 0.000000 0.500000
#
# Coordination Sequence:
#
# PCOD8006220 Si02
#       8
#     2   2   2   2   2   2   2   2
#     4  10  24  41  58  90 133 170 208 257 323 389
#     4  11  22  37  69 101 119 164 214 271 314 365
#     4  11  21  41  71  95 122 163 214 278 313 364
#     4  10  21  41  61  88 127 179 205 258 326 371
#     4  10  20  39  66  94 124 161 223 261 304 376
#     4  11  22  39  59  97 125 160 213 265 306 374
#     4  11  21  44  63  94 129 166 213 258 323 377
#     4  12  22  38  65  97 131 162 218 265 305 379
#
# _framework density 20.599491
#
# number of rings (size 3 to 8) (size 9 to 14) (size 15 to 20)
#    0.000    1.250    5.000    2.625    1.750    2.000 
#    6.750    0.000    0.000    2.250    0.000    0.000 
#    0.000    0.000    0.000    0.000    0.000    0.000 
#
# Total GULP energy -198349.278819 kJ/mol
# GULP energy per Si atom -12396.829926 kJ/mol
# Density = 2.055261 g / cm^3
# Si number density = 20.599491 Si / 1000 Ang^3
#
#
#
# Elastic Constant Matrix: (Units=GPa)
#
#
# Indices 1 2 3 4 5 6 
#
# 1 106.3124 27.1458 33.1164 0.6004 -15.0294 0.8401
# 2 27.1458 72.4141 34.9857 4.0493 -0.2318 -6.5604
# 3 33.1164 34.9857 128.4494 9.6816 -15.2315 1.7934
# 4 0.6004 4.0493 9.6816 43.3116 -7.6157 0.0689
# 5 -15.0294 -0.2318 -15.2315 -7.6157 29.7833 -1.7192
# 6 0.8401 -6.5604 1.7934 0.0689 -1.7192 32.3261
#
#
#
# Elastic Compliance Matrix: (Units=1/GPa)
#
#
# Indices 1 2 3 4 5 6 
#
# 1 0.011577 -0.003787 -0.001411 0.001464 0.005425 -0.000706
# 2 -0.003787 0.017696 -0.004278 -0.001372 -0.004097 0.003712
# 3 -0.001411 -0.004278 0.009882 -0.001091 0.003963 -0.001167
# 4 0.001464 -0.001372 -0.001091 0.024576 0.006456 0.000035
# 5 0.005425 -0.004097 0.003963 0.006456 0.040012 0.000922
# 6 -0.000706 0.003712 -0.001167 0.000035 0.000922 0.031820
#
#
# Mechanical properties :
#
#
# Convention : Reuss Voigt Hill
#
# Bulk Modulus (GPa) = 49.49338 55.29686 52.39512
# Shear Modulus (GPa) = 31.00830 35.21271 33.11051
#
# Velocity S-wave (km/s) = 3.88402 4.13897 4.01352
# Velocity P-wave (km/s) = 6.64777 7.05291 6.85333
#
# Compressibility (1/GPa) = 0.02020472
#
# Stress axis : x y z
#
# Youngs Moduli (GPa) = 86.38035 56.51122 101.19053
#
# Poissons Ratio (x) = 0.21399 0.14273
# Poissons Ratio (y) = 0.32710 0.43287
# Poissons Ratio (z) = 0.12184 0.24174
#
# Static dielectric constant tensor:
#      x y z
#    x 4.163310 0.118600 -0.134200 
#    y 0.118600 3.770460 0.012260 
#    z -0.134200 0.012260 3.820350 
# 
# 
# High freq. dielectric constant tensor:
#      x y z
#    x 1.803200 -0.002160 -0.013500 
#    y -0.002160 1.795890 -0.002720 
#    z -0.013500 -0.002720 1.805650 
# 
# From -- ./inp_files/454473.got.cif
#   From: 2010.06.25/outbox.cif.g09.slc.cpg/sg2_228_cif.got.tgz:454473.got - 2010.06.27 13:26:56.
