data_PCOD8006113
_publ_section_title
;
Structure prediction by ZEFSAII (Michael W. Deem and Ramdas Pophale) SiO2 
 PCOD8006113
Probable space group: P -1
;
_chemical_formula_sum "Si O2"
_cell_formula_units_Z 16
_cell_length_a 11.728725
_cell_length_b 10.731516
_cell_length_c 8.787159
_cell_angle_alpha 64.403650
_cell_angle_beta 77.318918
_cell_angle_gamma 113.294918
_cell_volume 808.038552
_symmetry_space_group_name_H-M "P -1"
_symmetry_group_IT_number 2
_symmetry_cell_setting 'triclinic'
loop_
_space_group_symop_operation_xyz
x,y,z
-x,-y,-z
loop_
_atom_site_type_symbol
_atom_site_label
_atom_site_fract_x
_atom_site_fract_y
_atom_site_fract_z
Si Si1 0.847315 0.460267 0.041229
Si Si2 0.399408 0.819477 0.550952
Si Si3 0.514778 0.593563 0.602791
Si Si4 0.235754 0.317850 0.923781
Si Si5 0.824181 0.243671 0.580209
Si Si6 0.873246 0.472538 0.689585
Si Si7 0.930473 0.010167 0.669458
Si Si8 0.191245 0.293324 0.591201
O O1 0.726281 0.285822 0.238347
O O2 0.856902 0.614674 0.034191
O O3 0.801557 0.448637 0.885063
O O4 0.000000 0.500000 0.000000
O O5 0.484286 0.737273 0.523525
O O6 0.325389 0.822312 0.416951
O O7 0.500000 0.000000 0.500000
O O8 0.500000 0.500000 0.500000
O O9 0.403312 0.455056 0.829129
O O10 0.676389 0.678466 0.560642
O O11 0.215074 0.290467 0.764276
O O12 0.187614 0.160530 0.125942
O O13 0.817913 0.289136 0.735166
O O14 0.957877 0.419837 0.384548
O O15 0.852558 0.102510 0.616352
O O16 0.835081 0.567367 0.529124
O O17 0.000000 0.000000 0.500000
O O18 0.058025 0.109906 0.695961
#
# Coordination Sequence:
#
# PCOD8006113 Si02
#       8
#     2   2   2   2   2   2   2   2
#     4  11  22  38  65  90 121 161 209 254 303 380
#     4  11  24  42  62  94 128 166 206 257 322 371
#     4   9  20  40  65  86 118 168 208 251 302 377
#     4  10  21  40  60  93 121 161 210 244 313 375
#     4  10  21  39  62  86 128 162 201 261 308 365
#     4  10  20  39  65  94 117 160 214 255 308 361
#     4  11  24  38  58  92 126 158 205 262 311 355
#     4  10  21  39  66  88 121 162 205 261 305 366
#
# _framework density 19.801034000000001
#
# number of rings (size 3 to 8) (size 9 to 14) (size 15 to 20)
#    0.000    1.750    1.250    4.125    5.250    0.000 
#    6.750    2.500    0.000    0.000    0.000    0.000 
#    0.000    0.000    0.000    0.000    0.000    0.000 
#
# Total GULP energy -198271.150919 kJ/mol
# GULP energy per Si atom -12391.946932 kJ/mol
# Density = 1.975597 g / cm^3
# Si number density = 19.801034 Si / 1000 Ang^3
#
#
#
# Elastic Constant Matrix: (Units=GPa)
#
#
# Indices 1 2 3 4 5 6 
#
# 1 107.0104 52.6708 28.4831 -3.6129 -17.3578 -11.4587
# 2 52.6708 132.1173 47.6156 -8.7597 -5.2588 -13.9511
# 3 28.4831 47.6156 95.4126 5.1179 -1.2158 -8.3203
# 4 -3.6129 -8.7597 5.1179 28.3773 0.2472 -0.5963
# 5 -17.3578 -5.2588 -1.2158 0.2472 25.9372 4.1128
# 6 -11.4587 -13.9511 -8.3203 -0.5963 4.1128 32.3480
#
#
#
# Elastic Compliance Matrix: (Units=1/GPa)
#
#
# Indices 1 2 3 4 5 6 
#
# 1 0.013286 -0.004178 -0.001688 0.000670 0.007721 0.001501
# 2 -0.004178 0.011284 -0.004387 0.003804 -0.001143 0.002473
# 3 -0.001688 -0.004387 0.013462 -0.003961 -0.001524 0.001094
# 4 0.000670 0.003804 -0.003961 0.037241 0.000443 0.001490
# 5 0.007721 -0.001143 -0.001524 0.000443 0.044007 -0.003737
# 6 0.001501 0.002473 0.001094 0.001490 -0.003737 0.033296
#
#
# Mechanical properties :
#
#
# Convention : Reuss Voigt Hill
#
# Bulk Modulus (GPa) = 57.05586 65.78657 61.42122
# Shear Modulus (GPa) = 27.94480 31.05056 29.49768
#
# Velocity S-wave (km/s) = 3.76078 3.96426 3.86386
# Velocity P-wave (km/s) = 6.90906 7.36544 7.14089
#
# Compressibility (1/GPa) = 0.01752668
#
# Stress axis : x y z
#
# Youngs Moduli (GPa) = 75.26462 88.62332 74.28178
#
# Poissons Ratio (x) = 0.37029 0.12538
# Poissons Ratio (y) = 0.31448 0.32585
# Poissons Ratio (z) = 0.12704 0.38877
#
# Static dielectric constant tensor:
#      x y z
#    x 3.686730 0.163060 -0.349630 
#    y 0.163060 3.766690 -0.029740 
#    z -0.349630 -0.029740 3.741720 
# 
# 
# High freq. dielectric constant tensor:
#      x y z
#    x 1.775780 -0.006500 -0.012740 
#    y -0.006500 1.781610 0.008760 
#    z -0.012740 0.008760 1.759100 
# 
# From -- ./inp_files/242961.got.cif
#   From: 2010.06.25/outbox.cif.g09.slc.cpg/sg2_122_cif.got.tgz:242961.got - 2010.06.27 13:26:56.
