data_PCOD8006360
_publ_section_title
;
Structure prediction by ZEFSAII (Michael W. Deem and Ramdas Pophale) SiO2 
 PCOD8006360
Probable space group: P -1
;
_chemical_formula_sum "Si O2"
_cell_formula_units_Z 16
_cell_length_a 10.547247
_cell_length_b 14.806294
_cell_length_c 8.560697
_cell_angle_alpha 122.798016
_cell_angle_beta 43.469441
_cell_angle_gamma 100.652386
_cell_volume 721.237326
_symmetry_space_group_name_H-M "P -1"
_symmetry_group_IT_number 2
_symmetry_cell_setting 'triclinic'
loop_
_space_group_symop_operation_xyz
x,y,z
-x,-y,-z
loop_
_atom_site_type_symbol
_atom_site_label
_atom_site_fract_x
_atom_site_fract_y
_atom_site_fract_z
Si Si1 0.469452 0.293088 0.686409
Si Si2 0.991972 0.975739 0.735653
Si Si3 0.114317 0.363278 0.285015
Si Si4 0.924892 0.649995 0.335411
Si Si5 0.357801 0.160136 0.408626
Si Si6 0.674816 0.521796 0.273978
Si Si7 0.931833 0.184741 0.197115
Si Si8 0.689841 0.063912 0.820461
O O1 0.404795 0.196773 0.570469
O O2 0.428724 0.398429 0.703275
O O3 0.696716 0.239651 0.481226
O O4 0.337023 0.335021 0.998868
O O5 0.970481 0.893795 0.814610
O O6 0.187275 0.903331 0.393676
O O7 0.811604 0.001763 0.804975
O O8 0.994576 0.099123 0.911487
O O9 0.119362 0.320517 0.416594
O O10 0.000000 0.500000 0.500000
O O11 0.012027 0.289680 0.204859
O O12 0.858759 0.763206 0.390712
O O13 0.797363 0.573574 0.326919
O O14 0.160803 0.593342 0.049413
O O15 0.392156 0.026958 0.271034
O O16 0.511332 0.174087 0.150824
O O17 0.500000 0.500000 0.500000
#
# Coordination Sequence:
#
# PCOD8006360 Si02
#       8
#     2   2   2   2   2   2   2   2
#     4  11  24  43  64  97 128 176 220 265 332 391
#     4  10  22  43  63 100 127 170 220 270 332 389
#     4  12  26  44  66  94 136 177 219 267 324 394
#     4  10  23  43  61  96 127 167 221 264 321 391
#     4  10  21  40  64  96 127 168 219 270 332 383
#     4  10  23  42  68  91 124 166 219 274 319 377
#     4  11  25  43  66  95 137 172 214 274 331 388
#     4  10  20  39  68  93 128 166 218 276 322 394
#
# _framework density 22.184097999999999
#
# number of rings (size 3 to 8) (size 9 to 14) (size 15 to 20)
#    0.000    1.500    2.500    1.500    3.500    2.500 
#    4.500    1.875    0.000    0.000    0.000    0.000 
#    0.000    0.000    0.000    0.000    0.000    0.000 
#
# Total GULP energy -198350.217796 kJ/mol
# GULP energy per Si atom -12396.888612 kJ/mol
# Density = 2.213361 g / cm^3
# Si number density = 22.184098 Si / 1000 Ang^3
#
#
#
# Elastic Constant Matrix: (Units=GPa)
#
#
# Indices 1 2 3 4 5 6 
#
# 1 57.0491 14.8670 27.5429 -6.4928 -6.5260 1.7038
# 2 14.8670 56.7957 14.2964 2.4201 -0.2954 11.5392
# 3 27.5429 14.2964 122.2196 -9.5447 0.4995 -2.0572
# 4 -6.4928 2.4201 -9.5447 35.1778 -0.5993 4.2309
# 5 -6.5260 -0.2954 0.4995 -0.5993 29.1653 3.8585
# 6 1.7038 11.5392 -2.0572 4.2309 3.8585 16.4196
#
#
#
# Elastic Compliance Matrix: (Units=1/GPa)
#
#
# Indices 1 2 3 4 5 6 
#
# 1 0.021729 -0.004394 -0.004162 0.003490 0.005200 -0.001809
# 2 -0.004394 0.022487 -0.001986 -0.000992 0.001329 -0.015653
# 3 -0.004162 -0.001986 0.009531 0.001573 -0.001474 0.002963
# 4 0.003490 -0.000992 0.001573 0.030559 0.002418 -0.007911
# 5 0.005200 0.001329 -0.001474 0.002418 0.036991 -0.010974
# 6 -0.001809 -0.015653 0.002963 -0.007911 -0.010974 0.077079
#
#
# Mechanical properties :
#
#
# Convention : Reuss Voigt Hill
#
# Bulk Modulus (GPa) = 30.61708 38.83077 34.72393
# Shear Modulus (GPa) = 21.70620 28.10975 24.90798
#
# Velocity S-wave (km/s) = 3.13142 3.56351 3.35443
# Velocity P-wave (km/s) = 5.18708 5.87140 5.53982
#
# Compressibility (1/GPa) = 0.03266150
#
# Stress axis : x y z
#
# Youngs Moduli (GPa) = 46.02069 44.47095 104.92061
#
# Poissons Ratio (x) = 0.19542 0.43668
# Poissons Ratio (y) = 0.20223 0.20841
# Poissons Ratio (z) = 0.19154 0.08834
#
# Static dielectric constant tensor:
#      x y z
#    x 3.940900 0.065430 0.037420 
#    y 0.065430 3.715110 0.151130 
#    z 0.037420 0.151130 4.517650 
# 
# 
# High freq. dielectric constant tensor:
#      x y z
#    x 1.871860 0.001320 0.003050 
#    y 0.001320 1.854130 0.003600 
#    z 0.003050 0.003600 1.895910 
# 
# From -- ./inp_files/270795.got.cif
#   From: 2010.06.25/outbox.cif.g09.slc.cpg/sg2_136_cif.got.tgz:270795.got - 2010.06.27 13:26:56.
