data_PCOD8006893
_publ_section_title
;
Structure prediction by ZEFSAII (Michael W. Deem and Ramdas Pophale) SiO2 
 PCOD8006893
Probable space group: P -1
;
_chemical_formula_sum "Si O2"
_cell_formula_units_Z 16
_cell_length_a 13.897207
_cell_length_b 18.782948
_cell_length_c 16.885221
_cell_angle_alpha 154.771485
_cell_angle_beta 25.920262
_cell_angle_gamma 136.570638
_cell_volume 725.247000
_symmetry_space_group_name_H-M "P -1"
_symmetry_group_IT_number 2
_symmetry_cell_setting 'triclinic'
loop_
_space_group_symop_operation_xyz
x,y,z
-x,-y,-z
loop_
_atom_site_type_symbol
_atom_site_label
_atom_site_fract_x
_atom_site_fract_y
_atom_site_fract_z
Si Si1 0.881931 0.053793 0.879570
Si Si2 0.585088 0.289895 0.037184
Si Si3 0.594336 0.039358 0.646643
Si Si4 0.028337 0.667893 0.315489
Si Si5 0.817730 0.322270 0.331948
Si Si6 0.467283 0.309664 0.699759
Si Si7 0.494214 0.306602 0.296842
Si Si8 0.621921 0.784140 0.168145
O O1 0.831019 0.139866 0.092434
O O2 0.644600 0.158510 0.104382
O O3 0.109541 0.082935 0.706837
O O4 0.956242 0.831641 0.600171
O O5 0.344051 0.495262 0.418531
O O6 0.623245 0.223587 0.033097
O O7 0.529154 0.137490 0.879039
O O8 0.829810 0.293503 0.824175
O O9 0.476841 0.215500 0.847140
O O10 0.481086 0.896675 0.576690
O O11 0.785710 0.661676 0.456519
O O12 0.200786 0.467341 0.025634
O O13 0.688311 0.342747 0.533781
O O14 0.081323 0.310806 0.143170
O O15 0.472910 0.318057 0.799993
O O16 0.500000 0.500000 0.500000
O O17 0.500000 0.000000 0.500000
#
# Coordination Sequence:
#
# PCOD8006893 Si02
#       8
#     2   2   2   2   2   2   2   2
#     4  11  22  42  61  92 129 163 203 262 301 363
#     4  10  24  43  62  95 125 159 207 256 307 368
#     4  10  22  42  65  89 127 163 204 260 305 360
#     4  10  24  42  60  93 129 159 205 255 308 365
#     4  11  21  40  63  93 128 159 207 254 305 367
#     4  10  21  40  64  90 121 169 200 252 309 362
#     4  12  23  41  68  91 121 167 207 251 314 364
#     4  10  20  40  65  90 126 161 208 252 308 360
#
# _framework density 22.061450000000001
#
# number of rings (size 3 to 8) (size 9 to 14) (size 15 to 20)
#    0.000    1.500    3.750    1.875    1.750    5.000 
#    2.250    5.625    0.000    0.000    0.000    0.000 
#    0.000    0.000    0.000    0.000    0.000    0.000 
#
# Total GULP energy -198394.472762 kJ/mol
# GULP energy per Si atom -12399.654548 kJ/mol
# Density = 2.201124 g / cm^3
# Si number density = 22.061450 Si / 1000 Ang^3
#
#
#
# Elastic Constant Matrix: (Units=GPa)
#
#
# Indices 1 2 3 4 5 6 
#
# 1 84.5221 8.1985 26.4494 -0.7474 9.7751 -15.3116
# 2 8.1985 47.5705 19.9944 -0.7599 3.9032 -5.2174
# 3 26.4494 19.9944 96.8716 -8.2063 -1.7526 -0.1436
# 4 -0.7474 -0.7599 -8.2063 30.1872 6.8275 4.4906
# 5 9.7751 3.9032 -1.7526 6.8275 29.3759 0.9213
# 6 -15.3116 -5.2174 -0.1436 4.4906 0.9213 35.5612
#
#
#
# Elastic Compliance Matrix: (Units=1/GPa)
#
#
# Indices 1 2 3 4 5 6 
#
# 1 0.014969 0.000395 -0.004304 -0.000572 -0.005367 0.006697
# 2 0.000395 0.023812 -0.005128 -0.000537 -0.003596 0.003804
# 3 -0.004304 -0.005128 0.012864 0.003206 0.002231 -0.003016
# 4 -0.000572 -0.000537 0.003206 0.036451 -0.007871 -0.004711
# 5 -0.005367 -0.003596 0.002231 -0.007871 0.038357 -0.002829
# 6 0.006697 0.003804 -0.003016 -0.004711 -0.002829 0.032218
#
#
# Mechanical properties :
#
#
# Convention : Reuss Voigt Hill
#
# Bulk Modulus (GPa) = 29.78731 37.58321 33.68526
# Shear Modulus (GPa) = 26.60495 30.64632 28.62563
#
# Velocity S-wave (km/s) = 3.47644 3.73115 3.60605
# Velocity P-wave (km/s) = 5.44477 5.96948 5.71315
#
# Compressibility (1/GPa) = 0.03357134
#
# Stress axis : x y z
#
# Youngs Moduli (GPa) = 66.80624 41.99526 77.73680
#
# Poissons Ratio (x) = -0.01659 0.33459
# Poissons Ratio (y) = -0.02639 0.39861
# Poissons Ratio (z) = 0.28754 0.21534
#
# Static dielectric constant tensor:
#      x y z
#    x 4.825990 -0.270010 -0.271680 
#    y -0.270010 3.903110 0.094790 
#    z -0.271680 0.094790 4.221030 
# 
# 
# High freq. dielectric constant tensor:
#      x y z
#    x 1.862770 -0.001260 -0.000290 
#    y -0.001260 1.858880 -0.000390 
#    z -0.000290 -0.000390 1.878670 
# 
# From -- ./inp_files/203401.got.cif
#   From: 2010.06.25/outbox.cif.g09.slc.cpg/sg2_102_cif.got.tgz:203401.got - 2010.06.27 13:26:56.
