data_PCOD8006647
_publ_section_title
;
Structure prediction by ZEFSAII (Michael W. Deem and Ramdas Pophale) SiO2 
 PCOD8006647
Probable space group: P -1
;
_chemical_formula_sum "Si O2"
_cell_formula_units_Z 16
_cell_length_a 9.650596
_cell_length_b 9.116196
_cell_length_c 19.194278
_cell_angle_alpha 119.863401
_cell_angle_beta 139.889126
_cell_angle_gamma 85.035339
_cell_volume 802.007162
_symmetry_space_group_name_H-M "P -1"
_symmetry_group_IT_number 2
_symmetry_cell_setting 'triclinic'
loop_
_space_group_symop_operation_xyz
x,y,z
-x,-y,-z
loop_
_atom_site_type_symbol
_atom_site_label
_atom_site_fract_x
_atom_site_fract_y
_atom_site_fract_z
Si Si1 0.022993 0.946816 0.383433
Si Si2 0.234512 0.813253 0.880921
Si Si3 0.232074 0.468452 0.882379
Si Si4 0.349816 0.040812 0.654580
Si Si5 0.120608 0.621565 0.006925
Si Si6 0.944269 0.258588 0.353593
Si Si7 0.349565 0.699762 0.639541
Si Si8 0.904436 0.808150 0.874662
O O1 0.972969 0.747482 0.278686
O O2 0.809536 0.889427 0.345986
O O3 0.294748 0.054386 0.554356
O O4 0.012226 0.092543 0.357633
O O5 0.268579 0.646325 0.889775
O O6 0.057858 0.719373 0.724159
O O7 0.079558 0.867431 0.887396
O O8 0.500000 0.000000 0.000000
O O9 0.500000 0.500000 0.000000
O O10 0.168856 0.486793 0.941877
O O11 0.635188 0.174821 0.823815
O O12 0.268441 0.810683 0.579169
O O13 0.000000 0.500000 0.000000
O O14 0.925071 0.656386 0.897382
O O15 0.163237 0.465547 0.516797
O O16 0.676819 0.210057 0.274612
O O17 0.614525 0.726711 0.726498
O O18 0.000000 0.000000 0.000000
#
# Coordination Sequence:
#
# PCOD8006647 Si02
#       8
#     2   2   2   2   2   2   2   2
#     4  10  21  38  66  92 123 159 210 254 310 356
#     4  11  24  39  63  91 125 161 211 253 305 368
#     4  11  22  41  63  91 125 163 203 261 304 366
#     4  10  20  40  62  91 125 161 201 259 304 369
#     4  11  25  40  62  92 128 160 207 249 315 371
#     4  10  22  39  65  95 120 161 208 258 301 378
#     4  10  21  40  64  89 126 158 209 250 316 361
#     4  11  23  41  63  89 124 166 200 260 307 366
#
# _framework density 19.949947999999999
#
# number of rings (size 3 to 8) (size 9 to 14) (size 15 to 20)
#    0.000    1.500    2.500    2.250    5.250    4.500 
#    0.000    0.625    0.000    0.000    0.000    0.000 
#    0.000    0.000    0.000    0.000    0.000    0.000 
#
# Total GULP energy -198271.077180 kJ/mol
# GULP energy per Si atom -12391.942324 kJ/mol
# Density = 1.990454 g / cm^3
# Si number density = 19.949948 Si / 1000 Ang^3
#
#
#
# Elastic Constant Matrix: (Units=GPa)
#
#
# Indices 1 2 3 4 5 6 
#
# 1 140.3044 72.6699 46.2519 -10.5136 -10.8791 1.0019
# 2 72.6699 104.6783 33.4033 2.8388 -10.7336 -2.0135
# 3 46.2519 33.4033 84.7914 -4.5455 -11.5988 -5.1471
# 4 -10.5136 2.8388 -4.5455 38.4022 1.4418 -2.9448
# 5 -10.8791 -10.7336 -11.5988 1.4418 34.1616 -4.2735
# 6 1.0019 -2.0135 -5.1471 -2.9448 -4.2735 35.1672
#
#
#
# Elastic Compliance Matrix: (Units=1/GPa)
#
#
# Indices 1 2 3 4 5 6 
#
# 1 0.012599 -0.007668 -0.003719 0.003494 0.000062 -0.001042
# 2 -0.007668 0.015810 -0.001893 -0.003510 0.002133 0.000812
# 3 -0.003719 -0.001893 0.015299 0.001006 0.003720 0.002773
# 4 0.003494 -0.003510 0.001006 0.027556 -0.000551 0.002087
# 5 0.000062 0.002133 0.003720 -0.000551 0.031810 0.004484
# 6 -0.001042 0.000812 0.002773 0.002087 0.004484 0.029637
#
#
# Mechanical properties :
#
#
# Convention : Reuss Voigt Hill
#
# Bulk Modulus (GPa) = 58.31502 70.49157 64.40330
# Shear Modulus (GPa) = 30.30541 33.37613 31.84077
#
# Velocity S-wave (km/s) = 3.90176 4.09466 3.99937
# Velocity P-wave (km/s) = 7.04219 7.60039 7.32661
#
# Compressibility (1/GPa) = 0.01714824
#
# Stress axis : x y z
#
# Youngs Moduli (GPa) = 79.37022 63.25145 65.36366
#
# Poissons Ratio (x) = 0.48503 0.24310
# Poissons Ratio (y) = 0.60863 0.12371
# Poissons Ratio (z) = 0.29519 0.11971
#
# Static dielectric constant tensor:
#      x y z
#    x 3.414830 0.218960 -0.144170 
#    y 0.218960 3.569170 -0.059010 
#    z -0.144170 -0.059010 3.679800 
# 
# 
# High freq. dielectric constant tensor:
#      x y z
#    x 1.770200 -0.006510 -0.010330 
#    y -0.006510 1.791120 -0.004230 
#    z -0.010330 -0.004230 1.778900 
# 
# From -- ./inp_files/209351.got.cif
#   From: 2010.06.25/outbox.cif.g09.slc.cpg/sg2_105_cif.got.tgz:209351.got - 2010.06.27 13:26:56.
