data_PCOD8006145
_publ_section_title
;
Structure prediction by ZEFSAII (Michael W. Deem and Ramdas Pophale) SiO2 
 PCOD8006145
Probable space group: P -1
;
_chemical_formula_sum "Si O2"
_cell_formula_units_Z 14
_cell_length_a 9.320773
_cell_length_b 12.489963
_cell_length_c 13.065087
_cell_angle_alpha 146.109931
_cell_angle_beta 42.145756
_cell_angle_gamma 130.230260
_cell_volume 567.214242
_symmetry_space_group_name_H-M "P -1"
_symmetry_group_IT_number 2
_symmetry_cell_setting 'triclinic'
loop_
_space_group_symop_operation_xyz
x,y,z
-x,-y,-z
loop_
_atom_site_type_symbol
_atom_site_label
_atom_site_fract_x
_atom_site_fract_y
_atom_site_fract_z
Si Si1 0.748334 0.983186 0.637356
Si Si2 0.540173 0.354061 0.002287
Si Si3 0.453973 0.482906 0.356138
Si Si4 0.709402 0.939198 0.397840
Si Si5 0.723735 0.271150 0.197846
Si Si6 0.192530 0.375308 0.053053
Si Si7 0.829191 0.878409 0.730773
O O1 0.644710 0.183256 0.868838
O O2 0.650959 0.893072 0.511330
O O3 0.703295 0.874925 0.684182
O O4 0.000000 0.000000 0.500000
O O5 0.693733 0.417265 0.875066
O O6 0.512173 0.518113 0.233789
O O7 0.307904 0.292043 0.025455
O O8 0.650015 0.385266 0.228982
O O9 0.424829 0.687996 0.591218
O O10 0.243045 0.328410 0.346468
O O11 0.500000 0.000000 0.500000
O O12 0.786006 0.748462 0.158212
O O13 0.913203 0.100083 0.404060
O O14 0.943641 0.382213 0.210637
O O15 0.747964 0.047158 0.981838
#
# Coordination Sequence:
#
# PCOD8006145 Si02
#       7
#     2   2   2   2   2   2   2
#     4  10  21  37  64  94 122 163 209 254 317 363
#     4  11  23  42  63  94 126 169 205 259 320 373
#     4  11  24  42  65  91 130 167 210 258 321 373
#     4  10  20  39  65  97 122 163 214 256 313 374
#     4  10  23  41  63  94 125 166 213 259 309 377
#     4  10  24  42  63  90 131 161 214 263 306 376
#     4  10  22  42  63  92 130 166 204 265 314 376
#
# _framework density 24.682030999999998
#
# number of rings (size 3 to 8) (size 9 to 14) (size 15 to 20)
#    0.000    1.714    2.857    0.429    4.000    3.429 
#    0.000    4.286    0.000    0.000    0.000    0.000 
#    0.000    0.000    0.000    0.000    0.000    0.000 
#
# Total GULP energy -173475.441243 kJ/mol
# GULP energy per Si atom -12391.102946 kJ/mol
# Density = 2.462585 g / cm^3
# Si number density = 24.682031 Si / 1000 Ang^3
#
#
#
# Elastic Constant Matrix: (Units=GPa)
#
#
# Indices 1 2 3 4 5 6 
#
# 1 142.9448 19.9577 36.7962 -12.4758 6.4843 6.3967
# 2 19.9577 34.6395 1.3273 -10.5872 -1.4122 -3.6254
# 3 36.7962 1.3273 128.9878 -10.0353 26.3041 -4.3733
# 4 -12.4758 -10.5872 -10.0353 20.9501 -0.5200 9.5929
# 5 6.4843 -1.4122 26.3041 -0.5200 42.1688 -7.9026
# 6 6.3967 -3.6254 -4.3733 9.5929 -7.9026 33.2464
#
#
#
# Elastic Compliance Matrix: (Units=1/GPa)
#
#
# Indices 1 2 3 4 5 6 
#
# 1 0.008640 -0.004189 -0.002097 0.003673 -0.000799 -0.003645
# 2 -0.004189 0.036378 0.001938 0.016633 0.000944 0.000453
# 3 -0.002097 0.001938 0.009863 0.004692 -0.005864 -0.000836
# 4 0.003673 0.016633 0.004692 0.069443 -0.005767 -0.019683
# 5 -0.000799 0.000944 -0.005864 -0.005767 0.028961 0.008033
# 6 -0.003645 0.000453 -0.000836 -0.019683 0.008033 0.038308
#
#
# Mechanical properties :
#
#
# Convention : Reuss Voigt Hill
#
# Bulk Modulus (GPa) = 21.65192 46.97050 34.31121
# Shear Modulus (GPa) = 23.18203 35.83913 29.51058
#
# Velocity S-wave (km/s) = 3.06801 3.81469 3.46154
# Velocity P-wave (km/s) = 4.61970 6.20274 5.46880
#
# Compressibility (1/GPa) = 0.04618527
#
# Stress axis : x y z
#
# Youngs Moduli (GPa) = 115.73845 27.48934 101.38485
#
# Poissons Ratio (x) = 0.11516 0.21256
# Poissons Ratio (y) = 0.48484 -0.19645
# Poissons Ratio (z) = 0.24266 -0.05327
#
# Static dielectric constant tensor:
#      x y z
#    x 6.611630 -2.422780 2.013280 
#    y -2.422780 7.884260 -2.933910 
#    z 2.013280 -2.933910 6.460640 
# 
# 
# High freq. dielectric constant tensor:
#      x y z
#    x 1.992000 0.016910 0.013540 
#    y 0.016910 1.959200 -0.014640 
#    z 0.013540 -0.014640 1.995380 
# 
# From -- ./inp_files/153885.got.cif
#   From: 2010.06.25/outbox.cif.g09.slc.cpg/sg2_77_cif.got.tgz:153885.got - 2010.06.27 13:26:56.
