data_PCOD8006157
_publ_section_title
;
Structure prediction by ZEFSAII (Michael W. Deem and Ramdas Pophale) SiO2 
 PCOD8006157
Probable space group: P -1
;
_chemical_formula_sum "Si O2"
_cell_formula_units_Z 14
_cell_length_a 8.444219
_cell_length_b 15.629826
_cell_length_c 8.991078
_cell_angle_alpha 67.935679
_cell_angle_beta 114.799529
_cell_angle_gamma 140.511761
_cell_volume 682.250490
_symmetry_space_group_name_H-M "P -1"
_symmetry_group_IT_number 2
_symmetry_cell_setting 'triclinic'
loop_
_space_group_symop_operation_xyz
x,y,z
-x,-y,-z
loop_
_atom_site_type_symbol
_atom_site_label
_atom_site_fract_x
_atom_site_fract_y
_atom_site_fract_z
Si Si1 0.343368 0.392173 0.373802
Si Si2 0.124110 0.454760 0.033830
Si Si3 0.962405 0.083282 0.514547
Si Si4 0.873156 0.204999 0.968461
Si Si5 0.544928 0.025185 0.229043
Si Si6 0.210057 0.058131 0.169011
Si Si7 0.413994 0.330915 0.142069
O O1 0.500000 0.500000 0.500000
O O2 0.170845 0.407239 0.226867
O O3 0.501824 0.407649 0.287222
O O4 0.179266 0.242967 0.466492
O O5 0.377629 0.567901 0.965688
O O6 0.000000 0.500000 0.000000
O O7 0.897042 0.322515 0.933330
O O8 0.687958 0.024812 0.414219
O O9 0.960410 0.063177 0.701338
O O10 0.000000 0.000000 0.500000
O O11 0.713723 0.131577 0.803783
O O12 0.737118 0.096592 0.118631
O O13 0.160274 0.281042 0.014210
O O14 0.452283 0.092907 0.183796
O O15 0.346519 0.197052 0.212099
O O16 0.000000 0.000000 0.000000
#
# Coordination Sequence:
#
# PCOD8006157 Si02
#       7
#     2   2   2   2   2   2   2
#     4  11  25  45  69 101 137 188 235 287 353 412
#     4  11  24  44  71 100 139 181 234 289 347 430
#     4  12  25  46  68  99 148 182 234 301 346 412
#     4  10  20  39  66 100 132 179 226 282 343 414
#     4  11  22  40  68 100 139 174 235 287 345 416
#     4  12  25  41  69 103 137 186 236 283 362 417
#     4  11  22  45  69 100 138 184 233 284 347 428
#
# _framework density 20.520320999999999
#
# number of rings (size 3 to 8) (size 9 to 14) (size 15 to 20)
#    0.000    0.857    5.714    3.000    4.000    2.286 
#    0.000    0.714    0.000    0.000    0.000    0.000 
#    0.000    0.000    0.000    0.000    0.000    0.000 
#
# Total GULP energy -173470.475706 kJ/mol
# GULP energy per Si atom -12390.748265 kJ/mol
# Density = 2.047362 g / cm^3
# Si number density = 20.520321 Si / 1000 Ang^3
#
#
#
# Elastic Constant Matrix: (Units=GPa)
#
#
# Indices 1 2 3 4 5 6 
#
# 1 125.9091 56.2294 49.4631 10.9314 9.0296 -18.2205
# 2 56.2294 155.3799 54.6318 6.6384 -2.3926 -21.3253
# 3 49.4631 54.6318 115.9385 -2.1874 2.5212 -0.4343
# 4 10.9314 6.6384 -2.1874 41.5892 -0.5166 -4.8928
# 5 9.0296 -2.3926 2.5212 -0.5166 27.3485 -8.5291
# 6 -18.2205 -21.3253 -0.4343 -4.8928 -8.5291 41.4076
#
#
#
# Elastic Compliance Matrix: (Units=1/GPa)
#
#
# Indices 1 2 3 4 5 6 
#
# 1 0.011250 -0.002320 -0.003683 -0.002478 -0.002732 0.002862
# 2 -0.002320 0.009109 -0.003365 -0.000484 0.003184 0.004234
# 3 -0.003683 -0.003365 0.011828 0.001729 -0.001154 -0.003263
# 4 -0.002478 -0.000484 0.001729 0.025121 0.001715 0.002000
# 5 -0.002732 0.003184 -0.001154 0.001715 0.040695 0.009010
# 6 0.002862 0.004234 -0.003263 0.002000 0.009010 0.029648
#
#
# Mechanical properties :
#
#
# Convention : Reuss Voigt Hill
#
# Bulk Modulus (GPa) = 74.34381 79.76400 77.05390
# Shear Modulus (GPa) = 33.14083 37.86261 35.50172
#
# Velocity S-wave (km/s) = 4.02310 4.30016 4.16393
# Velocity P-wave (km/s) = 7.60844 7.97560 7.79419
#
# Compressibility (1/GPa) = 0.01345102
#
# Stress axis : x y z
#
# Youngs Moduli (GPa) = 88.88625 109.77702 84.54568
#
# Poissons Ratio (x) = 0.25465 0.31140
# Poissons Ratio (y) = 0.20619 0.28452
# Poissons Ratio (z) = 0.32739 0.36943
#
# Static dielectric constant tensor:
#      x y z
#    x 3.962180 -0.213450 -0.028610 
#    y -0.213450 4.476640 0.502630 
#    z -0.028610 0.502630 4.266200 
# 
# 
# High freq. dielectric constant tensor:
#      x y z
#    x 1.810330 -0.012470 -0.006380 
#    y -0.012470 1.816990 -0.005260 
#    z -0.006380 -0.005260 1.791680 
# 
# From -- ./inp_files/190392.got.cif
#   From: 2010.06.25/outbox.cif.g09.slc.cpg/sg2_96_cif.got.tgz:190392.got - 2010.06.27 13:26:56.
