data_PCOD8006316
_publ_section_title
;
Structure prediction by ZEFSAII (Michael W. Deem and Ramdas Pophale) SiO2 
 PCOD8006316
Probable space group: P -1
;
_chemical_formula_sum "Si O2"
_cell_formula_units_Z 12
_cell_length_a 16.092667
_cell_length_b 9.754510
_cell_length_c 5.189386
_cell_angle_alpha 92.888865
_cell_angle_beta 81.161443
_cell_angle_gamma 140.563252
_cell_volume 508.282999
_symmetry_space_group_name_H-M "P -1"
_symmetry_group_IT_number 2
_symmetry_cell_setting 'triclinic'
loop_
_space_group_symop_operation_xyz
x,y,z
-x,-y,-z
loop_
_atom_site_type_symbol
_atom_site_label
_atom_site_fract_x
_atom_site_fract_y
_atom_site_fract_z
Si Si1 0.885084 0.355395 0.339550
Si Si2 0.583539 0.241716 0.432433
Si Si3 0.265629 0.496840 0.113229
Si Si4 0.658739 0.881246 0.504546
Si Si5 0.749677 0.840101 0.953327
Si Si6 0.018192 0.290763 0.964318
O O1 0.875271 0.499561 0.255388
O O2 0.000000 0.500000 0.500000
O O3 0.744789 0.131396 0.503337
O O4 0.921110 0.289583 0.100987
O O5 0.650539 0.317255 0.126858
O O6 0.491420 0.261343 0.485497
O O7 0.500000 0.000000 0.500000
O O8 0.694048 0.398799 0.615930
O O9 0.106982 0.326684 0.140042
O O10 0.292375 0.370051 0.062672
O O11 0.672514 0.823811 0.766057
O O12 0.705403 0.838099 0.253881
O O13 0.911538 0.053200 0.860000
#
# Coordination Sequence:
#
# PCOD8006316 Si02
#       6
#     2   2   2   2   2   2
#     4  10  20  39  67  96 126 173 214 273 329 370
#     4  12  28  46  68  97 132 175 221 273 327 386
#     4  12  27  44  68  98 136 177 214 268 333 395
#     4  11  24  43  69  95 134 172 227 268 315 396
#     4  11  24  44  68  99 131 176 219 270 328 384
#     4  10  23  39  66 100 134 167 220 273 328 389
#
# _framework density 23.608896000000001
#
# number of rings (size 3 to 8) (size 9 to 14) (size 15 to 20)
#    0.000    1.000    1.667    4.000    4.667    4.000 
#    0.000    4.167    0.000    0.000    0.000    0.000 
#    0.000    0.000    0.000    0.000    0.000    0.000 
#
# Total GULP energy -148778.675017 kJ/mol
# GULP energy per Si atom -12398.222918 kJ/mol
# Density = 2.355516 g / cm^3
# Si number density = 23.608896 Si / 1000 Ang^3
#
#
#
# Elastic Constant Matrix: (Units=GPa)
#
#
# Indices 1 2 3 4 5 6 
#
# 1 98.3603 22.2311 15.8940 6.4487 24.5014 17.2861
# 2 22.2311 81.7352 22.9551 4.2900 11.1284 -12.4378
# 3 15.8940 22.9551 96.6094 8.8581 21.5790 2.8907
# 4 6.4487 4.2900 8.8581 38.2721 3.7567 3.8719
# 5 24.5014 11.1284 21.5790 3.7567 40.0650 3.5499
# 6 17.2861 -12.4378 2.8907 3.8719 3.5499 25.4893
#
#
#
# Elastic Compliance Matrix: (Units=1/GPa)
#
#
# Indices 1 2 3 4 5 6 
#
# 1 0.015057 -0.005099 0.000694 -0.000240 -0.007102 -0.011753
# 2 -0.005099 0.016541 -0.003165 -0.001426 -0.000719 0.012205
# 3 0.000694 -0.003165 0.012552 -0.001850 -0.005926 -0.002333
# 4 -0.000240 -0.001426 -0.001850 0.027262 -0.000629 -0.004377
# 5 -0.007102 -0.000719 -0.005926 -0.000629 0.032693 0.000680
# 6 -0.011753 0.012205 -0.002333 -0.004377 0.000680 0.053993
#
#
# Mechanical properties :
#
#
# Convention : Reuss Voigt Hill
#
# Bulk Modulus (GPa) = 34.47138 44.31837 39.39487
# Shear Modulus (GPa) = 27.33632 35.14026 31.23829
#
# Velocity S-wave (km/s) = 3.40646 3.86221 3.64147
# Velocity P-wave (km/s) = 5.48677 6.22105 5.86541
#
# Compressibility (1/GPa) = 0.02900958
#
# Stress axis : x y z
#
# Youngs Moduli (GPa) = 66.41273 60.45761 79.67011
#
# Poissons Ratio (x) = 0.30830 -0.05533
# Poissons Ratio (y) = 0.33866 0.25216
# Poissons Ratio (z) = -0.04612 0.19135
#
# Static dielectric constant tensor:
#      x y z
#    x 5.359970 -0.456330 0.186880 
#    y -0.456330 4.879960 -0.156220 
#    z 0.186880 -0.156220 4.051070 
# 
# 
# High freq. dielectric constant tensor:
#      x y z
#    x 1.942040 0.003490 0.013600 
#    y 0.003490 1.945780 -0.000930 
#    z 0.013600 -0.000930 1.927770 
# 
# From -- ./inp_files/18518.got.cif
#   From: 2010.06.25/outbox.cif.g09.slc.cpg/sg2_10_cif.got.tgz:18518.got - 2010.06.27 13:26:56.
