data_PCOD8006959
_publ_section_title
;
Structure prediction by ZEFSAII (Michael W. Deem and Ramdas Pophale) SiO2 
 PCOD8006959
Probable space group: P -1
;
_chemical_formula_sum "Si O2"
_cell_formula_units_Z 16
_cell_length_a 28.342906
_cell_length_b 5.120395
_cell_length_c 5.120443
_cell_angle_alpha 89.020328
_cell_angle_beta 93.675646
_cell_angle_gamma 52.022502
_cell_volume 583.044154
_symmetry_space_group_name_H-M "P -1"
_symmetry_group_IT_number 2
_symmetry_cell_setting 'triclinic'
loop_
_space_group_symop_operation_xyz
x,y,z
-x,-y,-z
loop_
_atom_site_type_symbol
_atom_site_label
_atom_site_fract_x
_atom_site_fract_y
_atom_site_fract_z
Si Si1 0.594336 0.610211 0.540159
Si Si2 0.094340 0.176810 0.606797
Si Si3 0.506654 0.217871 0.191014
Si Si4 0.179129 0.786187 0.242498
Si Si5 0.620302 0.143412 0.138514
Si Si6 0.320872 0.279865 0.323577
Si Si7 0.120301 0.500577 0.995707
Si Si8 0.006655 0.789012 0.262178
O O1 0.560730 0.502785 0.710539
O O2 0.649490 0.539060 0.733758
O O3 0.546972 0.003336 0.460960
O O4 0.618452 0.432957 0.268029
O O5 0.046976 0.398112 0.355771
O O6 0.060730 0.107260 0.815024
O O7 0.149494 0.817742 0.512489
O O8 0.118458 0.376575 0.711719
O O9 0.547469 0.316407 0.077015
O O10 0.500000 0.000000 0.000000
O O11 0.250000 0.537256 0.287256
O O12 0.156218 0.653215 0.021856
O O13 0.156611 0.159846 0.181268
O O14 0.656613 0.848933 0.370322
O O15 0.656220 0.009498 0.878137
O O16 0.047468 0.780568 0.041197
O O17 0.000000 0.000000 0.500000
#
# Coordination Sequence:
#
# PCOD8006959 Si02
#       8
#     2   2   2   2   2   2   2   2
#     4  10  23  41  66  97 137 176 223 287 347 420
#     4  10  23  41  66  97 137 176 223 287 347 420
#     4  10  20  40  65  98 137 170 225 283 347 423
#     4  11  27  45  66  99 135 179 238 284 344 421
#     4  11  25  43  70  99 132 182 227 285 355 410
#     4  11  27  45  66  99 135 179 238 284 344 421
#     4  11  25  43  70  99 132 182 227 285 355 410
#     4  10  20  40  65  98 137 170 225 283 347 423
#
# _framework density 27.442173
#
# number of rings (size 3 to 8) (size 9 to 14) (size 15 to 20)
#    0.000    1.500    2.500    0.750    7.000    2.000 
#    0.000    0.000    0.000    0.000    0.000    0.000 
#    0.000    0.000    0.000    0.000    0.000    0.000 
#
# Total GULP energy -198225.681167 kJ/mol
# GULP energy per Si atom -12389.105073 kJ/mol
# Density = 2.737971 g / cm^3
# Si number density = 27.442173 Si / 1000 Ang^3
#
#
#
# Elastic Constant Matrix: (Units=GPa)
#
#
# Indices 1 2 3 4 5 6 
#
# 1 173.7613 72.1611 50.2248 5.5414 16.1629 -34.6688
# 2 72.1611 127.8806 29.5820 14.7201 5.4439 -47.7568
# 3 50.2248 29.5820 100.5835 27.8111 7.0715 -14.7361
# 4 5.5414 14.7201 27.8111 49.5246 3.0784 7.1396
# 5 16.1629 5.4439 7.0715 3.0784 48.5241 -0.5662
# 6 -34.6688 -47.7568 -14.7361 7.1396 -0.5662 62.7043
#
#
#
# Elastic Compliance Matrix: (Units=1/GPa)
#
#
# Indices 1 2 3 4 5 6 
#
# 1 0.008696 -0.004020 -0.003543 0.002247 -0.002065 0.000640
# 2 -0.004020 0.013985 0.000749 -0.005465 0.000115 0.009228
# 3 -0.003543 0.000749 0.014208 -0.008194 -0.000421 0.002880
# 4 0.002247 -0.005465 -0.008194 0.027363 -0.000770 -0.007968
# 5 -0.002065 0.000115 -0.000421 -0.000770 0.021383 -0.000872
# 6 0.000640 0.009228 0.002880 -0.007968 -0.000872 0.024906
#
#
# Mechanical properties :
#
#
# Convention : Reuss Voigt Hill
#
# Bulk Modulus (GPa) = 42.98697 78.46236 60.72467
# Shear Modulus (GPa) = 37.90111 48.83444 43.36777
#
# Velocity S-wave (km/s) = 3.72038 4.22304 3.97965
# Velocity P-wave (km/s) = 5.84411 7.24104 6.57975
#
# Compressibility (1/GPa) = 0.02326286
#
# Stress axis : x y z
#
# Youngs Moduli (GPa) = 114.99142 71.50398 70.38405
#
# Poissons Ratio (x) = 0.28742 0.24935
# Poissons Ratio (y) = 0.46222 -0.05272
# Poissons Ratio (z) = 0.40738 -0.05356
#
# Static dielectric constant tensor:
#      x y z
#    x 5.236130 0.102990 -0.243470 
#    y 0.102990 5.270680 -0.301550 
#    z -0.243470 -0.301550 5.219030 
# 
# 
# High freq. dielectric constant tensor:
#      x y z
#    x 2.102060 0.008300 -0.004570 
#    y 0.008300 2.128520 -0.020570 
#    z -0.004570 -0.020570 2.119800 
# 
# From -- ./inp_files/10983.got.cif
#   From: 2010.06.25/outbox.cif.g09.slc.cpg/sg2_6_cif.got.tgz:10983.got - 2010.06.27 13:26:56.
