data_PCOD8006293
_publ_section_title
;
Structure prediction by ZEFSAII (Michael W. Deem and Ramdas Pophale) SiO2 
 PCOD8006293
Probable space group: P -1
;
_chemical_formula_sum "Si O2"
_cell_formula_units_Z 14
_cell_length_a 12.334335
_cell_length_b 11.207036
_cell_length_c 8.778690
_cell_angle_alpha 121.566592
_cell_angle_beta 59.305040
_cell_angle_gamma 135.585139
_cell_volume 704.370059
_symmetry_space_group_name_H-M "P -1"
_symmetry_group_IT_number 2
_symmetry_cell_setting 'triclinic'
loop_
_space_group_symop_operation_xyz
x,y,z
-x,-y,-z
loop_
_atom_site_type_symbol
_atom_site_label
_atom_site_fract_x
_atom_site_fract_y
_atom_site_fract_z
Si Si1 0.655437 0.943987 0.438137
Si Si2 0.395478 0.711582 0.056264
Si Si3 0.443993 0.579798 0.205893
Si Si4 0.856327 0.010433 0.613792
Si Si5 0.146901 0.703430 0.037432
Si Si6 0.575264 0.629494 0.672901
Si Si7 0.367385 0.915698 0.751304
O O1 0.601030 0.759712 0.283211
O O2 0.507443 0.898037 0.615254
O O3 0.811198 0.029624 0.488212
O O4 0.700562 0.083477 0.364285
O O5 0.427638 0.606244 0.847178
O O6 0.341649 0.620334 0.203704
O O7 0.264338 0.727868 0.099888
O O8 0.562222 0.905580 0.086711
O O9 0.347354 0.437511 0.316167
O O10 0.500000 0.500000 0.000000
O O11 0.905079 0.175457 0.794741
O O12 0.704848 0.830349 0.671203
O O13 0.000000 0.000000 0.500000
O O14 0.227539 0.755931 0.847684
O O15 0.000000 0.500000 0.000000
O O16 0.500000 0.500000 0.500000
#
# Coordination Sequence:
#
# PCOD8006293 Si02
#       7
#     2   2   2   2   2   2   2
#     4  10  20  39  67  94 120 157 215 262 312 369
#     4  10  20  40  66  89 122 157 216 263 306 373
#     4   9  20  34  61  96 120 150 201 260 314 363
#     4  12  26  42  59  94 135 171 206 255 322 384
#     4  12  26  42  62  94 131 171 211 259 325 375
#     4  11  21  37  65  92 123 162 210 257 310 373
#     4  10  20  40  70  92 116 158 216 272 307 363
#
# _framework density 19.875917999999999
#
# number of rings (size 3 to 8) (size 9 to 14) (size 15 to 20)
#    0.000    1.429    4.286    1.286    2.000    0.000 
#    2.571    1.429    0.000    0.000    0.000    0.000 
#    0.000    0.000    0.000    0.000    0.000    0.000 
#
# Total GULP energy -173538.979400 kJ/mol
# GULP energy per Si atom -12395.641386 kJ/mol
# Density = 1.983068 g / cm^3
# Si number density = 19.875918 Si / 1000 Ang^3
#
#
#
# Elastic Constant Matrix: (Units=GPa)
#
#
# Indices 1 2 3 4 5 6 
#
# 1 132.3576 44.4320 52.3556 -16.7424 10.0139 -10.6785
# 2 44.4320 111.7593 52.6803 4.5095 9.4015 -15.7368
# 3 52.3556 52.6803 122.5119 11.3822 2.8858 -2.9470
# 4 -16.7424 4.5095 11.3822 32.4595 -9.7914 3.5255
# 5 10.0139 9.4015 2.8858 -9.7914 32.7196 -3.1211
# 6 -10.6785 -15.7368 -2.9470 3.5255 -3.1211 27.0045
#
#
#
# Elastic Compliance Matrix: (Units=1/GPa)
#
#
# Indices 1 2 3 4 5 6 
#
# 1 0.011185 -0.002477 -0.004377 0.007502 0.000065 0.001530
# 2 -0.002477 0.013118 -0.004055 -0.003277 -0.003034 0.006300
# 3 -0.004377 -0.004055 0.012294 -0.005951 -0.000555 -0.002040
# 4 0.007502 -0.003277 -0.005951 0.040958 0.011078 -0.003659
# 5 0.000065 -0.003034 -0.000555 0.011078 0.034853 0.000779
# 6 0.001530 0.006300 -0.002040 -0.003659 0.000779 0.041653
#
#
# Mechanical properties :
#
#
# Convention : Reuss Voigt Hill
#
# Bulk Modulus (GPa) = 67.65739 73.95162 70.80451
# Shear Modulus (GPa) = 27.65415 32.91413 30.28414
#
# Velocity S-wave (km/s) = 3.73411 4.07379 3.90764
# Velocity P-wave (km/s) = 7.25984 7.70812 7.48733
#
# Compressibility (1/GPa) = 0.01478035
#
# Stress axis : x y z
#
# Youngs Moduli (GPa) = 89.40207 76.22889 81.34359
#
# Poissons Ratio (x) = 0.18878 0.35603
# Poissons Ratio (y) = 0.22140 0.32986
# Poissons Ratio (z) = 0.39130 0.30912
#
# Static dielectric constant tensor:
#      x y z
#    x 3.920740 -0.253620 0.220140 
#    y -0.253620 2.716800 0.303770 
#    z 0.220140 0.303770 3.742170 
# 
# 
# High freq. dielectric constant tensor:
#      x y z
#    x 1.772470 -0.040810 0.017550 
#    y -0.040810 1.754580 0.020750 
#    z 0.017550 0.020750 1.788970 
# 
# From -- ./inp_files/205280.got.cif
#   From: 2010.06.25/outbox.cif.g09.slc.cpg/sg2_103_cif.got.tgz:205280.got - 2010.06.27 13:26:56.
