data_PCOD8006824
_publ_section_title
;
Structure prediction by ZEFSAII (Michael W. Deem and Ramdas Pophale) SiO2 
 PCOD8006824
Probable space group: P -1
;
_chemical_formula_sum "Si O2"
_cell_formula_units_Z 16
_cell_length_a 29.411894
_cell_length_b 16.172619
_cell_length_c 9.365029
_cell_angle_alpha 139.201526
_cell_angle_beta 147.774728
_cell_angle_gamma 19.542797
_cell_volume 774.154807
_symmetry_space_group_name_H-M "P -1"
_symmetry_group_IT_number 2
_symmetry_cell_setting 'triclinic'
loop_
_space_group_symop_operation_xyz
x,y,z
-x,-y,-z
loop_
_atom_site_type_symbol
_atom_site_label
_atom_site_fract_x
_atom_site_fract_y
_atom_site_fract_z
Si Si1 0.576222 0.188350 0.553350
Si Si2 0.406652 0.575024 0.208495
Si Si3 0.541862 0.151253 0.092633
Si Si4 0.822216 0.455574 0.291295
Si Si5 0.910154 0.625146 0.776316
Si Si6 0.959854 0.060064 0.304464
Si Si7 0.204723 0.590521 0.149704
Si Si8 0.875707 0.580191 0.175481
O O1 0.568403 0.352762 0.755731
O O2 0.605213 0.116925 0.370932
O O3 0.407919 0.347049 0.384997
O O4 0.733836 0.928688 0.720808
O O5 0.500000 0.500000 0.500000
O O6 0.495224 0.325384 0.085893
O O7 0.204953 0.812253 0.007460
O O8 0.690518 0.881315 0.061142
O O9 0.375910 0.277402 0.840287
O O10 0.884661 0.516602 0.504656
O O11 0.928224 0.248253 0.426345
O O12 0.843495 0.340760 0.056264
O O13 0.038730 0.538654 0.906711
O O14 0.000000 0.500000 0.000000
O O15 0.116421 0.811753 0.298837
O O16 0.000000 0.000000 0.500000
O O17 0.146530 0.531107 0.973689
O O18 0.000000 0.500000 0.500000
#
# Coordination Sequence:
#
# PCOD8006824 Si02
#       8
#     2   2   2   2   2   2   2   2
#     4  10  20  40  64  94 129 166 214 265 318 379
#     4   9  20  38  67  93 127 172 214 263 316 386
#     4   9  19  38  65  96 123 162 217 268 308 374
#     4  10  22  42  64  94 130 170 219 262 318 393
#     4  12  26  40  61  96 136 170 209 269 327 381
#     4  11  25  42  66  98 135 171 213 276 334 382
#     4  11  23  41  69  94 123 174 221 268 320 389
#     4  12  22  39  66  96 124 168 219 266 314 387
#
# _framework density 20.667701999999998
#
# number of rings (size 3 to 8) (size 9 to 14) (size 15 to 20)
#    0.000    1.500    2.500    2.625    5.250    3.000 
#    4.500    1.875    0.000    0.000    0.000    0.000 
#    0.000    0.000    0.000    0.000    0.000    0.000 
#
# Total GULP energy -198380.488301 kJ/mol
# GULP energy per Si atom -12398.780519 kJ/mol
# Density = 2.062066 g / cm^3
# Si number density = 20.667702 Si / 1000 Ang^3
#
#
#
# Elastic Constant Matrix: (Units=GPa)
#
#
# Indices 1 2 3 4 5 6 
#
# 1 115.5203 42.4940 41.7347 -18.2303 9.8402 9.2779
# 2 42.4940 105.8341 37.8921 -26.9193 -3.1350 1.8161
# 3 41.7347 37.8921 68.9060 -19.8584 0.3568 -2.0149
# 4 -18.2303 -26.9193 -19.8584 28.1646 7.4788 2.2743
# 5 9.8402 -3.1350 0.3568 7.4788 38.7017 1.9788
# 6 9.2779 1.8161 -2.0149 2.2743 1.9788 40.0589
#
#
#
# Elastic Compliance Matrix: (Units=1/GPa)
#
#
# Indices 1 2 3 4 5 6 
#
# 1 0.012578 -0.002304 -0.005454 0.003359 -0.003826 -0.003085
# 2 -0.002304 0.014109 -0.003651 0.009495 -0.000030 -0.000827
# 3 -0.005454 -0.003651 0.022452 0.008891 -0.000942 0.002100
# 4 0.003359 0.009495 0.008891 0.056181 -0.010849 -0.003415
# 5 -0.003826 -0.000030 -0.000942 -0.010849 0.028913 0.000028
# 6 -0.003085 -0.000827 0.002100 -0.003415 0.000028 0.026013
#
#
# Mechanical properties :
#
#
# Convention : Reuss Voigt Hill
#
# Bulk Modulus (GPa) = 37.99039 59.38912 48.68975
# Shear Modulus (GPa) = 26.06379 32.59435 29.32907
#
# Velocity S-wave (km/s) = 3.55503 3.97554 3.77115
# Velocity P-wave (km/s) = 5.93906 7.06193 6.52469
#
# Compressibility (1/GPa) = 0.02632245
#
# Stress axis : x y z
#
# Youngs Moduli (GPa) = 79.50453 70.87532 44.53897
#
# Poissons Ratio (x) = 0.16327 0.24290
# Poissons Ratio (y) = 0.18314 0.16263
# Poissons Ratio (z) = 0.43359 0.25879
#
# Static dielectric constant tensor:
#      x y z
#    x 3.681960 0.389760 0.200360 
#    y 0.389760 3.839470 -0.066990 
#    z 0.200360 -0.066990 3.670380 
# 
# 
# High freq. dielectric constant tensor:
#      x y z
#    x 1.810850 0.018510 0.020560 
#    y 0.018510 1.810270 -0.016960 
#    z 0.020560 -0.016960 1.795040 
# 
# From -- ./inp_files/226653.got.cif
#   From: 2010.06.25/outbox.cif.g09.slc.cpg/sg2_114_cif.got.tgz:226653.got - 2010.06.27 13:26:56.
