data_PCOD8006486
_publ_section_title
;
Structure prediction by ZEFSAII (Michael W. Deem and Ramdas Pophale) SiO2 
 PCOD8006486
Probable space group: P -1
;
_chemical_formula_sum "Si O2"
_cell_formula_units_Z 14
_cell_length_a 7.169749
_cell_length_b 17.060061
_cell_length_c 9.301723
_cell_angle_alpha 108.364501
_cell_angle_beta 144.682332
_cell_angle_gamma 70.998853
_cell_volume 619.361781
_symmetry_space_group_name_H-M "P -1"
_symmetry_group_IT_number 2
_symmetry_cell_setting 'triclinic'
loop_
_space_group_symop_operation_xyz
x,y,z
-x,-y,-z
loop_
_atom_site_type_symbol
_atom_site_label
_atom_site_fract_x
_atom_site_fract_y
_atom_site_fract_z
Si Si1 0.184713 0.374224 0.688607
Si Si2 0.135903 0.483627 0.236407
Si Si3 0.115723 0.931401 0.711992
Si Si4 0.834853 0.790892 0.292821
Si Si5 0.890871 0.165434 0.070285
Si Si6 0.950311 0.343816 0.212549
Si Si7 0.869327 0.889857 0.115132
O O1 0.001469 0.297973 0.596197
O O2 0.088011 0.458342 0.762408
O O3 0.050740 0.385539 0.448673
O O4 0.570929 0.357388 0.939674
O O5 0.500000 0.500000 0.500000
O O6 0.121762 0.387587 0.215485
O O7 0.000000 0.500000 0.000000
O O8 0.040373 0.909122 0.816756
O O9 0.898840 0.875919 0.456225
O O10 0.998790 0.030236 0.678767
O O11 0.481662 0.911143 0.871052
O O12 0.938962 0.804222 0.200761
O O13 0.459044 0.788300 0.082691
O O14 0.096098 0.244976 0.254802
O O15 0.943258 0.124295 0.924171
#
# Coordination Sequence:
#
# PCOD8006486 Si02
#       7
#     2   2   2   2   2   2   2
#     4  11  23  44  68  90 131 174 209 262 320 385
#     4  12  26  42  67 103 131 161 215 265 317 387
#     4  10  20  40  57  89 123 164 211 263 325 378
#     4  10  22  38  60  88 124 164 214 258 322 379
#     4  10  22  38  60  90 122 164 217 260 316 384
#     4  11  23  44  67  91 129 174 213 255 328 384
#     4  10  22  36  61  87 125 164 209 271 317 376
#
# _framework density 22.603912999999999
#
# number of rings (size 3 to 8) (size 9 to 14) (size 15 to 20)
#    0.000    1.429    1.429    3.429    2.000    2.857 
#    0.000    0.000    0.000    0.000    0.000    0.000 
#    0.000    0.000    0.000    0.000    0.000    0.000 
#
# Total GULP energy -173438.378035 kJ/mol
# GULP energy per Si atom -12388.455574 kJ/mol
# Density = 2.255247 g / cm^3
# Si number density = 22.603913 Si / 1000 Ang^3
#
#
#
# Elastic Constant Matrix: (Units=GPa)
#
#
# Indices 1 2 3 4 5 6 
#
# 1 66.2175 4.1689 1.1262 -5.4777 -8.3413 22.8396
# 2 4.1689 76.5295 5.0541 8.8404 13.0034 23.2626
# 3 1.1262 5.0541 88.7174 6.6145 -14.0094 19.9708
# 4 -5.4777 8.8404 6.6145 30.9526 5.2924 -8.7671
# 5 -8.3413 13.0034 -14.0094 5.2924 25.6332 12.1872
# 6 22.8396 23.2626 19.9708 -8.7671 12.1872 33.1968
#
#
#
# Elastic Compliance Matrix: (Units=1/GPa)
#
#
# Indices 1 2 3 4 5 6 
#
# 1 -0.084018 -0.047084 -0.095634 0.126545 -0.203842 0.256586
# 2 -0.047084 -0.004852 -0.045133 0.052783 -0.102949 0.114680
# 3 -0.095634 -0.045133 -0.079594 0.115856 -0.192959 0.246743
# 4 0.126545 0.052783 0.115856 -0.118568 0.253446 -0.318108
# 5 -0.203842 -0.102949 -0.192959 0.253446 -0.388726 0.538112
# 6 0.256586 0.114680 0.246743 -0.318108 0.538112 -0.656771
#
#
# Mechanical properties :
#
#
# Convention : Reuss Voigt Hill
#
# Bulk Modulus (GPa) = -1.83768 28.01807 13.09020
# Shear Modulus (GPa) = -4.39284 32.69753 14.15235
#
# Velocity S-wave (km/s) = -1.39557 3.80747 2.50492
# Velocity P-wave (km/s) = 1.84705 5.63482 3.76428
#
# Compressibility (1/GPa) = -0.54416518
#
# Stress axis : x y z
#
# Youngs Moduli (GPa) = -11.90225 -206.11666 -12.56369
#
# Poissons Ratio (x) = -9.70481 -1.20151
# Poissons Ratio (y) = -0.56041 -0.56704
# Poissons Ratio (z) = -1.13825 -9.30268
#
# Static dielectric constant tensor:
#      x y z
#    x 4.125650 0.592630 -0.140300 
#    y 0.592630 4.986330 0.049190 
#    z -0.140300 0.049190 3.950660 
# 
# 
# High freq. dielectric constant tensor:
#      x y z
#    x 1.887530 0.028110 -0.009560 
#    y 0.028110 1.912420 0.014830 
#    z -0.009560 0.014830 1.879170 
# 
# From -- ./inp_files/7394.got.cif
#   From: 2010.06.25/outbox.cif.g09.slc.cpg/sg2_4_cif.got.tgz:7394.got - 2010.06.27 13:26:56.
