data_PCOD8006434
_publ_section_title
;
Structure prediction by ZEFSAII (Michael W. Deem and Ramdas Pophale) SiO2 
 PCOD8006434
Probable space group: P -1
;
_chemical_formula_sum "Si O2"
_cell_formula_units_Z 14
_cell_length_a 10.850324
_cell_length_b 8.535750
_cell_length_c 11.214712
_cell_angle_alpha 126.775121
_cell_angle_beta 101.782563
_cell_angle_gamma 48.998164
_cell_volume 596.532910
_symmetry_space_group_name_H-M "P -1"
_symmetry_group_IT_number 2
_symmetry_cell_setting 'triclinic'
loop_
_space_group_symop_operation_xyz
x,y,z
-x,-y,-z
loop_
_atom_site_type_symbol
_atom_site_label
_atom_site_fract_x
_atom_site_fract_y
_atom_site_fract_z
Si Si1 0.805040 0.248295 0.137735
Si Si2 0.721452 0.406860 0.916866
Si Si3 0.446475 0.753506 0.333976
Si Si4 0.977999 0.687654 0.177751
Si Si5 0.607618 0.190233 0.388744
Si Si6 0.559922 0.018070 0.786126
Si Si7 0.920402 0.749152 0.837450
O O1 0.629294 0.461002 0.271406
O O2 0.943086 0.264587 0.219429
O O3 0.784725 0.305346 0.017170
O O4 0.866935 0.956049 0.030274
O O5 0.659035 0.271799 0.787684
O O6 0.868807 0.321815 0.816348
O O7 0.562324 0.725909 0.034916
O O8 0.353035 0.898886 0.504965
O O9 0.477021 0.912374 0.331158
O O10 0.994038 0.544362 0.237312
O O11 0.796776 0.995343 0.277686
O O12 0.000000 0.500000 0.000000
O O13 0.500000 0.500000 0.500000
O O14 0.490377 0.154038 0.281782
O O15 0.757107 0.856851 0.777764
#
# Coordination Sequence:
#
# PCOD8006434 Si02
#       7
#     2   2   2   2   2   2   2
#     4  10  20  39  70 107 131 172 228 284 329 401
#     4  11  21  42  74 100 138 178 232 276 335 409
#     4  11  23  45  69 100 140 177 224 287 343 397
#     4  12  25  45  69  98 140 181 228 279 336 407
#     4  12  30  48  67  97 142 187 225 280 352 402
#     4  11  22  45  71 104 133 186 228 277 338 414
#     4  11  22  37  72 106 131 171 236 273 335 395
#
# _framework density 23.46895
#
# number of rings (size 3 to 8) (size 9 to 14) (size 15 to 20)
#    0.000    0.857    5.714    2.143    4.000    1.143 
#    0.000    1.429    0.000    0.000    0.000    0.000 
#    0.000    0.000    0.000    0.000    0.000    0.000 
#
# Total GULP energy -173513.987353 kJ/mol
# GULP energy per Si atom -12393.856240 kJ/mol
# Density = 2.341553 g / cm^3
# Si number density = 23.468950 Si / 1000 Ang^3
#
#
#
# Elastic Constant Matrix: (Units=GPa)
#
#
# Indices 1 2 3 4 5 6 
#
# 1 118.2860 30.2370 23.4539 8.4461 -4.4607 -18.9012
# 2 30.2370 66.7679 26.3250 29.1865 0.0069 -13.8718
# 3 23.4539 26.3250 67.4657 7.1547 -11.7070 -7.2313
# 4 8.4461 29.1865 7.1547 36.4905 -2.2759 2.4407
# 5 -4.4607 0.0069 -11.7070 -2.2759 38.5493 4.9599
# 6 -18.9012 -13.8718 -7.2313 2.4407 4.9599 40.0371
#
#
#
# Elastic Compliance Matrix: (Units=1/GPa)
#
#
# Indices 1 2 3 4 5 6 
#
# 1 0.010190 -0.003465 -0.001867 0.000579 0.000234 0.003209
# 2 -0.003465 0.033276 -0.009025 -0.025122 -0.005987 0.010537
# 3 -0.001867 -0.009025 0.019437 0.004325 0.006139 -0.001522
# 4 0.000579 -0.025122 0.004325 0.047621 0.005644 -0.011252
# 5 0.000234 -0.005987 0.006139 0.005644 0.028780 -0.004764
# 6 0.003209 0.010537 -0.001522 -0.011252 -0.004764 0.031143
#
#
# Mechanical properties :
#
#
# Convention : Reuss Voigt Hill
#
# Bulk Modulus (GPa) = 29.24974 45.83904 37.54439
# Shear Modulus (GPa) = 23.74640 34.51562 29.13101
#
# Velocity S-wave (km/s) = 3.18437 3.83912 3.52697
# Velocity P-wave (km/s) = 5.10005 6.26307 5.71124
#
# Compressibility (1/GPa) = 0.03418834
#
# Stress axis : x y z
#
# Youngs Moduli (GPa) = 98.13230 30.05143 51.44926
#
# Poissons Ratio (x) = 0.10413 0.09608
# Poissons Ratio (y) = 0.34004 0.46433
# Poissons Ratio (z) = 0.18325 0.27121
#
# Static dielectric constant tensor:
#      x y z
#    x 1.545760 -2.720880 0.010160 
#    y -2.720880 1.767890 0.309360 
#    z 0.010160 0.309360 3.991920 
# 
# 
# High freq. dielectric constant tensor:
#      x y z
#    x 1.947020 -0.002450 0.000180 
#    y -0.002450 1.927430 0.017050 
#    z 0.000180 0.017050 1.900330 
# 
# From -- ./inp_files/185296.got.cif
#   From: 2010.06.25/outbox.cif.g09.slc.cpg/sg2_93_cif.got.tgz:185296.got - 2010.06.27 13:26:56.
