data_PCOD8006862
_publ_section_title
;
Structure prediction by ZEFSAII (Michael W. Deem and Ramdas Pophale) SiO2 
 PCOD8006862
Probable space group: P -1
;
_chemical_formula_sum "Si O2"
_cell_formula_units_Z 12
_cell_length_a 7.666019
_cell_length_b 12.274331
_cell_length_c 22.337143
_cell_angle_alpha 155.495073
_cell_angle_beta 43.028287
_cell_angle_gamma 131.696836
_cell_volume 594.863591
_symmetry_space_group_name_H-M "P -1"
_symmetry_group_IT_number 2
_symmetry_cell_setting 'triclinic'
loop_
_space_group_symop_operation_xyz
x,y,z
-x,-y,-z
loop_
_atom_site_type_symbol
_atom_site_label
_atom_site_fract_x
_atom_site_fract_y
_atom_site_fract_z
Si Si1 0.939668 0.000003 0.210860
Si Si2 0.202005 0.557848 0.849398
Si Si3 0.189139 0.999968 0.627194
Si Si4 0.000028 0.436460 0.718228
Si Si5 0.797989 0.557876 0.708488
Si Si6 0.602259 0.999969 0.614910
O O1 0.631026 0.999982 0.278781
O O2 0.997523 0.000065 0.267809
O O3 0.056112 0.261290 0.284520
O O4 0.056094 0.738667 0.023236
O O5 0.100643 0.618671 0.838251
O O6 0.499998 0.623625 0.811830
O O7 0.136607 0.255448 0.728490
O O8 0.136620 0.744520 0.473006
O O9 0.514677 0.000038 0.423845
O O10 0.899373 0.618691 0.780449
O O11 0.768022 0.259571 0.712526
O O12 0.232087 0.259691 0.547077
#
# Coordination Sequence:
#
# PCOD8006862 Si02
#       6
#     2   2   2   2   2   2
#     4  10  24  39  62  91 128 155 194 251 314 350
#     4  12  22  41  64  90 122 160 200 248 298 361
#     4  10  20  40  65  86 114 160 210 238 289 353
#     4  11  22  37  66  88 118 160 208 244 290 360
#     4  12  22  41  64  90 122 160 200 248 298 361
#     4   9  20  40  59  94 112 158 210 238 295 351
#
# _framework density 20.172691
#
# number of rings (size 3 to 8) (size 9 to 14) (size 15 to 20)
#    1.000    0.333    3.333    4.000    0.000    2.000 
#    0.000    3.333    0.000    0.000    0.000    0.000 
#    0.000    0.000    0.000    0.000    0.000    0.000 
#
# Total GULP energy -148795.808157 kJ/mol
# GULP energy per Si atom -12399.650680 kJ/mol
# Density = 2.012678 g / cm^3
# Si number density = 20.172691 Si / 1000 Ang^3
#
#
#
# Elastic Constant Matrix: (Units=GPa)
#
#
# Indices 1 2 3 4 5 6 
#
# 1 122.8830 28.3790 25.1566 -13.8800 6.2333 -11.1241
# 2 28.3790 104.7512 40.9379 -13.4502 -11.7410 6.6584
# 3 25.1566 40.9379 99.6043 -13.3873 -4.1182 13.2643
# 4 -13.8800 -13.4502 -13.3873 32.6988 1.7448 -1.5921
# 5 6.2333 -11.7410 -4.1182 1.7448 17.9592 -16.6416
# 6 -11.1241 6.6584 13.2643 -1.5921 -16.6416 22.6363
#
#
#
# Elastic Compliance Matrix: (Units=1/GPa)
#
#
# Indices 1 2 3 4 5 6 
#
# 1 0.010077 -0.001488 -0.002742 0.002822 0.004059 0.010179
# 2 -0.001488 0.014237 -0.006312 0.002193 0.022511 0.015483
# 3 -0.002742 -0.006312 0.016299 0.002918 -0.024811 -0.027077
# 4 0.002822 0.002193 0.002918 0.033993 -0.002701 -0.000563
# 5 0.004059 0.022511 -0.024811 -0.002701 0.227666 0.177096
# 6 0.010179 0.015483 -0.027077 -0.000563 0.177096 0.190647
#
#
# Mechanical properties :
#
#
# Convention : Reuss Voigt Hill
#
# Bulk Modulus (GPa) = 51.20747 57.35396 54.28072
# Shear Modulus (GPa) = 9.60591 30.17653 19.89122
#
# Velocity S-wave (km/s) = 2.18453 3.87190 3.14354
# Velocity P-wave (km/s) = 5.63938 6.96290 6.33579
#
# Compressibility (1/GPa) = 0.01952840
#
# Stress axis : x y z
#
# Youngs Moduli (GPa) = 99.23433 70.23950 61.35462
#
# Poissons Ratio (x) = 0.10454 0.16823
# Poissons Ratio (y) = 0.14769 0.38727
# Poissons Ratio (z) = 0.27209 0.44335
#
# Static dielectric constant tensor:
#      x y z
#    x 3.685600 0.011610 -0.022900 
#    y 0.011610 3.499290 -0.143770 
#    z -0.022900 -0.143770 3.468710 
# 
# 
# High freq. dielectric constant tensor:
#      x y z
#    x 1.785770 -0.001060 0.000370 
#    y -0.001060 1.782300 -0.010860 
#    z 0.000370 -0.010860 1.779840 
# 
# From -- ./inp_files/589162.got.cif
#   From: 2010.06.25/outbox.cif.g09.slc.cpg/sg2_295_cif.got.tgz:589162.got - 2010.06.27 13:26:56.
