data_PCOD8006526
_publ_section_title
;
Structure prediction by ZEFSAII (Michael W. Deem and Ramdas Pophale) SiO2 
 PCOD8006526
Probable space group: P -1
;
_chemical_formula_sum "Si O2"
_cell_formula_units_Z 16
_cell_length_a 12.604874
_cell_length_b 12.444804
_cell_length_c 9.303224
_cell_angle_alpha 92.491928
_cell_angle_beta 144.764336
_cell_angle_gamma 89.398608
_cell_volume 840.370921
_symmetry_space_group_name_H-M "P -1"
_symmetry_group_IT_number 2
_symmetry_cell_setting 'triclinic'
loop_
_space_group_symop_operation_xyz
x,y,z
-x,-y,-z
loop_
_atom_site_type_symbol
_atom_site_label
_atom_site_fract_x
_atom_site_fract_y
_atom_site_fract_z
Si Si1 0.192762 0.213652 0.581787
Si Si2 0.746387 0.229949 0.794666
Si Si3 0.522532 0.602775 0.436407
Si Si4 0.787144 0.214020 0.159595
Si Si5 0.827163 0.778587 0.772598
Si Si6 0.681637 0.984191 0.115871
Si Si7 0.427325 0.090232 0.324603
Si Si8 0.495507 0.385999 0.909086
O O1 0.224101 0.190116 0.445912
O O2 0.203756 0.103712 0.678003
O O3 0.335583 0.308086 0.796432
O O4 0.994961 0.262028 0.390783
O O5 0.674573 0.347675 0.748883
O O6 0.602204 0.175683 0.518383
O O7 0.728873 0.176010 0.931011
O O8 0.954588 0.234673 0.964746
O O9 0.500000 0.500000 0.500000
O O10 0.706729 0.673559 0.685908
O O11 0.545303 0.576110 0.293776
O O12 0.781958 0.102611 0.236547
O O13 0.672622 0.310619 0.105890
O O14 0.760553 0.872341 0.807269
O O15 0.630564 0.943780 0.899218
O O16 0.500000 0.000000 0.000000
O O17 0.500000 0.000000 0.500000
O O18 0.500000 0.500000 0.000000
#
# Coordination Sequence:
#
# PCOD8006526 Si02
#       8
#     2   2   2   2   2   2   2   2
#     4  10  21  39  61  86 117 153 192 235 289 342
#     4   9  19  38  60  83 113 150 188 233 282 335
#     4   9  19  36  59  81 112 147 187 235 285 336
#     4  10  20  40  60  84 117 155 192 233 288 343
#     4   9  20  39  59  83 113 149 190 232 282 337
#     4  12  22  38  60  85 123 158 186 232 285 344
#     4  11  21  36  56  83 116 148 189 227 273 334
#     4  10  21  38  60  82 113 153 193 238 288 336
#
# _framework density 19.039211999999999
#
# number of rings (size 3 to 8) (size 9 to 14) (size 15 to 20)
#    0.000    2.000    2.500    1.875    0.000    3.500 
#    4.500    0.000    0.000    0.000    0.000    0.000 
#    0.000    0.000    0.000    0.000    0.000    0.000 
#
# Total GULP energy -198214.818024 kJ/mol
# GULP energy per Si atom -12388.426126 kJ/mol
# Density = 1.899588 g / cm^3
# Si number density = 19.039212 Si / 1000 Ang^3
#
#
#
# Elastic Constant Matrix: (Units=GPa)
#
#
# Indices 1 2 3 4 5 6 
#
# 1 117.8791 59.6189 48.9808 1.5185 23.2536 -10.0391
# 2 59.6189 113.2833 30.2245 -7.5540 3.2476 3.6061
# 3 48.9808 30.2245 69.3872 -5.0129 22.0704 -7.8046
# 4 1.5185 -7.5540 -5.0129 22.2089 2.1465 -11.5842
# 5 23.2536 3.2476 22.0704 2.1465 38.4444 -4.2177
# 6 -10.0391 3.6061 -7.8046 -11.5842 -4.2177 36.1359
#
#
#
# Elastic Compliance Matrix: (Units=1/GPa)
#
#
# Indices 1 2 3 4 5 6 
#
# 1 0.015813 -0.006665 -0.006792 -0.003410 -0.004698 0.001950
# 2 -0.006665 0.013092 -0.002265 0.002832 0.003816 -0.002294
# 3 -0.006792 -0.002265 0.024530 0.008976 -0.009693 0.005383
# 4 -0.003410 0.002832 0.008976 0.058575 -0.004520 0.018958
# 5 -0.004698 0.003816 -0.009693 -0.004520 0.034213 -0.001235
# 6 0.001950 -0.002294 0.005383 0.018958 -0.001235 0.035540
#
#
# Mechanical properties :
#
#
# Convention : Reuss Voigt Hill
#
# Bulk Modulus (GPa) = 45.47290 64.24423 54.85857
# Shear Modulus (GPa) = 22.67191 30.13953 26.40572
#
# Velocity S-wave (km/s) = 3.45454 3.98304 3.72817
# Velocity P-wave (km/s) = 6.31249 7.41412 6.88537
#
# Compressibility (1/GPa) = 0.02199112
#
# Stress axis : x y z
#
# Youngs Moduli (GPa) = 63.23891 76.38379 40.76573
#
# Poissons Ratio (x) = 0.50908 0.27689
# Poissons Ratio (y) = 0.42147 0.09234
# Poissons Ratio (z) = 0.42953 0.17302
#
# Static dielectric constant tensor:
#      x y z
#    x 3.663930 -0.073180 -0.116400 
#    y -0.073180 3.290610 0.190200 
#    z -0.116400 0.190200 4.282400 
# 
# 
# High freq. dielectric constant tensor:
#      x y z
#    x 1.746300 0.000570 0.013790 
#    y 0.000570 1.735710 -0.006120 
#    z 0.013790 -0.006120 1.732770 
# 
# From -- ./inp_files/258701.got.cif
#   From: 2010.06.25/outbox.cif.g09.slc.cpg/sg2_130_cif.got.tgz:258701.got - 2010.06.27 13:26:56.
