data_PCOD8006547
_publ_section_title
;
Structure prediction by ZEFSAII (Michael W. Deem and Ramdas Pophale) SiO2 
 PCOD8006547
Probable space group: P -1
;
_chemical_formula_sum "Si O2"
_cell_formula_units_Z 16
_cell_length_a 9.525746
_cell_length_b 19.230586
_cell_length_c 8.067178
_cell_angle_alpha 133.371232
_cell_angle_beta 65.331150
_cell_angle_gamma 134.217722
_cell_volume 764.509333
_symmetry_space_group_name_H-M "P -1"
_symmetry_group_IT_number 2
_symmetry_cell_setting 'triclinic'
loop_
_space_group_symop_operation_xyz
x,y,z
-x,-y,-z
loop_
_atom_site_type_symbol
_atom_site_label
_atom_site_fract_x
_atom_site_fract_y
_atom_site_fract_z
Si Si1 0.668250 0.877676 0.563630
Si Si2 0.679709 0.470772 0.073518
Si Si3 0.714441 0.361031 0.546421
Si Si4 0.866447 0.457208 0.287235
Si Si5 0.980854 0.693591 0.108937
Si Si6 0.942469 0.961135 0.147915
Si Si7 0.696551 0.032464 0.529771
Si Si8 0.253831 0.269790 0.955590
O O1 0.460539 0.785060 0.612580
O O2 0.694867 0.800260 0.299434
O O3 0.656779 0.976445 0.642097
O O4 0.861350 0.948851 0.695645
O O5 0.773822 0.448903 0.143356
O O6 0.812185 0.615424 0.207646
O O7 0.672425 0.416029 0.809054
O O8 0.453495 0.404038 0.127161
O O9 0.719476 0.412893 0.445170
O O10 0.934855 0.403849 0.545090
O O11 0.926244 0.369477 0.100452
O O12 0.890828 0.710181 0.021245
O O13 0.148041 0.822615 0.316634
O O14 0.854945 0.819882 0.979900
O O15 0.774470 0.973752 0.289627
O O16 0.000000 0.000000 0.000000
O O17 0.500000 0.000000 0.500000
#
# Coordination Sequence:
#
# PCOD8006547 Si02
#       8
#     2   2   2   2   2   2   2   2
#     4  10  20  41  65  80 119 166 197 247 313 366
#     4  10  22  37  66  85 117 164 205 245 309 367
#     4   9  20  38  60  87 120 158 200 246 309 359
#     4  10  22  38  61  90 122 158 201 256 304 369
#     4  11  20  38  60  87 118 152 205 248 301 364
#     4  11  23  42  62  89 125 165 203 253 311 373
#     4  11  24  39  63  93 119 158 209 257 304 373
#     4  10  20  40  61  84 116 160 203 241 300 371
#
# _framework density 20.928455
#
# number of rings (size 3 to 8) (size 9 to 14) (size 15 to 20)
#    0.000    1.750    2.500    2.625    8.750    0.000 
#    2.250    2.500    0.000    9.000    0.000    0.000 
#    0.000    0.000    0.000    0.000    0.000    0.000 
#
# Total GULP energy -198235.780813 kJ/mol
# GULP energy per Si atom -12389.736301 kJ/mol
# Density = 2.088082 g / cm^3
# Si number density = 20.928455 Si / 1000 Ang^3
#
#
#
# Elastic Constant Matrix: (Units=GPa)
#
#
# Indices 1 2 3 4 5 6 
#
# 1 150.0990 64.1475 28.6432 7.8290 5.7085 -11.1051
# 2 64.1475 187.2121 35.4029 9.8444 11.3118 -2.0271
# 3 28.6432 35.4029 30.5117 3.0487 1.9634 -10.0369
# 4 7.8290 9.8444 3.0487 34.8434 -0.9232 11.5309
# 5 5.7085 11.3118 1.9634 -0.9232 11.5584 3.0988
# 6 -11.1051 -2.0271 -10.0369 11.5309 3.0988 35.6081
#
#
#
# Elastic Compliance Matrix: (Units=1/GPa)
#
#
# Indices 1 2 3 4 5 6 
#
# 1 0.008725 -0.001752 -0.005207 -0.001705 -0.002358 0.001911
# 2 -0.001752 0.007657 -0.007327 -0.000770 -0.005046 -0.001487
# 3 -0.005207 -0.007327 0.051958 -0.006358 -0.003607 0.014977
# 4 -0.001705 -0.000770 -0.006358 0.034897 0.009345 -0.014481
# 5 -0.002358 -0.005046 -0.003607 0.009345 0.097615 -0.013561
# 6 0.001911 -0.001487 0.014977 -0.014481 -0.013561 0.038686
#
#
# Mechanical properties :
#
#
# Convention : Reuss Voigt Hill
#
# Bulk Modulus (GPa) = 25.14605 69.35666 47.25136
# Shear Modulus (GPa) = 17.77055 32.37727 25.07391
#
# Velocity S-wave (km/s) = 2.91711 3.93752 3.46508
# Velocity P-wave (km/s) = 4.83605 7.34056 6.21576
#
# Compressibility (1/GPa) = 0.03976767
#
# Stress axis : x y z
#
# Youngs Moduli (GPa) = 114.61851 130.60443 19.24632
#
# Poissons Ratio (x) = 0.22882 0.10021
# Poissons Ratio (y) = 0.20081 0.14102
# Poissons Ratio (z) = 0.59680 0.95694
#
# Static dielectric constant tensor:
#      x y z
#    x 3.748230 0.233700 0.205310 
#    y 0.233700 5.420230 0.227220 
#    z 0.205310 0.227220 3.546390 
# 
# 
# High freq. dielectric constant tensor:
#      x y z
#    x 1.819410 0.006070 0.019520 
#    y 0.006070 1.849080 0.010950 
#    z 0.019520 0.010950 1.782140 
# 
# From -- ./inp_files/203264.got.cif
#   From: 2010.06.25/outbox.cif.g09.slc.cpg/sg2_102_cif.got.tgz:203264.got - 2010.06.27 13:26:56.
