data_PCOD8006882
_publ_section_title
;
Structure prediction by ZEFSAII (Michael W. Deem and Ramdas Pophale) SiO2 
 PCOD8006882
Probable space group: P -1
;
_chemical_formula_sum "Si O2"
_cell_formula_units_Z 16
_cell_length_a 20.292404
_cell_length_b 8.555788
_cell_length_c 17.867659
_cell_angle_alpha 57.373031
_cell_angle_beta 19.652664
_cell_angle_gamma 47.912401
_cell_volume 719.670242
_symmetry_space_group_name_H-M "P -1"
_symmetry_group_IT_number 2
_symmetry_cell_setting 'triclinic'
loop_
_space_group_symop_operation_xyz
x,y,z
-x,-y,-z
loop_
_atom_site_type_symbol
_atom_site_label
_atom_site_fract_x
_atom_site_fract_y
_atom_site_fract_z
Si Si1 0.480676 0.922177 0.838840
Si Si2 0.702486 0.478865 0.340240
Si Si3 0.480896 0.066569 0.643576
Si Si4 0.970295 0.007736 0.118008
Si Si5 0.008939 0.305446 0.585514
Si Si6 0.804195 0.122188 0.738759
Si Si7 0.535766 0.476588 0.102800
Si Si8 0.491669 0.653293 0.681026
O O1 0.511167 0.691020 0.845555
O O2 0.729313 0.874086 0.614052
O O3 0.388538 0.082249 0.823018
O O4 0.278684 0.027188 0.093711
O O5 0.500000 0.500000 0.500000
O O6 0.714165 0.690243 0.249622
O O7 0.943039 0.229220 0.128944
O O8 0.630973 0.504897 0.497478
O O9 0.741146 0.015217 0.383970
O O10 0.521413 0.858416 0.606149
O O11 0.000000 0.000000 0.000000
O O12 0.206514 0.776245 0.953490
O O13 0.925833 0.188457 0.650862
O O14 0.000000 0.500000 0.500000
O O15 0.810555 0.397436 0.840000
O O16 0.574561 0.315992 0.889039
O O17 0.000000 0.000000 0.500000
O O18 0.416032 0.518724 0.302506
#
# Coordination Sequence:
#
# PCOD8006882 Si02
#       8
#     2   2   2   2   2   2   2   2
#     4  10  20  40  65  89 120 164 210 249 302 376
#     4  10  21  41  63  90 127 159 205 259 307 373
#     4  10  22  40  63  95 123 160 215 254 306 382
#     4  11  22  41  65  90 125 165 205 258 316 363
#     4  11  18  38  68  82 114 170 205 240 310 365
#     4  11  23  40  58  92 131 155 202 264 304 361
#     4  10  21  39  62  91 121 160 208 255 304 371
#     4  11  22  42  64  89 127 166 206 259 314 366
#
# _framework density 22.232406000000001
#
# number of rings (size 3 to 8) (size 9 to 14) (size 15 to 20)
#    0.000    1.500    5.000    1.875    0.000    1.000 
#   11.250    1.250    0.000    0.000    0.000    0.000 
#    0.000    0.000    0.000    0.000    0.000    0.000 
#
# Total GULP energy -198212.956401 kJ/mol
# GULP energy per Si atom -12388.309775 kJ/mol
# Density = 2.218180 g / cm^3
# Si number density = 22.232406 Si / 1000 Ang^3
#
#
#
# Elastic Constant Matrix: (Units=GPa)
#
#
# Indices 1 2 3 4 5 6 
#
# 1 107.7404 21.6427 47.0356 -8.8394 29.8977 -1.5941
# 2 21.6427 39.0015 25.0467 -10.8916 24.1741 6.2843
# 3 47.0356 25.0467 117.3706 -11.9856 28.7938 4.2593
# 4 -8.8394 -10.8916 -11.9856 33.4934 0.9958 3.8266
# 5 29.8977 24.1741 28.7938 0.9958 48.4813 -9.3866
# 6 -1.5941 6.2843 4.2593 3.8266 -9.3866 25.0548
#
#
#
# Elastic Compliance Matrix: (Units=1/GPa)
#
#
# Indices 1 2 3 4 5 6 
#
# 1 0.012587 -0.000432 -0.003229 0.002327 -0.005890 -0.001104
# 2 -0.000432 0.061032 -0.000067 0.024573 -0.037009 -0.032942
# 3 -0.003229 -0.000067 0.011954 0.004177 -0.006161 -0.005167
# 4 0.002327 0.024573 0.004177 0.043010 -0.021161 -0.021222
# 5 -0.005890 -0.037009 -0.006161 -0.021161 0.053220 0.033126
# 6 -0.001104 -0.032942 -0.005167 -0.021222 0.033126 0.064635
#
#
# Mechanical properties :
#
#
# Convention : Reuss Voigt Hill
#
# Bulk Modulus (GPa) = 12.80146 50.17362 31.48754
# Shear Modulus (GPa) = 17.86134 32.76507 25.31320
#
# Velocity S-wave (km/s) = 2.83749 3.84311 3.37793
# Velocity P-wave (km/s) = 4.06272 6.50457 5.42287
#
# Compressibility (1/GPa) = 0.07811607
#
# Stress axis : x y z
#
# Youngs Moduli (GPa) = 79.44466 16.38482 83.65440
#
# Poissons Ratio (x) = 0.00708 0.27014
# Poissons Ratio (y) = 0.03435 0.00561
# Poissons Ratio (z) = 0.25655 0.00110
#
# Static dielectric constant tensor:
#      x y z
#    x 4.224050 -0.032970 0.351320 
#    y -0.032970 3.955580 -0.090150 
#    z 0.351320 -0.090150 3.614710 
# 
# 
# High freq. dielectric constant tensor:
#      x y z
#    x 1.886300 -0.009450 0.004980 
#    y -0.009450 1.853260 -0.022180 
#    z 0.004980 -0.022180 1.882850 
# 
# From -- ./inp_files/577300.got.cif
#   From: 2010.06.25/outbox.cif.g09.slc.cpg/sg2_289_cif.got.tgz:577300.got - 2010.06.27 13:26:56.
