data_PCOD8006953
_publ_section_title
;
Structure prediction by ZEFSAII (Michael W. Deem and Ramdas Pophale) SiO2 
 PCOD8006953
Probable space group: P -1
;
_chemical_formula_sum "Si O2"
_cell_formula_units_Z 16
_cell_length_a 11.677859
_cell_length_b 11.653362
_cell_length_c 11.805098
_cell_angle_alpha 142.114695
_cell_angle_beta 107.155204
_cell_angle_gamma 98.281995
_cell_volume 722.538495
_symmetry_space_group_name_H-M "P -1"
_symmetry_group_IT_number 2
_symmetry_cell_setting 'triclinic'
loop_
_space_group_symop_operation_xyz
x,y,z
-x,-y,-z
loop_
_atom_site_type_symbol
_atom_site_label
_atom_site_fract_x
_atom_site_fract_y
_atom_site_fract_z
Si Si1 0.737488 0.707900 0.977512
Si Si2 0.124924 0.765125 0.519376
Si Si3 0.427943 0.454438 0.820586
Si Si4 0.678810 0.737295 0.741268
Si Si5 0.758740 0.365641 0.119333
Si Si6 0.222981 0.009656 0.260548
Si Si7 0.680749 0.146817 0.150398
Si Si8 0.920280 0.543954 0.915773
O O1 0.835526 0.978169 0.266338
O O2 0.559719 0.578260 0.857912
O O3 0.755069 0.695935 0.835883
O O4 0.799375 0.579572 0.955500
O O5 0.209541 0.727024 0.610440
O O6 0.180541 0.709484 0.380893
O O7 0.939264 0.570906 0.306850
O O8 0.347129 0.573060 0.907461
O O9 0.303237 0.172512 0.524731
O O10 0.500000 0.500000 0.000000
O O11 0.500000 0.500000 0.500000
O O12 0.761608 0.818496 0.703735
O O13 0.703578 0.968944 0.968732
O O14 0.743494 0.359549 0.245789
O O15 0.697270 0.107970 0.845700
O O16 0.043346 0.786644 0.064981
O O17 0.500000 0.000000 0.000000
O O18 0.000000 0.500000 0.000000
#
# Coordination Sequence:
#
# PCOD8006953 Si02
#       8
#     2   2   2   2   2   2   2   2
#     4  11  25  43  68 102 130 176 224 279 341 396
#     4  10  23  42  67  97 132 176 220 272 340 396
#     4  12  27  41  67  99 135 181 229 279 334 396
#     4  10  20  40  65  96 134 165 216 279 337 394
#     4  10  22  43  65  93 136 175 219 279 330 400
#     4  10  24  45  67  99 134 177 225 276 343 398
#     4  10  21  36  65 100 132 168 219 273 340 401
#     4  11  27  45  68  96 137 186 225 274 330 408
#
# _framework density 22.14415
#
# number of rings (size 3 to 8) (size 9 to 14) (size 15 to 20)
#    0.000    1.500    1.250    2.625    7.000    3.500 
#    0.000    0.000    0.000    0.000    0.000    0.000 
#    0.000    0.000    0.000    0.000    0.000    0.000 
#
# Total GULP energy -198209.921973 kJ/mol
# GULP energy per Si atom -12388.120123 kJ/mol
# Density = 2.209375 g / cm^3
# Si number density = 22.144150 Si / 1000 Ang^3
#
#
#
# Elastic Constant Matrix: (Units=GPa)
#
#
# Indices 1 2 3 4 5 6 
#
# 1 102.3326 28.3224 23.4038 -11.1372 -4.1143 -22.0681
# 2 28.3224 83.4439 32.4877 -14.9184 -3.4860 -13.4114
# 3 23.4038 32.4877 112.6301 -18.8696 -24.6822 -10.7009
# 4 -11.1372 -14.9184 -18.8696 36.6705 4.3410 7.4857
# 5 -4.1143 -3.4860 -24.6822 4.3410 32.1952 0.6492
# 6 -22.0681 -13.4114 -10.7009 7.4857 0.6492 37.4515
#
#
#
# Elastic Compliance Matrix: (Units=1/GPa)
#
#
# Indices 1 2 3 4 5 6 
#
# 1 0.012063 -0.002617 -0.001006 0.000887 0.000252 0.005702
# 2 -0.002617 0.015092 -0.003439 0.003334 -0.001831 0.002245
# 3 -0.001006 -0.003439 0.012681 0.003599 0.008717 0.000929
# 4 0.000887 0.003334 0.003599 0.031586 -0.000953 -0.003552
# 5 0.000252 -0.001831 0.008717 -0.000953 0.037675 0.001521
# 6 0.005702 0.002245 0.000929 -0.003552 0.001521 0.031814
#
#
# Mechanical properties :
#
#
# Convention : Reuss Voigt Hill
#
# Bulk Modulus (GPa) = 38.89297 51.87050 45.38173
# Shear Modulus (GPa) = 30.56161 35.54296 33.05228
#
# Velocity S-wave (km/s) = 3.71903 4.01068 3.86761
# Velocity P-wave (km/s) = 6.00360 6.70241 6.36261
#
# Compressibility (1/GPa) = 0.02571158
#
# Stress axis : x y z
#
# Youngs Moduli (GPa) = 82.90006 66.26210 78.85765
#
# Poissons Ratio (x) = 0.17341 0.07933
# Poissons Ratio (y) = 0.21696 0.27118
# Poissons Ratio (z) = 0.08340 0.22786
#
# Static dielectric constant tensor:
#      x y z
#    x 4.035950 0.097180 -0.297750 
#    y 0.097180 4.521680 -0.182740 
#    z -0.297750 -0.182740 4.316940 
# 
# 
# High freq. dielectric constant tensor:
#      x y z
#    x 1.868600 -0.002630 -0.010420 
#    y -0.002630 1.869330 -0.004920 
#    z -0.010420 -0.004920 1.882560 
# 
# From -- ./inp_files/308898.got.cif
#   From: 2010.06.25/outbox.cif.g09.slc.cpg/sg2_155_cif.got.tgz:308898.got - 2010.06.27 13:26:56.
