data_PCOD8006184
_publ_section_title
;
Structure prediction by ZEFSAII (Michael W. Deem and Ramdas Pophale) SiO2 
 PCOD8006184
Probable space group: P -1
;
_chemical_formula_sum "Si O2"
_cell_formula_units_Z 14
_cell_length_a 9.736998
_cell_length_b 9.245288
_cell_length_c 11.921625
_cell_angle_alpha 100.587710
_cell_angle_beta 106.349358
_cell_angle_gamma 45.990607
_cell_volume 740.552764
_symmetry_space_group_name_H-M "P -1"
_symmetry_group_IT_number 2
_symmetry_cell_setting 'triclinic'
loop_
_space_group_symop_operation_xyz
x,y,z
-x,-y,-z
loop_
_atom_site_type_symbol
_atom_site_label
_atom_site_fract_x
_atom_site_fract_y
_atom_site_fract_z
Si Si1 0.708435 0.384423 0.080787
Si Si2 0.155349 0.992272 0.825736
Si Si3 0.529112 0.683751 0.727318
Si Si4 0.674647 0.477896 0.333100
Si Si5 0.906729 0.412958 0.931549
Si Si6 0.044953 0.047246 0.403390
Si Si7 0.482079 0.841689 0.495663
O O1 0.809566 0.156128 0.093054
O O2 0.676648 0.501497 0.203241
O O3 0.500000 0.500000 0.000000
O O4 0.837024 0.385600 0.024888
O O5 0.355492 0.881114 0.787056
O O6 0.983136 0.052217 0.715326
O O7 0.083800 0.194376 0.889815
O O8 0.472545 0.553008 0.673662
O O9 0.731887 0.555482 0.822668
O O10 0.551597 0.751041 0.623748
O O11 0.615385 0.666250 0.410167
O O12 0.895994 0.286964 0.391977
O O13 0.000000 0.500000 0.000000
O O14 0.261383 0.954338 0.437142
O O15 0.000000 0.000000 0.500000
O O16 0.500000 0.000000 0.500000
#
# Coordination Sequence:
#
# PCOD8006184 Si02
#       7
#     2   2   2   2   2   2   2
#     4  10  20  44  63  90 120 163 215 246 297 366
#     4  10  22  40  69  89 121 166 210 252 298 370
#     4  10  22  42  62  93 121 165 214 245 307 369
#     4  10  22  40  69  87 124 167 206 252 296 374
#     4  12  25  40  64  94 127 162 203 260 312 361
#     4  10  20  39  66  90 115 164 212 239 299 375
#     4  12  25  39  62  98 130 157 198 262 319 358
#
# _framework density 18.904798
#
# number of rings (size 3 to 8) (size 9 to 14) (size 15 to 20)
#    0.000    1.714    5.714    1.714    2.000    4.571 
#    2.571    0.000    0.000    0.000    0.000    0.000 
#    0.000    0.000    0.000    0.000    0.000    0.000 
#
# Total GULP energy -173597.180465 kJ/mol
# GULP energy per Si atom -12399.798605 kJ/mol
# Density = 1.886177 g / cm^3
# Si number density = 18.904798 Si / 1000 Ang^3
#
#
#
# Elastic Constant Matrix: (Units=GPa)
#
#
# Indices 1 2 3 4 5 6 
#
# 1 43.5641 54.3962 41.4305 13.9583 -4.4923 -0.6818
# 2 54.3962 131.2635 89.0387 27.5030 -9.5043 6.3511
# 3 41.4305 89.0387 134.4085 -6.2518 -12.0479 3.4281
# 4 13.9583 27.5030 -6.2518 40.3252 -1.1540 3.7667
# 5 -4.4923 -9.5043 -12.0479 -1.1540 21.6222 1.3313
# 6 -0.6818 6.3511 3.4281 3.7667 1.3313 26.7889
#
#
#
# Elastic Compliance Matrix: (Units=1/GPa)
#
#
# Indices 1 2 3 4 5 6 
#
# 1 0.050985 -0.015673 -0.005955 -0.008550 -0.000502 0.007002
# 2 -0.015673 0.025992 -0.012928 -0.014019 0.000399 -0.002955
# 3 -0.005955 -0.012928 0.018942 0.014104 0.004493 -0.001717
# 4 -0.008550 -0.014019 0.014104 0.039987 0.002328 -0.004437
# 5 -0.000502 0.000399 0.004493 0.002328 0.049160 -0.003453
# 6 0.007002 -0.002955 -0.001717 -0.004437 -0.003453 0.039223
#
#
# Mechanical properties :
#
#
# Convention : Reuss Voigt Hill
#
# Bulk Modulus (GPa) = 37.30243 75.44077 56.37160
# Shear Modulus (GPa) = 16.53786 26.03863 21.28824
#
# Velocity S-wave (km/s) = 2.96091 3.71530 3.35935
# Velocity P-wave (km/s) = 5.60926 7.64178 6.70301
#
# Compressibility (1/GPa) = 0.02680790
#
# Stress axis : x y z
#
# Youngs Moduli (GPa) = 19.61356 38.47366 52.79215
#
# Poissons Ratio (x) = 0.60300 0.31435
# Poissons Ratio (y) = 0.30740 0.68250
# Poissons Ratio (z) = 0.11679 0.49739
#
# Static dielectric constant tensor:
#      x y z
#    x 2.985880 -0.013980 0.068760 
#    y -0.013980 3.419210 -0.155370 
#    z 0.068760 -0.155370 3.526710 
# 
# 
# High freq. dielectric constant tensor:
#      x y z
#    x 1.722890 -0.013050 -0.007340 
#    y -0.013050 1.739110 -0.010190 
#    z -0.007340 -0.010190 1.751110 
# 
# From -- ./inp_files/201734.got.cif
#   From: 2010.06.25/outbox.cif.g09.slc.cpg/sg2_101_cif.got.tgz:201734.got - 2010.06.27 13:26:56.
