data_PCOD8006529
_publ_section_title
;
Structure prediction by ZEFSAII (Michael W. Deem and Ramdas Pophale) SiO2 
 PCOD8006529
Probable space group: P -1
;
_chemical_formula_sum "Si O2"
_cell_formula_units_Z 16
_cell_length_a 8.223094
_cell_length_b 9.466165
_cell_length_c 17.515203
_cell_angle_alpha 123.252001
_cell_angle_beta 129.604804
_cell_angle_gamma 89.113119
_cell_volume 751.150285
_symmetry_space_group_name_H-M "P -1"
_symmetry_group_IT_number 2
_symmetry_cell_setting 'triclinic'
loop_
_space_group_symop_operation_xyz
x,y,z
-x,-y,-z
loop_
_atom_site_type_symbol
_atom_site_label
_atom_site_fract_x
_atom_site_fract_y
_atom_site_fract_z
Si Si1 0.784518 0.284453 0.109614
Si Si2 0.010456 0.617557 0.169883
Si Si3 0.476498 0.293574 0.690523
Si Si4 0.665071 0.470313 0.373849
Si Si5 0.091314 0.546717 0.413374
Si Si6 0.733684 0.108361 0.545213
Si Si7 0.257865 0.103365 0.066541
Si Si8 0.608298 0.607663 0.937948
O O1 0.561200 0.325529 0.052195
O O2 0.949856 0.406312 0.122652
O O3 0.936428 0.358167 0.256089
O O4 0.685489 0.054259 0.001363
O O5 0.262929 0.698063 0.222183
O O6 0.035626 0.759573 0.290627
O O7 0.793904 0.598925 0.048598
O O8 0.474027 0.410343 0.648313
O O9 0.438208 0.391337 0.783745
O O10 0.255774 0.064882 0.548588
O O11 0.734632 0.492183 0.490449
O O12 0.483379 0.238364 0.231258
O O13 0.903545 0.569868 0.419062
O O14 0.266287 0.744286 0.475231
O O15 0.500000 0.000000 0.500000
O O16 0.235532 0.236257 0.034647
O O17 0.000000 0.000000 0.000000
#
# Coordination Sequence:
#
# PCOD8006529 Si02
#       8
#     2   2   2   2   2   2   2   2
#     4  11  21  41  62  90 124 158 204 258 305 364
#     4  10  22  39  59  87 123 162 199 252 307 362
#     4  10  20  40  60  86 126 158 206 252 303 369
#     4  10  22  40  61  94 122 162 209 251 317 368
#     4  10  21  40  63  89 127 161 205 260 310 367
#     4   9  21  39  59  86 121 162 206 255 304 368
#     4  11  24  41  63  90 127 162 203 256 308 368
#     4  11  22  38  59  90 121 159 206 249 306 363
#
# _framework density 21.300664000000001
#
# number of rings (size 3 to 8) (size 9 to 14) (size 15 to 20)
#    0.000    1.750    2.500    2.625    0.000    4.500 
#    2.250    8.750    0.000    0.000    0.000    0.000 
#    0.000    0.000    0.000    0.000    0.000    0.000 
#
# Total GULP energy -198319.095674 kJ/mol
# GULP energy per Si atom -12394.943480 kJ/mol
# Density = 2.125218 g / cm^3
# Si number density = 21.300664 Si / 1000 Ang^3
#
#
#
# Elastic Constant Matrix: (Units=GPa)
#
#
# Indices 1 2 3 4 5 6 
#
# 1 58.4598 8.2950 -2.8855 0.7364 1.7291 -1.0709
# 2 8.2950 90.4088 67.0037 -14.9760 -9.7134 -4.5644
# 3 -2.8855 67.0037 103.8493 -11.1055 -8.7957 -17.2511
# 4 0.7364 -14.9760 -11.1055 47.0973 -3.9652 -1.4622
# 5 1.7291 -9.7134 -8.7957 -3.9652 25.7045 9.0910
# 6 -1.0709 -4.5644 -17.2511 -1.4622 9.0910 37.2356
#
#
#
# Elastic Compliance Matrix: (Units=1/GPa)
#
#
# Indices 1 2 3 4 5 6 
#
# 1 0.018065 -0.004604 0.003492 -0.001083 -0.002702 0.002190
# 2 -0.004604 0.024355 -0.015765 0.004496 0.006921 -0.005964
# 3 0.003492 -0.015765 0.021137 0.000015 -0.001941 0.008435
# 4 -0.001083 0.004496 0.000015 0.023133 0.005295 0.000142
# 5 -0.002702 0.006921 -0.001941 0.005295 0.045779 -0.011097
# 6 0.002190 -0.005964 0.008435 0.000142 -0.011097 0.032811
#
#
# Mechanical properties :
#
#
# Convention : Reuss Voigt Hill
#
# Bulk Modulus (GPa) = 33.55631 44.17159 38.86395
# Shear Modulus (GPa) = 23.92714 34.02780 28.97747
#
# Velocity S-wave (km/s) = 3.35521 4.00121 3.69236
# Velocity P-wave (km/s) = 5.54957 6.49064 6.03847
#
# Compressibility (1/GPa) = 0.02980066
#
# Stress axis : x y z
#
# Youngs Moduli (GPa) = 55.35525 41.05997 47.31148
#
# Poissons Ratio (x) = 0.18906 -0.16521
# Poissons Ratio (y) = 0.25488 0.74588
# Poissons Ratio (z) = -0.19330 0.64732
#
# Static dielectric constant tensor:
#      x y z
#    x 3.750970 0.053020 -0.142270 
#    y 0.053020 4.148400 0.226440 
#    z -0.142270 0.226440 4.159400 
# 
# 
# High freq. dielectric constant tensor:
#      x y z
#    x 1.827190 0.007160 -0.004040 
#    y 0.007160 1.830290 0.005820 
#    z -0.004040 0.005820 1.842530 
# 
# From -- ./inp_files/379034.got.cif
#   From: 2010.06.25/outbox.cif.g09.slc.cpg/sg2_190_cif.got.tgz:379034.got - 2010.06.27 13:26:56.
