data_PCOD8006843
_publ_section_title
;
Structure prediction by ZEFSAII (Michael W. Deem and Ramdas Pophale) SiO2 
 PCOD8006843
Probable space group: P -1
;
_chemical_formula_sum "Si O2"
_cell_formula_units_Z 12
_cell_length_a 18.891556
_cell_length_b 15.753893
_cell_length_c 11.974093
_cell_angle_alpha 153.125748
_cell_angle_beta 27.645142
_cell_angle_gamma 159.435957
_cell_volume 536.243607
_symmetry_space_group_name_H-M "P -1"
_symmetry_group_IT_number 2
_symmetry_cell_setting 'triclinic'
loop_
_space_group_symop_operation_xyz
x,y,z
-x,-y,-z
loop_
_atom_site_type_symbol
_atom_site_label
_atom_site_fract_x
_atom_site_fract_y
_atom_site_fract_z
Si Si1 0.526047 0.033005 0.708272
Si Si2 0.437719 0.282905 0.987589
Si Si3 0.768564 0.869652 0.131332
Si Si4 0.920159 0.516694 0.247163
Si Si5 0.661740 0.267132 0.019439
Si Si6 0.804172 0.730373 0.513792
O O1 0.695019 0.006837 0.445388
O O2 0.288558 0.750426 0.721421
O O3 0.537275 0.159600 0.724603
O O4 0.572544 0.216124 0.960293
O O5 0.618659 0.577877 0.042653
O O6 0.357102 0.256508 0.195538
O O7 0.252036 0.124906 0.967857
O O8 0.000000 0.000000 0.000000
O O9 0.877646 0.695850 0.486919
O O10 0.000000 0.500000 0.000000
O O11 0.115286 0.651305 0.215652
O O12 0.690526 0.491679 0.305252
O O13 0.500000 0.000000 0.000000
O O14 0.000000 0.000000 0.500000
#
# Coordination Sequence:
#
# PCOD8006843 Si02
#       6
#     2   2   2   2   2   2
#     4  12  24  45  72 104 141 188 240 291 355 423
#     4  11  25  46  70 102 141 185 237 291 359 419
#     4  11  27  48  71 100 138 185 246 301 344 416
#     4  10  20  40  64  97 146 183 221 283 351 416
#     4  11  22  39  67 102 142 189 232 279 352 429
#     4  11  23  42  67 105 145 185 226 292 358 427
#
# _framework density 22.377889
#
# number of rings (size 3 to 8) (size 9 to 14) (size 15 to 20)
#    0.000    1.000    5.000    2.500    2.333    4.000 
#    0.000    0.000    0.000    0.000    0.000    0.000 
#    0.000    0.000    0.000    0.000    0.000    0.000 
#
# Total GULP energy -148674.182893 kJ/mol
# GULP energy per Si atom -12389.515241 kJ/mol
# Density = 2.232696 g / cm^3
# Si number density = 22.377889 Si / 1000 Ang^3
#
#
#
# Elastic Constant Matrix: (Units=GPa)
#
#
# Indices 1 2 3 4 5 6 
#
# 1 155.2996 65.5968 54.8548 6.4841 -17.4499 5.7584
# 2 65.5968 121.8597 49.6794 5.6682 2.7889 7.0743
# 3 54.8548 49.6794 96.8406 -1.9207 3.3358 4.2806
# 4 6.4841 5.6682 -1.9207 35.8816 4.3599 -9.6730
# 5 -17.4499 2.7889 3.3358 4.3599 41.3820 1.3009
# 6 5.7584 7.0743 4.2806 -9.6730 1.3009 41.3779
#
#
#
# Elastic Compliance Matrix: (Units=1/GPa)
#
#
# Indices 1 2 3 4 5 6 
#
# 1 0.010167 -0.003792 -0.003991 -0.002365 0.005147 -0.001069
# 2 -0.003792 0.012053 -0.003939 -0.001589 -0.001881 -0.001438
# 3 -0.003991 -0.003939 0.014741 0.002592 -0.002891 0.000401
# 4 -0.002365 -0.001589 0.002592 0.031357 -0.004648 0.007809
# 5 0.005147 -0.001881 -0.002891 -0.004648 0.027249 -0.002039
# 6 -0.001069 -0.001438 0.000401 0.007809 -0.002039 0.026410
#
#
# Mechanical properties :
#
#
# Convention : Reuss Voigt Hill
#
# Bulk Modulus (GPa) = 73.97288 79.36244 76.66766
# Shear Modulus (GPa) = 33.34965 37.31956 35.33461
#
# Velocity S-wave (km/s) = 3.86462 4.08818 3.97797
# Velocity P-wave (km/s) = 7.28298 7.60433 7.44539
#
# Compressibility (1/GPa) = 0.01351847
#
# Stress axis : x y z
#
# Youngs Moduli (GPa) = 98.35575 82.96426 67.83891
#
# Poissons Ratio (x) = 0.31457 0.27074
# Poissons Ratio (y) = 0.37293 0.26720
# Poissons Ratio (z) = 0.39254 0.32678
#
# Static dielectric constant tensor:
#      x y z
#    x 4.630180 0.353530 -0.453030 
#    y 0.353530 4.159910 0.119350 
#    z -0.453030 0.119350 5.410720 
# 
# 
# High freq. dielectric constant tensor:
#      x y z
#    x 1.892860 -0.002580 -0.011490 
#    y -0.002580 1.875120 0.000260 
#    z -0.011490 0.000260 1.890540 
# 
# From -- ./inp_files/466007.got.cif
#   From: 2010.06.25/outbox.cif.g09.slc.cpg/sg2_234_cif.got.tgz:466007.got - 2010.06.27 13:26:56.
