data_PCOD8006188
_publ_section_title
;
Structure prediction by ZEFSAII (Michael W. Deem and Ramdas Pophale) SiO2 
 PCOD8006188
Probable space group: P -1
;
_chemical_formula_sum "Si O2"
_cell_formula_units_Z 16
_cell_length_a 11.597230
_cell_length_b 9.521234
_cell_length_c 17.564072
_cell_angle_alpha 30.798602
_cell_angle_beta 125.622458
_cell_angle_gamma 119.525789
_cell_volume 807.074166
_symmetry_space_group_name_H-M "P -1"
_symmetry_group_IT_number 2
_symmetry_cell_setting 'triclinic'
loop_
_space_group_symop_operation_xyz
x,y,z
-x,-y,-z
loop_
_atom_site_type_symbol
_atom_site_label
_atom_site_fract_x
_atom_site_fract_y
_atom_site_fract_z
Si Si1 0.143269 0.164608 0.691822
Si Si2 0.372868 0.511362 0.547399
Si Si3 0.314537 0.425851 0.391737
Si Si4 0.078698 0.511722 0.642897
Si Si5 0.328382 0.899996 0.560609
Si Si6 0.115515 0.529951 0.964936
Si Si7 0.022147 0.680877 0.144408
Si Si8 0.652592 0.884268 0.694772
O O1 0.292934 0.315480 0.666886
O O2 0.087011 0.235442 0.722855
O O3 0.028516 0.269612 0.537757
O O4 0.164995 0.842697 0.837769
O O5 0.331161 0.430104 0.485485
O O6 0.542133 0.482190 0.639559
O O7 0.321169 0.824501 0.391131
O O8 0.188841 0.623208 0.222063
O O9 0.282548 0.106341 0.513928
O O10 0.235002 0.632615 0.650186
O O11 0.028575 0.463722 0.731180
O O12 0.489891 0.793493 0.680643
O O13 0.303493 0.085129 0.389951
O O14 0.060379 0.437059 0.904681
O O15 0.252940 0.345280 0.121398
O O16 0.000000 0.500000 0.000000
O O17 0.000000 0.000000 0.000000
#
# Coordination Sequence:
#
# PCOD8006188 Si02
#       8
#     2   2   2   2   2   2   2   2
#     4  11  23  40  66  95 127 164 208 257 314 371
#     4  10  20  39  66  90 123 166 205 257 304 370
#     4  10  21  37  63  92 122 159 213 253 303 368
#     4  11  23  40  64  92 126 165 211 256 310 375
#     4  10  21  39  69  91 117 165 211 259 300 376
#     4  12  26  41  63  94 128 167 205 262 318 370
#     4  12  25  41  63  92 130 167 208 260 315 370
#     4  10  21  43  64  89 126 164 211 248 317 372
#
# _framework density 19.824695999999999
#
# number of rings (size 3 to 8) (size 9 to 14) (size 15 to 20)
#    0.000    1.250    2.500    3.750    3.500    1.000 
#    2.250    1.250    0.000    0.000    0.000    0.000 
#    0.000    0.000    0.000    0.000    0.000    0.000 
#
# Total GULP energy -198426.784978 kJ/mol
# GULP energy per Si atom -12401.674061 kJ/mol
# Density = 1.977957 g / cm^3
# Si number density = 19.824696 Si / 1000 Ang^3
#
#
#
# Elastic Constant Matrix: (Units=GPa)
#
#
# Indices 1 2 3 4 5 6 
#
# 1 106.9320 50.5970 55.0303 -7.2346 9.6604 -9.0646
# 2 50.5970 147.5287 76.2640 7.3436 -1.3412 10.4566
# 3 55.0303 76.2640 138.6936 9.3789 12.6788 23.7438
# 4 -7.2346 7.3436 9.3789 61.5142 -8.0008 44.8331
# 5 9.6604 -1.3412 12.6788 -8.0008 29.9005 -14.9666
# 6 -9.0646 10.4566 23.7438 44.8331 -14.9666 120.1549
#
#
#
# Elastic Compliance Matrix: (Units=1/GPa)
#
#
# Indices 1 2 3 4 5 6 
#
# 1 0.012908 -0.002613 -0.003835 0.001265 -0.001684 0.001277
# 2 -0.002613 0.010283 -0.004994 -0.000767 0.003529 0.000621
# 3 -0.003835 -0.004994 0.012540 -0.000408 -0.005869 -0.002912
# 4 0.001265 -0.000767 -0.000408 0.022598 0.001789 -0.007966
# 5 -0.001684 0.003529 -0.005869 0.001789 0.039613 0.004992
# 6 0.001277 0.000621 -0.002912 -0.007966 0.004992 0.012535
#
#
# Mechanical properties :
#
#
# Convention : Reuss Voigt Hill
#
# Bulk Modulus (GPa) = 77.84402 84.10409 80.97406
# Shear Modulus (GPa) = 36.32606 56.39812 46.36209
#
# Velocity S-wave (km/s) = 4.28526 5.33949 4.84116
# Velocity P-wave (km/s) = 7.98974 8.97383 8.49604
#
# Compressibility (1/GPa) = 0.01284620
#
# Stress axis : x y z
#
# Youngs Moduli (GPa) = 77.47306 97.25178 79.74199
#
# Poissons Ratio (x) = 0.25415 0.30579
# Poissons Ratio (y) = 0.20246 0.39825
# Poissons Ratio (z) = 0.29709 0.48569
#
# Static dielectric constant tensor:
#      x y z
#    x 3.895650 -0.059680 0.160140 
#    y -0.059680 3.928670 0.016940 
#    z 0.160140 0.016940 3.426170 
# 
# 
# High freq. dielectric constant tensor:
#      x y z
#    x 1.781960 -0.006420 0.014270 
#    y -0.006420 1.799790 -0.002170 
#    z 0.014270 -0.002170 1.750960 
# 
# From -- ./inp_files/389163.got.cif
#   From: 2010.06.25/outbox.cif.g09.slc.cpg/sg2_195_cif.got.tgz:389163.got - 2010.06.27 13:26:56.
