data_PCOD8006521
_publ_section_title
;
Structure prediction by ZEFSAII (Michael W. Deem and Ramdas Pophale) SiO2 
 PCOD8006521
Probable space group: P -1
;
_chemical_formula_sum "Si O2"
_cell_formula_units_Z 16
_cell_length_a 17.650799
_cell_length_b 8.954293
_cell_length_c 19.781384
_cell_angle_alpha 129.038042
_cell_angle_beta 20.118274
_cell_angle_gamma 118.854718
_cell_volume 762.848599
_symmetry_space_group_name_H-M "P -1"
_symmetry_group_IT_number 2
_symmetry_cell_setting 'triclinic'
loop_
_space_group_symop_operation_xyz
x,y,z
-x,-y,-z
loop_
_atom_site_type_symbol
_atom_site_label
_atom_site_fract_x
_atom_site_fract_y
_atom_site_fract_z
Si Si1 0.540431 0.855869 0.225530
Si Si2 0.813667 0.183792 0.661378
Si Si3 0.859330 0.209937 0.980487
Si Si4 0.931493 0.148407 0.399512
Si Si5 0.408366 0.587795 0.503177
Si Si6 0.723212 0.659130 0.875366
Si Si7 0.954057 0.913264 0.943600
Si Si8 0.293952 0.301360 0.611351
O O1 0.341086 0.758334 0.378992
O O2 0.388738 0.108160 0.423938
O O3 0.682144 0.773563 0.014031
O O4 0.752878 0.812810 0.090701
O O5 0.822769 0.408516 0.730707
O O6 0.894596 0.101128 0.494448
O O7 0.528743 0.232888 0.924997
O O8 0.000000 0.000000 0.500000
O O9 0.047370 0.317628 0.856167
O O10 0.894085 0.064230 0.844459
O O11 0.868586 0.089983 0.008292
O O12 0.598256 0.397932 0.247407
O O13 0.056703 0.311482 0.338201
O O14 0.258420 0.511963 0.661012
O O15 0.520758 0.726931 0.490215
O O16 0.212835 0.732860 0.654128
O O17 0.000000 0.000000 0.000000
#
# Coordination Sequence:
#
# PCOD8006521 Si02
#       8
#     2   2   2   2   2   2   2   2
#     4  10  20  41  61  90 129 169 207 258 317 361
#     4  10  23  42  71 100 123 157 202 254 311 385
#     4  11  23  42  58  89 128 166 209 261 316 370
#     4  10  21  42  68  89 132 170 198 257 319 375
#     4  11  21  38  60  86 119 169 215 265 312 359
#     4  10  20  43  67  93 131 164 198 249 321 379
#     4  12  22  40  65  88 125 173 221 268 306 357
#     4  10  20  40  60  81 127 165 208 269 318 357
#
# _framework density 20.974018000000001
#
# number of rings (size 3 to 8) (size 9 to 14) (size 15 to 20)
#    0.000    1.500    3.750    1.500    0.000    1.000 
#   13.500    2.500    0.000    0.000    0.000    0.000 
#    0.000    0.000    0.000    0.000    0.000    0.000 
#
# Total GULP energy -198244.112804 kJ/mol
# GULP energy per Si atom -12390.257050 kJ/mol
# Density = 2.092628 g / cm^3
# Si number density = 20.974018 Si / 1000 Ang^3
#
#
#
# Elastic Constant Matrix: (Units=GPa)
#
#
# Indices 1 2 3 4 5 6 
#
# 1 87.9021 35.1051 54.3972 1.4353 -1.0888 16.2098
# 2 35.1051 103.3510 65.9530 -23.7961 -17.5203 15.8998
# 3 54.3972 65.9530 143.7356 -6.8705 -20.3264 3.5850
# 4 1.4353 -23.7961 -6.8705 47.5566 7.3407 -3.6789
# 5 -1.0888 -17.5203 -20.3264 7.3407 39.7554 -2.3386
# 6 16.2098 15.8998 3.5850 -3.6789 -2.3386 21.4418
#
#
#
# Elastic Compliance Matrix: (Units=1/GPa)
#
#
# Indices 1 2 3 4 5 6 
#
# 1 0.018360 -0.001207 -0.006729 -0.002534 -0.003749 -0.012704
# 2 -0.001207 0.017999 -0.006869 0.006899 0.002535 -0.009826
# 3 -0.006729 -0.006869 0.012973 -0.001365 0.004158 0.008231
# 4 -0.002534 0.006899 -0.001365 0.024785 -0.002242 0.001036
# 5 -0.003749 0.002535 0.004158 -0.002242 0.028886 0.003025
# 6 -0.012704 -0.009826 0.008231 0.001036 0.003025 0.062660
#
#
# Mechanical properties :
#
#
# Convention : Reuss Voigt Hill
#
# Bulk Modulus (GPa) = 50.70305 71.76660 61.23482
# Shear Modulus (GPa) = 24.77137 33.71966 29.24552
#
# Velocity S-wave (km/s) = 3.44037 4.01395 3.73818
# Velocity P-wave (km/s) = 6.32521 7.46817 6.92032
#
# Compressibility (1/GPa) = 0.01972268
#
# Stress axis : x y z
#
# Youngs Moduli (GPa) = 54.46589 55.55974 77.08332
#
# Poissons Ratio (x) = 0.06705 0.51870
# Poissons Ratio (y) = 0.06573 0.52945
# Poissons Ratio (z) = 0.36651 0.38162
#
# Static dielectric constant tensor:
#      x y z
#    x 3.686740 0.348680 -0.146070 
#    y 0.348680 3.910780 -0.223560 
#    z -0.146070 -0.223560 4.264770 
# 
# 
# High freq. dielectric constant tensor:
#      x y z
#    x 1.798570 0.035020 0.009840 
#    y 0.035020 1.814790 -0.014150 
#    z 0.009840 -0.014150 1.842720 
# 
# From -- ./inp_files/599548.got.cif
#   From: 2010.06.25/outbox.cif.g09.slc.cpg/sg2_300_cif.got.tgz:599548.got - 2010.06.27 13:26:56.
