data_PCOD8006274
_publ_section_title
;
Structure prediction by ZEFSAII (Michael W. Deem and Ramdas Pophale) SiO2 
 PCOD8006274
Probable space group: P -1
;
_chemical_formula_sum "Si O2"
_cell_formula_units_Z 16
_cell_length_a 16.155235
_cell_length_b 15.782510
_cell_length_c 18.239241
_cell_angle_alpha 34.718648
_cell_angle_beta 143.721014
_cell_angle_gamma 162.349440
_cell_volume 796.020907
_symmetry_space_group_name_H-M "P -1"
_symmetry_group_IT_number 2
_symmetry_cell_setting 'triclinic'
loop_
_space_group_symop_operation_xyz
x,y,z
-x,-y,-z
loop_
_atom_site_type_symbol
_atom_site_label
_atom_site_fract_x
_atom_site_fract_y
_atom_site_fract_z
Si Si1 0.525363 0.626997 0.619791
Si Si2 0.118159 0.824397 0.737274
Si Si3 0.964590 0.238301 0.448664
Si Si4 0.516257 0.600150 0.109356
Si Si5 0.658661 0.248756 0.104230
Si Si6 0.834848 0.264291 0.784845
Si Si7 0.002155 0.898135 0.004209
Si Si8 0.437956 0.553826 0.351125
O O1 0.217371 0.362757 0.558483
O O2 0.525668 0.573586 0.741653
O O3 0.653453 0.618712 0.663922
O O4 0.703894 0.942749 0.520278
O O5 0.272613 0.806054 0.872883
O O6 0.125531 0.859409 0.630333
O O7 0.800828 0.543820 0.733630
O O8 0.282801 0.096904 0.707797
O O9 0.066061 0.498378 0.357731
O O10 0.488231 0.732784 0.038987
O O11 0.306312 0.401501 0.032839
O O12 0.818100 0.865683 0.100836
O O13 0.960794 0.570371 0.118751
O O14 0.474606 0.003076 0.212851
O O15 0.867327 0.141889 0.848212
O O16 0.000000 0.000000 0.000000
O O17 0.500000 0.500000 0.500000
#
# Coordination Sequence:
#
# PCOD8006274 Si02
#       8
#     2   2   2   2   2   2   2   2
#     4  12  23  34  53  77 117 153 177 224 279 329
#     4  11  19  33  52  75 103 139 197 245 262 297
#     4  11  19  33  53  78 107 147 187 224 268 314
#     4  10  22  39  56  85 114 142 180 215 278 345
#     4   9  18  34  54  74 105 142 181 236 272 310
#     4   9  18  32  56  85 105 132 184 229 263 318
#     4  10  20  39  67  88 106 135 178 231 271 320
#     4  12  21  33  48  79 109 145 194 233 270 306
#
# _framework density 20.099975000000001
#
# number of rings (size 3 to 8) (size 9 to 14) (size 15 to 20)
#    0.000    1.500    2.500    5.250    0.000    0.000 
#    0.000    1.250    0.000    4.500    0.000    0.000 
#    0.000    0.000    0.000    0.000    0.000    0.000 
#
# Total GULP energy -198290.696042 kJ/mol
# GULP energy per Si atom -12393.168503 kJ/mol
# Density = 2.005423 g / cm^3
# Si number density = 20.099975 Si / 1000 Ang^3
#
#
#
# Elastic Constant Matrix: (Units=GPa)
#
#
# Indices 1 2 3 4 5 6 
#
# 1 79.6224 14.2507 27.3676 -5.3701 17.0547 -4.7251
# 2 14.2507 89.9611 13.4966 -10.0805 3.4585 5.2295
# 3 27.3676 13.4966 69.1692 -18.6555 -0.1696 -1.9614
# 4 -5.3701 -10.0805 -18.6555 26.8261 3.4620 6.3822
# 5 17.0547 3.4585 -0.1696 3.4620 21.0309 -3.9874
# 6 -4.7251 5.2295 -1.9614 6.3822 -3.9874 25.4826
#
#
#
# Elastic Compliance Matrix: (Units=1/GPa)
#
#
# Indices 1 2 3 4 5 6 
#
# 1 0.018390 -0.001354 -0.007036 -0.000049 -0.014573 0.000878
# 2 -0.001354 0.012398 -0.000549 0.005459 -0.002722 -0.004631
# 3 -0.007036 -0.000549 0.020784 0.012948 0.003395 -0.002304
# 4 -0.000049 0.005459 0.012948 0.053634 -0.012526 -0.015525
# 5 -0.014573 -0.002722 0.003395 -0.012526 0.064042 0.011276
# 6 0.000878 -0.004631 -0.002304 -0.015525 0.011276 0.045831
#
#
# Mechanical properties :
#
#
# Convention : Reuss Voigt Hill
#
# Bulk Modulus (GPa) = 29.67888 38.77583 34.22736
# Shear Modulus (GPa) = 20.47598 26.91043 23.69320
#
# Velocity S-wave (km/s) = 3.19518 3.66297 3.43704
# Velocity P-wave (km/s) = 5.33010 6.10108 5.72857
#
# Compressibility (1/GPa) = 0.03369399
#
# Stress axis : x y z
#
# Youngs Moduli (GPa) = 54.37638 80.65611 48.11466
#
# Poissons Ratio (x) = 0.10919 0.33854
# Poissons Ratio (y) = 0.07362 0.02642
# Poissons Ratio (z) = 0.38260 0.04430
#
# Static dielectric constant tensor:
#      x y z
#    x 3.461580 0.073960 0.502450 
#    y 0.073960 3.799560 -0.131990 
#    z 0.502450 -0.131990 3.664540 
# 
# 
# High freq. dielectric constant tensor:
#      x y z
#    x 1.743030 0.013460 0.037990 
#    y 0.013460 1.808290 -0.007690 
#    z 0.037990 -0.007690 1.762270 
# 
# From -- ./inp_files/535063.got.cif
#   From: 2010.06.25/outbox.cif.g09.slc.cpg/sg2_268_cif.got.tgz:535063.got - 2010.06.27 13:26:56.
