data_PCOD8006869
_publ_section_title
;
Structure prediction by ZEFSAII (Michael W. Deem and Ramdas Pophale) SiO2 
 PCOD8006869
Probable space group: P -1
;
_chemical_formula_sum "Si O2"
_cell_formula_units_Z 14
_cell_length_a 11.727319
_cell_length_b 14.780454
_cell_length_c 6.218114
_cell_angle_alpha 70.340981
_cell_angle_beta 81.333836
_cell_angle_gamma 131.711168
_cell_volume 641.219447
_symmetry_space_group_name_H-M "P -1"
_symmetry_group_IT_number 2
_symmetry_cell_setting 'triclinic'
loop_
_space_group_symop_operation_xyz
x,y,z
-x,-y,-z
loop_
_atom_site_type_symbol
_atom_site_label
_atom_site_fract_x
_atom_site_fract_y
_atom_site_fract_z
Si Si1 0.074945 0.779469 0.872839
Si Si2 0.958156 0.869745 0.516069
Si Si3 0.801200 0.332651 0.197212
Si Si4 0.553815 0.258750 0.984672
Si Si5 0.614866 0.735422 0.593501
Si Si6 0.248924 0.020858 0.958674
Si Si7 0.722089 0.453632 0.397663
O O1 0.182215 0.772207 0.694746
O O2 0.990969 0.809191 0.730768
O O3 0.217225 0.909832 0.901291
O O4 0.917251 0.624299 0.174082
O O5 0.745931 0.730646 0.620373
O O6 0.000000 0.000000 0.500000
O O7 0.072143 0.924223 0.227696
O O8 0.703630 0.330184 0.415833
O O9 0.696049 0.281479 0.044174
O O10 0.000000 0.500000 0.000000
O O11 0.424260 0.113335 0.982671
O O12 0.669406 0.412862 0.695814
O O13 0.420820 0.226763 0.211699
O O14 0.721562 0.866357 0.283327
O O15 0.425608 0.578521 0.668665
#
# Coordination Sequence:
#
# PCOD8006869 Si02
#       7
#     2   2   2   2   2   2   2
#     4  11  24  38  60  99 121 156 208 249 298 366
#     4  12  23  40  65  87 125 164 200 251 308 352
#     4   9  21  41  62  88 127 158 201 248 298 364
#     4  10  20  40  65  87 119 169 196 246 308 353
#     4  10  21  41  64  88 121 165 206 245 298 362
#     4  11  22  38  64  91 119 161 205 249 302 359
#     4   9  22  41  65  89 125 160 201 249 302 360
#
# _framework density 21.833399
#
# number of rings (size 3 to 8) (size 9 to 14) (size 15 to 20)
#    0.000    1.714    2.857    0.429    0.000    8.000 
#    0.000   11.429    0.000    0.000    0.000    0.000 
#    0.000    0.000    0.000    0.000    0.000    0.000 
#
# Total GULP energy -173538.249848 kJ/mol
# GULP energy per Si atom -12395.589275 kJ/mol
# Density = 2.178371 g / cm^3
# Si number density = 21.833399 Si / 1000 Ang^3
#
#
#
# Elastic Constant Matrix: (Units=GPa)
#
#
# Indices 1 2 3 4 5 6 
#
# 1 127.2751 35.0014 26.0217 3.2875 14.9888 18.4414
# 2 35.0014 78.5318 15.1523 2.6748 13.5825 16.7821
# 3 26.0217 15.1523 64.9287 0.3065 -5.6302 -2.9973
# 4 3.2875 2.6748 0.3065 21.0850 -0.3019 -2.0809
# 5 14.9888 13.5825 -5.6302 -0.3019 27.6953 -3.2802
# 6 18.4414 16.7821 -2.9973 -2.0809 -3.2802 37.6164
#
#
#
# Elastic Compliance Matrix: (Units=1/GPa)
#
#
# Indices 1 2 3 4 5 6 
#
# 1 0.010982 -0.001406 -0.004940 -0.002142 -0.006978 -0.005877
# 2 -0.001406 0.018056 -0.004925 -0.003015 -0.010172 -0.008812
# 3 -0.004940 -0.004925 0.019716 0.001958 0.009967 0.007167
# 4 -0.002142 -0.003015 0.001958 0.048730 0.004232 0.005616
# 5 -0.006978 -0.010172 0.009967 0.004232 0.048510 0.013217
# 6 -0.005877 -0.008812 0.007167 0.005616 0.013217 0.035431
#
#
# Mechanical properties :
#
#
# Convention : Reuss Voigt Hill
#
# Bulk Modulus (GPa) = 38.14799 47.00962 42.57880
# Shear Modulus (GPa) = 23.50688 30.25002 26.87845
#
# Velocity S-wave (km/s) = 3.28479 3.72626 3.51247
# Velocity P-wave (km/s) = 5.64772 6.33176 5.99949
#
# Compressibility (1/GPa) = 0.02621370
#
# Stress axis : x y z
#
# Youngs Moduli (GPa) = 91.05648 55.38433 50.71939
#
# Poissons Ratio (x) = 0.07786 0.25053
# Poissons Ratio (y) = 0.12802 0.24978
# Poissons Ratio (z) = 0.44978 0.27276
#
# Static dielectric constant tensor:
#      x y z
#    x 4.352860 0.118690 -0.169800 
#    y 0.118690 4.075540 0.195130 
#    z -0.169800 0.195130 3.890480 
# 
# 
# High freq. dielectric constant tensor:
#      x y z
#    x 1.860230 0.023870 -0.014880 
#    y 0.023870 1.854240 0.011740 
#    z -0.014880 0.011740 1.854110 
# 
# From -- ./inp_files/27862.got.cif
#   From: 2010.06.25/outbox.cif.g09.slc.cpg/sg2_14_cif.got.tgz:27862.got - 2010.06.27 13:26:56.
