data_PCOD8006207
_publ_section_title
;
Structure prediction by ZEFSAII (Michael W. Deem and Ramdas Pophale) SiO2 
 PCOD8006207
Probable space group: P -1
;
_chemical_formula_sum "Si O2"
_cell_formula_units_Z 16
_cell_length_a 7.266899
_cell_length_b 8.531140
_cell_length_c 13.579280
_cell_angle_alpha 99.604938
_cell_angle_beta 103.292283
_cell_angle_gamma 52.123552
_cell_volume 646.336365
_symmetry_space_group_name_H-M "P -1"
_symmetry_group_IT_number 2
_symmetry_cell_setting 'triclinic'
loop_
_space_group_symop_operation_xyz
x,y,z
-x,-y,-z
loop_
_atom_site_type_symbol
_atom_site_label
_atom_site_fract_x
_atom_site_fract_y
_atom_site_fract_z
Si Si1 0.396562 0.805116 0.994642
Si Si2 0.420332 0.023892 0.843875
Si Si3 0.058864 0.553593 0.197271
Si Si4 0.014437 0.313683 0.586785
Si Si5 0.542545 0.463142 0.263515
Si Si6 0.202445 0.594204 0.908920
Si Si7 0.675982 0.107722 0.364408
Si Si8 0.613771 0.652746 0.458168
O O1 0.418752 0.871304 0.897220
O O2 0.173568 0.792144 0.964156
O O3 0.630651 0.580637 0.011854
O O4 0.382033 0.946468 0.093429
O O5 0.470611 0.943553 0.729376
O O6 0.161325 0.232619 0.845935
O O7 0.053029 0.541977 0.313683
O O8 0.042101 0.383276 0.129257
O O9 0.304626 0.509435 0.192901
O O10 0.243088 0.268973 0.556172
O O11 0.789501 0.428444 0.499547
O O12 0.070718 0.103253 0.603847
O O13 0.684798 0.468514 0.192786
O O14 0.704798 0.252223 0.318806
O O15 0.471880 0.637736 0.351023
O O16 0.553692 0.197516 0.462385
#
# Coordination Sequence:
#
# PCOD8006207 Si02
#       8
#     2   2   2   2   2   2   2   2
#     4   9  18  38  67  88 122 167 211 261 327 378
#     4   9  19  38  65  93 123 166 209 267 320 374
#     4  10  21  40  62  91 133 163 209 263 315 377
#     4  10  22  41  64  91 131 174 210 267 310 376
#     4  12  23  40  64  96 130 170 212 260 316 385
#     4  10  20  39  66  93 121 171 209 259 328 376
#     4  11  22  38  64  97 129 169 214 260 321 377
#     4  11  23  42  64  94 132 171 217 257 317 384
#
# _framework density 24.754912000000001
#
# number of rings (size 3 to 8) (size 9 to 14) (size 15 to 20)
#    0.000    1.750    3.750    0.750    0.000    0.500 
#    2.250    7.500    0.000    0.000    0.000    0.000 
#    0.000    0.000    0.000    0.000    0.000    0.000 
#
# Total GULP energy -198302.164925 kJ/mol
# GULP energy per Si atom -12393.885308 kJ/mol
# Density = 2.469857 g / cm^3
# Si number density = 24.754912 Si / 1000 Ang^3
#
#
#
# Elastic Constant Matrix: (Units=GPa)
#
#
# Indices 1 2 3 4 5 6 
#
# 1 66.1869 16.7002 26.7396 3.1604 30.2864 14.2455
# 2 16.7002 84.9572 36.6630 7.6907 8.3249 22.7010
# 3 26.7396 36.6630 112.5712 13.1253 11.3897 14.4587
# 4 3.1604 7.6907 13.1253 41.3658 12.1599 0.4059
# 5 30.2864 8.3249 11.3897 12.1599 41.5724 6.3571
# 6 14.2455 22.7010 14.4587 0.4059 6.3571 19.7832
#
#
#
# Elastic Compliance Matrix: (Units=1/GPa)
#
#
# Indices 1 2 3 4 5 6 
#
# 1 0.027271 0.000932 -0.003897 0.004528 -0.018474 -0.012015
# 2 0.000932 0.018438 -0.003507 -0.002256 0.000198 -0.019283
# 3 -0.003897 -0.003507 0.011403 -0.003129 0.001633 -0.001964
# 4 0.004528 -0.002256 -0.003129 0.028431 -0.011004 0.004567
# 5 -0.018474 0.000198 0.001633 -0.011004 0.040377 -0.000867
# 6 -0.012015 -0.019283 -0.001964 0.004567 -0.000867 0.082947
#
#
# Mechanical properties :
#
#
# Convention : Reuss Voigt Hill
#
# Bulk Modulus (GPa) = 22.64055 47.10231 34.87143
# Shear Modulus (GPa) = 21.13856 32.78510 26.96183
#
# Velocity S-wave (km/s) = 2.92535 3.64316 3.30381
# Velocity P-wave (km/s) = 4.53607 6.06346 5.35451
#
# Compressibility (1/GPa) = 0.04416854
#
# Stress axis : x y z
#
# Youngs Moduli (GPa) = 36.66867 54.23570 87.69638
#
# Poissons Ratio (x) = -0.05054 0.34175
# Poissons Ratio (y) = -0.03417 0.30753
# Poissons Ratio (z) = 0.14290 0.19019
#
# Static dielectric constant tensor:
#      x y z
#    x 4.151670 0.397720 0.321370 
#    y 0.397720 4.511700 -0.027680 
#    z 0.321370 -0.027680 4.830560 
# 
# 
# High freq. dielectric constant tensor:
#      x y z
#    x 1.952440 0.026810 0.012550 
#    y 0.026810 1.980080 0.000390 
#    z 0.012550 0.000390 2.012640 
# 
# From -- ./inp_files/495248.got.cif
#   From: 2010.06.25/outbox.cif.g09.slc.cpg/sg2_248_cif.got.tgz:495248.got - 2010.06.27 13:26:56.
