data_PCOD8006087
_publ_section_title
;
Structure prediction by ZEFSAII (Michael W. Deem and Ramdas Pophale) SiO2 
 PCOD8006087
Probable space group: P -1
;
_chemical_formula_sum "Si O2"
_cell_formula_units_Z 16
_cell_length_a 8.977915
_cell_length_b 11.288629
_cell_length_c 22.766246
_cell_angle_alpha 31.604081
_cell_angle_beta 138.671034
_cell_angle_gamma 124.871001
_cell_volume 783.008859
_symmetry_space_group_name_H-M "P -1"
_symmetry_group_IT_number 2
_symmetry_cell_setting 'triclinic'
loop_
_space_group_symop_operation_xyz
x,y,z
-x,-y,-z
loop_
_atom_site_type_symbol
_atom_site_label
_atom_site_fract_x
_atom_site_fract_y
_atom_site_fract_z
Si Si1 0.786298 0.115869 0.167190
Si Si2 0.468225 0.270260 0.366720
Si Si3 0.825400 0.378705 0.782491
Si Si4 0.290958 0.076067 0.028014
Si Si5 0.230491 0.560416 0.389574
Si Si6 0.066566 0.478277 0.095106
Si Si7 0.081921 0.977537 0.889248
Si Si8 0.977780 0.336081 0.509018
O O1 0.890060 0.329976 0.131944
O O2 0.822547 0.052319 0.135802
O O3 0.513676 0.176722 0.067630
O O4 0.903840 0.916132 0.329874
O O5 0.271613 0.409013 0.293378
O O6 0.335178 0.341093 0.235946
O O7 0.708356 0.353587 0.406750
O O8 0.500000 0.000000 0.500000
O O9 0.826346 0.495423 0.670043
O O10 0.085270 0.245605 0.929051
O O11 0.670103 0.182287 0.823884
O O12 0.250264 0.066493 0.948932
O O13 0.500000 0.500000 0.500000
O O14 0.152221 0.832983 0.264348
O O15 0.103194 0.409363 0.458124
O O16 0.000000 0.500000 0.000000
O O17 0.036483 0.735576 0.004753
O O18 0.000000 0.500000 0.500000
#
# Coordination Sequence:
#
# PCOD8006087 Si02
#       8
#     2   2   2   2   2   2   2   2
#     4  11  21  38  63 100 128 167 230 274 323 402
#     4  12  24  46  70  92 140 179 225 277 331 412
#     4  10  23  39  64  94 129 177 213 273 350 386
#     4  10  20  39  65  91 131 167 218 279 339 391
#     4  11  23  39  62  99 138 169 219 283 339 397
#     4  10  23  40  62  96 131 171 220 274 337 384
#     4  10  21  37  65  95 128 175 217 278 337 386
#     4  12  24  40  69 101 130 179 229 271 332 398
#
# _framework density 20.433994999999999
#
# number of rings (size 3 to 8) (size 9 to 14) (size 15 to 20)
#    0.000    1.250    3.750    2.625    0.000    4.000 
#    0.000    2.500    0.000    0.000    0.000    0.000 
#    0.000    0.000    0.000    0.000    0.000    0.000 
#
# Total GULP energy -198276.244824 kJ/mol
# GULP energy per Si atom -12392.265301 kJ/mol
# Density = 2.038749 g / cm^3
# Si number density = 20.433995 Si / 1000 Ang^3
#
#
#
# Elastic Constant Matrix: (Units=GPa)
#
#
# Indices 1 2 3 4 5 6 
#
# 1 97.3196 36.8945 55.5359 3.4001 2.8672 11.0588
# 2 36.8945 113.8846 71.0729 10.1879 14.4142 31.3790
# 3 55.5359 71.0729 154.9771 -8.2634 0.4264 17.1532
# 4 3.4001 10.1879 -8.2634 41.8311 -1.3868 2.9573
# 5 2.8672 14.4142 0.4264 -1.3868 39.0119 4.7388
# 6 11.0588 31.3790 17.1532 2.9573 4.7388 34.5378
#
#
#
# Elastic Compliance Matrix: (Units=1/GPa)
#
#
# Indices 1 2 3 4 5 6 
#
# 1 0.013301 -0.001293 -0.004163 -0.001544 -0.000409 -0.000828
# 2 -0.001293 0.017392 -0.006534 -0.004810 -0.005090 -0.011031
# 3 -0.004163 -0.006534 0.011034 0.004120 0.002615 0.001078
# 4 -0.001544 -0.004810 0.004120 0.026093 0.002748 0.000207
# 5 -0.000409 -0.005090 0.002615 0.002748 0.027683 -0.000577
# 6 -0.000828 -0.011031 0.001078 0.000207 -0.000577 0.038768
#
#
# Mechanical properties :
#
#
# Convention : Reuss Voigt Hill
#
# Bulk Modulus (GPa) = 56.34764 77.02089 66.68427
# Shear Modulus (GPa) = 30.45688 36.58803 33.52245
#
# Velocity S-wave (km/s) = 3.86489 4.23608 4.05473
# Velocity P-wave (km/s) = 6.89578 7.85494 7.39094
#
# Compressibility (1/GPa) = 0.01774697
#
# Stress axis : x y z
#
# Youngs Moduli (GPa) = 75.18008 57.49931 90.62856
#
# Poissons Ratio (x) = 0.07435 0.37729
# Poissons Ratio (y) = 0.09721 0.59216
# Poissons Ratio (z) = 0.31298 0.37570
#
# Static dielectric constant tensor:
#      x y z
#    x 3.811020 0.383500 -0.333060 
#    y 0.383500 0.350290 2.328980 
#    z -0.333060 2.328980 2.595510 
# 
# 
# High freq. dielectric constant tensor:
#      x y z
#    x 1.787800 -0.000100 -0.008380 
#    y -0.000100 1.789540 0.007310 
#    z -0.008380 0.007310 1.824400 
# 
# From -- ./inp_files/207387.got.cif
#   From: 2010.06.25/outbox.cif.g09.slc.cpg/sg2_104_cif.got.tgz:207387.got - 2010.06.27 13:26:56.
