data_PCOD8006256
_publ_section_title
;
Structure prediction by ZEFSAII (Michael W. Deem and Ramdas Pophale) SiO2 
 PCOD8006256
Probable space group: P -1
;
_chemical_formula_sum "Si O2"
_cell_formula_units_Z 14
_cell_length_a 9.022222
_cell_length_b 9.002319
_cell_length_c 12.158699
_cell_angle_alpha 99.669570
_cell_angle_beta 132.504820
_cell_angle_gamma 64.769507
_cell_volume 647.824437
_symmetry_space_group_name_H-M "P -1"
_symmetry_group_IT_number 2
_symmetry_cell_setting 'triclinic'
loop_
_space_group_symop_operation_xyz
x,y,z
-x,-y,-z
loop_
_atom_site_type_symbol
_atom_site_label
_atom_site_fract_x
_atom_site_fract_y
_atom_site_fract_z
Si Si1 0.044608 0.001715 0.357418
Si Si2 0.263001 0.151380 0.909946
Si Si3 0.140338 0.255274 0.321094
Si Si4 0.202056 0.325141 0.111435
Si Si5 0.751000 0.566058 0.423789
Si Si6 0.674557 0.557118 0.147334
Si Si7 0.693069 0.252596 0.372629
O O1 0.255172 0.883316 0.521826
O O2 0.925815 0.888146 0.245093
O O3 0.147258 0.072301 0.320998
O O4 0.868199 0.163282 0.352487
O O5 0.280059 0.309523 0.884141
O O6 0.190639 0.187940 0.005558
O O7 0.500000 0.000000 0.000000
O O8 0.199033 0.269075 0.227023
O O9 0.306672 0.287682 0.495041
O O10 0.897605 0.391245 0.243988
O O11 0.441899 0.323669 0.210782
O O12 0.000000 0.500000 0.000000
O O13 0.600040 0.626596 0.243952
O O14 0.722189 0.413824 0.449465
O O15 0.000000 0.500000 0.500000
O O16 0.500000 0.500000 0.000000
#
# Coordination Sequence:
#
# PCOD8006256 Si02
#       7
#     2   2   2   2   2   2   2
#     4  11  23  42  71 100 138 178 238 286 343 414
#     4  12  24  43  70 101 137 186 231 282 351 414
#     4  11  24  42  66  99 142 180 227 285 348 412
#     4  12  27  46  68 100 147 181 229 292 353 413
#     4  10  20  39  67 100 130 174 236 277 335 408
#     4  11  21  39  68 103 133 181 236 284 330 416
#     4  11  23  42  70 102 134 183 230 289 343 415
#
# _framework density 21.610793000000001
#
# number of rings (size 3 to 8) (size 9 to 14) (size 15 to 20)
#    0.000    0.857    5.714    3.429    2.000    1.714 
#    0.000    0.000    0.000    0.000    0.000    0.000 
#    0.000    0.000    0.000    0.000    0.000    0.000 
#
# Total GULP energy -173530.784789 kJ/mol
# GULP energy per Si atom -12395.056056 kJ/mol
# Density = 2.156161 g / cm^3
# Si number density = 21.610793 Si / 1000 Ang^3
#
#
#
# Elastic Constant Matrix: (Units=GPa)
#
#
# Indices 1 2 3 4 5 6 
#
# 1 62.4001 43.3389 40.5315 2.3893 -26.6572 18.3768
# 2 43.3389 98.1330 51.8897 15.2775 -4.1358 21.3763
# 3 40.5315 51.8897 129.2242 13.5449 -11.5902 2.0931
# 4 2.3893 15.2775 13.5449 40.3015 -5.4743 2.1102
# 5 -26.6572 -4.1358 -11.5902 -5.4743 48.4915 1.0749
# 6 18.3768 21.3763 2.0931 2.1102 1.0749 46.2053
#
#
#
# Elastic Compliance Matrix: (Units=1/GPa)
#
#
# Indices 1 2 3 4 5 6 
#
# 1 0.040924 -0.012555 -0.006568 0.007970 0.021001 -0.011023
# 2 -0.012555 0.018990 -0.003613 -0.005990 -0.006751 -0.003198
# 3 -0.006568 -0.003613 0.011302 -0.002459 -0.001582 0.003921
# 4 0.007970 -0.005990 -0.002459 0.028415 0.006529 -0.001737
# 5 0.021001 -0.006751 -0.001582 0.006529 0.032088 -0.006202
# 6 -0.011023 -0.003198 0.003921 -0.001737 -0.006202 0.027552
#
#
# Mechanical properties :
#
#
# Convention : Reuss Voigt Hill
#
# Bulk Modulus (GPa) = 38.84496 62.36416 50.60456
# Shear Modulus (GPa) = 23.43837 37.26613 30.35225
#
# Velocity S-wave (km/s) = 3.29685 4.15712 3.75172
# Velocity P-wave (km/s) = 5.70141 7.20852 6.49880
#
# Compressibility (1/GPa) = 0.02574336
#
# Stress axis : x y z
#
# Youngs Moduli (GPa) = 24.43542 52.65841 88.48126
#
# Poissons Ratio (x) = 0.66115 0.58112
# Poissons Ratio (y) = 0.30680 0.31972
# Poissons Ratio (z) = 0.16048 0.19028
#
# Static dielectric constant tensor:
#      x y z
#    x 3.930010 0.263590 -0.147280 
#    y 0.263590 4.514730 0.497790 
#    z -0.147280 0.497790 4.558010 
# 
# 
# High freq. dielectric constant tensor:
#      x y z
#    x 1.837210 0.016550 -0.009470 
#    y 0.016550 1.843600 0.007670 
#    z -0.009470 0.007670 1.866170 
# 
# From -- ./inp_files/156924.got.cif
#   From: 2010.06.25/outbox.cif.g09.slc.cpg/sg2_79_cif.got.tgz:156924.got - 2010.06.27 13:26:56.
