data_PCOD8006504
_publ_section_title
;
Structure prediction by ZEFSAII (Michael W. Deem and Ramdas Pophale) SiO2 
 PCOD8006504
Probable space group: P -1
;
_chemical_formula_sum "Si O2"
_cell_formula_units_Z 14
_cell_length_a 9.060874
_cell_length_b 9.981353
_cell_length_c 14.066235
_cell_angle_alpha 44.719128
_cell_angle_beta 80.523759
_cell_angle_gamma 60.064309
_cell_volume 737.101830
_symmetry_space_group_name_H-M "P -1"
_symmetry_group_IT_number 2
_symmetry_cell_setting 'triclinic'
loop_
_space_group_symop_operation_xyz
x,y,z
-x,-y,-z
loop_
_atom_site_type_symbol
_atom_site_label
_atom_site_fract_x
_atom_site_fract_y
_atom_site_fract_z
Si Si1 0.857961 0.942458 0.571853
Si Si2 0.081373 0.137874 0.023913
Si Si3 0.152043 0.048038 0.855562
Si Si4 0.888629 0.513386 0.713663
Si Si5 0.514753 0.269894 0.138681
Si Si6 0.492108 0.783175 0.619329
Si Si7 0.171320 0.260451 0.132676
O O1 0.887919 0.742749 0.597587
O O2 0.873116 0.861581 0.719167
O O3 0.662201 0.177321 0.457201
O O4 0.000000 0.000000 0.500000
O O5 0.216240 0.110903 0.106387
O O6 0.193280 0.987449 0.995106
O O7 0.958749 0.053999 0.120546
O O8 0.946569 0.403057 0.869786
O O9 0.030306 0.325813 0.717343
O O10 0.334760 0.942403 0.832244
O O11 0.691089 0.564262 0.685649
O O12 0.570552 0.226079 0.263993
O O13 0.332279 0.284242 0.133259
O O14 0.500000 0.500000 0.000000
O O15 0.500000 0.000000 0.500000
O O16 0.000000 0.500000 0.000000
#
# Coordination Sequence:
#
# PCOD8006504 Si02
#       7
#     2   2   2   2   2   2   2
#     4  11  24  38  62  92 124 164 205 252 306 359
#     4   9  19  36  63  88 122 155 200 255 311 345
#     4   9  20  38  61  94 120 157 207 250 310 364
#     4   9  17  41  62  82 121 165 195 245 310 349
#     4  12  24  36  67  99 114 161 213 248 307 363
#     4  10  20  40  59  84 123 162 199 245 300 364
#     4  12  21  39  61  90 126 155 204 265 298 358
#
# _framework density 18.993303000000001
#
# number of rings (size 3 to 8) (size 9 to 14) (size 15 to 20)
#    0.857    0.857    4.286    1.714    4.000    0.571 
#    0.000    4.286    0.000    1.714    0.000    0.000 
#    0.000    0.000    0.000    0.000    0.000    0.000 
#
# Total GULP energy -173458.366325 kJ/mol
# GULP energy per Si atom -12389.883309 kJ/mol
# Density = 1.895007 g / cm^3
# Si number density = 18.993303 Si / 1000 Ang^3
#
#
#
# Elastic Constant Matrix: (Units=GPa)
#
#
# Indices 1 2 3 4 5 6 
#
# 1 102.1238 32.2867 46.1296 -1.6765 -1.0878 -7.9438
# 2 32.2867 94.8757 35.8154 -5.4944 3.4823 -19.7116
# 3 46.1296 35.8154 111.1697 6.1382 4.2281 -7.7588
# 4 -1.6765 -5.4944 6.1382 25.0095 0.0366 2.4167
# 5 -1.0878 3.4823 4.2281 0.0366 35.4779 -0.5270
# 6 -7.9438 -19.7116 -7.7588 2.4167 -0.5270 34.5948
#
#
#
# Elastic Compliance Matrix: (Units=1/GPa)
#
#
# Indices 1 2 3 4 5 6 
#
# 1 0.012705 -0.002479 -0.004567 0.001387 0.001182 0.000402
# 2 -0.002479 0.014175 -0.003214 0.003105 -0.000990 0.006555
# 3 -0.004567 -0.003214 0.012204 -0.004017 -0.001273 0.000118
# 4 0.001387 0.003105 -0.004017 0.041914 0.000147 -0.001739
# 5 0.001182 -0.000990 -0.001273 0.000147 0.028469 -0.000155
# 6 0.000402 0.006555 0.000118 -0.001739 -0.000155 0.032879
#
#
# Mechanical properties :
#
#
# Convention : Reuss Voigt Hill
#
# Bulk Modulus (GPa) = 53.86800 59.62584 56.74692
# Shear Modulus (GPa) = 29.57612 31.94561 30.76086
#
# Velocity S-wave (km/s) = 3.95040 4.10560 4.02875
# Velocity P-wave (km/s) = 7.01646 7.34410 7.18215
#
# Compressibility (1/GPa) = 0.01856390
#
# Stress axis : x y z
#
# Youngs Moduli (GPa) = 78.70722 70.54573 81.93844
#
# Poissons Ratio (x) = 0.17491 0.37420
# Poissons Ratio (y) = 0.19514 0.26338
# Poissons Ratio (z) = 0.35944 0.22676
#
# Static dielectric constant tensor:
#      x y z
#    x 3.137610 -0.237040 -0.454250 
#    y -0.237040 3.512330 -0.293680 
#    z -0.454250 -0.293680 2.552510 
# 
# 
# High freq. dielectric constant tensor:
#      x y z
#    x 1.730660 -0.001400 0.002010 
#    y -0.001400 1.723960 -0.003000 
#    z 0.002010 -0.003000 1.736320 
# 
# From -- ./inp_files/498753.got.cif
#   From: 2010.06.25/outbox.cif.g09.slc.cpg/sg2_250_cif.got.tgz:498753.got - 2010.06.27 13:26:56.
