data_PCOD8006608
_publ_section_title
;
Structure prediction by ZEFSAII (Michael W. Deem and Ramdas Pophale) SiO2 
 PCOD8006608
Probable space group: P -1
;
_chemical_formula_sum "Si O2"
_cell_formula_units_Z 16
_cell_length_a 18.275281
_cell_length_b 11.937657
_cell_length_c 8.612845
_cell_angle_alpha 32.932388
_cell_angle_beta 64.418405
_cell_angle_gamma 48.154131
_cell_volume 721.883996
_symmetry_space_group_name_H-M "P -1"
_symmetry_group_IT_number 2
_symmetry_cell_setting 'triclinic'
loop_
_space_group_symop_operation_xyz
x,y,z
-x,-y,-z
loop_
_atom_site_type_symbol
_atom_site_label
_atom_site_fract_x
_atom_site_fract_y
_atom_site_fract_z
Si Si1 0.576485 0.003224 0.751328
Si Si2 0.144975 0.094885 0.282308
Si Si3 0.269412 0.984944 0.574292
Si Si4 0.182670 0.828538 0.256760
Si Si5 0.933002 0.753073 0.371804
Si Si6 0.615023 0.395303 0.820956
Si Si7 0.458648 0.781511 0.146855
Si Si8 0.947109 0.327051 0.340454
O O1 0.673643 0.896553 0.674504
O O2 0.484492 0.302451 0.434601
O O3 0.606430 0.007587 0.899209
O O4 0.546961 0.808969 0.985995
O O5 0.042418 0.116313 0.383491
O O6 0.234052 0.907338 0.546219
O O7 0.186779 0.006581 0.172252
O O8 0.109599 0.383795 0.010122
O O9 0.169059 0.201741 0.518536
O O10 0.349360 0.714377 0.909926
O O11 0.297519 0.609538 0.342495
O O12 0.142957 0.698635 0.542486
O O13 0.105426 0.998079 0.989003
O O14 0.000000 0.500000 0.500000
O O15 0.006666 0.719381 0.476599
O O16 0.603310 0.189836 0.983900
O O17 0.500000 0.500000 0.500000
#
# Coordination Sequence:
#
# PCOD8006608 Si02
#       8
#     2   2   2   2   2   2   2   2
#     4  10  20  40  64  87 121 156 196 245 297 353
#     4  10  21  38  57  85 122 154 196 254 293 346
#     4  10  22  38  61  87 122 159 199 244 299 353
#     4  11  21  36  63  86 116 158 201 239 301 358
#     4  10  20  40  62  87 119 156 195 253 299 347
#     4  10  22  38  58  90 120 158 197 242 293 355
#     4   9  20  38  65  87 118 155 197 245 297 347
#     4  10  21  37  61  85 117 156 199 245 303 355
#
# _framework density 22.164225999999999
#
# number of rings (size 3 to 8) (size 9 to 14) (size 15 to 20)
#    0.000    2.000    1.250    1.875    0.000    4.500 
#    0.000    1.250   11.000    0.000    0.000    0.000 
#    0.000    0.000    0.000    0.000    0.000    0.000 
#
# Total GULP energy -198300.342226 kJ/mol
# GULP energy per Si atom -12393.771389 kJ/mol
# Density = 2.211378 g / cm^3
# Si number density = 22.164226 Si / 1000 Ang^3
#
#
#
# Elastic Constant Matrix: (Units=GPa)
#
#
# Indices 1 2 3 4 5 6 
#
# 1 87.1365 15.7344 45.4743 7.3530 -0.5136 -4.6756
# 2 15.7344 82.3675 24.3137 19.3503 -6.7697 -15.4845
# 3 45.4743 24.3137 76.4363 18.9214 -11.8261 -4.3929
# 4 7.3530 19.3503 18.9214 33.0265 -5.1062 -4.9000
# 5 -0.5136 -6.7697 -11.8261 -5.1062 47.6499 20.5940
# 6 -4.6756 -15.4845 -4.3929 -4.9000 20.5940 33.0163
#
#
#
# Elastic Compliance Matrix: (Units=1/GPa)
#
#
# Indices 1 2 3 4 5 6 
#
# 1 0.017384 -0.000235 -0.011338 0.002700 -0.003982 0.003727
# 2 -0.000235 0.015932 -0.003226 -0.006699 -0.002543 0.007601
# 3 -0.011338 -0.003226 0.023809 -0.008999 0.006736 -0.005488
# 4 0.002700 -0.006699 -0.008999 0.039051 0.000320 0.001639
# 5 -0.003982 -0.002543 0.006736 0.000320 0.030995 -0.020146
# 6 0.003727 0.007601 -0.005488 0.001639 -0.020146 0.046460
#
#
# Mechanical properties :
#
#
# Convention : Reuss Voigt Hill
#
# Bulk Modulus (GPa) = 36.32872 46.33169 41.33021
# Shear Modulus (GPa) = 23.53995 33.43305 28.48650
#
# Velocity S-wave (km/s) = 3.26248 3.88806 3.58892
# Velocity P-wave (km/s) = 5.53335 6.41133 5.98845
#
# Compressibility (1/GPa) = 0.02752643
#
# Stress axis : x y z
#
# Youngs Moduli (GPa) = 57.52297 62.76779 42.00149
#
# Poissons Ratio (x) = 0.01475 0.47621
# Poissons Ratio (y) = 0.01352 0.13551
# Poissons Ratio (z) = 0.65220 0.20250
#
# Static dielectric constant tensor:
#      x y z
#    x 4.377660 0.067990 0.143580 
#    y 0.067990 4.063820 0.337250 
#    z 0.143580 0.337250 3.859470 
# 
# 
# High freq. dielectric constant tensor:
#      x y z
#    x 1.874270 -0.009450 0.011650 
#    y -0.009450 1.868240 0.027610 
#    z 0.011650 0.027610 1.859890 
# 
# From -- ./inp_files/332642.got.cif
#   From: 2010.06.25/outbox.cif.g09.slc.cpg/sg2_167_cif.got.tgz:332642.got - 2010.06.27 13:26:56.
