data_PCOD8006473
_publ_section_title
;
Structure prediction by ZEFSAII (Michael W. Deem and Ramdas Pophale) SiO2 
 PCOD8006473
Probable space group: P -1
;
_chemical_formula_sum "Si O2"
_cell_formula_units_Z 12
_cell_length_a 8.949305
_cell_length_b 13.538501
_cell_length_c 16.369132
_cell_angle_alpha 25.019348
_cell_angle_beta 140.493721
_cell_angle_gamma 128.258439
_cell_volume 509.499283
_symmetry_space_group_name_H-M "P -1"
_symmetry_group_IT_number 2
_symmetry_cell_setting 'triclinic'
loop_
_space_group_symop_operation_xyz
x,y,z
-x,-y,-z
loop_
_atom_site_type_symbol
_atom_site_label
_atom_site_fract_x
_atom_site_fract_y
_atom_site_fract_z
Si Si1 0.260304 0.536390 0.102757
Si Si2 0.428651 0.247765 0.039025
Si Si3 0.585346 0.013023 0.617859
Si Si4 0.266706 0.841356 0.202229
Si Si5 0.077842 0.453080 0.474226
Si Si6 0.157692 0.913757 0.921418
O O1 0.449095 0.277136 0.400194
O O2 0.354145 0.650201 0.977729
O O3 0.000000 0.500000 0.000000
O O4 0.251109 0.713798 0.041412
O O5 0.467777 0.200011 0.188923
O O6 0.455756 0.980515 0.210737
O O7 0.163827 0.442327 0.762621
O O8 0.500000 0.000000 0.500000
O O9 0.870467 0.977187 0.768774
O O10 0.293661 0.574251 0.452106
O O11 0.296751 0.813950 0.138367
O O12 0.000000 0.000000 0.000000
O O13 0.000000 0.500000 0.500000
O O14 0.206739 0.166749 0.726321
#
# Coordination Sequence:
#
# PCOD8006473 Si02
#       6
#     2   2   2   2   2   2
#     4  12  29  47  67 106 144 186 248 292 342 422
#     4  11  24  44  74 105 139 189 238 283 366 420
#     4  12  25  49  74  96 143 194 239 292 346 419
#     4  10  20  39  73 108 136 181 235 281 361 429
#     4  11  19  39  76 103 141 180 224 285 356 426
#     4  12  23  45  73 107 143 184 230 297 355 418
#
# _framework density 23.552536
#
# number of rings (size 3 to 8) (size 9 to 14) (size 15 to 20)
#    0.000    0.667   10.000    0.000    0.000    3.333 
#    3.000    1.667    0.000    0.000    0.000    0.000 
#    0.000    0.000    0.000    0.000    0.000    0.000 
#
# Total GULP energy -148798.228426 kJ/mol
# GULP energy per Si atom -12399.852369 kJ/mol
# Density = 2.349893 g / cm^3
# Si number density = 23.552536 Si / 1000 Ang^3
#
#
#
# Elastic Constant Matrix: (Units=GPa)
#
#
# Indices 1 2 3 4 5 6 
#
# 1 64.5305 8.4239 51.7726 3.2247 -24.8734 -1.3394
# 2 8.4239 78.1147 27.5627 -1.8688 -18.8318 -20.9531
# 3 51.7726 27.5627 114.6951 -14.3597 -31.4226 -23.4686
# 4 3.2247 -1.8688 -14.3597 46.4041 -8.1539 -5.5056
# 5 -24.8734 -18.8318 -31.4226 -8.1539 52.4468 -6.2326
# 6 -1.3394 -20.9531 -23.4686 -5.5056 -6.2326 54.6358
#
#
#
# Elastic Compliance Matrix: (Units=1/GPa)
#
#
# Indices 1 2 3 4 5 6 
#
# 1 0.027962 0.001352 -0.013504 -0.005892 0.004180 -0.004713
# 2 0.001352 0.016713 -0.000824 0.002474 0.007386 0.007181
# 3 -0.013504 -0.000824 0.020665 0.009994 0.008447 0.010200
# 4 -0.005892 0.002474 0.009994 0.027885 0.009485 0.008989
# 5 0.004180 0.007386 0.008447 0.009485 0.031558 0.011119
# 6 -0.004713 0.007181 0.010200 0.008989 0.011119 0.027497
#
#
# Mechanical properties :
#
#
# Convention : Reuss Voigt Hill
#
# Bulk Modulus (GPa) = 25.38860 48.09541 36.74201
# Shear Modulus (GPa) = 26.12876 42.00274 34.06575
#
# Velocity S-wave (km/s) = 3.33435 4.22757 3.80725
# Velocity P-wave (km/s) = 5.06230 6.65542 5.91276
#
# Compressibility (1/GPa) = 0.03938775
#
# Stress axis : x y z
#
# Youngs Moduli (GPa) = 35.76315 59.83534 48.39152
#
# Poissons Ratio (x) = -0.08088 0.65346
# Poissons Ratio (y) = -0.04834 0.03986
# Poissons Ratio (z) = 0.48293 0.04929
#
# Static dielectric constant tensor:
#      x y z
#    x 4.405340 0.132590 -0.668870 
#    y 0.132590 4.420500 -0.269760 
#    z -0.668870 -0.269760 5.452020 
# 
# 
# High freq. dielectric constant tensor:
#      x y z
#    x 1.934510 -0.000590 -0.018370 
#    y -0.000590 1.928900 -0.009840 
#    z -0.018370 -0.009840 1.940100 
# 
# From -- ./inp_files/197132.got.cif
#   From: 2010.06.25/outbox.cif.g09.slc.cpg/sg2_99_cif.got.tgz:197132.got - 2010.06.27 13:26:56.
