data_PCOD8006029
_publ_section_title
;
Structure prediction by ZEFSAII (Michael W. Deem and Ramdas Pophale) SiO2 
 PCOD8006029
Probable space group: P -1
;
_chemical_formula_sum "Si O2"
_cell_formula_units_Z 16
_cell_length_a 23.875565
_cell_length_b 12.194306
_cell_length_c 9.119691
_cell_angle_alpha 130.250050
_cell_angle_beta 37.454456
_cell_angle_gamma 150.737135
_cell_volume 779.607876
_symmetry_space_group_name_H-M "P -1"
_symmetry_group_IT_number 2
_symmetry_cell_setting 'triclinic'
loop_
_space_group_symop_operation_xyz
x,y,z
-x,-y,-z
loop_
_atom_site_type_symbol
_atom_site_label
_atom_site_fract_x
_atom_site_fract_y
_atom_site_fract_z
Si Si1 0.052383 0.928296 0.913773
Si Si2 0.835501 0.423059 0.207360
Si Si3 0.953756 0.092759 0.751454
Si Si4 0.686098 0.951133 0.185518
Si Si5 0.573128 0.983006 0.947807
Si Si6 0.547626 0.202334 0.648149
Si Si7 0.891278 0.458561 0.790415
Si Si8 0.378097 0.231613 0.523233
O O1 0.949701 0.687840 0.842725
O O2 0.223382 0.110021 0.694713
O O3 0.019237 0.903289 0.131441
O O4 0.000000 0.000000 0.000000
O O5 0.773661 0.208507 0.234563
O O6 0.717408 0.412222 0.431497
O O7 0.957938 0.652414 0.248731
O O8 0.895832 0.436133 0.937455
O O9 0.787793 0.936464 0.921100
O O10 0.000000 0.000000 0.500000
O O11 0.553514 0.793695 0.207057
O O12 0.621193 0.847896 0.391486
O O13 0.727321 0.238668 0.888772
O O14 0.586251 0.840525 0.735517
O O15 0.500000 0.000000 0.000000
O O16 0.470698 0.835144 0.172764
O O17 0.500000 0.000000 0.500000
O O18 0.000000 0.500000 0.500000
O O19 0.500000 0.500000 0.500000
#
# Coordination Sequence:
#
# PCOD8006029 Si02
#       8
#     2   2   2   2   2   2   2   2
#     4  10  24  43  61  90 131 173 207 265 331 381
#     4  10  21  41  68  94 131 168 215 269 319 387
#     4  10  23  40  61  95 129 166 213 262 320 385
#     4  10  21  43  66  90 130 168 216 270 323 383
#     4  12  24  41  68  99 127 170 224 274 322 388
#     4  10  20  39  64  96 127 163 212 264 327 377
#     4  11  22  42  68  98 128 168 227 271 321 389
#     4  11  26  43  62  97 134 168 217 273 332 388
#
# _framework density 20.523136000000001
#
# number of rings (size 3 to 8) (size 9 to 14) (size 15 to 20)
#    0.000    1.500    3.750    1.875    1.750    5.000 
#    4.500    1.250    0.000    0.000    0.000    0.000 
#    0.000    0.000    0.000    0.000    0.000    0.000 
#
# Total GULP energy -198233.246176 kJ/mol
# GULP energy per Si atom -12389.577886 kJ/mol
# Density = 2.047642 g / cm^3
# Si number density = 20.523136 Si / 1000 Ang^3
#
#
#
# Elastic Constant Matrix: (Units=GPa)
#
#
# Indices 1 2 3 4 5 6 
#
# 1 116.7711 25.6949 48.4223 3.4328 -5.7264 -9.8557
# 2 25.6949 121.8928 44.7044 9.8451 4.5197 -7.1164
# 3 48.4223 44.7044 154.8902 8.6288 5.0557 -0.6036
# 4 3.4328 9.8451 8.6288 35.1414 0.1135 0.4432
# 5 -5.7264 4.5197 5.0557 0.1135 29.7467 -4.5586
# 6 -9.8557 -7.1164 -0.6036 0.4432 -4.5586 34.4258
#
#
#
# Elastic Compliance Matrix: (Units=1/GPa)
#
#
# Indices 1 2 3 4 5 6 
#
# 1 0.010486 -0.001013 -0.003075 -0.000035 0.003179 0.003160
# 2 -0.001013 0.009547 -0.002287 -0.002030 -0.001014 0.001535
# 3 -0.003075 -0.002287 0.008191 -0.001046 -0.001854 -0.001441
# 4 -0.000035 -0.002030 -0.001046 0.029295 0.000246 -0.000793
# 5 0.003179 -0.001014 -0.001854 0.000246 0.035520 0.005369
# 6 0.003160 0.001535 -0.001441 -0.000793 0.005369 0.030966
#
#
# Mechanical properties :
#
#
# Convention : Reuss Voigt Hill
#
# Bulk Modulus (GPa) = 64.62509 70.13304 67.37907
# Shear Modulus (GPa) = 35.23310 38.17827 36.70569
#
# Velocity S-wave (km/s) = 4.14786 4.31775 4.23366
# Velocity P-wave (km/s) = 7.38221 7.68792 7.53661
#
# Compressibility (1/GPa) = 0.01547387
#
# Stress axis : x y z
#
# Youngs Moduli (GPa) = 95.36933 104.74111 122.09013
#
# Poissons Ratio (x) = 0.10611 0.37544
# Poissons Ratio (y) = 0.09662 0.27918
# Poissons Ratio (z) = 0.29327 0.23951
#
# Static dielectric constant tensor:
#      x y z
#    x 3.584010 0.047390 -0.247010 
#    y 0.047390 3.694580 -0.303290 
#    z -0.247010 -0.303290 4.194650 
# 
# 
# High freq. dielectric constant tensor:
#      x y z
#    x 1.801600 0.005850 -0.006680 
#    y 0.005850 1.800530 -0.010550 
#    z -0.006680 -0.010550 1.816440 
# 
# From -- ./inp_files/353661.got.cif
#   From: 2010.06.25/outbox.cif.g09.slc.cpg/sg2_177_cif.got.tgz:353661.got - 2010.06.27 13:26:56.
