data_PCOD8006133
_publ_section_title
;
Structure prediction by ZEFSAII (Michael W. Deem and Ramdas Pophale) SiO2 
 PCOD8006133
Probable space group: P -1
;
_chemical_formula_sum "Si O2"
_cell_formula_units_Z 12
_cell_length_a 9.075995
_cell_length_b 8.228351
_cell_length_c 15.114402
_cell_angle_alpha 96.461552
_cell_angle_beta 137.881103
_cell_angle_gamma 56.990582
_cell_volume 542.861698
_symmetry_space_group_name_H-M "P -1"
_symmetry_group_IT_number 2
_symmetry_cell_setting 'triclinic'
loop_
_space_group_symop_operation_xyz
x,y,z
-x,-y,-z
loop_
_atom_site_type_symbol
_atom_site_label
_atom_site_fract_x
_atom_site_fract_y
_atom_site_fract_z
Si Si1 0.109778 0.050787 0.689673
Si Si2 0.253552 0.719034 0.964075
Si Si3 0.107901 0.522566 0.457919
Si Si4 0.704194 0.731647 0.133294
Si Si5 0.727113 0.581418 0.941806
Si Si6 0.318993 0.936765 0.381202
O O1 0.260936 0.088222 0.837102
O O2 0.963259 0.243291 0.560194
O O3 0.851432 0.065593 0.613776
O O4 0.398224 0.798561 0.766899
O O5 0.257085 0.625072 0.054901
O O6 0.918386 0.879402 0.785531
O O7 0.500000 0.500000 0.000000
O O8 0.367499 0.848526 0.024804
O O9 0.000000 0.500000 0.500000
O O10 0.933023 0.533999 0.296489
O O11 0.463144 0.305084 0.586354
O O12 0.791386 0.622380 0.069609
O O13 0.000000 0.500000 0.000000
O O14 0.500000 0.000000 0.500000
#
# Coordination Sequence:
#
# PCOD8006133 Si02
#       6
#     2   2   2   2   2   2
#     4  10  23  42  68  93 136 174 220 267 336 386
#     4  10  20  39  65  95 128 169 215 272 327 381
#     4  10  25  45  63  96 133 172 224 267 328 392
#     4   9  21  44  68  90 133 174 217 275 325 385
#     4  11  22  39  67 106 128 163 224 274 330 382
#     4  12  23  42  69  94 135 180 217 265 335 397
#
# _framework density 22.105077000000001
#
# number of rings (size 3 to 8) (size 9 to 14) (size 15 to 20)
#    1.000    0.667    3.333    3.000    2.333    0.000 
#    3.000    2.500    0.000    0.000    0.000    0.000 
#    0.000    0.000    0.000    0.000    0.000    0.000 
#
# Total GULP energy -148671.218087 kJ/mol
# GULP energy per Si atom -12389.268174 kJ/mol
# Density = 2.205476 g / cm^3
# Si number density = 22.105077 Si / 1000 Ang^3
#
#
#
# Elastic Constant Matrix: (Units=GPa)
#
#
# Indices 1 2 3 4 5 6 
#
# 1 163.4181 55.7104 58.1548 -21.3440 35.5591 29.8980
# 2 55.7104 69.1075 59.2669 -18.0439 8.4534 33.1811
# 3 58.1548 59.2669 149.0363 -24.4726 27.2149 15.9739
# 4 -21.3440 -18.0439 -24.4726 57.1903 7.4037 1.2057
# 5 35.5591 8.4534 27.2149 7.4037 45.8178 4.4662
# 6 29.8980 33.1811 15.9739 1.2057 4.4662 40.2683
#
#
#
# Elastic Compliance Matrix: (Units=1/GPa)
#
#
# Indices 1 2 3 4 5 6 
#
# 1 0.010496 -0.005937 0.000442 0.003268 -0.007614 -0.002329
# 2 -0.005937 0.044072 -0.012158 0.006377 0.005385 -0.027873
# 3 0.000442 -0.012158 0.012323 0.002306 -0.006322 0.005434
# 4 0.003268 0.006377 0.002306 0.022912 -0.007966 -0.008398
# 5 -0.007614 0.005385 -0.006322 -0.007966 0.031740 0.000442
# 6 -0.002329 -0.027873 0.005434 -0.008398 0.000442 0.047577
#
#
# Mechanical properties :
#
#
# Convention : Reuss Voigt Hill
#
# Bulk Modulus (GPa) = 31.66119 80.86958 56.26539
# Shear Modulus (GPa) = 23.26067 42.55059 32.90563
#
# Velocity S-wave (km/s) = 3.24740 4.39215 3.86242
# Velocity P-wave (km/s) = 5.33057 7.89841 6.73795
#
# Compressibility (1/GPa) = 0.03158441
#
# Stress axis : x y z
#
# Youngs Moduli (GPa) = 95.27724 22.68989 81.15049
#
# Poissons Ratio (x) = 0.13472 -0.03588
# Poissons Ratio (y) = 0.56570 0.98664
# Poissons Ratio (z) = -0.04213 0.27587
#
# Static dielectric constant tensor:
#      x y z
#    x 4.379570 0.933200 0.139190 
#    y 0.933200 4.421940 -0.022380 
#    z 0.139190 -0.022380 4.180020 
# 
# 
# High freq. dielectric constant tensor:
#      x y z
#    x 1.861160 0.039420 0.006690 
#    y 0.039420 1.857710 -0.012530 
#    z 0.006690 -0.012530 1.877940 
# 
# From -- ./inp_files/586220.got.cif
#   From: 2010.06.25/outbox.cif.g09.slc.cpg/sg2_294_cif.got.tgz:586220.got - 2010.06.27 13:26:56.
