data_PCOD8006095
_publ_section_title
;
Structure prediction by ZEFSAII (Michael W. Deem and Ramdas Pophale) SiO2 
 PCOD8006095
Probable space group: P -1
;
_chemical_formula_sum "Si O2"
_cell_formula_units_Z 14
_cell_length_a 9.371451
_cell_length_b 8.596350
_cell_length_c 26.008575
_cell_angle_alpha 139.756403
_cell_angle_beta 150.237298
_cell_angle_gamma 50.049389
_cell_volume 670.575150
_symmetry_space_group_name_H-M "P -1"
_symmetry_group_IT_number 2
_symmetry_cell_setting 'triclinic'
loop_
_space_group_symop_operation_xyz
x,y,z
-x,-y,-z
loop_
_atom_site_type_symbol
_atom_site_label
_atom_site_fract_x
_atom_site_fract_y
_atom_site_fract_z
Si Si1 0.878435 0.677262 0.303091
Si Si2 0.770963 0.440114 0.101741
Si Si3 0.247325 0.301965 0.363592
Si Si4 0.723925 0.436744 0.788521
Si Si5 0.136990 0.078728 0.009418
Si Si6 0.451305 0.002109 0.545284
Si Si7 0.288689 0.871572 0.199850
O O1 0.788170 0.598162 0.197917
O O2 0.616855 0.800954 0.278959
O O3 0.954464 0.442701 0.301630
O O4 0.149787 0.871323 0.434467
O O5 0.049128 0.505328 0.170951
O O6 0.727339 0.154935 0.031476
O O7 0.500000 0.500000 0.000000
O O8 0.500000 0.500000 0.500000
O O9 0.270948 0.122575 0.374470
O O10 0.291767 0.154018 0.287293
O O11 0.857285 0.287598 0.839640
O O12 0.457569 0.276691 0.638898
O O13 0.634297 0.693186 0.849516
O O14 0.891058 0.175454 0.919958
O O15 0.000000 0.000000 0.000000
O O16 0.500000 0.000000 0.500000
#
# Coordination Sequence:
#
# PCOD8006095 Si02
#       7
#     2   2   2   2   2   2   2
#     4  11  21  40  67  92 127 170 212 248 322 382
#     4  11  22  41  65  91 125 170 213 258 320 381
#     4   9  21  37  62  90 129 169 204 255 313 366
#     4  10  22  40  62  90 130 161 210 263 316 363
#     4  10  21  39  63  89 127 166 206 267 316 364
#     4  10  20  39  65  92 129 164 205 266 310 371
#     4  11  22  41  65  96 128 165 211 266 310 376
#
# _framework density 20.877600000000001
#
# number of rings (size 3 to 8) (size 9 to 14) (size 15 to 20)
#    0.000    1.714    2.857    2.143    0.000    5.143 
#    5.143    2.857    0.000    9.429    0.000    0.000 
#    0.000    0.000    0.000    0.000    0.000    0.000 
#
# Total GULP energy -173465.129452 kJ/mol
# GULP energy per Si atom -12390.366389 kJ/mol
# Density = 2.083008 g / cm^3
# Si number density = 20.877600 Si / 1000 Ang^3
#
#
#
# Elastic Constant Matrix: (Units=GPa)
#
#
# Indices 1 2 3 4 5 6 
#
# 1 58.2098 24.9840 23.0998 3.3746 -20.9649 10.1433
# 2 24.9840 114.6589 61.7141 7.0414 -7.0470 -6.7803
# 3 23.0998 61.7141 127.6052 24.6422 -28.9579 -2.5733
# 4 3.3746 7.0414 24.6422 46.7656 -0.3531 -6.6730
# 5 -20.9649 -7.0470 -28.9579 -0.3531 29.8571 -5.7074
# 6 10.1433 -6.7803 -2.5733 -6.6730 -5.7074 34.3129
#
#
#
# Elastic Compliance Matrix: (Units=1/GPa)
#
#
# Indices 1 2 3 4 5 6 
#
# 1 0.026994 -0.006594 0.003190 -0.003421 0.019207 -0.006514
# 2 -0.006594 0.013940 -0.007963 0.002979 -0.008399 0.003289
# 3 0.003190 -0.007963 0.016159 -0.007440 0.015925 -0.000103
# 4 -0.003421 0.002979 -0.007440 0.025724 -0.007700 0.004764
# 5 0.019207 -0.008399 0.015925 -0.007700 0.060825 0.002477
# 6 -0.006514 0.003289 -0.000103 0.004764 0.002477 0.033050
#
#
# Mechanical properties :
#
#
# Convention : Reuss Voigt Hill
#
# Bulk Modulus (GPa) = 29.10372 57.78551 43.44462
# Shear Modulus (GPa) = 23.71040 34.89887 29.30463
#
# Velocity S-wave (km/s) = 3.37365 4.09295 3.75058
# Velocity P-wave (km/s) = 5.39868 7.07634 6.29366
#
# Compressibility (1/GPa) = 0.03435987
#
# Stress axis : x y z
#
# Youngs Moduli (GPa) = 37.04486 71.73790 61.88467
#
# Poissons Ratio (x) = 0.47302 -0.19742
# Poissons Ratio (y) = 0.24427 0.49279
# Poissons Ratio (z) = -0.11818 0.57125
#
# Static dielectric constant tensor:
#      x y z
#    x 3.943030 0.290500 -0.165700 
#    y 0.290500 4.762420 0.547940 
#    z -0.165700 0.547940 4.206910 
# 
# 
# High freq. dielectric constant tensor:
#      x y z
#    x 1.803410 0.015660 -0.032240 
#    y 0.015660 1.822010 0.022620 
#    z -0.032240 0.022620 1.826410 
# 
# From -- ./inp_files/179601.got.cif
#   From: 2010.06.25/outbox.cif.g09.slc.cpg/sg2_90_cif.got.tgz:179601.got - 2010.06.27 13:26:56.
