data_PCOD8006181
_publ_section_title
;
Structure prediction by ZEFSAII (Michael W. Deem and Ramdas Pophale) SiO2 
 PCOD8006181
Probable space group: P -1
;
_chemical_formula_sum "Si O2"
_cell_formula_units_Z 16
_cell_length_a 8.790152
_cell_length_b 9.510859
_cell_length_c 11.665366
_cell_angle_alpha 98.556191
_cell_angle_beta 57.085824
_cell_angle_gamma 100.928945
_cell_volume 802.616958
_symmetry_space_group_name_H-M "P -1"
_symmetry_group_IT_number 2
_symmetry_cell_setting 'triclinic'
loop_
_space_group_symop_operation_xyz
x,y,z
-x,-y,-z
loop_
_atom_site_type_symbol
_atom_site_label
_atom_site_fract_x
_atom_site_fract_y
_atom_site_fract_z
Si Si1 0.876782 0.383657 0.960556
Si Si2 0.815077 0.896108 0.583494
Si Si3 0.070838 0.713968 0.544290
Si Si4 0.002423 0.072390 0.884570
Si Si5 0.287633 0.003297 0.585700
Si Si6 0.340223 0.078582 0.121801
Si Si7 0.143795 0.540740 0.290041
Si Si8 0.526591 0.601633 0.893898
O O1 0.876781 0.417307 0.829060
O O2 0.953280 0.233683 0.933558
O O3 0.666061 0.383303 0.089597
O O4 0.000000 0.500000 0.000000
O O5 0.726582 0.877705 0.492774
O O6 0.672043 0.949430 0.739271
O O7 0.868627 0.752353 0.601230
O O8 0.000000 0.000000 0.500000
O O9 0.157196 0.681134 0.381821
O O10 0.036850 0.572611 0.620832
O O11 0.194124 0.842949 0.573409
O O12 0.200606 0.062442 0.743771
O O13 0.855839 0.979981 0.854771
O O14 0.000000 0.000000 0.000000
O O15 0.500000 0.000000 0.500000
O O16 0.383169 0.242090 0.084688
O O17 0.500000 0.000000 0.000000
O O18 0.324468 0.472037 0.247019
O O19 0.500000 0.500000 0.000000
#
# Coordination Sequence:
#
# PCOD8006181 Si02
#       8
#     2   2   2   2   2   2   2   2
#     4  11  26  42  63  93 136 172 206 269 336 392
#     4  10  20  39  66  89 131 167 214 272 323 383
#     4  10  20  39  69  89 121 169 215 270 315 391
#     4  12  27  44  67  97 136 175 220 276 338 389
#     4  11  25  41  63  97 133 171 215 276 332 388
#     4  12  23  42  69 101 125 172 231 277 322 394
#     4  10  21  40  66  93 122 166 220 261 325 387
#     4  10  22  39  65  93 128 166 215 268 319 391
#
# _framework density 19.934788999999999
#
# number of rings (size 3 to 8) (size 9 to 14) (size 15 to 20)
#    0.000    1.250    5.000    0.750    8.750    1.000 
#    0.000    0.000    0.000    3.750    0.000    0.000 
#    0.000    0.000    0.000    0.000    0.000    0.000 
#
# Total GULP energy -198219.357573 kJ/mol
# GULP energy per Si atom -12388.709848 kJ/mol
# Density = 1.988942 g / cm^3
# Si number density = 19.934789 Si / 1000 Ang^3
#
#
#
# Elastic Constant Matrix: (Units=GPa)
#
#
# Indices 1 2 3 4 5 6 
#
# 1 103.9791 38.8586 50.8087 7.9853 -13.3219 -9.9960
# 2 38.8586 116.0016 40.4410 3.5364 0.8027 -4.5416
# 3 50.8087 40.4410 152.6580 5.4767 -5.3026 -15.8571
# 4 7.9853 3.5364 5.4767 37.0991 -7.9747 0.7355
# 5 -13.3219 0.8027 -5.3026 -7.9747 36.2029 -0.7855
# 6 -9.9960 -4.5416 -15.8571 0.7355 -0.7855 30.7314
#
#
#
# Elastic Compliance Matrix: (Units=1/GPa)
#
#
# Indices 1 2 3 4 5 6 
#
# 1 0.013211 -0.003245 -0.003101 -0.001206 0.004264 0.002355
# 2 -0.003245 0.010324 -0.001751 -0.000400 -0.001778 -0.000469
# 3 -0.003101 -0.001751 0.008385 -0.000444 0.000095 0.003072
# 4 -0.001206 -0.000400 -0.000444 0.028582 0.005770 -0.001217
# 5 0.004264 -0.001778 0.000095 0.005770 0.030555 0.001816
# 6 0.002355 -0.000469 0.003072 -0.001217 0.001816 0.034897
#
#
# Mechanical properties :
#
#
# Convention : Reuss Voigt Hill
#
# Bulk Modulus (GPa) = 63.59091 70.31725 66.95408
# Shear Modulus (GPa) = 33.92339 36.97538 35.44938
#
# Velocity S-wave (km/s) = 4.12966 4.31143 4.22153
# Velocity P-wave (km/s) = 7.39646 7.75466 7.57768
#
# Compressibility (1/GPa) = 0.01572552
#
# Stress axis : x y z
#
# Youngs Moduli (GPa) = 75.69587 96.86043 119.26036
#
# Poissons Ratio (x) = 0.31429 0.36986
# Poissons Ratio (y) = 0.24561 0.20885
# Poissons Ratio (z) = 0.23475 0.16962
#
# Static dielectric constant tensor:
#      x y z
#    x 2.762810 -0.229780 -0.537130 
#    y -0.229780 3.978380 -0.101240 
#    z -0.537130 -0.101240 4.036370 
# 
# 
# High freq. dielectric constant tensor:
#      x y z
#    x 1.759940 -0.013310 -0.015800 
#    y -0.013310 1.786950 -0.004250 
#    z -0.015800 -0.004250 1.794970 
# 
# From -- ./inp_files/256272.got.cif
#   From: 2010.06.25/outbox.cif.g09.slc.cpg/sg2_129_cif.got.tgz:256272.got - 2010.06.27 13:26:56.
