data_PCOD8006583
_publ_section_title
;
Structure prediction by ZEFSAII (Michael W. Deem and Ramdas Pophale) SiO2 
 PCOD8006583
Probable space group: P -1
;
_chemical_formula_sum "Si O2"
_cell_formula_units_Z 16
_cell_length_a 14.530259
_cell_length_b 11.701005
_cell_length_c 10.919434
_cell_angle_alpha 154.831803
_cell_angle_beta 99.845892
_cell_angle_gamma 83.371842
_cell_volume 774.465019
_symmetry_space_group_name_H-M "P -1"
_symmetry_group_IT_number 2
_symmetry_cell_setting 'triclinic'
loop_
_space_group_symop_operation_xyz
x,y,z
-x,-y,-z
loop_
_atom_site_type_symbol
_atom_site_label
_atom_site_fract_x
_atom_site_fract_y
_atom_site_fract_z
Si Si1 0.347662 0.877979 0.719970
Si Si2 0.248024 0.187486 0.407208
Si Si3 0.965148 0.008457 0.864121
Si Si4 0.188755 0.298646 0.759891
Si Si5 0.661589 0.276210 0.148617
Si Si6 0.811635 0.248501 0.628952
Si Si7 0.467287 0.433208 0.291656
Si Si8 0.001690 0.561438 0.268566
O O1 0.330894 0.788976 0.769785
O O2 0.250163 0.836005 0.585488
O O3 0.421829 0.700993 0.495996
O O4 0.386375 0.188929 0.028704
O O5 0.257657 0.244335 0.610006
O O6 0.262547 0.473214 0.618266
O O7 0.146199 0.050961 0.218933
O O8 0.322250 0.985015 0.182574
O O9 0.019373 0.787706 0.594311
O O10 0.994150 0.281652 0.065399
O O11 0.000000 0.000000 0.000000
O O12 0.092074 0.400755 0.790593
O O13 0.167125 0.020746 0.557470
O O14 0.237950 0.541274 0.090623
O O15 0.558879 0.361777 0.168739
O O16 0.909409 0.415729 0.778072
O O17 0.500000 0.500000 0.500000
#
# Coordination Sequence:
#
# PCOD8006583 Si02
#       8
#     2   2   2   2   2   2   2   2
#     4  11  23  37  63  98 125 150 198 257 327 353
#     4  11  23  38  62  88 118 165 209 244 296 373
#     4  11  24  38  59  87 136 160 192 259 312 359
#     4  11  23  43  60  87 125 168 218 252 298 343
#     4  11  21  38  66  90 120 156 203 246 306 396
#     4  12  24  39  67  89 124 163 212 268 291 361
#     4  10  20  40  61  91 128 157 189 250 318 377
#     4  11  23  41  61  89 118 172 217 244 302 357
#
# _framework density 20.659423
#
# number of rings (size 3 to 8) (size 9 to 14) (size 15 to 20)
#    0.000    1.000    0.000   10.125    3.500    0.000 
#    0.000    0.000    0.000   15.000    0.000    0.000 
#    0.000    0.000    0.000    0.000    0.000    0.000 
#
# Total GULP energy -198404.177434 kJ/mol
# GULP energy per Si atom -12400.261090 kJ/mol
# Density = 2.061240 g / cm^3
# Si number density = 20.659423 Si / 1000 Ang^3
#
#
#
# Elastic Constant Matrix: (Units=GPa)
#
#
# Indices 1 2 3 4 5 6 
#
# 1 60.8181 34.3315 31.2348 -7.4472 -14.2820 7.6250
# 2 34.3315 100.1194 53.0263 8.6129 -3.3828 9.2099
# 3 31.2348 53.0263 156.1743 4.1761 -3.6867 8.1484
# 4 -7.4472 8.6129 4.1761 42.3532 4.5668 -0.9874
# 5 -14.2820 -3.3828 -3.6867 4.5668 37.3757 1.2152
# 6 7.6250 9.2099 8.1484 -0.9874 1.2152 17.4973
#
#
#
# Elastic Compliance Matrix: (Units=1/GPa)
#
#
# Indices 1 2 3 4 5 6 
#
# 1 0.024825 -0.006886 -0.002228 0.004945 0.008249 -0.006450
# 2 -0.006886 0.014738 -0.003375 -0.003839 -0.001053 -0.003328
# 3 -0.002228 -0.003375 0.008054 -0.000494 -0.000269 -0.001013
# 4 0.004945 -0.003839 -0.000494 0.025530 -0.001680 0.001653
# 5 0.008249 -0.001053 -0.000269 -0.001680 0.030157 -0.005104
# 6 -0.006450 -0.003328 -0.001013 0.001653 -0.005104 0.062634
#
#
# Mechanical properties :
#
#
# Convention : Reuss Voigt Hill
#
# Bulk Modulus (GPa) = 44.17221 61.58857 52.88039
# Shear Modulus (GPa) = 25.19371 32.67984 28.93678
#
# Velocity S-wave (km/s) = 3.49589 3.98155 3.74660
# Velocity P-wave (km/s) = 6.14187 7.14234 6.66092
#
# Compressibility (1/GPa) = 0.02263867
#
# Stress axis : x y z
#
# Youngs Moduli (GPa) = 40.28180 67.85236 124.15540
#
# Poissons Ratio (x) = 0.46724 0.27661
# Poissons Ratio (y) = 0.27738 0.41907
# Poissons Ratio (z) = 0.08975 0.22902
#
# Static dielectric constant tensor:
#      x y z
#    x 3.404020 0.312250 0.160290 
#    y 0.312250 3.624210 -0.245820 
#    z 0.160290 -0.245820 3.794510 
# 
# 
# High freq. dielectric constant tensor:
#      x y z
#    x 1.799030 0.007260 -0.007270 
#    y 0.007260 1.796880 0.003580 
#    z -0.007270 0.003580 1.839130 
# 
# From -- ./inp_files/452713.got.cif
#   From: 2010.06.25/outbox.cif.g09.slc.cpg/sg2_227_cif.got.tgz:452713.got - 2010.06.27 13:26:56.
