data_PCOD8006942
_publ_section_title
;
Structure prediction by ZEFSAII (Michael W. Deem and Ramdas Pophale) SiO2 
 PCOD8006942
Probable space group: P -1
;
_chemical_formula_sum "Si O2"
_cell_formula_units_Z 16
_cell_length_a 13.647127
_cell_length_b 8.963660
_cell_length_c 11.160321
_cell_angle_alpha 117.615182
_cell_angle_beta 98.917125
_cell_angle_gamma 43.471312
_cell_volume 794.566389
_symmetry_space_group_name_H-M "P -1"
_symmetry_group_IT_number 2
_symmetry_cell_setting 'triclinic'
loop_
_space_group_symop_operation_xyz
x,y,z
-x,-y,-z
loop_
_atom_site_type_symbol
_atom_site_label
_atom_site_fract_x
_atom_site_fract_y
_atom_site_fract_z
Si Si1 0.119216 0.442594 0.833446
Si Si2 0.589468 0.104517 0.565709
Si Si3 0.092643 0.859317 0.584037
Si Si4 0.952508 0.338381 0.848518
Si Si5 0.111322 0.483397 0.577093
Si Si6 0.612850 0.422538 0.590295
Si Si7 0.383520 0.232650 0.154439
Si Si8 0.456612 0.064546 0.710352
O O1 0.067290 0.573644 0.741696
O O2 0.296164 0.247318 0.811431
O O3 0.067189 0.314459 0.790070
O O4 0.039955 0.642287 0.000472
O O5 0.640107 0.233920 0.619280
O O6 0.468322 0.220871 0.691078
O O7 0.726267 0.804524 0.502371
O O8 0.515739 0.139409 0.439172
O O9 0.102363 0.661646 0.564037
O O10 0.253780 0.713397 0.524038
O O11 0.000000 0.000000 0.500000
O O12 0.014657 0.072398 0.748903
O O13 0.785408 0.569211 0.849487
O O14 0.000000 0.500000 0.500000
O O15 0.500000 0.500000 0.500000
O O16 0.572905 0.630169 0.747720
O O17 0.408223 0.094005 0.228307
O O18 0.500000 0.000000 0.000000
#
# Coordination Sequence:
#
# PCOD8006942 Si02
#       8
#     2   2   2   2   2   2   2   2
#     4  10  23  42  66  94 130 181 216 270 332 403
#     4  10  22  39  66  96 129 173 223 277 328 387
#     4  12  24  42  67 100 129 171 225 280 328 394
#     4  11  24  43  68  94 137 174 226 272 331 401
#     4  11  24  40  66  97 133 173 223 274 335 397
#     4  12  25  41  70 101 133 171 228 275 327 397
#     4  12  24  42  69 100 134 179 217 274 339 400
#     4  10  20  40  65  94 131 170 220 269 332 393
#
# _framework density 20.136768
#
# number of rings (size 3 to 8) (size 9 to 14) (size 15 to 20)
#    0.000    1.000    3.750    3.750    5.250    0.500 
#    0.000    0.625    2.750    0.000    0.000    0.000 
#    0.000    0.000    0.000    0.000    0.000    0.000 
#
# Total GULP energy -198245.656718 kJ/mol
# GULP energy per Si atom -12390.353545 kJ/mol
# Density = 2.009094 g / cm^3
# Si number density = 20.136768 Si / 1000 Ang^3
#
#
#
# Elastic Constant Matrix: (Units=GPa)
#
#
# Indices 1 2 3 4 5 6 
#
# 1 143.5901 57.7559 50.8801 2.3747 -9.7945 11.5720
# 2 57.7559 102.6418 54.8220 -5.7644 1.0131 5.8513
# 3 50.8801 54.8220 116.0162 0.7447 1.8945 6.6413
# 4 2.3747 -5.7644 0.7447 39.2464 -0.2645 2.7765
# 5 -9.7945 1.0131 1.8945 -0.2645 32.4016 -2.5545
# 6 11.5720 5.8513 6.6413 2.7765 -2.5545 40.8908
#
#
#
# Elastic Compliance Matrix: (Units=1/GPa)
#
#
# Indices 1 2 3 4 5 6 
#
# 1 0.009861 -0.004368 -0.002217 -0.001066 0.003117 -0.001538
# 2 -0.004368 0.015173 -0.005226 0.002607 -0.001496 -0.000357
# 3 -0.002217 -0.005226 0.012123 -0.000828 -0.001271 -0.000617
# 4 -0.001066 0.002607 -0.000828 0.026063 -0.000279 -0.001724
# 5 0.003117 -0.001496 -0.001271 -0.000279 0.032047 0.001559
# 6 -0.001538 -0.000357 -0.000617 -0.001724 0.001559 0.025256
#
#
# Mechanical properties :
#
#
# Convention : Reuss Voigt Hill
#
# Bulk Modulus (GPa) = 73.88028 76.57381 75.22705
# Shear Modulus (GPa) = 33.63472 35.76043 34.69758
#
# Velocity S-wave (km/s) = 4.09138 4.21869 4.15552
# Velocity P-wave (km/s) = 7.68688 7.86379 7.77584
#
# Compressibility (1/GPa) = 0.01353541
#
# Stress axis : x y z
#
# Youngs Moduli (GPa) = 101.41260 65.90568 82.49018
#
# Poissons Ratio (x) = 0.28785 0.18285
# Poissons Ratio (y) = 0.44293 0.43112
# Poissons Ratio (z) = 0.22480 0.34445
#
# Static dielectric constant tensor:
#      x y z
#    x 3.896480 0.109120 0.061760 
#    y 0.109120 3.555030 -0.084340 
#    z 0.061760 -0.084340 3.816450 
# 
# 
# High freq. dielectric constant tensor:
#      x y z
#    x 1.797990 -0.006950 -0.004070 
#    y -0.006950 1.786670 -0.013670 
#    z -0.004070 -0.013670 1.785080 
# 
# From -- ./inp_files/419764.got.cif
#   From: 2010.06.25/outbox.cif.g09.slc.cpg/sg2_210_cif.got.tgz:419764.got - 2010.06.27 13:26:56.
