data_PCOD8006359
_publ_section_title
;
Structure prediction by ZEFSAII (Michael W. Deem and Ramdas Pophale) SiO2 
 PCOD8006359
Probable space group: P -1
;
_chemical_formula_sum "Si O2"
_cell_formula_units_Z 16
_cell_length_a 17.866906
_cell_length_b 6.547578
_cell_length_c 9.236138
_cell_angle_alpha 133.567111
_cell_angle_beta 75.982033
_cell_angle_gamma 91.431146
_cell_volume 743.922869
_symmetry_space_group_name_H-M "P -1"
_symmetry_group_IT_number 2
_symmetry_cell_setting 'triclinic'
loop_
_space_group_symop_operation_xyz
x,y,z
-x,-y,-z
loop_
_atom_site_type_symbol
_atom_site_label
_atom_site_fract_x
_atom_site_fract_y
_atom_site_fract_z
Si Si1 0.417389 0.680427 0.573874
Si Si2 0.456905 0.137459 0.942753
Si Si3 0.167404 0.289880 0.306683
Si Si4 0.709071 0.698028 0.498926
Si Si5 0.411536 0.790417 0.309123
Si Si6 0.884843 0.301078 0.704366
Si Si7 0.941260 0.637646 0.354053
Si Si8 0.838451 0.330511 0.063974
O O1 0.500000 0.500000 0.500000
O O2 0.353458 0.482546 0.503358
O O3 0.427188 0.834890 0.492277
O O4 0.395192 0.940702 0.827221
O O5 0.520203 0.131471 0.782925
O O6 0.406239 0.455819 0.138713
O O7 0.500000 0.000000 0.000000
O O8 0.240898 0.239211 0.356338
O O9 0.174602 0.536803 0.309255
O O10 0.087149 0.406807 0.491506
O O11 0.162100 0.005542 0.077977
O O12 0.760177 0.522813 0.261974
O O13 0.669875 0.007481 0.603317
O O14 0.965108 0.421641 0.725726
O O15 0.901383 0.965747 0.491110
O O16 0.841904 0.378816 0.914700
O O17 0.914133 0.413506 0.146667
#
# Coordination Sequence:
#
# PCOD8006359 Si02
#       8
#     2   2   2   2   2   2   2   2
#     4  12  24  43  67  93 122 159 213 261 317 383
#     4  11  23  42  67  97 120 149 206 269 316 379
#     4  10  23  41  60  91 132 167 210 257 309 377
#     4  11  26  43  60  89 131 170 207 256 323 378
#     4  11  24  42  68  89 125 160 202 266 321 375
#     4  10  20  39  68  93 128 166 212 260 309 362
#     4   9  20  39  64  97 126 165 211 263 308 364
#     4  10  23  40  60  91 132 165 213 254 309 384
#
# _framework density 21.507605000000002
#
# number of rings (size 3 to 8) (size 9 to 14) (size 15 to 20)
#    0.000    1.500    2.500    1.125    0.000    9.500 
#    0.000    0.000    0.000    0.000    0.000    0.000 
#    0.000    0.000    0.000    0.000    0.000    0.000 
#
# Total GULP energy -198376.754647 kJ/mol
# GULP energy per Si atom -12398.547165 kJ/mol
# Density = 2.145865 g / cm^3
# Si number density = 21.507605 Si / 1000 Ang^3
#
#
#
# Elastic Constant Matrix: (Units=GPa)
#
#
# Indices 1 2 3 4 5 6 
#
# 1 80.3741 34.4687 36.5867 -3.4966 9.6933 -2.0074
# 2 34.4687 131.0374 48.2139 -5.3273 6.5672 -20.9351
# 3 36.5867 48.2139 122.9838 8.5683 20.8468 -9.4580
# 4 -3.4966 -5.3273 8.5683 29.5669 8.9536 3.5376
# 5 9.6933 6.5672 20.8468 8.9536 36.4587 2.7157
# 6 -2.0074 -20.9351 -9.4580 3.5376 2.7157 37.9647
#
#
#
# Elastic Compliance Matrix: (Units=1/GPa)
#
#
# Indices 1 2 3 4 5 6 
#
# 1 0.015638 -0.002858 -0.003503 0.003260 -0.002309 -0.001760
# 2 -0.002858 0.010285 -0.002917 0.001876 -0.000231 0.004635
# 3 -0.003503 -0.002917 0.011411 -0.003103 -0.004429 0.001655
# 4 0.003260 0.001876 -0.003103 0.038370 -0.008665 -0.002522
# 5 -0.002309 -0.000231 -0.004429 -0.008665 0.032961 -0.002903
# 6 -0.001760 0.004635 0.001655 -0.002522 -0.002903 0.029658
#
#
# Mechanical properties :
#
#
# Convention : Reuss Voigt Hill
#
# Bulk Modulus (GPa) = 53.25086 63.65931 58.45508
# Shear Modulus (GPa) = 30.64892 35.13979 32.89436
#
# Velocity S-wave (km/s) = 3.77905 4.04645 3.91503
# Velocity P-wave (km/s) = 6.62227 7.17597 6.90467
#
# Compressibility (1/GPa) = 0.01877904
#
# Stress axis : x y z
#
# Youngs Moduli (GPa) = 63.94580 97.23155 87.63425
#
# Poissons Ratio (x) = 0.27785 0.30698
# Poissons Ratio (y) = 0.18273 0.25562
# Poissons Ratio (z) = 0.22400 0.28362
#
# Static dielectric constant tensor:
#      x y z
#    x 3.874910 0.261930 0.104600 
#    y 0.261930 4.141640 0.110730 
#    z 0.104600 0.110730 4.270090 
# 
# 
# High freq. dielectric constant tensor:
#      x y z
#    x 1.832070 0.006180 0.008300 
#    y 0.006180 1.855690 -0.000410 
#    z 0.008300 -0.000410 1.857060 
# 
# From -- ./inp_files/55668.got.cif
#   From: 2010.06.25/outbox.cif.g09.slc.cpg/sg2_28_cif.got.tgz:55668.got - 2010.06.27 13:26:56.
