data_PCOD8006770
_publ_section_title
;
Structure prediction by ZEFSAII (Michael W. Deem and Ramdas Pophale) SiO2 
 PCOD8006770
Probable space group: P -1
;
_chemical_formula_sum "Si O2"
_cell_formula_units_Z 16
_cell_length_a 11.751974
_cell_length_b 12.621828
_cell_length_c 12.336206
_cell_angle_alpha 146.747897
_cell_angle_beta 98.151643
_cell_angle_gamma 105.027625
_cell_volume 713.017495
_symmetry_space_group_name_H-M "P -1"
_symmetry_group_IT_number 2
_symmetry_cell_setting 'triclinic'
loop_
_space_group_symop_operation_xyz
x,y,z
-x,-y,-z
loop_
_atom_site_type_symbol
_atom_site_label
_atom_site_fract_x
_atom_site_fract_y
_atom_site_fract_z
Si Si1 0.969772 0.861696 0.121520
Si Si2 0.067116 0.654379 0.804868
Si Si3 0.591401 0.856523 0.104203
Si Si4 0.844231 0.084934 0.176812
Si Si5 0.681342 0.771508 0.434530
Si Si6 0.650075 0.149566 0.850636
Si Si7 0.176647 0.889692 0.454293
Si Si8 0.159698 0.462664 0.968037
O O1 0.900334 0.941891 0.102564
O O2 0.857233 0.716532 0.091219
O O3 0.156876 0.116938 0.391183
O O4 0.964508 0.649829 0.877164
O O5 0.146146 0.897086 0.937028
O O6 0.951422 0.377344 0.490595
O O7 0.203957 0.686039 0.905414
O O8 0.510079 0.969540 0.211100
O O9 0.659979 0.912333 0.039714
O O10 0.749720 0.024571 0.343557
O O11 0.460811 0.541932 0.837825
O O12 0.620745 0.903754 0.588166
O O13 0.718887 0.837843 0.369091
O O14 0.687518 0.356548 0.938190
O O15 0.170982 0.680752 0.214058
O O16 0.992265 0.740878 0.307093
#
# Coordination Sequence:
#
# PCOD8006770 Si02
#       8
#     2   2   2   2   2   2   2   2
#     4  10  20  40  64  86 114 150 195 246 288 334
#     4  10  22  44  64  82 112 152 200 247 285 332
#     4  12  23  35  55  88 123 154 189 234 288 347
#     4  11  24  38  62  90 111 149 202 244 284 339
#     4   9  21  37  56  84 120 156 191 232 289 353
#     4  10  22  40  59  84 122 160 187 231 292 346
#     4   9  18  34  56  85 118 155 193 235 284 337
#     4   9  18  36  63  87 113 153 196 233 285 347
#
# _framework density 22.439841999999999
#
# number of rings (size 3 to 8) (size 9 to 14) (size 15 to 20)
#    0.000    2.000    0.000    5.250    0.000    6.500 
#    0.000    5.625    0.000    0.000    0.000    0.000 
#    0.000    0.000    0.000    0.000    0.000    0.000 
#
# Total GULP energy -198319.312280 kJ/mol
# GULP energy per Si atom -12394.957018 kJ/mol
# Density = 2.238877 g / cm^3
# Si number density = 22.439842 Si / 1000 Ang^3
#
#
#
# Elastic Constant Matrix: (Units=GPa)
#
#
# Indices 1 2 3 4 5 6 
#
# 1 85.8268 37.5971 5.7754 14.7073 9.1643 8.3251
# 2 37.5971 126.9398 24.8755 19.4197 17.8761 -0.9931
# 3 5.7754 24.8755 76.2533 20.0459 4.9686 2.2908
# 4 14.7073 19.4197 20.0459 40.8995 8.8080 -1.1225
# 5 9.1643 17.8761 4.9686 8.8080 10.6908 8.3828
# 6 8.3251 -0.9931 2.2908 -1.1225 8.3828 29.6959
#
#
#
# Elastic Compliance Matrix: (Units=1/GPa)
#
#
# Indices 1 2 3 4 5 6 
#
# 1 0.014431 -0.004087 0.001449 -0.004325 0.001090 -0.004765
# 2 -0.004087 0.013129 -0.003267 0.002852 -0.026721 0.009488
# 3 0.001449 -0.003267 0.015944 -0.008365 0.006831 -0.003990
# 4 -0.004325 0.002852 -0.008365 0.037690 -0.039652 0.014571
# 5 0.001090 -0.026721 0.006831 -0.039652 0.217434 -0.064604
# 6 -0.004765 0.009488 -0.003990 0.014571 -0.064604 0.054423
#
#
# Mechanical properties :
#
#
# Convention : Reuss Voigt Hill
#
# Bulk Modulus (GPa) = 31.55147 47.27955 39.41551
# Shear Modulus (GPa) = 13.31814 30.97537 22.14675
#
# Velocity S-wave (km/s) = 2.43884 3.71937 3.14497
# Velocity P-wave (km/s) = 4.69271 6.28969 5.54895
#
# Compressibility (1/GPa) = 0.03169424
#
# Stress axis : x y z
#
# Youngs Moduli (GPa) = 69.29379 76.16475 62.71921
#
# Poissons Ratio (x) = 0.31132 -0.09091
# Poissons Ratio (y) = 0.28324 0.20492
# Poissons Ratio (z) = -0.10044 0.24885
#
# Static dielectric constant tensor:
#      x y z
#    x 3.999430 0.198020 -0.039540 
#    y 0.198020 4.589200 0.083890 
#    z -0.039540 0.083890 3.889160 
# 
# 
# High freq. dielectric constant tensor:
#      x y z
#    x 1.877260 0.008950 -0.012090 
#    y 0.008950 1.884870 0.008860 
#    z -0.012090 0.008860 1.878410 
# 
# From -- ./inp_files/429091.got.cif
#   From: 2010.06.25/outbox.cif.g09.slc.cpg/sg2_215_cif.got.tgz:429091.got - 2010.06.27 13:26:56.
