data_PCOD8006432
_publ_section_title
;
Structure prediction by ZEFSAII (Michael W. Deem and Ramdas Pophale) SiO2 
 PCOD8006432
Probable space group: P -1
;
_chemical_formula_sum "Si O2"
_cell_formula_units_Z 16
_cell_length_a 11.812859
_cell_length_b 10.801034
_cell_length_c 14.317544
_cell_angle_alpha 78.890063
_cell_angle_beta 148.451060
_cell_angle_gamma 122.495436
_cell_volume 644.461653
_symmetry_space_group_name_H-M "P -1"
_symmetry_group_IT_number 2
_symmetry_cell_setting 'triclinic'
loop_
_space_group_symop_operation_xyz
x,y,z
-x,-y,-z
loop_
_atom_site_type_symbol
_atom_site_label
_atom_site_fract_x
_atom_site_fract_y
_atom_site_fract_z
Si Si1 0.819654 0.570831 0.245957
Si Si2 0.837787 0.702085 0.529347
Si Si3 0.789938 0.216943 0.684008
Si Si4 0.581833 0.213791 0.093611
Si Si5 0.152010 0.005059 0.978375
Si Si6 0.078542 0.146570 0.622638
Si Si7 0.334318 0.158082 0.486836
Si Si8 0.731004 0.712018 0.866651
O O1 0.747532 0.395005 0.244552
O O2 0.915848 0.698030 0.382595
O O3 0.106136 0.685375 0.356469
O O4 0.500000 0.500000 0.000000
O O5 0.901717 0.845734 0.478247
O O6 0.702445 0.711885 0.525560
O O7 0.595377 0.492780 0.357004
O O8 0.167253 0.775106 0.777479
O O9 0.682869 0.281174 0.672802
O O10 0.500000 0.000000 0.500000
O O11 0.110316 0.296079 0.937327
O O12 0.394393 0.054498 0.063974
O O13 0.361383 0.182767 0.862552
O O14 0.320851 0.166547 0.150676
O O15 0.898815 0.977176 0.743112
O O16 0.966978 0.814261 0.928569
O O17 0.749796 0.967128 0.465952
#
# Coordination Sequence:
#
# PCOD8006432 Si02
#       8
#     2   2   2   2   2   2   2   2
#     4  10  20  39  70 103 130 168 229 287 325 390
#     4  12  27  44  68 104 143 176 228 282 339 409
#     4  12  22  42  74  96 132 184 224 277 348 394
#     4  10  23  42  69  99 136 185 218 283 351 385
#     4  10  23  44  67  96 137 174 233 277 329 414
#     4  10  21  43  69 100 136 178 235 279 326 414
#     4  11  25  45  68 100 138 183 224 275 344 411
#     4  11  24  42  65 104 133 171 229 289 330 406
#
# _framework density 24.826924999999999
#
# number of rings (size 3 to 8) (size 9 to 14) (size 15 to 20)
#    0.000    1.250    2.500    4.125    3.500    5.000 
#    2.250    0.000    0.000    0.000    0.000    0.000 
#    0.000    0.000    0.000    0.000    0.000    0.000 
#
# Total GULP energy -198266.245768 kJ/mol
# GULP energy per Si atom -12391.640360 kJ/mol
# Density = 2.477042 g / cm^3
# Si number density = 24.826925 Si / 1000 Ang^3
#
#
#
# Elastic Constant Matrix: (Units=GPa)
#
#
# Indices 1 2 3 4 5 6 
#
# 1 123.7536 19.2891 30.7552 -3.4761 20.0865 6.1747
# 2 19.2891 59.9745 12.3057 0.7535 8.7409 24.2230
# 3 30.7552 12.3057 72.8374 6.0883 14.1917 2.4578
# 4 -3.4761 0.7535 6.0883 30.3474 0.4615 10.1998
# 5 20.0865 8.7409 14.1917 0.4615 39.1861 -1.9480
# 6 6.1747 24.2230 2.4578 10.1998 -1.9480 35.1350
#
#
#
# Elastic Compliance Matrix: (Units=1/GPa)
#
#
# Indices 1 2 3 4 5 6 
#
# 1 0.009863 -0.001412 -0.003372 0.002371 -0.003618 -0.001413
# 2 -0.001412 0.026436 -0.002716 0.006519 -0.005259 -0.019972
# 3 -0.003372 -0.002716 0.016581 -0.004394 -0.003500 0.002387
# 4 0.002371 0.006519 -0.004394 0.039416 -0.002346 -0.016177
# 5 -0.003618 -0.005259 -0.003500 -0.002346 0.030183 0.006861
# 6 -0.001413 -0.019972 0.002387 -0.016177 0.006861 0.047389
#
#
# Mechanical properties :
#
#
# Convention : Reuss Voigt Hill
#
# Bulk Modulus (GPa) = 26.39976 42.36283 34.38130
# Shear Modulus (GPa) = 25.31723 33.88139 29.59931
#
# Velocity S-wave (km/s) = 3.19681 3.69820 3.45661
# Velocity P-wave (km/s) = 4.92776 5.94440 5.45979
#
# Compressibility (1/GPa) = 0.03787913
#
# Stress axis : x y z
#
# Youngs Moduli (GPa) = 101.39022 37.82679 60.31174
#
# Poissons Ratio (x) = 0.05342 0.20335
# Poissons Ratio (y) = 0.14319 0.16383
# Poissons Ratio (z) = 0.34185 0.10275
#
# Static dielectric constant tensor:
#      x y z
#    x 4.880050 -0.135700 0.099170 
#    y -0.135700 4.614770 0.263040 
#    z 0.099170 0.263040 4.347160 
# 
# 
# High freq. dielectric constant tensor:
#      x y z
#    x 2.001250 0.004860 0.008490 
#    y 0.004860 1.977550 0.010610 
#    z 0.008490 0.010610 1.969030 
# 
# From -- ./inp_files/519690.got.cif
#   From: 2010.06.25/outbox.cif.g09.slc.cpg/sg2_260_cif.got.tgz:519690.got - 2010.06.27 13:26:56.
