data_PCOD8006648
_publ_section_title
;
Structure prediction by ZEFSAII (Michael W. Deem and Ramdas Pophale) SiO2 
 PCOD8006648
Probable space group: P -1
;
_chemical_formula_sum "Si O2"
_cell_formula_units_Z 16
_cell_length_a 17.217645
_cell_length_b 15.946788
_cell_length_c 13.527284
_cell_angle_alpha 52.197879
_cell_angle_beta 155.640800
_cell_angle_gamma 144.260105
_cell_volume 761.565359
_symmetry_space_group_name_H-M "P -1"
_symmetry_group_IT_number 2
_symmetry_cell_setting 'triclinic'
loop_
_space_group_symop_operation_xyz
x,y,z
-x,-y,-z
loop_
_atom_site_type_symbol
_atom_site_label
_atom_site_fract_x
_atom_site_fract_y
_atom_site_fract_z
Si Si1 0.333075 0.093471 0.065181
Si Si2 0.264614 0.601330 0.810261
Si Si3 0.884660 0.271093 0.707057
Si Si4 0.985830 0.850463 0.664261
Si Si5 0.456505 0.168954 0.857589
Si Si6 0.917281 0.880431 0.909442
Si Si7 0.850213 0.300179 0.047834
Si Si8 0.270614 0.669930 0.317474
O O1 0.433975 0.249782 0.015112
O O2 0.617624 0.161556 0.397191
O O3 0.201181 0.954961 0.932712
O O4 0.061380 0.995163 0.895789
O O5 0.000000 0.500000 0.500000
O O6 0.192594 0.457493 0.884660
O O7 0.297311 0.705046 0.860116
O O8 0.765528 0.280695 0.658955
O O9 0.948369 0.177122 0.873670
O O10 0.917831 0.696049 0.681373
O O11 0.666715 0.768556 0.363181
O O12 0.167179 0.974088 0.691537
O O13 0.585944 0.162977 0.918533
O O14 0.559268 0.720157 0.608863
O O15 0.000000 0.000000 0.000000
O O16 0.987774 0.470325 0.121161
O O17 0.718839 0.246477 0.823677
#
# Coordination Sequence:
#
# PCOD8006648 Si02
#       8
#     2   2   2   2   2   2   2   2
#     4  10  21  42  65  92 127 167 206 259 314 368
#     4   9  20  39  69  89 122 169 204 250 318 369
#     4  11  22  43  67  88 130 167 202 264 319 361
#     4  10  22  37  65  92 123 165 207 250 313 367
#     4  10  20  40  62  91 125 162 206 257 304 370
#     4  12  25  39  65  94 125 163 212 259 307 377
#     4  11  23  39  62  90 127 164 206 255 303 374
#     4  11  25  40  62  94 124 166 211 251 314 370
#
# _framework density 21.009360000000001
#
# number of rings (size 3 to 8) (size 9 to 14) (size 15 to 20)
#    0.000    1.500    2.500    2.250    3.500    0.000 
#    0.000    3.750    0.000    0.000    0.000    0.000 
#    0.000    0.000    0.000    0.000    0.000    0.000 
#
# Total GULP energy -198221.281675 kJ/mol
# GULP energy per Si atom -12388.830105 kJ/mol
# Density = 2.096154 g / cm^3
# Si number density = 21.009360 Si / 1000 Ang^3
#
#
#
# Elastic Constant Matrix: (Units=GPa)
#
#
# Indices 1 2 3 4 5 6 
#
# 1 118.1999 54.3111 35.4735 -12.2712 4.0186 16.7668
# 2 54.3111 80.9870 16.8194 -3.1411 4.0084 5.2536
# 3 35.4735 16.8194 84.7081 -9.0579 -2.1633 -3.5777
# 4 -12.2712 -3.1411 -9.0579 27.0303 -2.9525 5.8127
# 5 4.0186 4.0084 -2.1633 -2.9525 33.8291 0.9488
# 6 16.7668 5.2536 -3.5777 5.8127 0.9488 34.5838
#
#
#
# Elastic Compliance Matrix: (Units=1/GPa)
#
#
# Indices 1 2 3 4 5 6 
#
# 1 0.015567 -0.008758 -0.004454 0.006177 -0.000341 -0.007706
# 2 -0.008758 0.018098 -0.000145 -0.002490 -0.001385 0.001938
# 3 -0.004454 -0.000145 0.014107 0.002161 0.001546 0.003235
# 4 0.006177 -0.002490 0.002161 0.042719 0.003699 -0.009674
# 5 -0.000341 -0.001385 0.001546 0.003699 0.030212 -0.000915
# 6 -0.007706 0.001938 0.003235 -0.009674 -0.000915 0.034343
#
#
# Mechanical properties :
#
#
# Convention : Reuss Voigt Hill
#
# Bulk Modulus (GPa) = 47.49178 55.23367 51.36273
# Shear Modulus (GPa) = 26.48595 30.90804 28.69700
#
# Velocity S-wave (km/s) = 3.55445 3.83973 3.69984
# Velocity P-wave (km/s) = 6.28487 6.78271 6.53853
#
# Compressibility (1/GPa) = 0.02105627
#
# Stress axis : x y z
#
# Youngs Moduli (GPa) = 64.23754 55.25623 70.88924
#
# Poissons Ratio (x) = 0.48395 0.31573
# Poissons Ratio (y) = 0.56261 0.01031
# Poissons Ratio (z) = 0.28610 0.00803
#
# Static dielectric constant tensor:
#      x y z
#    x 3.915220 0.348850 -0.098090 
#    y 0.348850 4.011100 0.051190 
#    z -0.098090 0.051190 4.001860 
# 
# 
# High freq. dielectric constant tensor:
#      x y z
#    x 1.828880 0.019710 -0.017990 
#    y 0.019710 1.824070 0.012470 
#    z -0.017990 0.012470 1.814180 
# 
# From -- ./inp_files/371162.got.cif
#   From: 2010.06.25/outbox.cif.g09.slc.cpg/sg2_186_cif.got.tgz:371162.got - 2010.06.27 13:26:56.
