data_PCOD8006535
_publ_section_title
;
Structure prediction by ZEFSAII (Michael W. Deem and Ramdas Pophale) SiO2 
 PCOD8006535
Probable space group: P -1
;
_chemical_formula_sum "Si O2"
_cell_formula_units_Z 14
_cell_length_a 7.466607
_cell_length_b 18.990934
_cell_length_c 13.683097
_cell_angle_alpha 19.172711
_cell_angle_beta 101.697137
_cell_angle_gamma 102.624223
_cell_volume 621.759235
_symmetry_space_group_name_H-M "P -1"
_symmetry_group_IT_number 2
_symmetry_cell_setting 'triclinic'
loop_
_space_group_symop_operation_xyz
x,y,z
-x,-y,-z
loop_
_atom_site_type_symbol
_atom_site_label
_atom_site_fract_x
_atom_site_fract_y
_atom_site_fract_z
Si Si1 0.620459 0.180833 0.923429
Si Si2 0.041998 0.771405 0.581144
Si Si3 0.018691 0.902288 0.023639
Si Si4 0.436776 0.690915 0.806667
Si Si5 0.795568 0.441339 0.876147
Si Si6 0.712705 0.637127 0.417775
Si Si7 0.750471 0.987548 0.376769
O O1 0.622994 0.402281 0.693022
O O2 0.426653 0.172699 0.855758
O O3 0.779256 0.171284 0.873736
O O4 0.638459 0.000205 0.245114
O O5 0.958481 0.534022 0.846202
O O6 0.919106 0.843285 0.564378
O O7 0.250058 0.772859 0.636678
O O8 0.042939 0.944748 0.268253
O O9 0.878748 0.688065 0.293152
O O10 0.000000 0.000000 0.000000
O O11 0.603897 0.879160 0.580442
O O12 0.500000 0.500000 0.000000
O O13 0.395408 0.605006 0.024608
O O14 0.775396 0.631845 0.545399
O O15 0.840992 0.218235 0.122547
#
# Coordination Sequence:
#
# PCOD8006535 Si02
#       7
#     2   2   2   2   2   2   2
#     4   9  21  38  63  88 122 157 199 252 302 359
#     4  11  24  45  62  93 128 161 206 262 308 361
#     4  11  21  36  61  89 120 158 197 241 307 365
#     4  12  25  43  67  90 125 165 208 260 312 364
#     4  11  23  43  65  92 127 164 211 250 308 372
#     4  10  20  40  60  90 123 157 201 251 298 361
#     4  10  23  45  65  92 124 165 207 257 308 366
#
# _framework density 22.516752
#
# number of rings (size 3 to 8) (size 9 to 14) (size 15 to 20)
#    0.000    1.429    2.857    2.143    0.000    2.286 
#    2.571    0.000    0.000    0.000    0.000    0.000 
#    0.000    0.000    0.000    0.000    0.000    0.000 
#
# Total GULP energy -173571.898103 kJ/mol
# GULP energy per Si atom -12397.992722 kJ/mol
# Density = 2.246550 g / cm^3
# Si number density = 22.516752 Si / 1000 Ang^3
#
#
#
# Elastic Constant Matrix: (Units=GPa)
#
#
# Indices 1 2 3 4 5 6 
#
# 1 139.2861 35.0283 38.9767 7.6488 0.4972 -19.5261
# 2 35.0283 69.7166 14.4983 -3.3662 6.1528 -12.1530
# 3 38.9767 14.4983 69.5746 -0.1215 -9.0823 -8.1018
# 4 7.6488 -3.3662 -0.1215 24.3381 -8.4865 -11.0894
# 5 0.4972 6.1528 -9.0823 -8.4865 47.5589 1.3157
# 6 -19.5261 -12.1530 -8.1018 -11.0894 1.3157 34.0001
#
#
#
# Elastic Compliance Matrix: (Units=1/GPa)
#
#
# Indices 1 2 3 4 5 6 
#
# 1 0.009894 -0.003636 -0.004662 -0.002953 -0.001115 0.002352
# 2 -0.003636 0.017881 -0.001200 0.005751 -0.001643 0.005957
# 3 -0.004662 -0.001200 0.018073 0.003944 0.004295 0.002320
# 4 -0.002953 0.005751 0.003944 0.054605 0.009265 0.018751
# 5 -0.001115 -0.001643 0.004295 0.009265 0.023672 0.001902
# 6 0.002352 0.005957 0.002320 0.018751 0.001902 0.039486
#
#
# Mechanical properties :
#
#
# Convention : Reuss Voigt Hill
#
# Bulk Modulus (GPa) = 37.24133 50.62044 43.93089
# Shear Modulus (GPa) = 26.10165 33.85103 29.97634
#
# Velocity S-wave (km/s) = 3.40841 3.88154 3.65264
# Velocity P-wave (km/s) = 5.66260 6.52828 6.11079
#
# Compressibility (1/GPa) = 0.02685188
#
# Stress axis : x y z
#
# Youngs Moduli (GPa) = 101.06832 55.92445 55.33214
#
# Poissons Ratio (x) = 0.20334 0.25797
# Poissons Ratio (y) = 0.36748 0.06640
# Poissons Ratio (z) = 0.47120 0.06711
#
# Static dielectric constant tensor:
#      x y z
#    x 4.435970 0.005470 -0.256850 
#    y 0.005470 4.085810 0.216020 
#    z -0.256850 0.216020 4.422710 
# 
# 
# High freq. dielectric constant tensor:
#      x y z
#    x 1.885640 -0.008750 -0.006590 
#    y -0.008750 1.883550 0.003790 
#    z -0.006590 0.003790 1.899650 
# 
# From -- ./inp_files/75051.got.cif
#   From: 2010.06.25/outbox.cif.g09.slc.cpg/sg2_38_cif.got.tgz:75051.got - 2010.06.27 13:26:56.
