data_PCOD8006305
_publ_section_title
;
Structure prediction by ZEFSAII (Michael W. Deem and Ramdas Pophale) SiO2 
 PCOD8006305
Probable space group: P -1
;
_chemical_formula_sum "Si O2"
_cell_formula_units_Z 14
_cell_length_a 11.658611
_cell_length_b 9.431957
_cell_length_c 17.870834
_cell_angle_alpha 149.410590
_cell_angle_beta 44.955198
_cell_angle_gamma 122.771330
_cell_volume 693.861009
_symmetry_space_group_name_H-M "P -1"
_symmetry_group_IT_number 2
_symmetry_cell_setting 'triclinic'
loop_
_space_group_symop_operation_xyz
x,y,z
-x,-y,-z
loop_
_atom_site_type_symbol
_atom_site_label
_atom_site_fract_x
_atom_site_fract_y
_atom_site_fract_z
Si Si1 0.748748 0.428468 0.450917
Si Si2 0.655149 0.491953 0.977527
Si Si3 0.864931 0.319189 0.503558
Si Si4 0.561643 0.182710 0.167141
Si Si5 0.481863 0.388949 0.144058
Si Si6 0.923026 0.941598 0.587983
Si Si7 0.192126 0.985624 0.898205
O O1 0.796823 0.235526 0.416341
O O2 0.573047 0.632943 0.633817
O O3 0.731539 0.222811 0.297475
O O4 0.881468 0.626448 0.460653
O O5 0.764333 0.178235 0.785764
O O6 0.500000 0.500000 0.000000
O O7 0.576248 0.585075 0.138179
O O8 0.769833 0.705495 0.994922
O O9 0.712047 0.497766 0.701652
O O10 0.000000 0.500000 0.500000
O O11 0.947610 0.061498 0.403142
O O12 0.583914 0.350408 0.156775
O O13 0.732550 0.124078 0.106421
O O14 0.498707 0.899571 0.043679
O O15 0.000000 0.000000 0.500000
O O16 0.000000 0.000000 0.000000
#
# Coordination Sequence:
#
# PCOD8006305 Si02
#       7
#     2   2   2   2   2   2   2
#     4  10  21  42  60  90 121 170 210 250 317 383
#     4  12  23  41  63  95 124 169 217 260 302 378
#     4   9  21  36  63  92 127 160 207 262 313 376
#     4  10  21  39  66  90 120 167 212 258 309 381
#     4  10  20  39  67  95 116 162 226 261 299 368
#     4  11  21  36  61  93 125 162 214 262 310 363
#     4  12  26  40  62  95 137 166 200 264 334 372
#
# _framework density 20.176950999999999
#
# number of rings (size 3 to 8) (size 9 to 14) (size 15 to 20)
#    0.000    1.429    2.857    2.143    6.000    0.000 
#    0.000    8.571    0.000    0.000    0.000    0.000 
#    0.000    0.000    0.000    0.000    0.000    0.000 
#
# Total GULP energy -173530.077805 kJ/mol
# GULP energy per Si atom -12395.005557 kJ/mol
# Density = 2.013103 g / cm^3
# Si number density = 20.176951 Si / 1000 Ang^3
#
#
#
# Elastic Constant Matrix: (Units=GPa)
#
#
# Indices 1 2 3 4 5 6 
#
# 1 148.2949 60.3320 48.8440 -6.6019 -16.3431 -27.1553
# 2 60.3320 120.2753 31.8916 -23.0694 -9.8719 -15.9878
# 3 48.8440 31.8916 97.6852 -13.7727 -4.8917 -11.0329
# 4 -6.6019 -23.0694 -13.7727 36.4544 1.0027 2.2129
# 5 -16.3431 -9.8719 -4.8917 1.0027 36.5882 2.5978
# 6 -27.1553 -15.9878 -11.0329 2.2129 2.5978 36.2856
#
#
#
# Elastic Compliance Matrix: (Units=1/GPa)
#
#
# Indices 1 2 3 4 5 6 
#
# 1 0.010702 -0.003921 -0.003676 -0.002322 0.002933 0.005096
# 2 -0.003921 0.012050 -0.000819 0.006476 0.001095 0.001653
# 3 -0.003676 -0.000819 0.012914 0.003666 -0.000280 0.000611
# 4 -0.002322 0.006476 0.003666 0.032472 0.000294 0.000229
# 5 0.002933 0.001095 -0.000280 0.000294 0.028855 0.000509
# 6 0.005096 0.001653 0.000611 0.000229 0.000509 0.032236
#
#
# Mechanical properties :
#
#
# Convention : Reuss Voigt Hill
#
# Bulk Modulus (GPa) = 53.09474 72.04338 62.56906
# Shear Modulus (GPa) = 32.82133 36.87817 34.84975
#
# Velocity S-wave (km/s) = 4.03758 4.27984 4.16048
# Velocity P-wave (km/s) = 6.93598 7.75925 7.35914
#
# Compressibility (1/GPa) = 0.01883426
#
# Stress axis : x y z
#
# Youngs Moduli (GPa) = 93.43793 82.98854 77.43362
#
# Poissons Ratio (x) = 0.32540 0.28466
# Poissons Ratio (y) = 0.36637 0.06341
# Poissons Ratio (z) = 0.34350 0.06796
#
# Static dielectric constant tensor:
#      x y z
#    x 3.934650 -0.396250 -0.074030 
#    y -0.396250 3.556610 -0.585790 
#    z -0.074030 -0.585790 3.219370 
# 
# 
# High freq. dielectric constant tensor:
#      x y z
#    x 1.796010 -0.026010 -0.013560 
#    y -0.026010 1.781500 -0.025210 
#    z -0.013560 -0.025210 1.783400 
# 
# From -- ./inp_files/158478.got.cif
#   From: 2010.06.25/outbox.cif.g09.slc.cpg/sg2_80_cif.got.tgz:158478.got - 2010.06.27 13:26:56.
