data_PCOD8006151
_publ_section_title
;
Structure prediction by ZEFSAII (Michael W. Deem and Ramdas Pophale) SiO2 
 PCOD8006151
Probable space group: P -1
;
_chemical_formula_sum "Si O2"
_cell_formula_units_Z 16
_cell_length_a 11.645463
_cell_length_b 11.217200
_cell_length_c 25.206480
_cell_angle_alpha 40.581345
_cell_angle_beta 157.573055
_cell_angle_gamma 141.156608
_cell_volume 777.046989
_symmetry_space_group_name_H-M "P -1"
_symmetry_group_IT_number 2
_symmetry_cell_setting 'triclinic'
loop_
_space_group_symop_operation_xyz
x,y,z
-x,-y,-z
loop_
_atom_site_type_symbol
_atom_site_label
_atom_site_fract_x
_atom_site_fract_y
_atom_site_fract_z
Si Si1 0.171822 0.732515 0.836054
Si Si2 0.860069 0.949787 0.038234
Si Si3 0.759791 0.755981 0.561415
Si Si4 0.920953 0.309359 0.496731
Si Si5 0.660619 0.984219 0.685643
Si Si6 0.135741 0.987021 0.344624
Si Si7 0.662870 0.645459 0.444007
Si Si8 0.935434 0.286835 0.880858
O O1 0.085627 0.762487 0.727750
O O2 0.117560 0.507152 0.900737
O O3 0.938066 0.811551 0.745760
O O4 0.531942 0.856380 0.960817
O O5 0.162099 0.990583 0.191586
O O6 0.872895 0.156713 0.950615
O O7 0.860699 0.793962 0.046031
O O8 0.838686 0.768052 0.528386
O O9 0.478823 0.570048 0.522442
O O10 0.633205 0.929198 0.466509
O O11 0.543836 0.233680 0.346103
O O12 0.046550 0.168091 0.636770
O O13 0.000000 0.500000 0.500000
O O14 0.102163 0.347734 0.505625
O O15 0.930658 0.072405 0.725975
O O16 0.500000 0.000000 0.500000
O O17 0.395289 0.734130 0.281023
#
# Coordination Sequence:
#
# PCOD8006151 Si02
#       8
#     2   2   2   2   2   2   2   2
#     4  11  22  42  68  93 130 179 213 260 331 390
#     4  11  24  44  61  96 137 172 214 262 329 391
#     4  10  20  39  65  98 123 164 211 277 322 378
#     4  11  23  38  63  98 124 167 212 272 329 382
#     4  11  23  42  62  94 131 165 215 274 320 380
#     4  10  21  41  65  91 126 167 215 271 322 377
#     4  10  21  37  66  98 125 160 220 270 325 380
#     4  10  23  40  66  94 135 174 210 267 324 394
#
# _framework density 20.590776000000002
#
# number of rings (size 3 to 8) (size 9 to 14) (size 15 to 20)
#    0.000    1.500    3.750    1.875    5.250    3.000 
#    4.500    0.625    0.000    0.000    0.000    0.000 
#    0.000    0.000    0.000    0.000    0.000    0.000 
#
# Total GULP energy -198287.585399 kJ/mol
# GULP energy per Si atom -12392.974087 kJ/mol
# Density = 2.054391 g / cm^3
# Si number density = 20.590776 Si / 1000 Ang^3
#
#
#
# Elastic Constant Matrix: (Units=GPa)
#
#
# Indices 1 2 3 4 5 6 
#
# 1 134.1052 45.9794 12.8757 -8.0220 6.5957 0.0351
# 2 45.9794 120.4894 45.1148 -12.5261 -0.9392 -6.0619
# 3 12.8757 45.1148 71.7091 -2.3096 4.7715 2.9705
# 4 -8.0220 -12.5261 -2.3096 32.9224 -0.4068 0.7967
# 5 6.5957 -0.9392 4.7715 -0.4068 28.8176 -4.0371
# 6 0.0351 -6.0619 2.9705 0.7967 -4.0371 28.5767
#
#
#
# Elastic Compliance Matrix: (Units=1/GPa)
#
#
# Indices 1 2 3 4 5 6 
#
# 1 0.008813 -0.003745 0.001017 0.000794 -0.002476 -0.001283
# 2 -0.003745 0.013305 -0.007965 0.003534 0.003222 0.004012
# 3 0.001017 -0.007965 0.019190 -0.001386 -0.004285 -0.004252
# 4 0.000794 0.003534 -0.001386 0.031821 0.000625 0.000094
# 5 -0.002476 0.003222 -0.004285 0.000625 0.036979 0.006339
# 6 -0.001283 0.004012 -0.004252 0.000094 0.006339 0.037181
#
#
# Mechanical properties :
#
#
# Convention : Reuss Voigt Hill
#
# Bulk Modulus (GPa) = 50.19437 59.36040 54.77739
# Shear Modulus (GPa) = 28.51992 32.88561 30.70276
#
# Velocity S-wave (km/s) = 3.72571 4.00071 3.86566
# Velocity P-wave (km/s) = 6.55270 7.08747 6.82532
#
# Compressibility (1/GPa) = 0.01992255
#
# Stress axis : x y z
#
# Youngs Moduli (GPa) = 113.47027 75.15759 52.10953
#
# Poissons Ratio (x) = 0.28148 -0.05301
# Poissons Ratio (y) = 0.42498 0.41506
# Poissons Ratio (z) = -0.11544 0.59864
#
# Static dielectric constant tensor:
#      x y z
#    x 4.159310 0.006030 -0.188880 
#    y 0.006030 3.814490 -0.138750 
#    z -0.188880 -0.138750 3.581710 
# 
# 
# High freq. dielectric constant tensor:
#      x y z
#    x 1.815190 -0.005820 -0.002510 
#    y -0.005820 1.803600 -0.009370 
#    z -0.002510 -0.009370 1.785880 
# 
# From -- ./inp_files/462051.got.cif
#   From: 2010.06.25/outbox.cif.g09.slc.cpg/sg2_232_cif.got.tgz:462051.got - 2010.06.27 13:26:56.
