data_PCOD8006397
_publ_section_title
;
Structure prediction by ZEFSAII (Michael W. Deem and Ramdas Pophale) SiO2 
 PCOD8006397
Probable space group: P -1
;
_chemical_formula_sum "Si O2"
_cell_formula_units_Z 14
_cell_length_a 19.830245
_cell_length_b 8.721827
_cell_length_c 9.390897
_cell_angle_alpha 118.490839
_cell_angle_beta 49.032018
_cell_angle_gamma 148.658729
_cell_volume 623.504063
_symmetry_space_group_name_H-M "P -1"
_symmetry_group_IT_number 2
_symmetry_cell_setting 'triclinic'
loop_
_space_group_symop_operation_xyz
x,y,z
-x,-y,-z
loop_
_atom_site_type_symbol
_atom_site_label
_atom_site_fract_x
_atom_site_fract_y
_atom_site_fract_z
Si Si1 0.897760 0.836114 0.927289
Si Si2 0.013347 0.332153 0.477871
Si Si3 0.317900 0.216425 0.293601
Si Si4 0.850912 0.144202 0.061594
Si Si5 0.579774 0.849008 0.115097
Si Si6 0.439311 0.828749 0.856950
Si Si7 0.278946 0.943311 0.505443
O O1 0.956516 0.771473 0.721781
O O2 0.718366 0.524947 0.066742
O O3 0.909769 0.039154 0.917909
O O4 0.000000 0.000000 0.000000
O O5 0.000000 0.500000 0.500000
O O6 0.158513 0.589385 0.495518
O O7 0.853349 0.030836 0.649100
O O8 0.421060 0.556061 0.291669
O O9 0.279965 0.096205 0.452611
O O10 0.422148 0.237404 0.079211
O O11 0.761398 0.022009 0.279754
O O12 0.730800 0.009775 0.048749
O O13 0.000000 0.500000 0.000000
O O14 0.589593 0.069630 0.176683
O O15 0.553964 0.876593 0.644648
O O16 0.500000 0.000000 0.000000
#
# Coordination Sequence:
#
# PCOD8006397 Si02
#       7
#     2   2   2   2   2   2   2
#     4  12  25  43  74 105 144 190 239 298 363 427
#     4  10  20  39  69 100 137 185 242 286 347 431
#     4  10  21  39  67  99 137 182 238 284 360 427
#     4  12  28  47  68 106 152 187 240 307 363 421
#     4  11  24  41  67 102 144 181 234 310 351 417
#     4  12  23  45  73 105 141 185 250 296 361 435
#     4  11  23  44  72  98 141 196 236 290 363 437
#
# _framework density 22.453745000000001
#
# number of rings (size 3 to 8) (size 9 to 14) (size 15 to 20)
#    0.000    0.857    2.857    5.143    2.000    5.143 
#    0.000    2.143    0.000    0.000    0.000    0.000 
#    0.000    0.000    0.000    0.000    0.000    0.000 
#
# Total GULP energy -173555.820441 kJ/mol
# GULP energy per Si atom -12396.844317 kJ/mol
# Density = 2.240264 g / cm^3
# Si number density = 22.453745 Si / 1000 Ang^3
#
#
#
# Elastic Constant Matrix: (Units=GPa)
#
#
# Indices 1 2 3 4 5 6 
#
# 1 110.7512 51.8540 20.6749 -5.2637 -10.6565 -11.7928
# 2 51.8540 140.4582 19.9999 -20.9510 -18.9460 -5.0446
# 3 20.6749 19.9999 108.6493 -2.8600 -15.4556 -10.0979
# 4 -5.2637 -20.9510 -2.8600 46.8708 3.7725 -6.4080
# 5 -10.6565 -18.9460 -15.4556 3.7725 37.5122 -0.6816
# 6 -11.7928 -5.0446 -10.0979 -6.4080 -0.6816 43.8862
#
#
#
# Elastic Compliance Matrix: (Units=1/GPa)
#
#
# Indices 1 2 3 4 5 6 
#
# 1 0.011373 -0.003879 -0.001116 -0.000277 0.000882 0.002327
# 2 -0.003879 0.009610 -0.000426 0.003650 0.003219 0.000547
# 3 -0.001116 -0.000426 0.010223 0.000299 0.003688 0.002104
# 4 -0.000277 0.003650 0.000299 0.023512 -0.000407 0.003840
# 5 0.000882 0.003219 0.003688 -0.000407 0.030129 0.001864
# 6 0.002327 0.000547 0.002104 0.003840 0.001864 0.024548
#
#
# Mechanical properties :
#
#
# Convention : Reuss Voigt Hill
#
# Bulk Modulus (GPa) = 49.10307 60.54624 54.82465
# Shear Modulus (GPa) = 39.36257 43.47584 41.41920
#
# Velocity S-wave (km/s) = 4.19149 4.40505 4.29959
# Velocity P-wave (km/s) = 6.73356 7.27296 7.00845
#
# Compressibility (1/GPa) = 0.02036533
#
# Stress axis : x y z
#
# Youngs Moduli (GPa) = 87.92793 104.05336 97.82119
#
# Poissons Ratio (x) = 0.40358 0.10914
# Poissons Ratio (y) = 0.34103 0.04168
# Poissons Ratio (z) = 0.09810 0.04434
#
# Static dielectric constant tensor:
#      x y z
#    x 4.064970 0.137400 -0.140170 
#    y 0.137400 4.507070 -0.304540 
#    z -0.140170 -0.304540 4.030670 
# 
# 
# High freq. dielectric constant tensor:
#      x y z
#    x 1.879960 0.005500 -0.011460 
#    y 0.005500 1.901250 -0.014690 
#    z -0.011460 -0.014690 1.883520 
# 
# From -- ./inp_files/343753.got.cif
#   From: 2010.06.25/outbox.cif.g09.slc.cpg/sg2_172_cif.got.tgz:343753.got - 2010.06.27 13:26:56.
