data_PCOD8006179
_publ_section_title
;
Structure prediction by ZEFSAII (Michael W. Deem and Ramdas Pophale) SiO2 
 PCOD8006179
Probable space group: P -1
;
_chemical_formula_sum "Si O2"
_cell_formula_units_Z 16
_cell_length_a 15.361918
_cell_length_b 8.711229
_cell_length_c 13.355495
_cell_angle_alpha 111.359974
_cell_angle_beta 28.799468
_cell_angle_gamma 112.206963
_cell_volume 794.946187
_symmetry_space_group_name_H-M "P -1"
_symmetry_group_IT_number 2
_symmetry_cell_setting 'triclinic'
loop_
_space_group_symop_operation_xyz
x,y,z
-x,-y,-z
loop_
_atom_site_type_symbol
_atom_site_label
_atom_site_fract_x
_atom_site_fract_y
_atom_site_fract_z
Si Si1 0.954298 0.735499 0.732778
Si Si2 0.995432 0.075943 0.884847
Si Si3 0.452291 0.398426 0.126706
Si Si4 0.003520 0.414287 0.867374
Si Si5 0.801710 0.407899 0.875009
Si Si6 0.736308 0.388950 0.493283
Si Si7 0.296399 0.939194 0.661361
Si Si8 0.065004 0.191462 0.454322
O O1 0.786039 0.590124 0.883369
O O2 0.001085 0.789062 0.586643
O O3 0.110830 0.629055 0.583414
O O4 0.930122 0.895360 0.861711
O O5 0.022752 0.219045 0.808804
O O6 0.189368 0.075539 0.745821
O O7 0.834676 0.125252 0.129833
O O8 0.421429 0.531280 0.274615
O O9 0.283204 0.250277 0.251284
O O10 0.500000 0.500000 0.000000
O O11 0.616113 0.309012 0.991425
O O12 0.186278 0.499402 0.651483
O O13 0.826282 0.429817 0.977235
O O14 0.000000 0.500000 0.000000
O O15 0.970274 0.311581 0.650757
O O16 0.665451 0.205875 0.485077
O O17 0.500000 0.000000 0.500000
O O18 0.000000 0.000000 0.500000
#
# Coordination Sequence:
#
# PCOD8006179 Si02
#       8
#     2   2   2   2   2   2   2   2
#     4  10  20  39  66  89 123 174 211 265 326 393
#     4  10  22  39  61  91 125 166 217 270 323 377
#     4  12  24  42  70  99 129 173 226 271 328 401
#     4  11  21  42  66  91 132 177 213 268 331 382
#     4  11  24  42  66  96 130 173 222 266 326 402
#     4  10  22  41  64  94 129 169 221 263 322 401
#     4  10  22  39  62  91 126 167 220 267 315 387
#     4  12  24  43  69  96 134 169 215 277 340 391
#
# _framework density 20.127147000000001
#
# number of rings (size 3 to 8) (size 9 to 14) (size 15 to 20)
#    0.000    1.250    5.000    1.875    3.500    0.500 
#    2.250    1.250    0.000    0.000    0.000    0.000 
#    0.000    0.000    0.000    0.000    0.000    0.000 
#
# Total GULP energy -198221.223284 kJ/mol
# GULP energy per Si atom -12388.826455 kJ/mol
# Density = 2.008134 g / cm^3
# Si number density = 20.127147 Si / 1000 Ang^3
#
#
#
# Elastic Constant Matrix: (Units=GPa)
#
#
# Indices 1 2 3 4 5 6 
#
# 1 115.8027 44.5645 58.2640 -12.5763 11.8577 -5.3166
# 2 44.5645 121.6585 37.5176 -8.5131 -0.3703 -12.8362
# 3 58.2640 37.5176 92.4580 -9.4095 -0.8459 2.6054
# 4 -12.5763 -8.5131 -9.4095 27.5955 6.1797 7.2392
# 5 11.8577 -0.3703 -0.8459 6.1797 37.0662 -5.8909
# 6 -5.3166 -12.8362 2.6054 7.2392 -5.8909 32.9082
#
#
#
# Elastic Compliance Matrix: (Units=1/GPa)
#
#
# Indices 1 2 3 4 5 6 
#
# 1 0.014608 -0.002685 -0.007709 0.004481 -0.005634 -0.000071
# 2 -0.002685 0.010460 -0.002697 -0.000397 0.001642 0.004241
# 3 -0.007709 -0.002697 0.017100 0.002050 0.001890 -0.003764
# 4 0.004481 -0.000397 0.002050 0.044150 -0.010530 -0.011190
# 5 -0.005634 0.001642 0.001890 -0.010530 0.031802 0.007590
# 6 -0.000071 0.004241 -0.003764 -0.011190 0.007590 0.036149
#
#
# Mechanical properties :
#
#
# Convention : Reuss Voigt Hill
#
# Bulk Modulus (GPa) = 62.55926 67.84570 65.20248
# Shear Modulus (GPa) = 26.91358 32.15218 29.53288
#
# Velocity S-wave (km/s) = 3.66071 4.00115 3.83471
# Velocity P-wave (km/s) = 7.00123 7.42478 7.21611
#
# Compressibility (1/GPa) = 0.01598484
#
# Stress axis : x y z
#
# Youngs Moduli (GPa) = 68.45765 95.60551 58.47790
#
# Poissons Ratio (x) = 0.25665 0.45083
# Poissons Ratio (y) = 0.18377 0.15774
# Poissons Ratio (z) = 0.52777 0.25789
#
# Static dielectric constant tensor:
#      x y z
#    x 4.227090 0.728540 -0.392940 
#    y 0.728540 5.073580 -0.941530 
#    z -0.392940 -0.941530 4.176940 
# 
# 
# High freq. dielectric constant tensor:
#      x y z
#    x 1.799350 0.008730 0.009450 
#    y 0.008730 1.788920 0.002170 
#    z 0.009450 0.002170 1.772850 
# 
# From -- ./inp_files/348580.got.cif
#   From: 2010.06.25/outbox.cif.g09.slc.cpg/sg2_175_cif.got.tgz:348580.got - 2010.06.27 13:26:56.
