data_PCOD8006334
_publ_section_title
;
Structure prediction by ZEFSAII (Michael W. Deem and Ramdas Pophale) SiO2 
 PCOD8006334
Probable space group: P -1
;
_chemical_formula_sum "Si O2"
_cell_formula_units_Z 16
_cell_length_a 10.024091
_cell_length_b 9.375007
_cell_length_c 10.901523
_cell_angle_alpha 83.274437
_cell_angle_beta 90.756015
_cell_angle_gamma 42.790449
_cell_volume 683.656904
_symmetry_space_group_name_H-M "P -1"
_symmetry_group_IT_number 2
_symmetry_cell_setting 'triclinic'
loop_
_space_group_symop_operation_xyz
x,y,z
-x,-y,-z
loop_
_atom_site_type_symbol
_atom_site_label
_atom_site_fract_x
_atom_site_fract_y
_atom_site_fract_z
Si Si1 0.464415 0.243220 0.245593
Si Si2 0.950714 0.457781 0.880603
Si Si3 0.009246 0.074077 0.618586
Si Si4 0.170102 0.245246 0.666025
Si Si5 0.431603 0.209555 0.517837
Si Si6 0.344702 0.633368 0.802248
Si Si7 0.000795 0.147117 0.052658
Si Si8 0.668373 0.187771 0.725360
O O1 0.275809 0.325408 0.170309
O O2 0.416135 0.317188 0.382829
O O3 0.503608 0.360463 0.157399
O O4 0.631263 0.989389 0.258708
O O5 0.069134 0.404008 0.764509
O O6 0.000000 0.500000 0.000000
O O7 0.006611 0.249152 0.928396
O O8 0.806701 0.207485 0.677282
O O9 0.038766 0.224122 0.599889
O O10 0.000000 0.000000 0.500000
O O11 0.201114 0.844197 0.697065
O O12 0.220026 0.341989 0.567754
O O13 0.595862 0.146308 0.616839
O O14 0.500000 0.000000 0.500000
O O15 0.467940 0.409489 0.760661
O O16 0.210731 0.664399 0.900333
O O17 0.193362 0.012365 0.157365
O O18 0.000000 0.000000 0.000000
#
# Coordination Sequence:
#
# PCOD8006334 Si02
#       8
#     2   2   2   2   2   2   2   2
#     4  10  22  44  68  94 135 170 217 283 336 404
#     4  12  28  43  65  99 135 180 233 273 334 411
#     4  10  20  39  67  99 135 173 219 281 340 405
#     4  10  23  44  65  96 137 180 215 273 349 394
#     4  10  23  42  68  97 134 179 217 270 349 406
#     4  10  22  39  67 100 127 170 229 273 337 390
#     4  11  25  45  67  97 136 179 230 283 333 398
#     4  11  23  40  69  96 132 172 228 280 329 401
#
# _framework density 23.403552000000001
#
# number of rings (size 3 to 8) (size 9 to 14) (size 15 to 20)
#    0.000    1.500    0.000    6.000    5.250    7.000 
#    0.000    0.000    0.000    0.000    0.000    0.000 
#    0.000    0.000    0.000    0.000    0.000    0.000 
#
# Total GULP energy -198227.717581 kJ/mol
# GULP energy per Si atom -12389.232349 kJ/mol
# Density = 2.335028 g / cm^3
# Si number density = 23.403552 Si / 1000 Ang^3
#
#
#
# Elastic Constant Matrix: (Units=GPa)
#
#
# Indices 1 2 3 4 5 6 
#
# 1 107.0903 24.7922 22.0996 5.1429 14.0246 -18.9543
# 2 24.7922 84.0629 6.1895 24.2601 11.2497 -14.0581
# 3 22.0996 6.1895 65.0201 17.8531 30.3353 -9.1081
# 4 5.1429 24.2601 17.8531 32.2500 0.7635 -8.5516
# 5 14.0246 11.2497 30.3353 0.7635 45.4880 0.8757
# 6 -18.9543 -14.0581 -9.1081 -8.5516 0.8757 28.5985
#
#
#
# Elastic Compliance Matrix: (Units=1/GPa)
#
#
# Indices 1 2 3 4 5 6 
#
# 1 0.011883 -0.003392 -0.003843 0.004475 -0.000459 0.006337
# 2 -0.003392 0.019583 0.009620 -0.017844 -0.010018 0.005413
# 3 -0.003843 0.009620 0.034151 -0.023148 -0.023713 0.006863
# 4 0.004475 -0.017844 -0.023148 0.057002 0.017449 0.003333
# 5 -0.000459 -0.010018 -0.023713 0.017449 0.040293 -0.008797
# 6 0.006337 0.005413 0.006863 0.003333 -0.008797 0.045279
#
#
# Mechanical properties :
#
#
# Convention : Reuss Voigt Hill
#
# Bulk Modulus (GPa) = 14.20701 40.25953 27.23327
# Shear Modulus (GPa) = 22.03779 34.80678 28.42228
#
# Velocity S-wave (km/s) = 3.07195 3.86066 3.48867
# Velocity P-wave (km/s) = 4.32043 6.09201 5.28104
#
# Compressibility (1/GPa) = 0.07038777
#
# Stress axis : x y z
#
# Youngs Moduli (GPa) = 84.15404 51.06370 29.28203
#
# Poissons Ratio (x) = 0.17321 0.11253
# Poissons Ratio (y) = 0.28545 -0.28170
# Poissons Ratio (z) = 0.32340 -0.49125
#
# Static dielectric constant tensor:
#      x y z
#    x 4.902660 -0.326770 0.266810 
#    y -0.326770 4.043750 0.149330 
#    z 0.266810 0.149330 5.827320 
# 
# 
# High freq. dielectric constant tensor:
#      x y z
#    x 1.937890 -0.014990 -0.003170 
#    y -0.014990 1.921990 0.002470 
#    z -0.003170 0.002470 1.924020 
# 
# From -- ./inp_files/382376.got.cif
#   From: 2010.06.25/outbox.cif.g09.slc.cpg/sg2_192_cif.got.tgz:382376.got - 2010.06.27 13:26:56.
