data_PCOD8006200
_publ_section_title
;
Structure prediction by ZEFSAII (Michael W. Deem and Ramdas Pophale) SiO2 
 PCOD8006200
Probable space group: P -1
;
_chemical_formula_sum "Si O2"
_cell_formula_units_Z 16
_cell_length_a 13.901718
_cell_length_b 8.554576
_cell_length_c 6.993966
_cell_angle_alpha 78.773779
_cell_angle_beta 60.676941
_cell_angle_gamma 86.963122
_cell_volume 710.427158
_symmetry_space_group_name_H-M "P -1"
_symmetry_group_IT_number 2
_symmetry_cell_setting 'triclinic'
loop_
_space_group_symop_operation_xyz
x,y,z
-x,-y,-z
loop_
_atom_site_type_symbol
_atom_site_label
_atom_site_fract_x
_atom_site_fract_y
_atom_site_fract_z
Si Si1 0.738414 0.991578 0.301745
Si Si2 0.899423 0.517570 0.737893
Si Si3 0.851383 0.170908 0.804983
Si Si4 0.262845 0.754974 0.460864
Si Si5 0.100340 0.220625 0.585977
Si Si6 0.628126 0.686600 0.335884
Si Si7 0.861810 0.541542 0.185503
Si Si8 0.531252 0.439945 0.776451
O O1 0.818439 0.909843 0.393580
O O2 0.641177 0.870469 0.349172
O O3 0.689944 0.137741 0.432756
O O4 0.807393 0.052091 0.038265
O O5 0.823307 0.354699 0.838758
O O6 0.842856 0.675800 0.671065
O O7 0.000000 0.500000 0.500000
O O8 0.936163 0.541210 0.918945
O O9 0.789432 0.131309 0.675149
O O10 0.981466 0.142501 0.659728
O O11 0.164283 0.633124 0.658862
O O12 0.361165 0.662584 0.292638
O O13 0.074901 0.342775 0.753942
O O14 0.746518 0.612774 0.217364
O O15 0.553017 0.596273 0.589181
O O16 0.568361 0.670595 0.192298
O O17 0.500000 0.500000 0.000000
#
# Coordination Sequence:
#
# PCOD8006200 Si02
#       8
#     2   2   2   2   2   2   2   2
#     4  11  24  43  63  94 141 170 212 268 332 388
#     4  10  21  36  62  94 123 169 228 266 305 372
#     4  11  23  38  61  96 134 175 221 265 324 376
#     4  11  24  39  65  99 130 174 214 271 332 387
#     4  10  23  40  61  93 130 179 230 264 308 378
#     4   9  23  42  68  97 122 170 214 263 333 395
#     4  10  20  39  66  91 129 173 220 271 315 375
#     4  10  23  44  72  97 124 162 218 274 328 395
#
# _framework density 22.521661999999999
#
# number of rings (size 3 to 8) (size 9 to 14) (size 15 to 20)
#    0.000    1.750    2.500    0.375    1.750    9.000 
#    0.000    1.250    0.000    0.000    0.000    0.000 
#    0.000    0.000    0.000    0.000    0.000    0.000 
#
# Total GULP energy -198383.762162 kJ/mol
# GULP energy per Si atom -12398.985135 kJ/mol
# Density = 2.247040 g / cm^3
# Si number density = 22.521662 Si / 1000 Ang^3
#
#
#
# Elastic Constant Matrix: (Units=GPa)
#
#
# Indices 1 2 3 4 5 6 
#
# 1 88.8494 22.2274 33.6704 2.7664 14.0219 18.2114
# 2 22.2274 100.5887 34.9353 4.2510 -0.2843 17.5435
# 3 33.6704 34.9353 112.9861 7.7519 18.8786 -3.8913
# 4 2.7664 4.2510 7.7519 45.0061 -0.3267 7.5643
# 5 14.0219 -0.2843 18.8786 -0.3267 34.0196 1.9896
# 6 18.2114 17.5435 -3.8913 7.5643 1.9896 33.0880
#
#
#
# Elastic Compliance Matrix: (Units=1/GPa)
#
#
# Indices 1 2 3 4 5 6 
#
# 1 0.015262 -0.000442 -0.004228 0.001278 -0.003424 -0.008749
# 2 -0.000442 0.013001 -0.004783 0.000930 0.003400 -0.007630
# 3 -0.004228 -0.004783 0.013040 -0.002822 -0.005993 0.007402
# 4 0.001278 0.000930 -0.002822 0.023737 0.001688 -0.007056
# 5 -0.003424 0.003400 -0.005993 0.001688 0.034356 -0.003075
# 6 -0.008749 -0.007630 0.007402 -0.007056 -0.003075 0.041752
#
#
# Mechanical properties :
#
#
# Convention : Reuss Voigt Hill
#
# Bulk Modulus (GPa) = 44.65009 53.78783 49.21896
# Shear Modulus (GPa) = 29.84721 36.52883 33.18802
#
# Velocity S-wave (km/s) = 3.64437 4.03170 3.84292
# Velocity P-wave (km/s) = 6.13001 6.75332 6.44920
#
# Compressibility (1/GPa) = 0.02239637
#
# Stress axis : x y z
#
# Youngs Moduli (GPa) = 65.52315 76.91546 76.68915
#
# Poissons Ratio (x) = 0.03396 0.32428
# Poissons Ratio (y) = 0.02893 0.36681
# Poissons Ratio (z) = 0.27706 0.36790
#
# Static dielectric constant tensor:
#      x y z
#    x 4.071070 -0.022320 0.384890 
#    y -0.022320 4.254630 -0.236400 
#    z 0.384890 -0.236400 4.196910 
# 
# 
# High freq. dielectric constant tensor:
#      x y z
#    x 1.881970 0.005090 0.023490 
#    y 0.005090 1.883680 -0.000270 
#    z 0.023490 -0.000270 1.889930 
# 
# From -- ./inp_files/90042.got.cif
#   From: 2010.06.25/outbox.cif.g09.slc.cpg/sg2_46_cif.got.tgz:90042.got - 2010.06.27 13:26:56.
