data_PCOD8006833
_publ_section_title
;
Structure prediction by ZEFSAII (Michael W. Deem and Ramdas Pophale) SiO2 
 PCOD8006833
Probable space group: P -1
;
_chemical_formula_sum "Si O2"
_cell_formula_units_Z 14
_cell_length_a 11.138791
_cell_length_b 11.533910
_cell_length_c 6.299337
_cell_angle_alpha 52.299437
_cell_angle_beta 95.489229
_cell_angle_gamma 108.033835
_cell_volume 604.138685
_symmetry_space_group_name_H-M "P -1"
_symmetry_group_IT_number 2
_symmetry_cell_setting 'triclinic'
loop_
_space_group_symop_operation_xyz
x,y,z
-x,-y,-z
loop_
_atom_site_type_symbol
_atom_site_label
_atom_site_fract_x
_atom_site_fract_y
_atom_site_fract_z
Si Si1 0.001609 0.274438 0.380476
Si Si2 0.681564 0.799769 0.373875
Si Si3 0.379937 0.031703 0.203401
Si Si4 0.146395 0.054428 0.385127
Si Si5 0.457194 0.755096 0.670248
Si Si6 0.813485 0.461360 0.140051
Si Si7 0.150168 0.307766 0.768031
O O1 0.879883 0.330668 0.263849
O O2 0.026012 0.261846 0.648438
O O3 0.977038 0.105678 0.449337
O O4 0.128217 0.397133 0.169281
O O5 0.806529 0.884227 0.440090
O O6 0.565320 0.707159 0.611587
O O7 0.721415 0.686324 0.345106
O O8 0.641592 0.927018 0.088438
O O9 0.251907 0.993561 0.361074
O O10 0.489377 0.172513 0.174671
O O11 0.419007 0.877589 0.379273
O O12 0.120924 0.184055 0.088909
O O13 0.336091 0.605895 0.861291
O O14 0.830710 0.524215 0.314511
#
# Coordination Sequence:
#
# PCOD8006833 Si02
#       7
#     2   2   2   2   2   2   2
#     4  11  24  45  65  93 126 174 215 259 312 370
#     4  10  22  39  66  98 124 163 213 262 320 369
#     4   9  19  38  66  97 124 161 213 264 313 371
#     4  10  21  42  69  93 126 165 218 265 304 374
#     4  10  20  40  64  95 130 163 208 262 315 378
#     4  11  25  42  64  95 133 166 207 263 318 381
#     4  11  24  42  63  95 131 168 211 258 319 378
#
# _framework density 23.173487000000002
#
# number of rings (size 3 to 8) (size 9 to 14) (size 15 to 20)
#    0.000    1.714    1.429    2.143    0.000    6.286 
#    5.143   10.000    0.000    0.000    0.000    0.000 
#    0.000    0.000    0.000    0.000    0.000    0.000 
#
# Total GULP energy -173659.159086 kJ/mol
# GULP energy per Si atom -12404.225649 kJ/mol
# Density = 2.312074 g / cm^3
# Si number density = 23.173487 Si / 1000 Ang^3
#
#
#
# Elastic Constant Matrix: (Units=GPa)
#
#
# Indices 1 2 3 4 5 6 
#
# 1 112.8202 40.4301 43.7464 -6.7067 -21.9945 20.0011
# 2 40.4301 128.3825 59.0535 -5.5187 -9.2528 9.7083
# 3 43.7464 59.0535 108.5177 13.8131 9.2327 16.9910
# 4 -6.7067 -5.5187 13.8131 33.5559 4.0499 3.3135
# 5 -21.9945 -9.2528 9.2327 4.0499 39.6061 1.7311
# 6 20.0011 9.7083 16.9910 3.3135 1.7311 45.7768
#
#
#
# Elastic Compliance Matrix: (Units=1/GPa)
#
#
# Indices 1 2 3 4 5 6 
#
# 1 0.014229 -0.000480 -0.006120 0.004651 0.008938 -0.004518
# 2 -0.000480 0.011586 -0.006942 0.004240 0.003630 -0.000115
# 3 -0.006120 -0.006942 0.017448 -0.008422 -0.008165 -0.001412
# 4 0.004651 0.004240 -0.008422 0.034882 0.002075 -0.002409
# 5 0.008938 0.003630 -0.008165 0.002075 0.032884 -0.003038
# 6 -0.004518 -0.000115 -0.001412 -0.002409 -0.003038 0.024657
#
#
# Mechanical properties :
#
#
# Convention : Reuss Voigt Hill
#
# Bulk Modulus (GPa) = 61.81011 70.68671 66.24841
# Shear Modulus (GPa) = 29.73312 37.55377 33.64345
#
# Velocity S-wave (km/s) = 3.58588 4.02997 3.81439
# Velocity P-wave (km/s) = 6.62385 7.22660 6.93178
#
# Compressibility (1/GPa) = 0.01617858
#
# Stress axis : x y z
#
# Youngs Moduli (GPa) = 70.28074 86.30925 57.31437
#
# Poissons Ratio (x) = 0.04144 0.35075
# Poissons Ratio (y) = 0.03374 0.39788
# Poissons Ratio (z) = 0.43010 0.59917
#
# Static dielectric constant tensor:
#      x y z
#    x 4.454080 -0.107750 0.047880 
#    y -0.107750 4.143910 0.117230 
#    z 0.047880 0.117230 3.965000 
# 
# 
# High freq. dielectric constant tensor:
#      x y z
#    x 1.945740 -0.014560 0.005050 
#    y -0.014560 1.910330 0.010950 
#    z 0.005050 0.010950 1.905860 
# 
# From -- ./inp_files/52735.got.cif
#   From: 2010.06.25/outbox.cif.g09.slc.cpg/sg2_27_cif.got.tgz:52735.got - 2010.06.27 13:26:56.
