data_PCOD8006541
_publ_section_title
;
Structure prediction by ZEFSAII (Michael W. Deem and Ramdas Pophale) SiO2 
 PCOD8006541
Probable space group: P -1
;
_chemical_formula_sum "Si O2"
_cell_formula_units_Z 16
_cell_length_a 18.388238
_cell_length_b 6.521614
_cell_length_c 15.134377
_cell_angle_alpha 111.099521
_cell_angle_beta 151.430601
_cell_angle_gamma 57.540780
_cell_volume 703.903898
_symmetry_space_group_name_H-M "P -1"
_symmetry_group_IT_number 2
_symmetry_cell_setting 'triclinic'
loop_
_space_group_symop_operation_xyz
x,y,z
-x,-y,-z
loop_
_atom_site_type_symbol
_atom_site_label
_atom_site_fract_x
_atom_site_fract_y
_atom_site_fract_z
Si Si1 0.961294 0.944862 0.306876
Si Si2 0.703862 0.734094 0.525824
Si Si3 0.749526 0.411390 0.686407
Si Si4 0.770639 0.630772 0.054660
Si Si5 0.328201 0.484619 0.890836
Si Si6 0.966918 0.902709 0.774174
Si Si7 0.547533 0.723546 0.674160
Si Si8 0.691523 0.433996 0.305648
O O1 0.901117 0.737654 0.192369
O O2 0.056390 0.967110 0.324994
O O3 0.119827 0.825875 0.529017
O O4 0.791106 0.208661 0.190518
O O5 0.784637 0.572641 0.675709
O O6 0.647092 0.591565 0.372703
O O7 0.838190 0.789756 0.625449
O O8 0.542301 0.002162 0.425465
O O9 0.917762 0.127122 0.828390
O O10 0.717649 0.541779 0.768356
O O11 0.579256 0.395172 0.471673
O O12 0.737294 0.644256 0.126689
O O13 0.597174 0.773714 0.832877
O O14 0.842089 0.341026 0.051652
O O15 0.307243 0.408088 0.756199
O O16 0.531782 0.379974 0.112278
#
# Coordination Sequence:
#
# PCOD8006541 Si02
#       8
#     2   2   2   2   2   2   2   2
#     4  11  22  43  62  90 129 166 202 258 310 361
#     4  11  20  39  63  87 118 163 206 247 307 370
#     4  10  20  40  60  92 119 160 206 248 312 366
#     4  11  22  41  60  92 125 160 204 255 305 368
#     4  10  25  40  61  97 124 158 215 250 305 375
#     4  10  21  38  62  86 122 159 206 245 307 370
#     4  10  23  36  63  90 123 158 202 259 304 366
#     4  11  21  43  65  89 126 165 203 258 308 366
#
# _framework density 22.730374999999999
#
# number of rings (size 3 to 8) (size 9 to 14) (size 15 to 20)
#    0.000    1.500    2.500    2.250    1.750    2.000 
#    2.250    4.375    0.000    0.000    0.000    0.000 
#    0.000    0.000    0.000    0.000    0.000    0.000 
#
# Total GULP energy -198278.571122 kJ/mol
# GULP energy per Si atom -12392.410695 kJ/mol
# Density = 2.267864 g / cm^3
# Si number density = 22.730375 Si / 1000 Ang^3
#
#
#
# Elastic Constant Matrix: (Units=GPa)
#
#
# Indices 1 2 3 4 5 6 
#
# 1 104.9408 16.1087 10.1375 4.9470 -5.4701 22.2632
# 2 16.1087 67.3008 13.9267 -8.4466 2.1983 14.2124
# 3 10.1375 13.9267 79.6704 -8.4727 4.6552 12.4872
# 4 4.9470 -8.4466 -8.4727 18.4894 -4.1994 4.8881
# 5 -5.4701 2.1983 4.6552 -4.1994 30.0617 -5.4925
# 6 22.2632 14.2124 12.4872 4.8881 -5.4925 41.1222
#
#
#
# Elastic Compliance Matrix: (Units=1/GPa)
#
#
# Indices 1 2 3 4 5 6 
#
# 1 0.011055 -0.001886 -0.000689 -0.002667 0.001031 -0.004670
# 2 -0.001886 0.018081 -0.000815 0.009760 -0.001330 -0.006319
# 3 -0.000689 -0.000815 0.014443 0.007225 -0.002185 -0.004882
# 4 -0.002667 0.009760 0.007225 0.066697 0.004917 -0.011395
# 5 0.001031 -0.001330 -0.002185 0.004917 0.035436 0.004714
# 6 -0.004670 -0.006319 -0.004882 -0.011395 0.004714 0.032496
#
#
# Mechanical properties :
#
#
# Convention : Reuss Voigt Hill
#
# Bulk Modulus (GPa) = 27.17339 36.91755 32.04547
# Shear Modulus (GPa) = 25.34788 32.05059 28.69924
#
# Velocity S-wave (km/s) = 3.34302 3.75912 3.55715
# Velocity P-wave (km/s) = 5.18475 5.92605 5.56775
#
# Compressibility (1/GPa) = 0.03680071
#
# Stress axis : x y z
#
# Youngs Moduli (GPa) = 90.45434 55.30572 69.23781
#
# Poissons Ratio (x) = 0.10429 0.04770
# Poissons Ratio (y) = 0.17057 0.05641
# Poissons Ratio (z) = 0.06232 0.04506
#
# Static dielectric constant tensor:
#      x y z
#    x 4.280670 -0.116200 0.048560 
#    y -0.116200 4.190720 -0.328160 
#    z 0.048560 -0.328160 3.783640 
# 
# 
# High freq. dielectric constant tensor:
#      x y z
#    x 1.910540 -0.001140 0.003580 
#    y -0.001140 1.893610 -0.022820 
#    z 0.003580 -0.022820 1.874620 
# 
# From -- ./inp_files/44697.got.cif
#   From: 2010.06.25/outbox.cif.g09.slc.cpg/sg2_23_cif.got.tgz:44697.got - 2010.06.27 13:26:56.
