data_PCOD8006253
_publ_section_title
;
Structure prediction by ZEFSAII (Michael W. Deem and Ramdas Pophale) SiO2 
 PCOD8006253
Probable space group: P -1
;
_chemical_formula_sum "Si O2"
_cell_formula_units_Z 16
_cell_length_a 13.846425
_cell_length_b 11.776472
_cell_length_c 9.439261
_cell_angle_alpha 53.822839
_cell_angle_beta 112.458032
_cell_angle_gamma 68.454702
_cell_volume 697.158885
_symmetry_space_group_name_H-M "P -1"
_symmetry_group_IT_number 2
_symmetry_cell_setting 'triclinic'
loop_
_space_group_symop_operation_xyz
x,y,z
-x,-y,-z
loop_
_atom_site_type_symbol
_atom_site_label
_atom_site_fract_x
_atom_site_fract_y
_atom_site_fract_z
Si Si1 0.274976 0.963772 0.933282
Si Si2 0.876628 0.721770 0.626440
Si Si3 0.492190 0.760509 0.459441
Si Si4 0.444395 0.915800 0.605293
Si Si5 0.120260 0.585498 0.071437
Si Si6 0.440057 0.577686 0.131474
Si Si7 0.293539 0.590331 0.793177
Si Si8 0.966546 0.021375 0.131074
O O1 0.195366 0.907448 0.995308
O O2 0.153154 0.205096 0.608194
O O3 0.381192 0.933053 0.136611
O O4 0.398612 0.778463 0.012295
O O5 0.941654 0.490281 0.824837
O O6 0.711018 0.908780 0.500053
O O7 0.026649 0.668349 0.804922
O O8 0.388346 0.884809 0.458607
O O9 0.673377 0.648828 0.651111
O O10 0.524627 0.558447 0.611542
O O11 0.500000 0.000000 0.500000
O O12 0.610496 0.663956 0.958650
O O13 0.063313 0.789997 0.964482
O O14 0.603021 0.409390 0.244887
O O15 0.282936 0.670885 0.886020
O O16 0.108869 0.781631 0.474983
O O17 0.000000 0.000000 0.000000
#
# Coordination Sequence:
#
# PCOD8006253 Si02
#       8
#     2   2   2   2   2   2   2   2
#     4  12  25  42  71 105 137 179 234 289 349 410
#     4  11  26  47  73 103 136 184 236 286 341 419
#     4  11  24  41  69 104 138 181 227 289 354 407
#     4  11  23  45  72  99 134 185 231 280 344 420
#     4  11  26  46  71  99 142 185 236 280 347 415
#     4  10  20  39  66  99 131 177 228 285 334 413
#     4  10  23  39  67 101 134 178 236 284 339 406
#     4  12  28  44  67 104 147 185 227 292 354 404
#
# _framework density 22.950292999999999
#
# number of rings (size 3 to 8) (size 9 to 14) (size 15 to 20)
#    0.000    1.000    3.750    1.875   10.500    1.500 
#    2.250    0.625    0.000    0.000    0.000    0.000 
#    0.000    0.000    0.000    0.000    0.000    0.000 
#
# Total GULP energy -198224.810355 kJ/mol
# GULP energy per Si atom -12389.050647 kJ/mol
# Density = 2.289806 g / cm^3
# Si number density = 22.950293 Si / 1000 Ang^3
#
#
#
# Elastic Constant Matrix: (Units=GPa)
#
#
# Indices 1 2 3 4 5 6 
#
# 1 85.5027 31.0246 45.1879 10.1773 -7.0561 10.4907
# 2 31.0246 67.0705 47.9545 0.7868 -4.6590 2.8063
# 3 45.1879 47.9545 171.0663 22.3474 -9.3393 3.9408
# 4 10.1773 0.7868 22.3474 28.6486 -0.7732 -7.5550
# 5 -7.0561 -4.6590 -9.3393 -0.7732 38.1918 -0.8566
# 6 10.4907 2.8063 3.9408 -7.5550 -0.8566 26.8293
#
#
#
# Elastic Compliance Matrix: (Units=1/GPa)
#
#
# Indices 1 2 3 4 5 6 
#
# 1 0.016503 -0.006003 -0.001590 -0.006346 0.001635 -0.007326
# 2 -0.006003 0.021282 -0.005253 0.006367 0.000392 0.002698
# 3 -0.001590 -0.005253 0.008694 -0.006551 0.001016 -0.001918
# 4 -0.006346 0.006367 -0.006551 0.046236 -0.000708 0.015775
# 5 0.001635 0.000392 0.001016 -0.000708 0.026764 -0.000174
# 6 -0.007326 0.002698 -0.001918 0.015775 -0.000174 0.044573
#
#
# Mechanical properties :
#
#
# Convention : Reuss Voigt Hill
#
# Bulk Modulus (GPa) = 48.10460 63.55263 55.82861
# Shear Modulus (GPa) = 25.42327 32.03212 28.72769
#
# Velocity S-wave (km/s) = 3.33190 3.73998 3.54183
# Velocity P-wave (km/s) = 5.98398 6.81186 6.41130
#
# Compressibility (1/GPa) = 0.02078803
#
# Stress axis : x y z
#
# Youngs Moduli (GPa) = 60.59572 46.98903 115.02846
#
# Poissons Ratio (x) = 0.28205 0.18285
# Poissons Ratio (y) = 0.36373 0.60422
# Poissons Ratio (z) = 0.09632 0.24682
#
# Static dielectric constant tensor:
#      x y z
#    x 4.119500 0.108800 -0.122170 
#    y 0.108800 4.303290 -0.072650 
#    z -0.122170 -0.072650 4.349050 
# 
# 
# High freq. dielectric constant tensor:
#      x y z
#    x 1.910610 0.004700 -0.015390 
#    y 0.004700 1.889450 -0.000890 
#    z -0.015390 -0.000890 1.908910 
# 
# From -- ./inp_files/306786.got.cif
#   From: 2010.06.25/outbox.cif.g09.slc.cpg/sg2_154_cif.got.tgz:306786.got - 2010.06.27 13:26:56.
