data_PCOD8006974
_publ_section_title
;
Structure prediction by ZEFSAII (Michael W. Deem and Ramdas Pophale) SiO2 
 PCOD8006974
Probable space group: P -1
;
_chemical_formula_sum "Si O2"
_cell_formula_units_Z 16
_cell_length_a 8.344618
_cell_length_b 21.955890
_cell_length_c 9.261627
_cell_angle_alpha 114.103712
_cell_angle_beta 57.350581
_cell_angle_gamma 66.522206
_cell_volume 773.682298
_symmetry_space_group_name_H-M "P -1"
_symmetry_group_IT_number 2
_symmetry_cell_setting 'triclinic'
loop_
_space_group_symop_operation_xyz
x,y,z
-x,-y,-z
loop_
_atom_site_type_symbol
_atom_site_label
_atom_site_fract_x
_atom_site_fract_y
_atom_site_fract_z
Si Si1 0.390224 0.599732 0.583774
Si Si2 0.155850 0.831250 0.196257
Si Si3 0.765597 0.840412 0.212683
Si Si4 0.620231 0.801533 0.800439
Si Si5 0.353631 0.414226 0.290178
Si Si6 0.513307 0.031154 0.815722
Si Si7 0.358881 0.925787 0.765512
Si Si8 0.677867 0.441927 0.708170
O O1 0.500000 0.500000 0.500000
O O2 0.592869 0.599409 0.572841
O O3 0.430164 0.588601 0.377259
O O4 0.010915 0.715833 0.911994
O O5 0.961621 0.848583 0.181806
O O6 0.324224 0.850150 0.073069
O O7 0.422237 0.705134 0.006647
O O8 0.903671 0.919238 0.532549
O O9 0.538927 0.931534 0.286826
O O10 0.544647 0.868137 0.468006
O O11 0.551880 0.823844 0.684438
O O12 0.943426 0.669412 0.549597
O O13 0.646799 0.870838 0.904636
O O14 0.438523 0.461271 0.229378
O O15 0.000000 0.500000 0.500000
O O16 0.355026 0.003831 0.898336
O O17 0.000000 0.000000 0.000000
O O18 0.500000 0.500000 0.000000
#
# Coordination Sequence:
#
# PCOD8006974 Si02
#       8
#     2   2   2   2   2   2   2   2
#     4   9  20  38  64  89 121 162 212 254 309 379
#     4  10  21  37  65  90 123 166 212 252 311 381
#     4  10  20  40  66  87 121 166 210 253 315 383
#     4  12  23  39  62  92 131 158 210 269 319 371
#     4  10  20  41  66  92 124 167 213 260 309 382
#     4  11  22  40  65  90 124 166 212 253 319 384
#     4  11  24  40  60  93 131 163 205 260 321 376
#     4  11  24  40  65  92 126 166 213 264 328 369
#
# _framework density 20.680323000000001
#
# number of rings (size 3 to 8) (size 9 to 14) (size 15 to 20)
#    0.000    1.500    2.500    3.750    7.000    0.000 
#    0.000    0.625    0.000    0.000    0.000    0.000 
#    0.000    0.000    0.000    0.000    0.000    0.000 
#
# Total GULP energy -198261.778870 kJ/mol
# GULP energy per Si atom -12391.361179 kJ/mol
# Density = 2.063325 g / cm^3
# Si number density = 20.680323 Si / 1000 Ang^3
#
#
#
# Elastic Constant Matrix: (Units=GPa)
#
#
# Indices 1 2 3 4 5 6 
#
# 1 72.8115 24.9681 46.4281 -10.2138 -10.5514 -4.5883
# 2 24.9681 95.1881 28.3475 8.0086 -3.8710 -4.5766
# 3 46.4281 28.3475 110.3830 6.3349 -4.0546 0.8454
# 4 -10.2138 8.0086 6.3349 39.8372 -0.0405 3.7602
# 5 -10.5514 -3.8710 -4.0546 -0.0405 33.0414 1.7183
# 6 -4.5883 -4.5766 0.8454 3.7602 1.7183 36.7649
#
#
#
# Elastic Compliance Matrix: (Units=1/GPa)
#
#
# Indices 1 2 3 4 5 6 
#
# 1 0.022627 -0.003660 -0.008829 0.007804 0.005644 0.001509
# 2 -0.003660 0.012238 -0.001424 -0.003308 0.000011 0.001437
# 3 -0.008829 -0.001424 0.013329 -0.003993 -0.001298 -0.001117
# 4 0.007804 -0.003308 -0.003993 0.028627 0.001772 -0.002357
# 5 0.005644 0.000011 -0.001298 0.001772 0.031961 -0.000939
# 6 0.001509 0.001437 -0.001117 -0.002357 -0.000939 0.027878
#
#
# Mechanical properties :
#
#
# Convention : Reuss Voigt Hill
#
# Bulk Modulus (GPa) = 49.10048 53.09667 51.09858
# Shear Modulus (GPa) = 29.19284 33.83796 31.51540
#
# Velocity S-wave (km/s) = 3.76123 4.04943 3.90799
# Velocity P-wave (km/s) = 6.53121 6.89888 6.71756
#
# Compressibility (1/GPa) = 0.02036640
#
# Stress axis : x y z
#
# Youngs Moduli (GPa) = 44.19481 81.71591 75.02574
#
# Poissons Ratio (x) = 0.29910 0.66242
# Poissons Ratio (y) = 0.16176 0.10683
# Poissons Ratio (z) = 0.39021 0.11636
#
# Static dielectric constant tensor:
#      x y z
#    x 4.223600 -0.054220 0.360130 
#    y -0.054220 3.627100 0.191540 
#    z 0.360130 0.191540 3.949930 
# 
# 
# High freq. dielectric constant tensor:
#      x y z
#    x 1.804890 -0.009980 0.008090 
#    y -0.009980 1.814810 0.027050 
#    z 0.008090 0.027050 1.802930 
# 
# From -- ./inp_files/189204.got.cif
#   From: 2010.06.25/outbox.cif.g09.slc.cpg/sg2_95_cif.got.tgz:189204.got - 2010.06.27 13:26:56.
