data_PCOD8006616
_publ_section_title
;
Structure prediction by ZEFSAII (Michael W. Deem and Ramdas Pophale) SiO2 
 PCOD8006616
Probable space group: P -1
;
_chemical_formula_sum "Si O2"
_cell_formula_units_Z 16
_cell_length_a 15.052300
_cell_length_b 9.705088
_cell_length_c 15.301175
_cell_angle_alpha 136.227763
_cell_angle_beta 30.934142
_cell_angle_gamma 131.343889
_cell_volume 789.546279
_symmetry_space_group_name_H-M "P -1"
_symmetry_group_IT_number 2
_symmetry_cell_setting 'triclinic'
loop_
_space_group_symop_operation_xyz
x,y,z
-x,-y,-z
loop_
_atom_site_type_symbol
_atom_site_label
_atom_site_fract_x
_atom_site_fract_y
_atom_site_fract_z
Si Si1 0.564201 0.310700 0.403134
Si Si2 0.751662 0.497852 0.000281
Si Si3 0.160747 0.644105 0.324874
Si Si4 0.919119 0.518240 0.170688
Si Si5 0.723155 0.890404 0.550689
Si Si6 0.493779 0.766879 0.387803
Si Si7 0.443525 0.206931 0.170480
Si Si8 0.235744 0.486619 0.372160
O O1 0.500000 0.500000 0.500000
O O2 0.771209 0.328423 0.220599
O O3 0.453419 0.116878 0.362902
O O4 0.524570 0.331617 0.547242
O O5 0.744940 0.413968 0.869155
O O6 0.943186 0.509556 0.882505
O O7 0.673430 0.712399 0.166520
O O8 0.620306 0.352786 0.105526
O O9 0.245224 0.532092 0.281867
O O10 0.959130 0.562076 0.451213
O O11 0.181679 0.884487 0.429715
O O12 0.851481 0.736762 0.335162
O O13 0.000000 0.500000 0.000000
O O14 0.676853 0.818639 0.654811
O O15 0.324906 0.684158 0.436596
O O16 0.500000 0.000000 0.500000
O O17 0.338765 0.297709 0.221170
O O18 0.500000 0.000000 0.000000
#
# Coordination Sequence:
#
# PCOD8006616 Si02
#       8
#     2   2   2   2   2   2   2   2
#     4  10  20  40  62  88 125 160 204 256 313 359
#     4  11  22  39  65  93 127 158 212 264 311 371
#     4  11  23  42  63  93 127 166 204 260 322 373
#     4  11  22  38  63  95 129 164 210 266 306 364
#     4  11  22  39  65  93 126 167 207 255 317 378
#     4  11  23  43  65  86 120 171 209 255 314 375
#     4  11  22  39  61  95 126 163 206 253 315 379
#     4  10  24  42  61  88 134 162 203 264 315 369
#
# _framework density 20.264803000000001
#
# number of rings (size 3 to 8) (size 9 to 14) (size 15 to 20)
#    0.000    1.250    1.250    7.500    1.750    3.000 
#    2.250    3.750    0.000    0.000    0.000    0.000 
#    0.000    0.000    0.000    0.000    0.000    0.000 
#
# Total GULP energy -198377.327616 kJ/mol
# GULP energy per Si atom -12398.582976 kJ/mol
# Density = 2.021868 g / cm^3
# Si number density = 20.264803 Si / 1000 Ang^3
#
#
#
# Elastic Constant Matrix: (Units=GPa)
#
#
# Indices 1 2 3 4 5 6 
#
# 1 138.5349 52.5673 61.1644 -6.5860 -8.8651 12.5835
# 2 52.5673 105.6104 64.6830 10.8750 -7.6173 8.3630
# 3 61.1644 64.6830 134.8112 10.4967 8.0639 3.5046
# 4 -6.5860 10.8750 10.4967 37.5000 1.7934 3.7786
# 5 -8.8651 -7.6173 8.0639 1.7934 41.4858 -6.1641
# 6 12.5835 8.3630 3.5046 3.7786 -6.1641 27.2836
#
#
#
# Elastic Compliance Matrix: (Units=1/GPa)
#
#
# Indices 1 2 3 4 5 6 
#
# 1 0.010639 -0.003038 -0.003693 0.004072 0.001711 -0.003679
# 2 -0.003038 0.015233 -0.005829 -0.003340 0.003228 -0.001327
# 3 -0.003693 -0.005829 0.012273 -0.002341 -0.003944 0.001347
# 4 0.004072 -0.003340 -0.002341 0.029566 -0.001301 -0.004942
# 5 0.001711 0.003228 -0.003944 -0.001301 0.026617 0.004922
# 6 -0.003679 -0.001327 0.001347 -0.004942 0.004922 0.040379
#
#
# Mechanical properties :
#
#
# Convention : Reuss Voigt Hill
#
# Bulk Modulus (GPa) = 76.77624 81.75400 79.26512
# Shear Modulus (GPa) = 30.45653 34.62334 32.53993
#
# Velocity S-wave (km/s) = 3.88097 4.13794 4.01151
# Velocity P-wave (km/s) = 7.61914 7.95365 7.78819
#
# Compressibility (1/GPa) = 0.01302486
#
# Stress axis : x y z
#
# Youngs Moduli (GPa) = 93.99428 65.64717 81.47916
#
# Poissons Ratio (x) = 0.19946 0.30089
# Poissons Ratio (y) = 0.28559 0.47493
# Poissons Ratio (z) = 0.34711 0.38264
#
# Static dielectric constant tensor:
#      x y z
#    x 4.015440 0.368960 -0.003450 
#    y 0.368960 3.925550 -0.186240 
#    z -0.003450 -0.186240 4.181920 
# 
# 
# High freq. dielectric constant tensor:
#      x y z
#    x 1.806830 0.006310 0.003100 
#    y 0.006310 1.788260 -0.009300 
#    z 0.003100 -0.009300 1.794340 
# 
# From -- ./inp_files/500102.got.cif
#   From: 2010.06.25/outbox.cif.g09.slc.cpg/sg2_251_cif.got.tgz:500102.got - 2010.06.27 13:26:56.
