data_PCOD8006534
_publ_section_title
;
Structure prediction by ZEFSAII (Michael W. Deem and Ramdas Pophale) SiO2 
 PCOD8006534
Probable space group: P -1
;
_chemical_formula_sum "Si O2"
_cell_formula_units_Z 14
_cell_length_a 12.139240
_cell_length_b 14.238840
_cell_length_c 15.599511
_cell_angle_alpha 144.069969
_cell_angle_beta 153.817188
_cell_angle_gamma 53.881778
_cell_volume 592.064941
_symmetry_space_group_name_H-M "P -1"
_symmetry_group_IT_number 2
_symmetry_cell_setting 'triclinic'
loop_
_space_group_symop_operation_xyz
x,y,z
-x,-y,-z
loop_
_atom_site_type_symbol
_atom_site_label
_atom_site_fract_x
_atom_site_fract_y
_atom_site_fract_z
Si Si1 0.668032 0.590461 0.332323
Si Si2 0.455533 0.834848 0.285969
Si Si3 0.261752 0.276339 0.060016
Si Si4 0.860179 0.609806 0.783527
Si Si5 0.698353 0.245711 0.059649
Si Si6 0.040262 0.366769 0.813623
Si Si7 0.284950 0.022706 0.758349
O O1 0.648367 0.744923 0.376390
O O2 0.698502 0.437977 0.185711
O O3 0.970329 0.709672 0.685112
O O4 0.382560 0.471674 0.104020
O O5 0.500000 0.000000 0.500000
O O6 0.498597 0.893777 0.259182
O O7 0.110776 0.675924 0.937144
O O8 0.558248 0.482878 0.428355
O O9 0.132430 0.223700 0.029233
O O10 0.032819 0.290402 0.847441
O O11 0.332405 0.121691 0.958137
O O12 0.916412 0.502485 0.821301
O O13 0.567176 0.150083 0.989218
O O14 0.808650 0.194795 0.461158
O O15 0.000000 0.000000 0.500000
#
# Coordination Sequence:
#
# PCOD8006534 Si02
#       7
#     2   2   2   2   2   2   2
#     4  10  22  42  68  90 120 171 203 255 308 365
#     4  11  26  41  62  93 127 162 208 255 307 369
#     4  10  20  40  60  89 121 157 199 249 305 359
#     4  10  23  39  62  88 121 165 197 250 307 367
#     4  11  22  43  65  92 126 161 209 253 309 368
#     4  10  20  40  63  92 119 157 206 249 309 358
#     4  10  21  38  66  92 120 160 199 261 299 357
#
# _framework density 23.646055
#
# number of rings (size 3 to 8) (size 9 to 14) (size 15 to 20)
#    0.000    1.714    2.857    1.714    6.000    1.143 
#    5.143    0.000    0.000    0.000    0.000    0.000 
#    0.000    0.000    0.000    0.000    0.000    0.000 
#
# Total GULP energy -173436.958619 kJ/mol
# GULP energy per Si atom -12388.354187 kJ/mol
# Density = 2.359224 g / cm^3
# Si number density = 23.646055 Si / 1000 Ang^3
#
#
#
# Elastic Constant Matrix: (Units=GPa)
#
#
# Indices 1 2 3 4 5 6 
#
# 1 95.7306 32.0812 33.3531 -2.1908 -20.9847 -13.7698
# 2 32.0812 55.7777 36.2284 -2.2434 5.7027 -10.4769
# 3 33.3531 36.2284 88.8503 -5.5450 -20.5962 -11.5615
# 4 -2.1908 -2.2434 -5.5450 28.3185 -4.2831 -0.7983
# 5 -20.9847 5.7027 -20.5962 -4.2831 43.4390 1.9798
# 6 -13.7698 -10.4769 -11.5615 -0.7983 1.9798 22.2014
#
#
#
# Elastic Compliance Matrix: (Units=1/GPa)
#
#
# Indices 1 2 3 4 5 6 
#
# 1 0.016361 -0.009972 0.000980 0.002275 0.009666 0.005172
# 2 -0.009972 0.035233 -0.014092 -0.003130 -0.016637 0.004474
# 3 0.000980 -0.014092 0.020240 0.004874 0.012237 0.003582
# 4 0.002275 -0.003130 0.004874 0.037398 0.007365 0.003161
# 5 0.009666 -0.016637 0.012237 0.007365 0.036333 0.001542
# 6 0.005172 0.004474 0.003582 0.003161 0.001542 0.052203
#
#
# Mechanical properties :
#
#
# Convention : Reuss Voigt Hill
#
# Bulk Modulus (GPa) = 38.96355 49.29821 44.13088
# Shear Modulus (GPa) = 19.80265 28.03816 23.92041
#
# Velocity S-wave (km/s) = 2.89703 3.44720 3.18402
# Velocity P-wave (km/s) = 5.26346 6.06118 5.67635
#
# Compressibility (1/GPa) = 0.02566501
#
# Stress axis : x y z
#
# Youngs Moduli (GPa) = 61.11950 28.38287 49.40706
#
# Poissons Ratio (x) = 0.28304 -0.04843
# Poissons Ratio (y) = 0.60951 0.69626
# Poissons Ratio (z) = -0.05991 0.39998
#
# Static dielectric constant tensor:
#      x y z
#    x 4.398620 -0.393870 -0.181190 
#    y -0.393870 2.529540 -2.129760 
#    z -0.181190 -2.129760 1.184960 
# 
# 
# High freq. dielectric constant tensor:
#      x y z
#    x 1.933730 -0.020350 -0.004220 
#    y -0.020350 1.915100 -0.005900 
#    z -0.004220 -0.005900 1.946860 
# 
# From -- ./inp_files/518632.got.cif
#   From: 2010.06.25/outbox.cif.g09.slc.cpg/sg2_260_cif.got.tgz:518632.got - 2010.06.27 13:26:56.
