data_PCOD8006118
_publ_section_title
;
Structure prediction by ZEFSAII (Michael W. Deem and Ramdas Pophale) SiO2 
 PCOD8006118
Probable space group: P -1
;
_chemical_formula_sum "Si O2"
_cell_formula_units_Z 16
_cell_length_a 17.679112
_cell_length_b 20.945610
_cell_length_c 12.762122
_cell_angle_alpha 20.865325
_cell_angle_beta 37.319359
_cell_angle_gamma 28.564020
_cell_volume 795.793907
_symmetry_space_group_name_H-M "P -1"
_symmetry_group_IT_number 2
_symmetry_cell_setting 'triclinic'
loop_
_space_group_symop_operation_xyz
x,y,z
-x,-y,-z
loop_
_atom_site_type_symbol
_atom_site_label
_atom_site_fract_x
_atom_site_fract_y
_atom_site_fract_z
Si Si1 0.460669 0.238479 0.187540
Si Si2 0.446234 0.527828 0.135211
Si Si3 0.928073 0.576971 0.076183
Si Si4 0.849775 0.263630 0.732379
Si Si5 0.126294 0.647195 0.899673
Si Si6 0.822519 0.026214 0.756801
Si Si7 0.368192 0.973181 0.210479
Si Si8 0.630928 0.289877 0.752085
O O1 0.500000 0.000000 0.500000
O O2 0.544540 0.280485 0.120784
O O3 0.272236 0.412909 0.149862
O O4 0.516917 0.254680 0.988500
O O5 0.263626 0.625293 0.208833
O O6 0.565947 0.276249 0.440423
O O7 0.500000 0.500000 0.000000
O O8 0.919687 0.394323 0.425033
O O9 0.754876 0.829396 0.873073
O O10 0.000000 0.500000 0.000000
O O11 0.045731 0.598037 0.977183
O O12 0.733031 0.314646 0.685456
O O13 0.000000 0.000000 0.000000
O O14 0.200487 0.753799 0.598618
O O15 0.008830 0.805954 0.880808
O O16 0.764638 0.068289 0.875472
O O17 0.720449 0.978108 0.876026
O O18 0.500000 0.000000 0.000000
O O19 0.500000 0.500000 0.500000
#
# Coordination Sequence:
#
# PCOD8006118 Si02
#       8
#     2   2   2   2   2   2   2   2
#     4  11  25  43  64  95 134 173 223 281 329 408
#     4  11  25  45  66  95 131 185 223 278 343 403
#     4  11  25  38  67  99 130 176 223 277 335 406
#     4  11  26  45  62 100 144 172 217 281 345 405
#     4  10  21  38  62  89 129 161 215 266 335 383
#     4  10  20  39  65  94 122 166 217 280 326 388
#     4  11  22  42  67  95 131 168 234 289 327 398
#     4  11  22  42  72  94 124 177 228 272 328 392
#
# _framework density 20.105708
#
# number of rings (size 3 to 8) (size 9 to 14) (size 15 to 20)
#    0.000    1.250    3.750    1.500    5.250    2.000 
#    0.000    0.625    0.000    0.000    0.000    0.000 
#    0.000    0.000    0.000    0.000    0.000    0.000 
#
# Total GULP energy -198271.393419 kJ/mol
# GULP energy per Si atom -12391.962089 kJ/mol
# Density = 2.005995 g / cm^3
# Si number density = 20.105708 Si / 1000 Ang^3
#
#
#
# Elastic Constant Matrix: (Units=GPa)
#
#
# Indices 1 2 3 4 5 6 
#
# 1 77.0377 46.4619 37.6431 7.6426 -10.8938 1.8296
# 2 46.4619 168.4516 49.0563 3.7328 -0.7656 15.8753
# 3 37.6431 49.0563 108.0370 -8.5370 -16.1478 1.3174
# 4 7.6426 3.7328 -8.5370 38.2476 0.4699 5.3414
# 5 -10.8938 -0.7656 -16.1478 0.4699 32.8784 0.1557
# 6 1.8296 15.8753 1.3174 5.3414 0.1557 42.2467
#
#
#
# Elastic Compliance Matrix: (Units=1/GPa)
#
#
# Indices 1 2 3 4 5 6 
#
# 1 0.018425 -0.003777 -0.004503 -0.004550 0.003864 0.001323
# 2 -0.003777 0.008001 -0.002652 -0.000209 -0.002352 -0.002725
# 3 -0.004503 -0.002652 0.013058 0.003977 0.004801 0.000264
# 4 -0.004550 -0.000209 0.003977 0.028443 0.000051 -0.003445
# 5 0.003864 -0.002352 0.004801 0.000051 0.033996 0.000435
# 6 0.001323 -0.002725 0.000264 -0.003445 0.000435 0.025063
#
#
# Mechanical properties :
#
#
# Convention : Reuss Voigt Hill
#
# Bulk Modulus (GPa) = 56.75119 68.87210 62.81164
# Shear Modulus (GPa) = 32.31559 37.36553 34.84056
#
# Velocity S-wave (km/s) = 4.01344 4.31566 4.16729
# Velocity P-wave (km/s) = 7.05441 7.69172 7.37995
#
# Compressibility (1/GPa) = 0.01762078
#
# Stress axis : x y z
#
# Youngs Moduli (GPa) = 54.27317 124.98094 76.58193
#
# Poissons Ratio (x) = 0.47204 0.34485
# Poissons Ratio (y) = 0.20499 0.20309
# Poissons Ratio (z) = 0.24439 0.33143
#
# Static dielectric constant tensor:
#      x y z
#    x 3.589830 -0.008920 -0.147000 
#    y -0.008920 4.207810 -0.169760 
#    z -0.147000 -0.169760 3.585680 
# 
# 
# High freq. dielectric constant tensor:
#      x y z
#    x 1.778750 -0.004890 -0.018890 
#    y -0.004890 1.816570 -0.004120 
#    z -0.018890 -0.004120 1.773430 
# 
# From -- ./inp_files/418920.got.cif
#   From: 2010.06.25/outbox.cif.g09.slc.cpg/sg2_210_cif.got.tgz:418920.got - 2010.06.27 13:26:56.
