data_PCOD8006518
_publ_section_title
;
Structure prediction by ZEFSAII (Michael W. Deem and Ramdas Pophale) SiO2 
 PCOD8006518
Probable space group: P -1
;
_chemical_formula_sum "Si O2"
_cell_formula_units_Z 16
_cell_length_a 12.099412
_cell_length_b 8.788897
_cell_length_c 9.149756
_cell_angle_alpha 77.816718
_cell_angle_beta 116.413249
_cell_angle_gamma 119.339161
_cell_volume 759.615399
_symmetry_space_group_name_H-M "P -1"
_symmetry_group_IT_number 2
_symmetry_cell_setting 'triclinic'
loop_
_space_group_symop_operation_xyz
x,y,z
-x,-y,-z
loop_
_atom_site_type_symbol
_atom_site_label
_atom_site_fract_x
_atom_site_fract_y
_atom_site_fract_z
Si Si1 0.384855 0.764028 0.082853
Si Si2 0.271372 0.072481 0.479930
Si Si3 0.218718 0.267107 0.920288
Si Si4 0.114761 0.434566 0.051618
Si Si5 0.558895 0.720719 0.720825
Si Si6 0.023556 0.060466 0.169168
Si Si7 0.386259 0.344613 0.731530
Si Si8 0.597134 0.115133 0.242091
O O1 0.261756 0.605376 0.130210
O O2 0.509871 0.720978 0.123229
O O3 0.452407 0.935356 0.189147
O O4 0.335181 0.813065 0.891605
O O5 0.396213 0.163960 0.420834
O O6 0.279462 0.207379 0.583619
O O7 0.127144 0.005171 0.325440
O O8 0.286195 0.910041 0.592051
O O9 0.311232 0.382474 0.818492
O O10 0.128315 0.073879 0.832824
O O11 0.127314 0.360857 0.912228
O O12 0.307000 0.248570 0.110733
O O13 0.074970 0.269377 0.173049
O O14 0.000000 0.500000 0.000000
O O15 0.478565 0.520951 0.663286
O O16 0.442450 0.748965 0.731588
O O17 0.000000 0.000000 0.000000
#
# Coordination Sequence:
#
# PCOD8006518 Si02
#       8
#     2   2   2   2   2   2   2   2
#     4  10  20  40  59  98 131 164 211 259 321 371
#     4  11  23  40  60  95 133 169 206 262 318 376
#     4  11  22  40  68  94 123 173 215 255 314 383
#     4  11  23  37  64  94 124 167 222 260 303 376
#     4  12  20  39  66  98 128 164 214 261 322 374
#     4  10  22  43  65  88 122 173 216 252 309 384
#     4  11  22  39  68  96 129 164 209 269 320 376
#     4  10  23  34  66  97 130 166 204 267 318 374
#
# _framework density 21.063291
#
# number of rings (size 3 to 8) (size 9 to 14) (size 15 to 20)
#    0.000    1.250    5.000    1.875    1.750    1.500 
#    0.000    2.500    0.000    4.500    0.000    0.000 
#    0.000    0.000    0.000    0.000    0.000    0.000 
#
# Total GULP energy -198235.817936 kJ/mol
# GULP energy per Si atom -12389.738621 kJ/mol
# Density = 2.101535 g / cm^3
# Si number density = 21.063291 Si / 1000 Ang^3
#
#
#
# Elastic Constant Matrix: (Units=GPa)
#
#
# Indices 1 2 3 4 5 6 
#
# 1 89.3802 15.9970 33.3791 4.8307 8.0443 -9.6531
# 2 15.9970 99.4750 21.4597 -1.5088 16.6869 8.3628
# 3 33.3791 21.4597 110.7972 -2.9485 16.7743 -7.9468
# 4 4.8307 -1.5088 -2.9485 22.5521 0.6055 2.0208
# 5 8.0443 16.6869 16.7743 0.6055 27.5962 -2.1448
# 6 -9.6531 8.3628 -7.9468 2.0208 -2.1448 32.5659
#
#
#
# Elastic Compliance Matrix: (Units=1/GPa)
#
#
# Indices 1 2 3 4 5 6 
#
# 1 0.013447 -0.001722 -0.003489 -0.003781 -0.000381 0.003786
# 2 -0.001722 0.012051 -0.001106 0.001599 -0.006490 -0.004402
# 3 -0.003489 -0.001106 0.011224 0.002140 -0.005065 0.001522
# 4 -0.003781 0.001599 0.002140 0.045966 -0.002487 -0.004025
# 5 -0.000381 -0.006490 -0.005065 -0.002487 0.043666 0.003348
# 6 0.003786 -0.004402 0.001522 -0.004025 0.003348 0.033801
#
#
# Mechanical properties :
#
#
# Convention : Reuss Voigt Hill
#
# Bulk Modulus (GPa) = 41.51326 49.03602 45.27464
# Shear Modulus (GPa) = 27.65217 31.79728 29.72473
#
# Velocity S-wave (km/s) = 3.62721 3.88958 3.76068
# Velocity P-wave (km/s) = 6.10686 6.59565 6.35596
#
# Compressibility (1/GPa) = 0.02408869
#
# Stress axis : x y z
#
# Youngs Moduli (GPa) = 74.36746 82.97892 89.09615
#
# Poissons Ratio (x) = 0.14285 0.31086
# Poissons Ratio (y) = 0.12802 0.09855
# Poissons Ratio (z) = 0.25947 0.09178
#
# Static dielectric constant tensor:
#      x y z
#    x 3.757910 0.252550 0.033980 
#    y 0.252550 4.592560 -0.014120 
#    z 0.033980 -0.014120 3.663700 
# 
# 
# High freq. dielectric constant tensor:
#      x y z
#    x 1.811450 0.004570 -0.003410 
#    y 0.004570 1.838500 -0.008980 
#    z -0.003410 -0.008980 1.804270 
# 
# From -- ./inp_files/243203.got.cif
#   From: 2010.06.25/outbox.cif.g09.slc.cpg/sg2_122_cif.got.tgz:243203.got - 2010.06.27 13:26:56.
