data_PCOD8006661
_publ_section_title
;
Structure prediction by ZEFSAII (Michael W. Deem and Ramdas Pophale) SiO2 
 PCOD8006661
Probable space group: P -1
;
_chemical_formula_sum "Si O2"
_cell_formula_units_Z 16
_cell_length_a 9.154817
_cell_length_b 8.791806
_cell_length_c 11.638345
_cell_angle_alpha 54.372265
_cell_angle_beta 77.378245
_cell_angle_gamma 80.745490
_cell_volume 742.335467
_symmetry_space_group_name_H-M "P -1"
_symmetry_group_IT_number 2
_symmetry_cell_setting 'triclinic'
loop_
_space_group_symop_operation_xyz
x,y,z
-x,-y,-z
loop_
_atom_site_type_symbol
_atom_site_label
_atom_site_fract_x
_atom_site_fract_y
_atom_site_fract_z
Si Si1 0.070585 0.275488 0.471467
Si Si2 0.004337 0.279848 0.966591
Si Si3 0.766119 0.559411 0.975609
Si Si4 0.273710 0.714390 0.512930
Si Si5 0.728284 0.385933 0.688685
Si Si6 0.685443 0.866591 0.670120
Si Si7 0.988571 0.135087 0.788035
Si Si8 0.458392 0.592612 0.750615
O O1 0.136139 0.480056 0.364232
O O2 0.174838 0.135076 0.440457
O O3 0.075663 0.211065 0.630650
O O4 0.905478 0.276865 0.445181
O O5 0.135288 0.390806 0.953558
O O6 0.051587 0.231799 0.849142
O O7 0.851525 0.409022 0.943444
O O8 0.979153 0.086600 0.121901
O O9 0.619298 0.466656 0.092169
O O10 0.723104 0.745339 0.830315
O O11 0.319504 0.593050 0.445758
O O12 0.342142 0.615372 0.656878
O O13 0.342617 0.916836 0.389591
O O14 0.584648 0.429658 0.773086
O O15 0.807593 0.180549 0.789143
O O16 0.538158 0.788555 0.669221
#
# Coordination Sequence:
#
# PCOD8006661 Si02
#       8
#     2   2   2   2   2   2   2   2
#     4  10  22  37  69  89 126 160 211 252 316 360
#     4  10  23  38  63  96 123 157 212 264 294 372
#     4  11  24  40  65  87 129 164 209 248 320 361
#     4  11  22  39  65  95 123 161 213 258 302 365
#     4  10  22  41  63  91 130 161 204 256 315 370
#     4  11  24  43  60  93 131 165 204 258 311 369
#     4  10  20  40  62  93 126 160 203 260 312 356
#     4  11  25  40  63  88 130 169 207 248 314 372
#
# _framework density 21.553598999999998
#
# number of rings (size 3 to 8) (size 9 to 14) (size 15 to 20)
#    0.000    1.500    0.000    6.000    8.750    0.000 
#    0.000    3.750    0.000    0.000    0.000    0.000 
#    0.000    0.000    0.000    0.000    0.000    0.000 
#
# Total GULP energy -198429.504665 kJ/mol
# GULP energy per Si atom -12401.844042 kJ/mol
# Density = 2.150454 g / cm^3
# Si number density = 21.553599 Si / 1000 Ang^3
#
#
#
# Elastic Constant Matrix: (Units=GPa)
#
#
# Indices 1 2 3 4 5 6 
#
# 1 80.0593 18.9120 28.0673 12.3417 -8.4678 8.2245
# 2 18.9120 64.3539 10.3803 -2.8614 -10.1062 6.5304
# 3 28.0673 10.3803 86.5863 3.4209 3.6753 -11.9472
# 4 12.3417 -2.8614 3.4209 29.8138 -5.7107 4.7044
# 5 -8.4678 -10.1062 3.6753 -5.7107 35.8525 6.9321
# 6 8.2245 6.5304 -11.9472 4.7044 6.9321 20.2134
#
#
#
# Elastic Compliance Matrix: (Units=1/GPa)
#
#
# Indices 1 2 3 4 5 6 
#
# 1 0.018088 -0.002031 -0.007453 -0.003667 0.006279 -0.012409
# 2 -0.002031 0.019848 -0.004150 0.006989 0.009128 -0.012796
# 3 -0.007453 -0.004150 0.017599 -0.004025 -0.009011 0.018802
# 4 -0.003667 0.006989 -0.004025 0.040952 0.011236 -0.016530
# 5 0.006279 0.009128 -0.009011 0.011236 0.039907 -0.027131
# 6 -0.012409 -0.012796 0.018802 -0.016530 -0.027131 0.082920
#
#
# Mechanical properties :
#
#
# Convention : Reuss Voigt Hill
#
# Bulk Modulus (GPa) = 35.37979 38.41319 36.89649
# Shear Modulus (GPa) = 19.53087 28.75194 24.14140
#
# Velocity S-wave (km/s) = 3.01350 3.65632 3.35037
# Velocity P-wave (km/s) = 5.34403 5.97376 5.66765
#
# Compressibility (1/GPa) = 0.02826472
#
# Stress axis : x y z
#
# Youngs Moduli (GPa) = 55.28631 50.38250 56.82257
#
# Poissons Ratio (x) = 0.10233 0.42353
# Poissons Ratio (y) = 0.11229 0.23583
# Poissons Ratio (z) = 0.41208 0.20910
#
# Static dielectric constant tensor:
#      x y z
#    x 3.837600 0.035540 0.086450 
#    y 0.035540 4.065310 0.064960 
#    z 0.086450 0.064960 3.780100 
# 
# 
# High freq. dielectric constant tensor:
#      x y z
#    x 1.838390 0.008850 0.011570 
#    y 0.008850 1.853720 0.009270 
#    z 0.011570 0.009270 1.847200 
# 
# From -- ./inp_files/188568.got.cif
#   From: 2010.06.25/outbox.cif.g09.slc.cpg/sg2_95_cif.got.tgz:188568.got - 2010.06.27 13:26:56.
