data_PCOD8006839
_publ_section_title
;
Structure prediction by ZEFSAII (Michael W. Deem and Ramdas Pophale) SiO2 
 PCOD8006839
Probable space group: P -1
;
_chemical_formula_sum "Si O2"
_cell_formula_units_Z 16
_cell_length_a 15.204623
_cell_length_b 14.071432
_cell_length_c 14.871875
_cell_angle_alpha 41.353869
_cell_angle_beta 19.045512
_cell_angle_gamma 44.040272
_cell_volume 685.373450
_symmetry_space_group_name_H-M "P -1"
_symmetry_group_IT_number 2
_symmetry_cell_setting 'triclinic'
loop_
_space_group_symop_operation_xyz
x,y,z
-x,-y,-z
loop_
_atom_site_type_symbol
_atom_site_label
_atom_site_fract_x
_atom_site_fract_y
_atom_site_fract_z
Si Si1 0.375641 0.627711 0.593174
Si Si2 0.102147 0.254223 0.526283
Si Si3 0.565019 0.849510 0.995724
Si Si4 0.954540 0.087842 0.634884
Si Si5 0.554442 0.329642 0.297934
Si Si6 0.938434 0.831053 0.170337
Si Si7 0.429330 0.577537 0.104477
Si Si8 0.181773 0.235189 0.019575
O O1 0.500000 0.500000 0.500000
O O2 0.374786 0.611034 0.713357
O O3 0.069920 0.655913 0.834618
O O4 0.576648 0.757993 0.290775
O O5 0.131657 0.231271 0.619788
O O6 0.988219 0.110070 0.693524
O O7 0.887310 0.382598 0.619365
O O8 0.379532 0.285891 0.183023
O O9 0.681128 0.731162 0.039641
O O10 0.777814 0.863552 0.703113
O O11 0.288202 0.806887 0.245023
O O12 0.500000 0.000000 0.000000
O O13 0.923768 0.922633 0.762428
O O14 0.321093 0.211056 0.608278
O O15 0.477456 0.475621 0.215871
O O16 0.808671 0.250212 0.061720
O O17 0.000000 0.000000 0.000000
O O18 0.500000 0.500000 0.000000
#
# Coordination Sequence:
#
# PCOD8006839 Si02
#       8
#     2   2   2   2   2   2   2   2
#     4  12  28  46  67 101 132 188 250 282 343 415
#     4  12  25  41  72 106 139 176 231 289 344 428
#     4  10  20  40  64  96 133 173 217 270 345 417
#     4  11  23  39  66 110 133 174 228 279 369 416
#     4  12  27  47  73  99 144 193 232 291 356 401
#     4  12  26  47  71 108 144 180 233 289 355 430
#     4  12  23  46  69  99 139 185 235 287 345 418
#     4  11  23  45  71  89 144 181 220 301 349 413
#
# _framework density 23.344936000000001
#
# number of rings (size 3 to 8) (size 9 to 14) (size 15 to 20)
#    0.000    0.500    2.500    7.125    3.500    3.000 
#    0.000    0.000    0.000    0.000    0.000    0.000 
#    0.000    0.000    0.000    0.000    0.000    0.000 
#
# Total GULP energy -198269.378334 kJ/mol
# GULP energy per Si atom -12391.836146 kJ/mol
# Density = 2.329180 g / cm^3
# Si number density = 23.344936 Si / 1000 Ang^3
#
#
#
# Elastic Constant Matrix: (Units=GPa)
#
#
# Indices 1 2 3 4 5 6 
#
# 1 141.3750 39.1502 19.7295 -1.7155 -5.4850 -3.3951
# 2 39.1502 57.7551 25.3949 -4.2145 -1.8305 -16.1385
# 3 19.7295 25.3949 95.4249 13.9800 -6.3768 3.1491
# 4 -1.7155 -4.2145 13.9800 31.8421 -6.5864 -5.9797
# 5 -5.4850 -1.8305 -6.3768 -6.5864 40.5871 -1.9917
# 6 -3.3951 -16.1385 3.1491 -5.9797 -1.9917 25.9631
#
#
#
# Elastic Compliance Matrix: (Units=1/GPa)
#
#
# Indices 1 2 3 4 5 6 
#
# 1 0.008977 -0.007414 0.000467 -0.001290 0.000559 -0.003745
# 2 -0.007414 0.035359 -0.010659 0.014323 0.002508 0.025793
# 3 0.000467 -0.010659 0.015030 -0.010041 -0.000211 -0.010716
# 4 -0.001290 0.014323 -0.010041 0.042879 0.006851 0.020353
# 5 0.000559 0.002508 -0.000211 0.006851 0.026163 0.005243
# 6 -0.003745 0.025793 -0.010716 0.020353 0.005243 0.060449
#
#
# Mechanical properties :
#
#
# Convention : Reuss Voigt Hill
#
# Bulk Modulus (GPa) = 41.40005 51.45604 46.42805
# Shear Modulus (GPa) = 21.54060 33.69715 27.61888
#
# Velocity S-wave (km/s) = 3.04091 3.80339 3.44332
# Velocity P-wave (km/s) = 5.48654 6.43251 5.97826
#
# Compressibility (1/GPa) = 0.02415456
#
# Stress axis : x y z
#
# Youngs Moduli (GPa) = 111.39134 28.28151 66.53355
#
# Poissons Ratio (x) = 0.20967 -0.03106
# Poissons Ratio (y) = 0.82582 0.70918
# Poissons Ratio (z) = -0.05200 0.30145
#
# Static dielectric constant tensor:
#      x y z
#    x 4.521490 -0.315200 -0.062390 
#    y -0.315200 3.980860 0.131200 
#    z -0.062390 0.131200 3.309160 
# 
# 
# High freq. dielectric constant tensor:
#      x y z
#    x 1.941990 0.006200 -0.007260 
#    y 0.006200 1.910040 0.009610 
#    z -0.007260 0.009610 1.944460 
# 
# From -- ./inp_files/534221.got.cif
#   From: 2010.06.25/outbox.cif.g09.slc.cpg/sg2_268_cif.got.tgz:534221.got - 2010.06.27 13:26:56.
