data_PCOD8006223
_publ_section_title
;
Structure prediction by ZEFSAII (Michael W. Deem and Ramdas Pophale) SiO2 
 PCOD8006223
Probable space group: P -1
;
_chemical_formula_sum "Si O2"
_cell_formula_units_Z 16
_cell_length_a 25.837875
_cell_length_b 9.088106
_cell_length_c 9.088820
_cell_angle_alpha 109.534165
_cell_angle_beta 40.653641
_cell_angle_gamma 139.350524
_cell_volume 745.198530
_symmetry_space_group_name_H-M "P -1"
_symmetry_group_IT_number 2
_symmetry_cell_setting 'triclinic'
loop_
_space_group_symop_operation_xyz
x,y,z
-x,-y,-z
loop_
_atom_site_type_symbol
_atom_site_label
_atom_site_fract_x
_atom_site_fract_y
_atom_site_fract_z
Si Si1 0.810278 0.586139 0.372056
Si Si2 0.810300 0.128028 0.913919
Si Si3 0.775655 0.250897 0.534862
Si Si4 0.473364 0.703569 0.090355
Si Si5 0.775654 0.965167 0.249156
Si Si6 0.473385 0.409525 0.796366
Si Si7 0.909570 0.560794 0.657953
Si Si8 0.090552 0.158145 0.060522
O O1 0.829549 0.444791 0.349903
O O2 0.654930 0.387484 0.680460
O O3 0.831748 0.621437 0.162525
O O4 0.924784 0.886688 0.297002
O O5 0.832107 0.338051 0.878050
O O6 0.924636 0.202517 0.613698
O O7 0.829491 0.150126 0.055424
O O8 0.654856 0.819757 0.112782
O O9 0.853915 0.423596 0.572529
O O10 0.807019 0.120744 0.379302
O O11 0.610331 0.007968 0.831659
O O12 0.499984 0.703882 0.203846
O O13 0.432571 0.482229 0.017666
O O14 0.610343 0.668252 0.492029
O O15 0.853963 0.927614 0.076320
O O16 0.883635 0.702045 0.797994
#
# Coordination Sequence:
#
# PCOD8006223 Si02
#       8
#     2   2   2   2   2   2   2   2
#     4  11  23  41  66  93 128 168 213 259 316 373
#     4  11  23  41  66  93 128 168 213 259 316 373
#     4  11  24  43  68  95 127 167 212 261 316 379
#     4  10  20  39  66  94 126 166 212 261 316 374
#     4  11  24  43  68  95 127 167 212 261 316 379
#     4  10  20  39  66  94 126 166 212 261 316 374
#     4  11  25  42  64  96 132 167 209 262 315 374
#     4  11  25  42  64  96 132 167 209 262 315 374
#
# _framework density 21.470790999999998
#
# number of rings (size 3 to 8) (size 9 to 14) (size 15 to 20)
#    0.000    1.250    2.500    3.000    0.000    9.000 
#    0.000    3.750    0.000    0.000    0.000    0.000 
#    0.000    0.000    0.000    0.000    0.000    0.000 
#
# Total GULP energy -198406.292223 kJ/mol
# GULP energy per Si atom -12400.393264 kJ/mol
# Density = 2.142192 g / cm^3
# Si number density = 21.470791 Si / 1000 Ang^3
#
#
#
# Elastic Constant Matrix: (Units=GPa)
#
#
# Indices 1 2 3 4 5 6 
#
# 1 106.4913 50.7118 37.9882 8.7497 7.9184 -4.0142
# 2 50.7118 109.5070 53.4369 20.9102 -13.1176 8.5240
# 3 37.9882 53.4369 88.6471 -6.7047 -5.5549 0.8772
# 4 8.7497 20.9102 -6.7047 31.5192 -6.8378 2.0503
# 5 7.9184 -13.1176 -5.5549 -6.8378 41.6134 -5.8741
# 6 -4.0142 8.5240 0.8772 2.0503 -5.8741 32.9365
#
#
#
# Elastic Compliance Matrix: (Units=1/GPa)
#
#
# Indices 1 2 3 4 5 6 
#
# 1 0.013556 -0.004949 -0.003317 -0.002343 -0.004637 0.002340
# 2 -0.004949 0.019730 -0.010527 -0.013030 0.003040 -0.004076
# 3 -0.003317 -0.010527 0.020128 0.012586 0.002266 0.001405
# 4 -0.002343 -0.013030 0.012586 0.044835 0.005519 0.000945
# 5 -0.004637 0.003040 0.002266 0.005519 0.027526 0.003153
# 6 0.002340 -0.004076 0.001405 0.000945 0.003153 0.032168
#
#
# Mechanical properties :
#
#
# Convention : Reuss Voigt Hill
#
# Bulk Modulus (GPa) = 63.18063 65.43547 64.30805
# Shear Modulus (GPa) = 24.89969 32.04773 28.47371
#
# Velocity S-wave (km/s) = 3.40913 3.86764 3.64560
# Velocity P-wave (km/s) = 6.70719 7.10545 6.90919
#
# Compressibility (1/GPa) = 0.01582763
#
# Stress axis : x y z
#
# Youngs Moduli (GPa) = 73.76757 50.68298 49.68205
#
# Poissons Ratio (x) = 0.25085 0.16478
# Poissons Ratio (y) = 0.36511 0.52302
# Poissons Ratio (z) = 0.24466 0.53356
#
# Static dielectric constant tensor:
#      x y z
#    x 3.778470 -0.027530 0.054220 
#    y -0.027530 3.691910 -0.197880 
#    z 0.054220 -0.197880 3.984340 
# 
# 
# High freq. dielectric constant tensor:
#      x y z
#    x 1.836580 -0.002160 0.004260 
#    y -0.002160 1.834640 -0.014990 
#    z 0.004260 -0.014990 1.856790 
# 
# From -- ./inp_files/356619.got.cif
#   From: 2010.06.25/outbox.cif.g09.slc.cpg/sg2_179_cif.got.tgz:356619.got - 2010.06.27 13:26:56.
