data_PCOD8006590
_publ_section_title
;
Structure prediction by ZEFSAII (Michael W. Deem and Ramdas Pophale) SiO2 
 PCOD8006590
Probable space group: P -1
;
_chemical_formula_sum "Si O2"
_cell_formula_units_Z 16
_cell_length_a 8.884663
_cell_length_b 7.851065
_cell_length_c 16.945378
_cell_angle_alpha 127.179330
_cell_angle_beta 132.802699
_cell_angle_gamma 72.701816
_cell_volume 677.874217
_symmetry_space_group_name_H-M "P -1"
_symmetry_group_IT_number 2
_symmetry_cell_setting 'triclinic'
loop_
_space_group_symop_operation_xyz
x,y,z
-x,-y,-z
loop_
_atom_site_type_symbol
_atom_site_label
_atom_site_fract_x
_atom_site_fract_y
_atom_site_fract_z
Si Si1 0.286659 0.422116 0.187083
Si Si2 0.612083 0.201117 0.842768
Si Si3 0.221693 0.381615 0.734637
Si Si4 0.963751 0.956409 0.299436
Si Si5 0.013018 0.186831 0.902255
Si Si6 0.293786 0.332252 0.570518
Si Si7 0.092540 0.746474 0.886716
Si Si8 0.629970 0.204915 0.295510
O O1 0.454607 0.652280 0.320961
O O2 0.426442 0.232738 0.179487
O O3 0.125730 0.386966 0.193065
O O4 0.159295 0.400135 0.052992
O O5 0.469229 0.385084 0.838696
O O6 0.772729 0.211643 0.831098
O O7 0.451051 0.966583 0.711772
O O8 0.731647 0.217298 0.973200
O O9 0.173079 0.338724 0.612932
O O10 0.171925 0.614177 0.806650
O O11 0.072883 0.195056 0.679491
O O12 0.942587 0.804814 0.172406
O O13 0.193453 0.111501 0.428023
O O14 0.793332 0.109321 0.273089
O O15 0.049833 0.972948 0.901190
O O16 0.265551 0.548013 0.569513
#
# Coordination Sequence:
#
# PCOD8006590 Si02
#       8
#     2   2   2   2   2   2   2   2
#     4   9  20  37  66  87 119 151 200 244 296 345
#     4  10  20  40  61  93 124 155 190 250 301 354
#     4  11  25  38  58  86 123 163 199 243 299 356
#     4  11  24  38  60  90 122 157 204 247 293 357
#     4  11  20  39  66  93 118 154 199 248 295 351
#     4  10  21  43  60  84 119 167 197 248 297 348
#     4  11  19  39  63  94 121 155 195 245 299 360
#     4   9  18  38  63  88 115 154 205 241 293 346
#
# _framework density 23.603199
#
# number of rings (size 3 to 8) (size 9 to 14) (size 15 to 20)
#    0.750    1.000    2.500    2.625    0.000    4.500 
#    0.000   10.000    0.000    0.000    0.000    0.000 
#    0.000    0.000    0.000    0.000    0.000    0.000 
#
# Total GULP energy -198250.436428 kJ/mol
# GULP energy per Si atom -12390.652277 kJ/mol
# Density = 2.354948 g / cm^3
# Si number density = 23.603199 Si / 1000 Ang^3
#
#
#
# Elastic Constant Matrix: (Units=GPa)
#
#
# Indices 1 2 3 4 5 6 
#
# 1 87.5873 21.8162 36.8431 4.2896 21.9763 -8.6888
# 2 21.8162 65.8531 11.9819 2.7520 11.8981 -12.4716
# 3 36.8431 11.9819 60.6125 -0.6047 15.3991 -6.7312
# 4 4.2896 2.7520 -0.6047 19.9306 2.9799 5.3797
# 5 21.9763 11.8981 15.3991 2.9799 34.7137 -4.3704
# 6 -8.6888 -12.4716 -6.7312 5.3797 -4.3704 23.5630
#
#
#
# Elastic Compliance Matrix: (Units=1/GPa)
#
#
# Indices 1 2 3 4 5 6 
#
# 1 0.017464 -0.002614 -0.008385 -0.003413 -0.005851 0.002355
# 2 -0.002614 0.018559 -0.000328 -0.004010 -0.003069 0.009112
# 3 -0.008385 -0.000328 0.023119 0.002790 -0.004848 0.001803
# 4 -0.003413 -0.004010 0.002790 0.056660 -0.004628 -0.016379
# 5 -0.005851 -0.003069 -0.004848 -0.004628 0.036444 0.002649
# 6 0.002355 0.009112 0.001803 -0.016379 0.002649 0.052876
#
#
# Mechanical properties :
#
#
# Convention : Reuss Voigt Hill
#
# Bulk Modulus (GPa) = 27.40616 39.48170 33.44393
# Shear Modulus (GPa) = 20.83852 25.20224 23.02038
#
# Velocity S-wave (km/s) = 2.97453 3.27118 3.12638
# Velocity P-wave (km/s) = 4.84082 5.57056 5.21846
#
# Compressibility (1/GPa) = 0.03648815
#
# Stress axis : x y z
#
# Youngs Moduli (GPa) = 57.26003 53.88282 43.25377
#
# Poissons Ratio (x) = 0.14086 0.36267
# Poissons Ratio (y) = 0.14969 0.01419
# Poissons Ratio (z) = 0.48011 0.01768
#
# Static dielectric constant tensor:
#      x y z
#    x 4.358630 -0.079530 0.319740 
#    y -0.079530 4.326400 0.110340 
#    z 0.319740 0.110340 3.925100 
# 
# 
# High freq. dielectric constant tensor:
#      x y z
#    x 1.936610 -0.000050 0.029450 
#    y -0.000050 1.951560 0.005160 
#    z 0.029450 0.005160 1.901000 
# 
# From -- ./inp_files/556628.got.cif
#   From: 2010.06.25/outbox.cif.g09.slc.cpg/sg2_279_cif.got.tgz:556628.got - 2010.06.27 13:26:56.
