data_PCOD8006693
_publ_section_title
;
Structure prediction by ZEFSAII (Michael W. Deem and Ramdas Pophale) SiO2 
 PCOD8006693
Probable space group: P -1
;
_chemical_formula_sum "Si O2"
_cell_formula_units_Z 16
_cell_length_a 17.290411
_cell_length_b 9.424205
_cell_length_c 9.603258
_cell_angle_alpha 43.127233
_cell_angle_beta 56.072900
_cell_angle_gamma 79.033073
_cell_volume 820.036258
_symmetry_space_group_name_H-M "P -1"
_symmetry_group_IT_number 2
_symmetry_cell_setting 'triclinic'
loop_
_space_group_symop_operation_xyz
x,y,z
-x,-y,-z
loop_
_atom_site_type_symbol
_atom_site_label
_atom_site_fract_x
_atom_site_fract_y
_atom_site_fract_z
Si Si1 0.379974 0.826578 0.595348
Si Si2 0.001910 0.632383 0.545910
Si Si3 0.151264 0.556274 0.649597
Si Si4 0.628339 0.215677 0.846538
Si Si5 0.001157 0.930979 0.890387
Si Si6 0.150625 0.702169 0.861052
Si Si7 0.460053 0.691948 0.866997
Si Si8 0.495913 0.736371 0.299669
O O1 0.264954 0.799841 0.726574
O O2 0.403104 0.656787 0.800702
O O3 0.410592 0.775193 0.449491
O O4 0.441871 0.079930 0.398494
O O5 0.102664 0.670429 0.504547
O O6 0.000000 0.500000 0.500000
O O7 0.000317 0.874426 0.347897
O O8 0.906500 0.501272 0.831937
O O9 0.267842 0.639466 0.434695
O O10 0.136715 0.622217 0.773367
O O11 0.098669 0.287936 0.882938
O O12 0.537831 0.260728 0.827291
O O13 0.624831 0.300247 0.945391
O O14 0.603630 0.945733 0.064402
O O15 0.103488 0.890862 0.787798
O O16 0.000000 0.000000 0.000000
O O17 0.500000 0.500000 0.000000
O O18 0.500000 0.500000 0.500000
#
# Coordination Sequence:
#
# PCOD8006693 Si02
#       8
#     2   2   2   2   2   2   2   2
#     4  10  22  40  61  89 127 161 206 255 313 364
#     4  11  23  43  66  90 124 166 209 263 324 377
#     4  11  24  42  64  96 130 163 215 266 316 378
#     4  10  22  38  62  90 126 160 205 254 307 371
#     4  11  23  42  67  92 125 166 211 264 323 378
#     4  11  24  42  64  94 131 163 211 272 311 380
#     4  10  22  39  60  92 125 164 205 257 307 371
#     4  10  20  40  63  87 126 165 201 250 308 370
#
# _framework density 19.511331999999999
#
# number of rings (size 3 to 8) (size 9 to 14) (size 15 to 20)
#    0.000    1.500    3.750    2.250    1.750    5.000 
#    2.250    0.000    0.000    0.000    0.000    0.000 
#    0.000    0.000    0.000    0.000    0.000    0.000 
#
# Total GULP energy -198398.269481 kJ/mol
# GULP energy per Si atom -12399.891843 kJ/mol
# Density = 1.946692 g / cm^3
# Si number density = 19.511332 Si / 1000 Ang^3
#
#
#
# Elastic Constant Matrix: (Units=GPa)
#
#
# Indices 1 2 3 4 5 6 
#
# 1 107.9965 53.7534 64.7884 -10.5724 6.2291 -2.3657
# 2 53.7534 96.9162 51.7949 -1.3932 1.6497 2.6629
# 3 64.7884 51.7949 112.8413 -2.8589 8.9534 -15.3562
# 4 -10.5724 -1.3932 -2.8589 39.3152 -9.6152 15.8738
# 5 6.2291 1.6497 8.9534 -9.6152 46.7176 0.7530
# 6 -2.3657 2.6629 -15.3562 15.8738 0.7530 32.5642
#
#
#
# Elastic Compliance Matrix: (Units=1/GPa)
#
#
# Indices 1 2 3 4 5 6 
#
# 1 0.017005 -0.004858 -0.008152 0.006108 0.000808 -0.005208
# 2 -0.004858 0.015941 -0.005251 0.001121 0.001398 -0.004712
# 3 -0.008152 -0.005251 0.017635 -0.006618 -0.003654 0.011464
# 4 0.006108 0.001121 -0.006618 0.037215 0.008414 -0.021105
# 5 0.000808 0.001398 -0.003654 0.008414 0.023784 -0.006431
# 6 -0.005208 -0.004712 0.011464 -0.021105 -0.006431 0.046558
#
#
# Mechanical properties :
#
#
# Convention : Reuss Voigt Hill
#
# Bulk Modulus (GPa) = 71.12935 73.15859 72.14397
# Shear Modulus (GPa) = 25.08179 33.54720 29.31449
#
# Velocity S-wave (km/s) = 3.58927 4.15103 3.88033
# Velocity P-wave (km/s) = 7.32883 7.78149 7.55855
#
# Compressibility (1/GPa) = 0.01405889
#
# Stress axis : x y z
#
# Youngs Moduli (GPa) = 58.80547 62.73153 56.70465
#
# Poissons Ratio (x) = 0.30475 0.46224
# Poissons Ratio (y) = 0.28568 0.29778
# Poissons Ratio (z) = 0.47937 0.32943
#
# Static dielectric constant tensor:
#      x y z
#    x 3.539990 0.186920 0.101630 
#    y 0.186920 3.527580 0.150670 
#    z 0.101630 0.150670 3.636360 
# 
# 
# High freq. dielectric constant tensor:
#      x y z
#    x 1.760520 0.009970 0.011250 
#    y 0.009970 1.764030 0.009320 
#    z 0.011250 0.009320 1.771220 
# 
# From -- ./inp_files/201115.got.cif
#   From: 2010.06.25/outbox.cif.g09.slc.cpg/sg2_101_cif.got.tgz:201115.got - 2010.06.27 13:26:56.
