data_PCOD8006126
_publ_section_title
;
Structure prediction by ZEFSAII (Michael W. Deem and Ramdas Pophale) SiO2 
 PCOD8006126
Probable space group: P -1
;
_chemical_formula_sum "Si O2"
_cell_formula_units_Z 16
_cell_length_a 12.330729
_cell_length_b 11.294119
_cell_length_c 6.711069
_cell_angle_alpha 60.379850
_cell_angle_beta 75.627235
_cell_angle_gamma 114.894827
_cell_volume 601.073254
_symmetry_space_group_name_H-M "P -1"
_symmetry_group_IT_number 2
_symmetry_cell_setting 'triclinic'
loop_
_space_group_symop_operation_xyz
x,y,z
-x,-y,-z
loop_
_atom_site_type_symbol
_atom_site_label
_atom_site_fract_x
_atom_site_fract_y
_atom_site_fract_z
Si Si1 0.287178 0.968090 0.300513
Si Si2 0.004004 0.392236 0.259344
Si Si3 0.677023 0.650525 0.606575
Si Si4 0.884009 0.664998 0.090494
Si Si5 0.210795 0.973213 0.784788
Si Si6 0.359861 0.328024 0.928977
Si Si7 0.438928 0.940883 0.800171
Si Si8 0.220293 0.557909 0.338019
O O1 0.259903 0.968349 0.547168
O O2 0.143579 0.784016 0.427823
O O3 0.328032 0.145549 0.038826
O O4 0.414037 0.952203 0.218951
O O5 0.095617 0.528981 0.283384
O O6 0.086600 0.331796 0.160193
O O7 0.000000 0.500000 0.000000
O O8 0.658106 0.659006 0.840928
O O9 0.785225 0.608872 0.561566
O O10 0.749184 0.842997 0.323742
O O11 0.528142 0.505912 0.666863
O O12 0.823249 0.474057 0.379547
O O13 0.755175 0.677432 0.150668
O O14 0.034940 0.820831 0.009976
O O15 0.314390 0.956815 0.896447
O O16 0.500000 0.000000 0.500000
O O17 0.372587 0.739146 0.043952
#
# Coordination Sequence:
#
# PCOD8006126 Si02
#       8
#     2   2   2   2   2   2   2   2
#     4   9  19  37  64  91 125 176 214 268 325 383
#     4  11  24  42  66  97 130 174 219 266 325 390
#     4  10  21  38  66  99 121 176 224 261 322 389
#     4  11  25  41  65  98 135 169 210 274 328 380
#     4   9  21  37  62  95 132 170 210 272 324 382
#     4  10  20  39  65  94 133 166 220 274 322 379
#     4  10  20  40  65  92 131 169 215 266 330 380
#     4  12  24  42  69  98 130 172 221 263 323 397
#
# _framework density 26.619052
#
# number of rings (size 3 to 8) (size 9 to 14) (size 15 to 20)
#    0.000    1.750    2.500    2.250    3.500    5.500 
#    0.000    0.000    0.000    6.000    0.000    0.000 
#    0.000    0.000    0.000    0.000    0.000    0.000 
#
# Total GULP energy -198266.357674 kJ/mol
# GULP energy per Si atom -12391.647355 kJ/mol
# Density = 2.655847 g / cm^3
# Si number density = 26.619052 Si / 1000 Ang^3
#
#
#
# Elastic Constant Matrix: (Units=GPa)
#
#
# Indices 1 2 3 4 5 6 
#
# 1 145.3539 23.7836 43.1537 -8.4748 -5.4675 32.2369
# 2 23.7836 41.3827 30.8165 -14.3301 -6.0018 15.6662
# 3 43.1537 30.8165 134.2115 -27.1116 -10.5984 15.6799
# 4 -8.4748 -14.3301 -27.1116 47.0140 6.3085 1.0056
# 5 -5.4675 -6.0018 -10.5984 6.3085 47.0597 0.0866
# 6 32.2369 15.6662 15.6799 1.0056 0.0866 43.7855
#
#
#
# Elastic Compliance Matrix: (Units=1/GPa)
#
#
# Indices 1 2 3 4 5 6 
#
# 1 0.008885 -0.001656 -0.001800 0.000117 0.000410 -0.005307
# 2 -0.001656 0.035360 -0.004697 0.007681 0.002248 -0.009931
# 3 -0.001800 -0.004697 0.010057 0.003933 0.000931 -0.000687
# 4 0.000117 0.007681 0.003933 0.026223 -0.001627 -0.004842
# 5 0.000410 0.002248 0.000931 -0.001627 0.022014 -0.001445
# 6 -0.005307 -0.009931 -0.000687 -0.004842 -0.001445 0.030660
#
#
# Mechanical properties :
#
#
# Convention : Reuss Voigt Hill
#
# Bulk Modulus (GPa) = 26.32021 57.38397 41.85209
# Shear Modulus (GPa) = 30.83190 42.45145 36.64168
#
# Velocity S-wave (km/s) = 3.40702 3.99780 3.71417
# Velocity P-wave (km/s) = 5.03848 6.55089 5.84382
#
# Compressibility (1/GPa) = 0.03799361
#
# Stress axis : x y z
#
# Youngs Moduli (GPa) = 112.55420 28.28060 99.43741
#
# Poissons Ratio (x) = 0.04684 0.17902
# Poissons Ratio (y) = 0.18643 0.46706
# Poissons Ratio (z) = 0.20264 0.13283
#
# Static dielectric constant tensor:
#      x y z
#    x 5.152760 -0.084120 -0.123470 
#    y -0.084120 4.967380 0.114550 
#    z -0.123470 0.114550 5.014680 
# 
# 
# High freq. dielectric constant tensor:
#      x y z
#    x 2.083930 0.002000 -0.005010 
#    y 0.002000 2.066470 0.017210 
#    z -0.005010 0.017210 2.086900 
# 
# From -- ./inp_files/271577.got.cif
#   From: 2010.06.25/outbox.cif.g09.slc.cpg/sg2_136_cif.got.tgz:271577.got - 2010.06.27 13:26:56.
