data_PCOD8006723
_publ_section_title
;
Structure prediction by ZEFSAII (Michael W. Deem and Ramdas Pophale) SiO2 
 PCOD8006723
Probable space group: P -1
;
_chemical_formula_sum "Si O2"
_cell_formula_units_Z 14
_cell_length_a 7.037417
_cell_length_b 10.695100
_cell_length_c 11.216491
_cell_angle_alpha 115.119037
_cell_angle_beta 103.701619
_cell_angle_gamma 52.887453
_cell_volume 609.338606
_symmetry_space_group_name_H-M "P -1"
_symmetry_group_IT_number 2
_symmetry_cell_setting 'triclinic'
loop_
_space_group_symop_operation_xyz
x,y,z
-x,-y,-z
loop_
_atom_site_type_symbol
_atom_site_label
_atom_site_fract_x
_atom_site_fract_y
_atom_site_fract_z
Si Si1 0.068481 0.871859 0.564717
Si Si2 0.660237 0.637761 0.133197
Si Si3 0.034022 0.981967 0.855279
Si Si4 0.812786 0.330234 0.883565
Si Si5 0.494554 0.242428 0.277980
Si Si6 0.949011 0.383368 0.680465
Si Si7 0.595655 0.013568 0.894616
O O1 0.354215 0.771976 0.589704
O O2 0.006753 0.737019 0.472460
O O3 0.930419 0.967717 0.705806
O O4 0.000000 0.000000 0.500000
O O5 0.446143 0.633712 0.149693
O O6 0.821953 0.612347 0.261064
O O7 0.581533 0.806487 0.119395
O O8 0.811540 0.482920 0.002009
O O9 0.990623 0.164324 0.920871
O O10 0.319746 0.833217 0.841156
O O11 0.134412 0.025417 0.070908
O O12 0.914063 0.298904 0.753928
O O13 0.283970 0.431777 0.299605
O O14 0.390972 0.130651 0.241580
O O15 0.500000 0.000000 0.000000
#
# Coordination Sequence:
#
# PCOD8006723 Si02
#       7
#     2   2   2   2   2   2   2
#     4  10  20  43  66  91 129 169 215 264 311 374
#     4  10  23  39  63  96 124 163 219 265 318 380
#     4   9  22  41  63  94 126 166 218 257 315 381
#     4  10  20  40  63  91 126 162 216 267 315 372
#     4  10  24  39  60  97 130 166 212 262 318 381
#     4  12  21  40  65  93 129 171 208 261 323 378
#     4  11  22  42  65  93 127 167 214 266 324 375
#
# _framework density 22.975729999999999
#
# number of rings (size 3 to 8) (size 9 to 14) (size 15 to 20)
#    0.857    0.857    1.429    3.429    0.000    2.857 
#    2.571    4.286    0.000    0.000    0.000    0.000 
#    0.000    0.000    0.000    0.000    0.000    0.000 
#
# Total GULP energy -173566.763139 kJ/mol
# GULP energy per Si atom -12397.625939 kJ/mol
# Density = 2.292344 g / cm^3
# Si number density = 22.975730 Si / 1000 Ang^3
#
#
#
# Elastic Constant Matrix: (Units=GPa)
#
#
# Indices 1 2 3 4 5 6 
#
# 1 83.9004 33.6422 29.0282 -0.3508 23.4942 4.6336
# 2 33.6422 140.2547 40.8330 7.0177 15.0535 -5.4543
# 3 29.0282 40.8330 78.6115 8.7610 28.3785 3.5375
# 4 -0.3508 7.0177 8.7610 41.8688 -0.3385 7.3417
# 5 23.4942 15.0535 28.3785 -0.3385 47.9654 -2.9532
# 6 4.6336 -5.4543 3.5375 7.3417 -2.9532 35.1889
#
#
#
# Elastic Compliance Matrix: (Units=1/GPa)
#
#
# Indices 1 2 3 4 5 6 
#
# 1 0.015525 -0.002622 -0.002414 0.001556 -0.005527 -0.002996
# 2 -0.002622 0.008980 -0.004046 -0.001103 0.001004 0.002458
# 3 -0.002414 -0.004046 0.019508 -0.003077 -0.009259 -0.002405
# 4 0.001556 -0.001103 -0.003077 0.025668 0.001259 -0.005316
# 5 -0.005527 0.001004 -0.009259 0.001259 0.028973 0.003983
# 6 -0.002996 0.002458 -0.002405 -0.005316 0.003983 0.030879
#
#
# Mechanical properties :
#
#
# Convention : Reuss Voigt Hill
#
# Bulk Modulus (GPa) = 38.68822 56.64150 47.66486
# Shear Modulus (GPa) = 31.98699 38.28884 35.13791
#
# Velocity S-wave (km/s) = 3.73528 4.08670 3.91493
# Velocity P-wave (km/s) = 5.95637 6.85379 6.42078
#
# Compressibility (1/GPa) = 0.02584766
#
# Stress axis : x y z
#
# Youngs Moduli (GPa) = 64.41124 111.35943 51.26220
#
# Poissons Ratio (x) = 0.29202 0.12376
# Poissons Ratio (y) = 0.16890 0.20741
# Poissons Ratio (z) = 0.15550 0.45057
#
# Static dielectric constant tensor:
#      x y z
#    x 4.218580 -0.008310 0.463950 
#    y -0.008310 4.046760 0.216440 
#    z 0.463950 0.216440 4.697380 
# 
# 
# High freq. dielectric constant tensor:
#      x y z
#    x 1.903120 -0.000790 0.024790 
#    y -0.000790 1.913220 0.005300 
#    z 0.024790 0.005300 1.916630 
# 
# From -- ./inp_files/388292.got.cif
#   From: 2010.06.25/outbox.cif.g09.slc.cpg/sg2_195_cif.got.tgz:388292.got - 2010.06.27 13:26:56.
