data_PCOD8006498
_publ_section_title
;
Structure prediction by ZEFSAII (Michael W. Deem and Ramdas Pophale) SiO2 
 PCOD8006498
Probable space group: P -1
;
_chemical_formula_sum "Si O2"
_cell_formula_units_Z 16
_cell_length_a 8.562199
_cell_length_b 8.733375
_cell_length_c 14.450692
_cell_angle_alpha 77.158524
_cell_angle_beta 138.526445
_cell_angle_gamma 111.753288
_cell_volume 661.972832
_symmetry_space_group_name_H-M "P -1"
_symmetry_group_IT_number 2
_symmetry_cell_setting 'triclinic'
loop_
_space_group_symop_operation_xyz
x,y,z
-x,-y,-z
loop_
_atom_site_type_symbol
_atom_site_label
_atom_site_fract_x
_atom_site_fract_y
_atom_site_fract_z
Si Si1 0.075242 0.487431 0.758753
Si Si2 0.587368 0.925427 0.635711
Si Si3 0.575635 0.424622 0.451930
Si Si4 0.015627 0.814597 0.111259
Si Si5 0.089523 0.941634 0.455618
Si Si6 0.801396 0.578098 0.359783
Si Si7 0.850222 0.137416 0.207565
Si Si8 0.308755 0.971445 0.053200
O O1 0.832585 0.396476 0.600722
O O2 0.075526 0.370911 0.862570
O O3 0.290115 0.498231 0.774333
O O4 0.081088 0.666506 0.771698
O O5 0.616816 0.748009 0.646327
O O6 0.353896 0.914644 0.601457
O O7 0.500000 0.000000 0.500000
O O8 0.841674 0.048093 0.769459
O O9 0.500000 0.500000 0.500000
O O10 0.592657 0.541671 0.353324
O O11 0.193808 0.828178 0.098827
O O12 0.772315 0.868411 0.973652
O O13 0.894514 0.772209 0.358746
O O14 0.000000 0.000000 0.500000
O O15 0.080859 0.075886 0.353334
O O16 0.000000 0.500000 0.500000
O O17 0.804324 0.106320 0.083623
O O18 0.607304 0.033663 0.172532
#
# Coordination Sequence:
#
# PCOD8006498 Si02
#       8
#     2   2   2   2   2   2   2   2
#     4  11  23  42  66  97 133 175 223 285 337 395
#     4  12  23  40  66 100 140 176 212 275 352 408
#     4  11  25  38  61 104 141 175 215 269 349 419
#     4  11  24  44  70  95 135 180 227 279 338 401
#     4  12  23  38  69 101 134 178 220 273 343 406
#     4  10  20  40  58  93 140 173 214 264 329 417
#     4  11  25  43  71  96 134 180 232 281 329 399
#     4  10  25  47  67  94 127 186 235 276 330 397
#
# _framework density 24.170176999999999
#
# number of rings (size 3 to 8) (size 9 to 14) (size 15 to 20)
#    0.000    1.000    3.750    3.750    7.000    2.000 
#    0.000    0.000    0.000    0.000    0.000    0.000 
#    0.000    0.000    0.000    0.000    0.000    0.000 
#
# Total GULP energy -198234.595900 kJ/mol
# GULP energy per Si atom -12389.662244 kJ/mol
# Density = 2.411516 g / cm^3
# Si number density = 24.170177 Si / 1000 Ang^3
#
#
#
# Elastic Constant Matrix: (Units=GPa)
#
#
# Indices 1 2 3 4 5 6 
#
# 1 127.6045 49.1479 12.1132 -11.9607 -34.5983 3.1520
# 2 49.1479 155.9284 18.6247 -12.7349 -17.1256 -6.6418
# 3 12.1132 18.6247 44.3638 -9.2564 -9.6891 4.3147
# 4 -11.9607 -12.7349 -9.2564 35.3678 5.0962 -12.1888
# 5 -34.5983 -17.1256 -9.6891 5.0962 44.1531 -6.4830
# 6 3.1520 -6.6418 4.3147 -12.1888 -6.4830 39.1173
#
#
#
# Elastic Compliance Matrix: (Units=1/GPa)
#
#
# Indices 1 2 3 4 5 6 
#
# 1 0.010988 -0.002459 0.000026 0.001942 0.007518 0.000545
# 2 -0.002459 0.007826 -0.002248 0.002179 0.000742 0.002577
# 3 0.000026 -0.002248 0.025485 0.004950 0.004025 -0.000985
# 4 0.001942 0.002179 0.004950 0.034514 0.001025 0.010592
# 5 0.007518 0.000742 0.004025 0.001025 0.030240 0.004407
# 6 0.000545 0.002577 -0.000985 0.010592 0.004407 0.030097
#
#
# Mechanical properties :
#
#
# Convention : Reuss Voigt Hill
#
# Bulk Modulus (GPa) = 28.62199 54.18537 41.40368
# Shear Modulus (GPa) = 31.21916 40.26169 35.74042
#
# Velocity S-wave (km/s) = 3.59784 4.08580 3.84956
# Velocity P-wave (km/s) = 5.39693 6.68770 6.07668
#
# Compressibility (1/GPa) = 0.03493817
#
# Stress axis : x y z
#
# Youngs Moduli (GPa) = 91.00473 127.77868 39.23847
#
# Poissons Ratio (x) = 0.31421 -0.00103
# Poissons Ratio (y) = 0.22379 0.08821
# Poissons Ratio (z) = -0.00239 0.28724
#
# Static dielectric constant tensor:
#      x y z
#    x 4.747660 0.815750 -0.665780 
#    y 0.815750 3.445950 0.365530 
#    z -0.665780 0.365530 3.677300 
# 
# 
# High freq. dielectric constant tensor:
#      x y z
#    x 1.992740 0.001900 -0.022270 
#    y 0.001900 1.953520 -0.003120 
#    z -0.022270 -0.003120 1.931020 
# 
# From -- ./inp_files/494979.got.cif
#   From: 2010.06.25/outbox.cif.g09.slc.cpg/sg2_248_cif.got.tgz:494979.got - 2010.06.27 13:26:56.
