data_PCOD8006782
_publ_section_title
;
Structure prediction by ZEFSAII (Michael W. Deem and Ramdas Pophale) SiO2 
 PCOD8006782
Probable space group: P -1
;
_chemical_formula_sum "Si O2"
_cell_formula_units_Z 14
_cell_length_a 9.625238
_cell_length_b 5.391959
_cell_length_c 14.905801
_cell_angle_alpha 76.683587
_cell_angle_beta 113.602585
_cell_angle_gamma 74.503011
_cell_volume 631.305367
_symmetry_space_group_name_H-M "P -1"
_symmetry_group_IT_number 2
_symmetry_cell_setting 'triclinic'
loop_
_space_group_symop_operation_xyz
x,y,z
-x,-y,-z
loop_
_atom_site_type_symbol
_atom_site_label
_atom_site_fract_x
_atom_site_fract_y
_atom_site_fract_z
Si Si1 0.041105 0.778053 0.292199
Si Si2 0.388255 0.700690 0.378677
Si Si3 0.193786 0.402469 0.041149
Si Si4 0.125175 0.990520 0.954782
Si Si5 0.965206 0.669165 0.567370
Si Si6 0.568566 0.764765 0.718429
Si Si7 0.206592 0.900928 0.647305
O O1 0.194486 0.865841 0.343356
O O2 0.111409 0.446608 0.361355
O O3 0.978386 0.842949 0.170189
O O4 0.889484 0.903126 0.311655
O O5 0.500000 0.500000 0.500000
O O6 0.386730 0.500045 0.312980
O O7 0.457204 0.937360 0.356861
O O8 0.287307 0.303142 0.166561
O O9 0.229459 0.661323 0.987242
O O10 0.000000 0.500000 0.000000
O O11 0.244465 0.142090 0.006092
O O12 0.000000 0.000000 0.000000
O O13 0.000000 0.500000 0.500000
O O14 0.141723 0.655549 0.650196
O O15 0.834240 0.972414 0.475858
O O16 0.400658 0.797541 0.723436
#
# Coordination Sequence:
#
# PCOD8006782 Si02
#       7
#     2   2   2   2   2   2   2
#     4  11  24  41  70  99 131 179 230 277 336 408
#     4  12  27  41  66 104 141 171 224 282 341 406
#     4  10  20  40  64  88 123 172 219 267 331 392
#     4  10  21  39  65  93 125 170 221 277 332 389
#     4   9  21  41  67  94 134 183 225 263 336 411
#     4  12  26  45  67  99 137 181 222 282 344 396
#     4  10  24  41  70  94 139 180 226 271 339 411
#
# _framework density 22.176272999999998
#
# number of rings (size 3 to 8) (size 9 to 14) (size 15 to 20)
#    0.000    1.429    0.000    5.571   14.000    0.000 
#    0.000    1.429    0.000    0.000    0.000    0.000 
#    0.000    0.000    0.000    0.000    0.000    0.000 
#
# Total GULP energy -173447.552968 kJ/mol
# GULP energy per Si atom -12389.110926 kJ/mol
# Density = 2.212580 g / cm^3
# Si number density = 22.176273 Si / 1000 Ang^3
#
#
#
# Elastic Constant Matrix: (Units=GPa)
#
#
# Indices 1 2 3 4 5 6 
#
# 1 88.0817 6.8761 27.0411 1.2064 9.2307 5.3988
# 2 6.8761 132.7420 23.6667 7.6185 -2.0956 25.7419
# 3 27.0411 23.6667 144.2277 6.2901 -4.0246 5.6585
# 4 1.2064 7.6185 6.2901 28.4692 9.2518 5.2939
# 5 9.2307 -2.0956 -4.0246 9.2518 36.8905 -2.2636
# 6 5.3988 25.7419 5.6585 5.2939 -2.2636 25.0641
#
#
#
# Elastic Compliance Matrix: (Units=1/GPa)
#
#
# Indices 1 2 3 4 5 6 
#
# 1 0.012698 0.000230 -0.002490 0.001874 -0.004101 -0.003175
# 2 0.000230 0.009621 -0.001228 -0.000502 -0.000106 -0.009557
# 3 -0.002490 -0.001228 0.007719 -0.002025 0.001944 0.000658
# 4 0.001874 -0.000502 -0.002025 0.041096 -0.011587 -0.009158
# 5 -0.004101 -0.000106 0.001944 -0.011587 0.031604 0.005854
# 6 -0.003175 -0.009557 0.000658 -0.009158 0.005854 0.052711
#
#
# Mechanical properties :
#
#
# Convention : Reuss Voigt Hill
#
# Bulk Modulus (GPa) = 43.36309 53.35769 48.36039
# Shear Modulus (GPa) = 29.39210 38.58258 33.98734
#
# Velocity S-wave (km/s) = 3.64453 4.17563 3.91909
# Velocity P-wave (km/s) = 6.10790 6.88192 6.50643
#
# Compressibility (1/GPa) = 0.02306109
#
# Stress axis : x y z
#
# Youngs Moduli (GPa) = 78.75069 103.94060 129.55769
#
# Poissons Ratio (x) = -0.02387 0.32261
# Poissons Ratio (y) = -0.01808 0.15908
# Poissons Ratio (z) = 0.19609 0.12763
#
# Static dielectric constant tensor:
#      x y z
#    x 3.792990 0.276700 -0.102230 
#    y 0.276700 5.256550 -0.152460 
#    z -0.102230 -0.152460 4.193590 
# 
# 
# High freq. dielectric constant tensor:
#      x y z
#    x 1.840930 0.022300 -0.000520 
#    y 0.022300 1.894260 0.003450 
#    z -0.000520 0.003450 1.874530 
# 
# From -- ./inp_files/27689.got.cif
#   From: 2010.06.25/outbox.cif.g09.slc.cpg/sg2_14_cif.got.tgz:27689.got - 2010.06.27 13:26:56.
