data_PCOD8006593
_publ_section_title
;
Structure prediction by ZEFSAII (Michael W. Deem and Ramdas Pophale) SiO2 
 PCOD8006593
Probable space group: P -1
;
_chemical_formula_sum "Si O2"
_cell_formula_units_Z 14
_cell_length_a 17.139040
_cell_length_b 12.529905
_cell_length_c 10.565395
_cell_angle_alpha 157.234208
_cell_angle_beta 138.810043
_cell_angle_gamma 38.819422
_cell_volume 544.920382
_symmetry_space_group_name_H-M "P -1"
_symmetry_group_IT_number 2
_symmetry_cell_setting 'triclinic'
loop_
_space_group_symop_operation_xyz
x,y,z
-x,-y,-z
loop_
_atom_site_type_symbol
_atom_site_label
_atom_site_fract_x
_atom_site_fract_y
_atom_site_fract_z
Si Si1 0.778180 0.948690 0.301800
Si Si2 0.031386 0.811881 0.590665
Si Si3 0.498950 0.245603 0.865769
Si Si4 0.195303 0.158794 0.071777
Si Si5 0.700537 0.559824 0.975309
Si Si6 0.312652 0.529648 0.755004
Si Si7 0.092976 0.682451 0.829493
O O1 0.923945 0.917008 0.467830
O O2 0.687132 0.258907 0.580564
O O3 0.756142 0.916382 0.092358
O O4 0.741681 0.703202 0.062427
O O5 0.075563 0.458872 0.264196
O O6 0.152007 0.900838 0.794229
O O7 0.970739 0.979441 0.832046
O O8 0.396323 0.526425 0.977697
O O9 0.500000 0.000000 0.500000
O O10 0.435963 0.232761 0.911146
O O11 0.633035 0.302773 0.103455
O O12 0.313040 0.212520 0.351928
O O13 0.806564 0.507980 0.155399
O O14 0.166873 0.697091 0.802372
O O15 0.000000 0.500000 0.500000
#
# Coordination Sequence:
#
# PCOD8006593 Si02
#       7
#     2   2   2   2   2   2   2
#     4  11  23  43  64  93 132 174 215 254 312 380
#     4  11  23  38  63  95 135 174 208 251 318 384
#     4  10  24  44  69  89 126 167 214 270 327 380
#     4  12  24  41  64  95 132 171 216 258 309 383
#     4  10  24  42  66  93 124 173 214 261 322 373
#     4  10  24  41  63  97 125 169 210 270 322 379
#     4  10  20  40  61  98 132 163 208 267 320 382
#
# _framework density 25.691825999999999
#
# number of rings (size 3 to 8) (size 9 to 14) (size 15 to 20)
#    0.000    1.429    1.429    3.429   10.000    0.571 
#    0.000    1.429    0.000    0.000    0.000    0.000 
#    0.000    0.000    0.000    0.000    0.000    0.000 
#
# Total GULP energy -173603.828106 kJ/mol
# GULP energy per Si atom -12400.273436 kJ/mol
# Density = 2.563335 g / cm^3
# Si number density = 25.691826 Si / 1000 Ang^3
#
#
#
# Elastic Constant Matrix: (Units=GPa)
#
#
# Indices 1 2 3 4 5 6 
#
# 1 170.3202 36.4029 28.2735 -21.0991 0.4559 -4.9651
# 2 36.4029 36.3514 16.9160 -14.2130 2.7604 -10.8384
# 3 28.2735 16.9160 90.0085 -7.9538 -3.1394 -4.5452
# 4 -21.0991 -14.2130 -7.9538 41.9054 0.2463 1.4033
# 5 0.4559 2.7604 -3.1394 0.2463 55.5417 -6.3430
# 6 -4.9651 -10.8384 -4.5452 1.4033 -6.3430 41.6319
#
#
#
# Elastic Compliance Matrix: (Units=1/GPa)
#
#
# Indices 1 2 3 4 5 6 
#
# 1 0.007673 -0.007009 -0.001025 0.001326 0.000102 -0.001051
# 2 -0.007009 0.043546 -0.004664 0.010046 -0.001336 0.009449
# 3 -0.001025 -0.004664 0.012371 0.000239 0.000956 0.000152
# 4 0.001326 0.010046 0.000239 0.027926 -0.000416 0.001795
# 5 0.000102 -0.001336 0.000956 -0.000416 0.018422 0.002589
# 6 -0.001051 0.009449 0.000152 0.001795 0.002589 0.026705
#
#
# Mechanical properties :
#
#
# Convention : Reuss Voigt Hill
#
# Bulk Modulus (GPa) = 26.18305 51.09612 38.63958
# Shear Modulus (GPa) = 28.60903 42.15497 35.38200
#
# Velocity S-wave (km/s) = 3.34060 4.05506 3.71505
# Velocity P-wave (km/s) = 5.00927 6.46962 5.78571
#
# Compressibility (1/GPa) = 0.03819265
#
# Stress axis : x y z
#
# Youngs Moduli (GPa) = 130.32791 22.96440 80.83579
#
# Poissons Ratio (x) = 0.16096 0.08288
# Poissons Ratio (y) = 0.91351 0.37700
# Poissons Ratio (z) = 0.13362 0.10710
#
# Static dielectric constant tensor:
#      x y z
#    x 4.867410 -0.430580 -0.021710 
#    y -0.430580 5.810460 -0.301680 
#    z -0.021710 -0.301680 4.640970 
# 
# 
# High freq. dielectric constant tensor:
#      x y z
#    x 2.033170 -0.004900 0.002960 
#    y -0.004900 2.046900 0.004640 
#    z 0.002960 0.004640 2.028690 
# 
# From -- ./inp_files/76246.got.cif
#   From: 2010.06.25/outbox.cif.g09.slc.cpg/sg2_39_cif.got.tgz:76246.got - 2010.06.27 13:26:56.
