data_PCOD8006431
_publ_section_title
;
Structure prediction by ZEFSAII (Michael W. Deem and Ramdas Pophale) SiO2 
 PCOD8006431
Probable space group: P -1
;
_chemical_formula_sum "Si O2"
_cell_formula_units_Z 16
_cell_length_a 8.487182
_cell_length_b 12.864238
_cell_length_c 16.915093
_cell_angle_alpha 43.818585
_cell_angle_beta 32.411902
_cell_angle_gamma 53.633768
_cell_volume 684.727482
_symmetry_space_group_name_H-M "P -1"
_symmetry_group_IT_number 2
_symmetry_cell_setting 'triclinic'
loop_
_space_group_symop_operation_xyz
x,y,z
-x,-y,-z
loop_
_atom_site_type_symbol
_atom_site_label
_atom_site_fract_x
_atom_site_fract_y
_atom_site_fract_z
Si Si1 0.686551 0.553668 0.125797
Si Si2 0.742142 0.114026 0.697131
Si Si3 0.661180 0.175653 0.515911
Si Si4 0.517494 0.158598 0.236541
Si Si5 0.814747 0.640173 0.615232
Si Si6 0.839069 0.752068 0.095266
Si Si7 0.236490 0.210270 0.165694
Si Si8 0.762765 0.601657 0.368258
O O1 0.436488 0.418729 0.307446
O O2 0.697682 0.623165 0.169653
O O3 0.612975 0.671185 0.023193
O O4 0.000000 0.500000 0.000000
O O5 0.780286 0.159804 0.563542
O O6 0.405181 0.124279 0.861110
O O7 0.965034 0.230018 0.586755
O O8 0.828693 0.944799 0.769549
O O9 0.374622 0.276818 0.580268
O O10 0.923667 0.258333 0.308387
O O11 0.593162 0.009667 0.599322
O O12 0.348101 0.289011 0.280051
O O13 0.473625 0.180793 0.149454
O O14 0.860719 0.173084 0.107351
O O15 0.000579 0.496568 0.635782
O O16 0.921113 0.685630 0.181839
O O17 0.500000 0.500000 0.500000
#
# Coordination Sequence:
#
# PCOD8006431 Si02
#       8
#     2   2   2   2   2   2   2   2
#     4  12  29  41  61  95 139 179 218 266 328 394
#     4  10  21  42  70  95 130 165 221 278 327 387
#     4  10  20  39  70 103 128 163 221 279 331 382
#     4  11  21  40  72  98 127 167 225 277 326 384
#     4  12  22  43  69 102 125 173 224 270 332 379
#     4  11  25  43  61  95 140 170 211 275 330 387
#     4  11  22  42  70  96 128 174 220 270 332 399
#     4  11  22  39  70 100 129 165 215 277 328 381
#
# _framework density 23.366959999999999
#
# number of rings (size 3 to 8) (size 9 to 14) (size 15 to 20)
#    0.000    1.000    6.250    1.500    3.500    7.500 
#    0.000    2.500    0.000    0.000    0.000    0.000 
#    0.000    0.000    0.000    0.000    0.000    0.000 
#
# Total GULP energy -198394.292164 kJ/mol
# GULP energy per Si atom -12399.643260 kJ/mol
# Density = 2.331378 g / cm^3
# Si number density = 23.366960 Si / 1000 Ang^3
#
#
#
# Elastic Constant Matrix: (Units=GPa)
#
#
# Indices 1 2 3 4 5 6 
#
# 1 45.7600 28.4279 16.0298 0.9712 -26.1807 5.0865
# 2 28.4279 132.9117 22.4114 5.4493 -11.8764 -2.4915
# 3 16.0298 22.4114 89.7224 1.2776 -32.6129 -1.3816
# 4 0.9712 5.4493 1.2776 37.5844 3.4504 -6.6148
# 5 -26.1807 -11.8764 -32.6129 3.4504 38.2640 -2.4482
# 6 5.0865 -2.4915 -1.3816 -6.6148 -2.4482 24.8032
#
#
#
# Elastic Compliance Matrix: (Units=1/GPa)
#
#
# Indices 1 2 3 4 5 6 
#
# 1 0.044119 -0.007444 0.005849 -0.004583 0.032798 -0.007455
# 2 -0.007444 0.009205 -0.002457 -0.000357 -0.004182 0.001806
# 3 0.005849 -0.002457 0.017406 -0.001923 0.018301 0.000817
# 4 -0.004583 -0.000357 -0.001923 0.028857 -0.006988 0.007803
# 5 0.032798 -0.004182 0.018301 -0.006988 0.063394 -0.001733
# 6 -0.007455 0.001806 0.000817 0.007803 -0.001733 0.043983
#
#
# Mechanical properties :
#
#
# Convention : Reuss Voigt Hill
#
# Bulk Modulus (GPa) = 15.96738 44.68136 30.32437
# Shear Modulus (GPa) = 21.19152 33.56533 27.37843
#
# Velocity S-wave (km/s) = 3.01475 3.79416 3.42668
# Velocity P-wave (km/s) = 4.35505 6.19333 5.35368
#
# Compressibility (1/GPa) = 0.06262767
#
# Stress axis : x y z
#
# Youngs Moduli (GPa) = 22.66578 108.63705 57.45103
#
# Poissons Ratio (x) = 0.80869 -0.33604
# Poissons Ratio (y) = 0.16872 0.14114
# Poissons Ratio (z) = -0.13258 0.26688
#
# Static dielectric constant tensor:
#      x y z
#    x 2.909070 -0.283550 -1.185070 
#    y -0.283550 4.781120 -0.140980 
#    z -1.185070 -0.140980 3.261910 
# 
# 
# High freq. dielectric constant tensor:
#      x y z
#    x 1.888910 -0.001220 -0.019270 
#    y -0.001220 1.939280 0.005270 
#    z -0.019270 0.005270 1.926830 
# 
# From -- ./inp_files/559744.got.cif
#   From: 2010.06.25/outbox.cif.g09.slc.cpg/sg2_280_cif.got.tgz:559744.got - 2010.06.27 13:26:56.
