data_PCOD8006787
_publ_section_title
;
Structure prediction by ZEFSAII (Michael W. Deem and Ramdas Pophale) SiO2 
 PCOD8006787
Probable space group: P -1
;
_chemical_formula_sum "Si O2"
_cell_formula_units_Z 16
_cell_length_a 8.903356
_cell_length_b 9.583652
_cell_length_c 13.682640
_cell_angle_alpha 113.786467
_cell_angle_beta 43.852701
_cell_angle_gamma 113.924911
_cell_volume 727.927602
_symmetry_space_group_name_H-M "P -1"
_symmetry_group_IT_number 2
_symmetry_cell_setting 'triclinic'
loop_
_space_group_symop_operation_xyz
x,y,z
-x,-y,-z
loop_
_atom_site_type_symbol
_atom_site_label
_atom_site_fract_x
_atom_site_fract_y
_atom_site_fract_z
Si Si1 0.519424 0.696394 0.640012
Si Si2 0.441640 0.670952 0.084619
Si Si3 0.110419 0.818266 0.164920
Si Si4 0.369258 0.790386 0.368780
Si Si5 0.635706 0.645101 0.353195
Si Si6 0.267153 0.943847 0.773134
Si Si7 0.072748 0.099600 0.400459
Si Si8 0.197683 0.055318 0.043323
O O1 0.640535 0.676868 0.475451
O O2 0.403392 0.537576 0.698981
O O3 0.315318 0.780849 0.739949
O O4 0.696519 0.786085 0.657769
O O5 0.220346 0.691964 0.136098
O O6 0.408378 0.707211 0.224557
O O7 0.500000 0.500000 0.000000
O O8 0.625541 0.790826 0.972469
O O9 0.867230 0.730572 0.224020
O O10 0.109506 0.978522 0.267306
O O11 0.239755 0.893630 0.027943
O O12 0.435737 0.699596 0.405508
O O13 0.114435 0.800022 0.508012
O O14 0.515377 0.963098 0.355691
O O15 0.047683 0.917990 0.801648
O O16 0.215138 0.046484 0.916790
O O17 0.000000 0.000000 0.500000
#
# Coordination Sequence:
#
# PCOD8006787 Si02
#       8
#     2   2   2   2   2   2   2   2
#     4  11  24  42  62  93 130 167 203 264 324 368
#     4  11  25  42  63  93 134 165 206 262 316 375
#     4  12  23  43  68  94 125 170 216 255 316 380
#     4  11  22  42  67  94 123 164 215 258 314 373
#     4  11  25  40  64  98 128 160 208 268 321 373
#     4  10  20  40  64  89 123 161 215 260 297 371
#     4  12  21  41  69  92 124 167 210 261 312 376
#     4  10  23  39  63  93 120 168 215 254 303 373
#
# _framework density 21.980208000000001
#
# number of rings (size 3 to 8) (size 9 to 14) (size 15 to 20)
#    0.000    1.000    5.000    1.125    3.500    3.500 
#    0.000    1.250    0.000    0.000    0.000    0.000 
#    0.000    0.000    0.000    0.000    0.000    0.000 
#
# Total GULP energy -198334.460143 kJ/mol
# GULP energy per Si atom -12395.903759 kJ/mol
# Density = 2.193018 g / cm^3
# Si number density = 21.980208 Si / 1000 Ang^3
#
#
#
# Elastic Constant Matrix: (Units=GPa)
#
#
# Indices 1 2 3 4 5 6 
#
# 1 92.7614 39.0362 11.5391 5.5573 -21.4068 -14.9615
# 2 39.0362 141.9362 21.4559 4.4381 -15.1493 -10.0094
# 3 11.5391 21.4559 44.3316 7.4763 -12.8771 0.2002
# 4 5.5573 4.4381 7.4763 36.1057 -9.5885 -7.0639
# 5 -21.4068 -15.1493 -12.8771 -9.5885 29.9487 2.2917
# 6 -14.9615 -10.0094 0.2002 -7.0639 2.2917 38.3136
#
#
#
# Elastic Compliance Matrix: (Units=1/GPa)
#
#
# Indices 1 2 3 4 5 6 
#
# 1 0.014766 -0.002773 -0.000093 0.001467 0.009217 0.004761
# 2 -0.002773 0.008463 -0.003176 0.000546 0.001017 0.001184
# 3 -0.000093 -0.003176 0.027351 -0.003233 0.009217 -0.002156
# 4 0.001467 0.000546 -0.003233 0.031816 0.009660 0.006020
# 5 0.009217 0.001017 0.009217 0.009660 0.047337 0.002766
# 6 0.004761 0.001184 -0.002156 0.006020 0.002766 0.029225
#
#
# Mechanical properties :
#
#
# Convention : Reuss Voigt Hill
#
# Bulk Modulus (GPa) = 25.97694 47.01018 36.49356
# Shear Modulus (GPa) = 27.19232 34.67348 30.93290
#
# Velocity S-wave (km/s) = 3.52110 3.97607 3.75548
# Velocity P-wave (km/s) = 5.32680 6.52018 5.95347
#
# Compressibility (1/GPa) = 0.03849567
#
# Stress axis : x y z
#
# Youngs Moduli (GPa) = 67.72277 118.15666 36.56180
#
# Poissons Ratio (x) = 0.32769 0.00339
# Poissons Ratio (y) = 0.18782 0.11613
# Poissons Ratio (z) = 0.00628 0.37529
#
# Static dielectric constant tensor:
#      x y z
#    x 4.577920 0.210220 -0.647720 
#    y 0.210220 4.008050 -0.177910 
#    z -0.647720 -0.177910 3.854920 
# 
# 
# High freq. dielectric constant tensor:
#      x y z
#    x 1.877580 -0.007060 -0.008290 
#    y -0.007060 1.859900 -0.007410 
#    z -0.008290 -0.007410 1.854300 
# 
# From -- ./inp_files/205523.got.cif
#   From: 2010.06.25/outbox.cif.g09.slc.cpg/sg2_103_cif.got.tgz:205523.got - 2010.06.27 13:26:56.
