data_PCOD8006047
_publ_section_title
;
Structure prediction by ZEFSAII (Michael W. Deem and Ramdas Pophale) SiO2 
 PCOD8006047
Probable space group: P -1
;
_chemical_formula_sum "Si O2"
_cell_formula_units_Z 16
_cell_length_a 13.130241
_cell_length_b 8.934243
_cell_length_c 12.157839
_cell_angle_alpha 99.460063
_cell_angle_beta 54.946010
_cell_angle_gamma 134.345786
_cell_volume 763.389210
_symmetry_space_group_name_H-M "P -1"
_symmetry_group_IT_number 2
_symmetry_cell_setting 'triclinic'
loop_
_space_group_symop_operation_xyz
x,y,z
-x,-y,-z
loop_
_atom_site_type_symbol
_atom_site_label
_atom_site_fract_x
_atom_site_fract_y
_atom_site_fract_z
Si Si1 0.077021 0.509291 0.610697
Si Si2 0.779853 0.870163 0.849209
Si Si3 0.121061 0.206453 0.536357
Si Si4 0.707915 0.149237 0.665965
Si Si5 0.039072 0.476408 0.092902
Si Si6 0.393754 0.971388 0.961216
Si Si7 0.434577 0.319490 0.263303
Si Si8 0.852773 0.755243 0.002418
O O1 0.148418 0.408900 0.517250
O O2 0.204411 0.748972 0.496839
O O3 0.860860 0.324128 0.686360
O O4 0.089774 0.557859 0.738688
O O5 0.645191 0.701407 0.810242
O O6 0.709941 0.964848 0.953111
O O7 0.777790 0.741510 0.928770
O O8 0.000782 0.088815 0.708771
O O9 0.329660 0.325031 0.422827
O O10 0.000000 0.000000 0.500000
O O11 0.538345 0.114138 0.785947
O O12 0.625836 0.907208 0.703584
O O13 0.021145 0.279682 0.092843
O O14 0.000000 0.500000 0.000000
O O15 0.254850 0.707374 0.998606
O O16 0.500000 0.000000 0.000000
O O17 0.658370 0.549497 0.165729
O O18 0.000000 0.000000 0.000000
#
# Coordination Sequence:
#
# PCOD8006047 Si02
#       8
#     2   2   2   2   2   2   2   2
#     4  11  23  40  68 105 137 179 223 281 347 405
#     4  11  22  40  68 102 135 173 222 281 345 404
#     4  10  20  39  64  99 141 170 209 276 350 399
#     4  11  22  37  68 104 139 170 227 284 342 404
#     4  12  25  46  72  90 135 186 231 279 337 405
#     4  12  19  41  69 100 133 176 227 283 335 396
#     4  11  22  42  66 101 135 177 218 282 347 402
#     4  12  28  44  65  96 134 179 234 282 335 400
#
# _framework density 20.959166
#
# number of rings (size 3 to 8) (size 9 to 14) (size 15 to 20)
#    0.000    0.750    7.500    1.125    3.500    1.000 
#    0.000    1.250    0.000    0.000    0.000    0.000 
#    0.000    0.000    0.000    0.000    0.000    0.000 
#
# Total GULP energy -198256.033791 kJ/mol
# GULP energy per Si atom -12391.002112 kJ/mol
# Density = 2.091146 g / cm^3
# Si number density = 20.959166 Si / 1000 Ang^3
#
#
#
# Elastic Constant Matrix: (Units=GPa)
#
#
# Indices 1 2 3 4 5 6 
#
# 1 93.0759 47.5745 58.3623 7.7203 7.4625 -18.2711
# 2 47.5745 113.6657 57.5902 -5.3097 -2.1434 -5.5552
# 3 58.3623 57.5902 156.1984 -0.3115 -15.8750 -8.6408
# 4 7.7203 -5.3097 -0.3115 36.9728 -3.6411 -6.7808
# 5 7.4625 -2.1434 -15.8750 -3.6411 39.0128 3.6122
# 6 -18.2711 -5.5552 -8.6408 -6.7808 3.6122 33.7051
#
#
#
# Elastic Compliance Matrix: (Units=1/GPa)
#
#
# Indices 1 2 3 4 5 6 
#
# 1 0.019542 -0.005228 -0.005687 -0.004103 -0.007486 0.008251
# 2 -0.005228 0.012382 -0.002561 0.002762 0.000988 -0.001000
# 3 -0.005687 -0.002561 0.009933 0.001183 0.005218 -0.001280
# 4 -0.004103 0.002762 0.001183 0.029426 0.003789 0.004048
# 5 -0.007486 0.000988 0.005218 0.003789 0.030060 -0.005017
# 6 0.008251 -0.001000 -0.001280 0.004048 -0.005017 0.035001
#
#
# Mechanical properties :
#
#
# Convention : Reuss Voigt Hill
#
# Bulk Modulus (GPa) = 67.08823 76.66600 71.87712
# Shear Modulus (GPa) = 29.71494 35.23235 32.47365
#
# Velocity S-wave (km/s) = 3.76939 4.10445 3.94048
# Velocity P-wave (km/s) = 7.14303 7.68896 7.42102
#
# Compressibility (1/GPa) = 0.01490574
#
# Stress axis : x y z
#
# Youngs Moduli (GPa) = 51.17150 80.76036 100.67144
#
# Poissons Ratio (x) = 0.42218 0.57252
# Poissons Ratio (y) = 0.26750 0.25787
# Poissons Ratio (z) = 0.29101 0.20687
#
# Static dielectric constant tensor:
#      x y z
#    x 2.837260 -0.159080 0.702120 
#    y -0.159080 3.678420 -0.121100 
#    z 0.702120 -0.121100 3.248310 
# 
# 
# High freq. dielectric constant tensor:
#      x y z
#    x 1.799960 -0.020510 -0.016390 
#    y -0.020510 1.813580 -0.009250 
#    z -0.016390 -0.009250 1.837950 
# 
# From -- ./inp_files/298378.got.cif
#   From: 2010.06.25/outbox.cif.g09.slc.cpg/sg2_150_cif.got.tgz:298378.got - 2010.06.27 13:26:56.
