data_PCOD8006847
_publ_section_title
;
Structure prediction by ZEFSAII (Michael W. Deem and Ramdas Pophale) SiO2 
 PCOD8006847
Probable space group: P -1
;
_chemical_formula_sum "Si O2"
_cell_formula_units_Z 16
_cell_length_a 12.573888
_cell_length_b 18.762462
_cell_length_c 8.930498
_cell_angle_alpha 74.922505
_cell_angle_beta 40.008233
_cell_angle_gamma 44.796584
_cell_volume 744.509348
_symmetry_space_group_name_H-M "P -1"
_symmetry_group_IT_number 2
_symmetry_cell_setting 'triclinic'
loop_
_space_group_symop_operation_xyz
x,y,z
-x,-y,-z
loop_
_atom_site_type_symbol
_atom_site_label
_atom_site_fract_x
_atom_site_fract_y
_atom_site_fract_z
Si Si1 0.224054 0.334931 0.124153
Si Si2 0.089777 0.424524 0.796989
Si Si3 0.911832 0.960975 0.207705
Si Si4 0.631469 0.469961 0.716519
Si Si5 0.723511 0.779606 0.155164
Si Si6 0.835265 0.267234 0.413289
Si Si7 0.838704 0.125223 0.684746
Si Si8 0.662110 0.292775 0.264351
O O1 0.121991 0.459124 0.159915
O O2 0.953605 0.384777 0.442376
O O3 0.344823 0.255225 0.882261
O O4 0.492058 0.236713 0.003345
O O5 0.069956 0.342440 0.882705
O O6 0.428100 0.316935 0.455682
O O7 0.000000 0.500000 0.000000
O O8 0.060666 0.903616 0.239425
O O9 0.565976 0.084993 0.528225
O O10 0.021451 0.849642 0.056415
O O11 0.000000 0.000000 0.000000
O O12 0.636349 0.394426 0.654558
O O13 0.419034 0.601372 0.784353
O O14 0.500000 0.500000 0.000000
O O15 0.879732 0.794886 0.917932
O O16 0.925212 0.166228 0.475892
O O17 0.654039 0.304964 0.445875
O O18 0.000000 0.000000 0.500000
#
# Coordination Sequence:
#
# PCOD8006847 Si02
#       8
#     2   2   2   2   2   2   2   2
#     4   9  20  40  67  96 127 173 223 260 327 389
#     4   9  17  35  65  89 127 165 215 264 315 382
#     4  12  24  42  66  93 138 170 223 268 325 387
#     4  10  22  44  65  99 139 168 214 278 329 378
#     4  10  20  40  64  99 128 176 212 273 322 381
#     4  11  24  41  68  96 128 173 223 265 331 384
#     4  12  24  44  68  95 127 172 222 269 322 399
#     4  11  22  40  63  95 133 177 213 267 322 392
#
# _framework density 21.490665
#
# number of rings (size 3 to 8) (size 9 to 14) (size 15 to 20)
#    0.000    1.500    2.500    4.125    0.000    2.000 
#    4.500    6.875    0.000    0.000    0.000    0.000 
#    0.000    0.000    0.000    0.000    0.000    0.000 
#
# Total GULP energy -198344.329516 kJ/mol
# GULP energy per Si atom -12396.520595 kJ/mol
# Density = 2.144175 g / cm^3
# Si number density = 21.490665 Si / 1000 Ang^3
#
#
#
# Elastic Constant Matrix: (Units=GPa)
#
#
# Indices 1 2 3 4 5 6 
#
# 1 70.5847 49.4832 26.9784 -0.1593 11.2585 -5.2267
# 2 49.4832 177.7916 65.7270 -4.3667 6.3377 1.5378
# 3 26.9784 65.7270 125.6922 11.3905 14.4698 6.6323
# 4 -0.1593 -4.3667 11.3905 43.7332 -1.1678 4.3927
# 5 11.2585 6.3377 14.4698 -1.1678 33.9399 0.3903
# 6 -5.2267 1.5378 6.6323 4.3927 0.3903 35.3643
#
#
#
# Elastic Compliance Matrix: (Units=1/GPa)
#
#
# Indices 1 2 3 4 5 6 
#
# 1 0.018953 -0.004713 -0.001156 -0.000570 -0.004972 0.003349
# 2 -0.004713 0.008275 -0.003640 0.001864 0.001642 -0.000623
# 3 -0.001156 -0.003640 0.010901 -0.003142 -0.003674 -0.001626
# 4 -0.000570 0.001864 -0.003142 0.024184 0.002042 -0.002603
# 5 -0.004972 0.001642 -0.003674 0.002042 0.032452 -0.000729
# 6 0.003349 -0.000623 -0.001626 -0.002603 -0.000729 0.029435
#
#
# Mechanical properties :
#
#
# Convention : Reuss Voigt Hill
#
# Bulk Modulus (GPa) = 52.32969 73.16065 62.74517
# Shear Modulus (GPa) = 33.42466 38.06614 35.74540
#
# Velocity S-wave (km/s) = 3.94802 4.21323 4.08278
# Velocity P-wave (km/s) = 6.72200 7.60167 7.17533
#
# Compressibility (1/GPa) = 0.01910961
#
# Stress axis : x y z
#
# Youngs Moduli (GPa) = 52.76109 120.84781 91.73356
#
# Poissons Ratio (x) = 0.56961 0.10604
# Poissons Ratio (y) = 0.24869 0.33395
# Poissons Ratio (z) = 0.06099 0.43993
#
# Static dielectric constant tensor:
#      x y z
#    x 3.657520 -0.042520 0.124840 
#    y -0.042520 4.520660 -0.098430 
#    z 0.124840 -0.098430 4.173820 
# 
# 
# High freq. dielectric constant tensor:
#      x y z
#    x 1.813570 0.001100 0.003020 
#    y 0.001100 1.862380 0.004130 
#    z 0.003020 0.004130 1.852280 
# 
# From -- ./inp_files/177778.got.cif
#   From: 2010.06.25/outbox.cif.g09.slc.cpg/sg2_89_cif.got.tgz:177778.got - 2010.06.27 13:26:56.
