data_PCOD8006569
_publ_section_title
;
Structure prediction by ZEFSAII (Michael W. Deem and Ramdas Pophale) SiO2 
 PCOD8006569
Probable space group: P -1
;
_chemical_formula_sum "Si O2"
_cell_formula_units_Z 16
_cell_length_a 14.989996
_cell_length_b 14.626155
_cell_length_c 8.807067
_cell_angle_alpha 130.847356
_cell_angle_beta 139.581278
_cell_angle_gamma 39.710060
_cell_volume 788.902082
_symmetry_space_group_name_H-M "P -1"
_symmetry_group_IT_number 2
_symmetry_cell_setting 'triclinic'
loop_
_space_group_symop_operation_xyz
x,y,z
-x,-y,-z
loop_
_atom_site_type_symbol
_atom_site_label
_atom_site_fract_x
_atom_site_fract_y
_atom_site_fract_z
Si Si1 0.079137 0.934642 0.192281
Si Si2 0.336153 0.984815 0.486969
Si Si3 0.296363 0.165226 0.127869
Si Si4 0.733393 0.745437 0.151663
Si Si5 0.737783 0.360680 0.754297
Si Si6 0.528900 0.323291 0.206091
Si Si7 0.018362 0.555910 0.925415
Si Si8 0.739198 0.062791 0.001317
O O1 0.159360 0.761492 0.116630
O O2 0.222808 0.963644 0.434216
O O3 0.929735 0.015108 0.207360
O O4 0.000000 0.000000 0.000000
O O5 0.293052 0.147011 0.629895
O O6 0.525585 0.864796 0.640267
O O7 0.304238 0.965922 0.251794
O O8 0.162607 0.307380 0.208473
O O9 0.252915 0.192000 0.922798
O O10 0.290064 0.028160 0.013903
O O11 0.899551 0.586147 0.232197
O O12 0.577229 0.733273 0.921616
O O13 0.665282 0.297447 0.476106
O O14 0.590560 0.505892 0.804107
O O15 0.856974 0.391302 0.847021
O O16 0.621628 0.232689 0.075890
O O17 0.000000 0.500000 0.000000
#
# Coordination Sequence:
#
# PCOD8006569 Si02
#       8
#     2   2   2   2   2   2   2   2
#     4  10  23  41  60  86 125 167 197 250 304 360
#     4  11  23  39  59  86 126 159 198 251 303 353
#     4  11  20  36  62  89 117 154 206 248 291 358
#     4  10  21  37  60  92 123 155 198 253 305 359
#     4  10  20  40  61  89 125 159 200 253 312 357
#     4  10  22  37  63  92 121 159 203 254 309 363
#     4   9  20  37  59  91 123 149 197 259 301 358
#     4  11  23  39  59  91 120 157 208 249 295 368
#
# _framework density 20.281351999999998
#
# number of rings (size 3 to 8) (size 9 to 14) (size 15 to 20)
#    0.000    1.750    2.500    1.500    1.750    3.500 
#    0.000    5.625    0.000    0.000    0.000    0.000 
#    0.000    0.000    0.000    0.000    0.000    0.000 
#
# Total GULP energy -198310.048461 kJ/mol
# GULP energy per Si atom -12394.378029 kJ/mol
# Density = 2.023519 g / cm^3
# Si number density = 20.281352 Si / 1000 Ang^3
#
#
#
# Elastic Constant Matrix: (Units=GPa)
#
#
# Indices 1 2 3 4 5 6 
#
# 1 94.7891 57.2992 50.2586 2.9765 20.3217 -8.7963
# 2 57.2992 166.9813 64.0148 5.4660 0.9865 -27.6664
# 3 50.2586 64.0148 89.8728 12.9582 11.8819 -15.9133
# 4 2.9765 5.4660 12.9582 30.3524 -6.7941 2.7347
# 5 20.3217 0.9865 11.8819 -6.7941 38.6459 -1.7917
# 6 -8.7963 -27.6664 -15.9133 2.7347 -1.7917 43.5326
#
#
#
# Elastic Compliance Matrix: (Units=1/GPa)
#
#
# Indices 1 2 3 4 5 6 
#
# 1 0.017717 -0.003782 -0.006570 0.000271 -0.007223 -0.001540
# 2 -0.003782 0.009663 -0.004743 0.001119 0.003569 0.003720
# 3 -0.006570 -0.004743 0.020575 -0.008519 -0.004083 0.003547
# 4 0.000271 0.001119 -0.008519 0.038781 0.009062 -0.004412
# 5 -0.007223 0.003569 -0.004083 0.009062 0.032436 0.000082
# 6 -0.001540 0.003720 0.003547 -0.004412 0.000082 0.026601
#
#
# Mechanical properties :
#
#
# Convention : Reuss Voigt Hill
#
# Bulk Modulus (GPa) = 56.28873 77.19870 66.74372
# Shear Modulus (GPa) = 27.48979 34.51088 31.00033
#
# Velocity S-wave (km/s) = 3.68560 4.12953 3.91386
# Velocity P-wave (km/s) = 6.77685 7.80281 7.30786
#
# Compressibility (1/GPa) = 0.01776554
#
# Stress axis : x y z
#
# Youngs Moduli (GPa) = 56.44330 103.48494 48.60163
#
# Poissons Ratio (x) = 0.39137 0.31934
# Poissons Ratio (y) = 0.21346 0.23050
# Poissons Ratio (z) = 0.37086 0.49079
#
# Static dielectric constant tensor:
#      x y z
#    x 4.006590 -0.323380 0.483460 
#    y -0.323380 4.240840 -0.046920 
#    z 0.483460 -0.046920 3.475430 
# 
# 
# High freq. dielectric constant tensor:
#      x y z
#    x 1.797050 -0.011400 0.031100 
#    y -0.011400 1.811730 -0.000680 
#    z 0.031100 -0.000680 1.762420 
# 
# From -- ./inp_files/314158.got.cif
#   From: 2010.06.25/outbox.cif.g09.slc.cpg/sg2_158_cif.got.tgz:314158.got - 2010.06.27 13:26:56.
