data_PCOD8006175
_publ_section_title
;
Structure prediction by ZEFSAII (Michael W. Deem and Ramdas Pophale) SiO2 
 PCOD8006175
Probable space group: P -1
;
_chemical_formula_sum "Si O2"
_cell_formula_units_Z 12
_cell_length_a 6.967448
_cell_length_b 12.622466
_cell_length_c 15.862710
_cell_angle_alpha 24.662592
_cell_angle_beta 131.081839
_cell_angle_gamma 131.010171
_cell_volume 431.000595
_symmetry_space_group_name_H-M "P -1"
_symmetry_group_IT_number 2
_symmetry_cell_setting 'triclinic'
loop_
_space_group_symop_operation_xyz
x,y,z
-x,-y,-z
loop_
_atom_site_type_symbol
_atom_site_label
_atom_site_fract_x
_atom_site_fract_y
_atom_site_fract_z
Si Si1 0.117262 0.284280 0.643491
Si Si2 0.775562 0.343927 0.361418
Si Si3 0.507383 0.183541 0.050248
Si Si4 0.995501 0.285320 0.999483
Si Si5 0.498130 0.163387 0.254797
Si Si6 0.353612 0.679730 0.272638
O O1 0.408989 0.253375 0.776520
O O2 0.000000 0.500000 0.500000
O O3 0.073101 0.373513 0.466027
O O4 0.955794 0.997141 0.816380
O O5 0.753804 0.282992 0.298130
O O6 0.608751 0.113836 0.533182
O O7 0.660950 0.597156 0.166387
O O8 0.789506 0.266440 0.027752
O O9 0.578343 0.125368 0.209197
O O10 0.333441 0.930350 0.141063
O O11 0.293111 0.370883 0.056713
O O12 0.905745 0.415438 0.793154
O O13 0.500000 0.500000 0.500000
#
# Coordination Sequence:
#
# PCOD8006175 Si02
#       6
#     2   2   2   2   2   2
#     4  10  20  39  66  88 127 167 202 269 321 367
#     4  10  22  43  67  96 131 163 219 265 312 387
#     4  11  23  42  67  92 131 173 209 267 323 373
#     4  10  23  42  61  96 132 161 217 267 316 384
#     4  10  24  43  68  95 127 174 213 259 323 385
#     4  11  25  39  62  98 128 166 218 264 324 380
#
# _framework density 27.842189000000001
#
# number of rings (size 3 to 8) (size 9 to 14) (size 15 to 20)
#    0.000    1.667    0.000    4.500    9.333    1.333 
#    0.000   13.333    0.000    0.000    0.000    0.000 
#    0.000    0.000    0.000    0.000    0.000    0.000 
#
# Total GULP energy -148663.511150 kJ/mol
# GULP energy per Si atom -12388.625929 kJ/mol
# Density = 2.777882 g / cm^3
# Si number density = 27.842189 Si / 1000 Ang^3
#
#
#
# Elastic Constant Matrix: (Units=GPa)
#
#
# Indices 1 2 3 4 5 6 
#
# 1 132.3015 86.8792 36.0768 28.3879 16.7064 5.3083
# 2 86.8792 170.1268 69.6804 34.9807 23.6175 20.3844
# 3 36.0768 69.6804 163.0515 25.1449 2.2629 2.0274
# 4 28.3879 34.9807 25.1449 43.7696 -11.4826 13.5443
# 5 16.7064 23.6175 2.2629 -11.4826 47.9758 13.7268
# 6 5.3083 20.3844 2.0274 13.5443 13.7268 51.1216
#
#
#
# Elastic Compliance Matrix: (Units=1/GPa)
#
#
# Indices 1 2 3 4 5 6 
#
# 1 0.012641 -0.005036 0.000419 -0.006780 -0.004629 0.003718
# 2 -0.005036 0.011477 -0.002942 -0.004977 -0.004549 -0.001397
# 3 0.000419 -0.002942 0.007734 -0.002943 -0.000244 0.001668
# 4 -0.006780 -0.004977 -0.002943 0.041991 0.018827 -0.013375
# 5 -0.004629 -0.004549 -0.000244 0.018827 0.032476 -0.011404
# 6 0.003718 -0.001397 0.001668 -0.013375 -0.011404 0.026272
#
#
# Mechanical properties :
#
#
# Convention : Reuss Voigt Hill
#
# Bulk Modulus (GPa) = 59.76082 94.52807 77.14444
# Shear Modulus (GPa) = 32.61827 46.76296 39.69062
#
# Velocity S-wave (km/s) = 3.42649 4.10270 3.77975
# Velocity P-wave (km/s) = 6.09633 7.51452 6.84226
#
# Compressibility (1/GPa) = 0.01673337
#
# Stress axis : x y z
#
# Youngs Moduli (GPa) = 79.10533 87.12993 129.29189
#
# Poissons Ratio (x) = 0.43878 -0.05412
# Poissons Ratio (y) = 0.39837 0.38044
# Poissons Ratio (z) = -0.03311 0.25638
#
# Static dielectric constant tensor:
#      x y z
#    x 4.083410 -0.189310 -0.615380 
#    y -0.189310 5.257100 0.328190 
#    z -0.615380 0.328190 5.853520 
# 
# 
# High freq. dielectric constant tensor:
#      x y z
#    x 2.151460 0.036990 -0.034540 
#    y 0.036990 2.136010 0.020380 
#    z -0.034540 0.020380 2.180340 
# 
# From -- ./inp_files/171037.got.cif
#   From: 2010.06.25/outbox.cif.g09.slc.cpg/sg2_86_cif.got.tgz:171037.got - 2010.06.27 13:26:56.
