data_PCOD8006954
_publ_section_title
;
Structure prediction by ZEFSAII (Michael W. Deem and Ramdas Pophale) SiO2 
 PCOD8006954
Probable space group: P -1
;
_chemical_formula_sum "Si O2"
_cell_formula_units_Z 16
_cell_length_a 11.574977
_cell_length_b 14.297543
_cell_length_c 5.499853
_cell_angle_alpha 116.942163
_cell_angle_beta 91.812714
_cell_angle_gamma 55.135950
_cell_volume 632.783614
_symmetry_space_group_name_H-M "P -1"
_symmetry_group_IT_number 2
_symmetry_cell_setting 'triclinic'
loop_
_space_group_symop_operation_xyz
x,y,z
-x,-y,-z
loop_
_atom_site_type_symbol
_atom_site_label
_atom_site_fract_x
_atom_site_fract_y
_atom_site_fract_z
Si Si1 0.195499 0.301122 0.866133
Si Si2 0.636006 0.464948 0.812028
Si Si3 0.913121 0.988792 0.679677
Si Si4 0.335085 0.364880 0.312798
Si Si5 0.410924 0.879451 0.693207
Si Si6 0.213835 0.811519 0.716621
Si Si7 0.127286 0.554528 0.895253
Si Si8 0.330455 0.026507 0.377016
O O1 0.152543 0.427635 0.866219
O O2 0.299027 0.168633 0.549259
O O3 0.289972 0.281684 0.084468
O O4 0.047865 0.322361 0.971201
O O5 0.585498 0.598974 0.824977
O O6 0.681544 0.348865 0.486447
O O7 0.500000 0.500000 0.000000
O O8 0.780553 0.406271 0.918281
O O9 0.828947 0.933006 0.526012
O O10 0.041895 0.879346 0.744750
O O11 0.000000 0.000000 0.500000
O O12 0.786905 0.140188 0.954620
O O13 0.444279 0.275329 0.437815
O O14 0.188804 0.508536 0.570448
O O15 0.275266 0.874769 0.630776
O O16 0.431874 0.937820 0.517954
O O17 0.390960 0.960364 0.035856
#
# Coordination Sequence:
#
# PCOD8006954 Si02
#       8
#     2   2   2   2   2   2   2   2
#     4  10  24  45  73 100 139 183 243 295 358 413
#     4  11  25  42  71 103 140 186 237 289 362 432
#     4  10  20  40  65  96 138 179 231 291 355 418
#     4  11  26  45  69 101 139 188 236 300 351 426
#     4  11  26  43  69 100 145 180 239 288 358 424
#     4  10  22  39  63  98 138 182 227 291 353 425
#     4  10  23  47  69 103 140 182 239 301 352 424
#     4  11  25  44  69 105 137 192 234 295 353 432
#
# _framework density 25.285107
#
# number of rings (size 3 to 8) (size 9 to 14) (size 15 to 20)
#    0.000    1.500    1.250    1.875    7.000    5.000 
#    0.000    0.000    0.000    0.000    0.000    0.000 
#    0.000    0.000    0.000    0.000    0.000    0.000 
#
# Total GULP energy -198305.906344 kJ/mol
# GULP energy per Si atom -12394.119147 kJ/mol
# Density = 2.522756 g / cm^3
# Si number density = 25.285107 Si / 1000 Ang^3
#
#
#
# Elastic Constant Matrix: (Units=GPa)
#
#
# Indices 1 2 3 4 5 6 
#
# 1 105.9448 26.5649 32.5936 7.8403 -3.6161 -7.9388
# 2 26.5649 65.9518 18.5082 4.8588 6.7764 -5.2653
# 3 32.5936 18.5082 114.0141 15.4287 10.1750 3.4938
# 4 7.8403 4.8588 15.4287 41.6263 1.5539 -1.4032
# 5 -3.6161 6.7764 10.1750 1.5539 39.3258 -1.9841
# 6 -7.9388 -5.2653 3.4938 -1.4032 -1.9841 27.5230
#
#
#
# Elastic Compliance Matrix: (Units=1/GPa)
#
#
# Indices 1 2 3 4 5 6 
#
# 1 0.011696 -0.003854 -0.002968 -0.000647 0.002693 0.003174
# 2 -0.003854 0.017650 -0.001494 -0.000599 -0.002874 0.002217
# 3 -0.002968 -0.001494 0.010631 -0.003199 -0.002784 -0.002855
# 4 -0.000647 -0.000599 -0.003199 0.025450 -0.000064 0.001398
# 5 0.002693 -0.002874 -0.002784 -0.000064 0.027022 0.002525
# 6 0.003174 0.002217 -0.002855 0.001398 0.002525 0.038289
#
#
# Mechanical properties :
#
#
# Convention : Reuss Voigt Hill
#
# Bulk Modulus (GPa) = 42.83508 49.02713 45.93111
# Shear Modulus (GPa) = 32.22663 35.57795 33.90229
#
# Velocity S-wave (km/s) = 3.57393 3.75516 3.66567
# Velocity P-wave (km/s) = 5.83166 6.18332 6.01006
#
# Compressibility (1/GPa) = 0.02334535
#
# Stress axis : x y z
#
# Youngs Moduli (GPa) = 85.49974 56.65568 94.06709
#
# Poissons Ratio (x) = 0.21834 0.27920
# Poissons Ratio (y) = 0.32949 0.14054
# Poissons Ratio (z) = 0.25377 0.08465
#
# Static dielectric constant tensor:
#      x y z
#    x 4.697360 0.050740 0.161160 
#    y 0.050740 3.993480 -0.030450 
#    z 0.161160 -0.030450 4.710820 
# 
# 
# High freq. dielectric constant tensor:
#      x y z
#    x 2.034450 -0.003920 0.000190 
#    y -0.003920 1.977890 0.007000 
#    z 0.000190 0.007000 2.013650 
# 
# From -- ./inp_files/78593.got.cif
#   From: 2010.06.25/outbox.cif.g09.slc.cpg/sg2_40_cif.got.tgz:78593.got - 2010.06.27 13:26:56.
