data_PCOD8006424
_publ_section_title
;
Structure prediction by ZEFSAII (Michael W. Deem and Ramdas Pophale) SiO2 
 PCOD8006424
Probable space group: P -1
;
_chemical_formula_sum "Si O2"
_cell_formula_units_Z 16
_cell_length_a 7.724789
_cell_length_b 14.537513
_cell_length_c 9.442399
_cell_angle_alpha 97.283382
_cell_angle_beta 87.574058
_cell_angle_gamma 40.981841
_cell_volume 674.095607
_symmetry_space_group_name_H-M "P -1"
_symmetry_group_IT_number 2
_symmetry_cell_setting 'triclinic'
loop_
_space_group_symop_operation_xyz
x,y,z
-x,-y,-z
loop_
_atom_site_type_symbol
_atom_site_label
_atom_site_fract_x
_atom_site_fract_y
_atom_site_fract_z
Si Si1 0.135446 0.049696 0.682662
Si Si2 0.442843 0.797587 0.948492
Si Si3 0.719466 0.214314 0.318411
Si Si4 0.795809 0.917945 0.008653
Si Si5 0.859329 0.750047 0.764741
Si Si6 0.458973 0.773227 0.258591
Si Si7 0.709046 0.960276 0.620532
Si Si8 0.768657 0.542057 0.435111
O O1 0.832838 0.144740 0.664066
O O2 0.119757 0.119826 0.837043
O O3 0.270993 0.057896 0.555148
O O4 0.305034 0.885272 0.660676
O O5 0.316981 0.767733 0.848818
O O6 0.704445 0.731345 0.846975
O O7 0.211756 0.971233 0.018274
O O8 0.516371 0.724005 0.083237
O O9 0.482593 0.368135 0.433864
O O10 0.996544 0.144504 0.342848
O O11 0.983035 0.774117 0.878041
O O12 0.500000 0.000000 0.000000
O O13 0.640073 0.890878 0.689914
O O14 0.116534 0.605271 0.643396
O O15 0.689761 0.631083 0.314725
O O16 0.479930 0.876112 0.298339
O O17 0.000000 0.500000 0.500000
#
# Coordination Sequence:
#
# PCOD8006424 Si02
#       8
#     2   2   2   2   2   2   2   2
#     4  10  20  39  69  98 122 162 224 267 307 369
#     4  10  21  40  64  95 126 170 211 261 314 381
#     4  10  20  40  67  94 128 164 218 262 315 377
#     4   9  20  38  59  93 132 159 200 268 317 363
#     4  11  24  40  62  96 133 166 203 264 331 374
#     4  11  22  40  70  94 124 169 222 259 305 387
#     4  11  21  40  70 100 120 162 221 274 309 364
#     4  12  24  45  62  91 134 174 206 256 326 386
#
# _framework density 23.735505
#
# number of rings (size 3 to 8) (size 9 to 14) (size 15 to 20)
#    0.000    1.500    5.000    0.750    1.750    2.500 
#    4.500    6.875    0.000    0.000    0.000    0.000 
#    0.000    0.000    0.000    0.000    0.000    0.000 
#
# Total GULP energy -198368.380961 kJ/mol
# GULP energy per Si atom -12398.023810 kJ/mol
# Density = 2.368148 g / cm^3
# Si number density = 23.735505 Si / 1000 Ang^3
#
#
#
# Elastic Constant Matrix: (Units=GPa)
#
#
# Indices 1 2 3 4 5 6 
#
# 1 34.7495 0.4593 -4.2561 0.7053 9.5979 4.1357
# 2 0.4593 105.2558 50.0608 7.0120 19.3391 5.3261
# 3 -4.2561 50.0608 160.2373 -12.5317 30.9600 6.5317
# 4 0.7053 7.0120 -12.5317 56.3572 7.2345 7.7284
# 5 9.5979 19.3391 30.9600 7.2345 42.5880 -3.4755
# 6 4.1357 5.3261 6.5317 7.7284 -3.4755 21.1403
#
#
#
# Elastic Compliance Matrix: (Units=1/GPa)
#
#
# Indices 1 2 3 4 5 6 
#
# 1 0.033854 0.000628 0.003778 0.003435 -0.012158 -0.011203
# 2 0.000628 0.011743 -0.003066 -0.001452 -0.003172 -0.002124
# 3 0.003778 -0.003066 0.009263 0.004095 -0.007340 -0.005532
# 4 0.003435 -0.001452 0.004095 0.021212 -0.007557 -0.010568
# 5 -0.012158 -0.003172 -0.007340 -0.007557 0.035426 0.014032
# 6 -0.011203 -0.002124 -0.005532 -0.010568 0.014032 0.057910
#
#
# Mechanical properties :
#
#
# Convention : Reuss Voigt Hill
#
# Bulk Modulus (GPa) = 17.37998 43.64119 30.51058
# Shear Modulus (GPa) = 26.89499 40.94898 33.92199
#
# Velocity S-wave (km/s) = 3.36982 4.15808 3.78453
# Velocity P-wave (km/s) = 4.74122 6.44044 5.65502
#
# Compressibility (1/GPa) = 0.05753748
#
# Stress axis : x y z
#
# Youngs Moduli (GPa) = 29.53900 85.15507 107.95678
#
# Poissons Ratio (x) = -0.05344 -0.40782
# Poissons Ratio (y) = -0.01854 0.33103
# Poissons Ratio (z) = -0.11159 0.26111
#
# Static dielectric constant tensor:
#      x y z
#    x 4.509440 0.148170 0.352900 
#    y 0.148170 4.173960 0.216810 
#    z 0.352900 0.216810 5.125670 
# 
# 
# High freq. dielectric constant tensor:
#      x y z
#    x 1.955320 -0.008880 0.010920 
#    y -0.008880 1.888380 -0.003720 
#    z 0.010920 -0.003720 1.969900 
# 
# From -- ./inp_files/207328.got.cif
#   From: 2010.06.25/outbox.cif.g09.slc.cpg/sg2_104_cif.got.tgz:207328.got - 2010.06.27 13:26:56.
