data_PCOD8006322
_publ_section_title
;
Structure prediction by ZEFSAII (Michael W. Deem and Ramdas Pophale) SiO2 
 PCOD8006322
Probable space group: P -1
;
_chemical_formula_sum "Si O2"
_cell_formula_units_Z 14
_cell_length_a 15.746327
_cell_length_b 11.166205
_cell_length_c 12.907170
_cell_angle_alpha 36.068836
_cell_angle_beta 26.814490
_cell_angle_gamma 42.749060
_cell_volume 602.021144
_symmetry_space_group_name_H-M "P -1"
_symmetry_group_IT_number 2
_symmetry_cell_setting 'triclinic'
loop_
_space_group_symop_operation_xyz
x,y,z
-x,-y,-z
loop_
_atom_site_type_symbol
_atom_site_label
_atom_site_fract_x
_atom_site_fract_y
_atom_site_fract_z
Si Si1 0.052774 0.779970 0.528278
Si Si2 0.558246 0.405060 0.113192
Si Si3 0.366579 0.288809 0.999354
Si Si4 0.009177 0.934830 0.793543
Si Si5 0.038379 0.714425 0.255303
Si Si6 0.687984 0.155259 0.616097
Si Si7 0.811641 0.659700 0.343641
O O1 0.137858 0.891160 0.458526
O O2 0.192923 0.581423 0.501282
O O3 0.843869 0.693102 0.831658
O O4 0.076873 0.922512 0.303443
O O5 0.391540 0.275488 0.432032
O O6 0.500000 0.500000 0.000000
O O7 0.618879 0.573216 0.012478
O O8 0.738279 0.251222 0.007712
O O9 0.412570 0.055713 0.148006
O O10 0.529461 0.326453 0.707153
O O11 0.197162 0.797781 0.647636
O O12 0.067825 0.093787 0.707091
O O13 0.852238 0.781495 0.108803
O O14 0.000000 0.500000 0.500000
O O15 0.975628 0.714845 0.204990
#
# Coordination Sequence:
#
# PCOD8006322 Si02
#       7
#     2   2   2   2   2   2   2
#     4  11  21  45  69  91 134 174 215 266 324 382
#     4  12  23  39  69  98 127 174 218 266 327 388
#     4  10  20  39  67  97 126 167 226 259 319 391
#     4  11  24  42  66  98 132 170 217 270 323 383
#     4  12  22  45  68  91 131 174 214 269 328 379
#     4  10  22  41  68  97 129 175 219 266 320 387
#     4  12  25  42  67  98 131 171 217 271 325 386
#
# _framework density 23.254998000000001
#
# number of rings (size 3 to 8) (size 9 to 14) (size 15 to 20)
#    0.000    0.857    5.714    3.000    0.000    1.143 
#    0.000    6.429    0.000    0.000    0.000    0.000 
#    0.000    0.000    0.000    0.000    0.000    0.000 
#
# Total GULP energy -173515.224035 kJ/mol
# GULP energy per Si atom -12393.944574 kJ/mol
# Density = 2.320207 g / cm^3
# Si number density = 23.254998 Si / 1000 Ang^3
#
#
#
# Elastic Constant Matrix: (Units=GPa)
#
#
# Indices 1 2 3 4 5 6 
#
# 1 81.1571 33.2158 40.6657 4.9707 -10.0488 13.5072
# 2 33.2158 61.9204 38.6647 17.1214 10.7584 14.4239
# 3 40.6657 38.6647 174.1342 29.6918 15.7143 -8.6391
# 4 4.9707 17.1214 29.6918 44.7439 -4.2369 -5.2927
# 5 -10.0488 10.7584 15.7143 -4.2369 33.2969 7.8819
# 6 13.5072 14.4239 -8.6391 -5.2927 7.8819 36.4464
#
#
#
# Elastic Compliance Matrix: (Units=1/GPa)
#
#
# Indices 1 2 3 4 5 6 
#
# 1 0.022599 -0.011203 -0.005632 0.006080 0.015716 -0.007793
# 2 -0.011203 0.029854 -0.001339 -0.011270 -0.012176 -0.006984
# 3 -0.005632 -0.001339 0.009174 -0.004993 -0.007583 0.005706
# 4 0.006080 -0.011270 -0.004993 0.030709 0.011006 0.003103
# 5 0.015716 -0.012176 -0.007583 0.011006 0.046347 -0.011228
# 6 -0.007793 -0.006984 0.005706 0.003103 -0.011228 0.037321
#
#
# Mechanical properties :
#
#
# Convention : Reuss Voigt Hill
#
# Bulk Modulus (GPa) = 39.55596 60.25602 49.90599
# Shear Modulus (GPa) = 22.64744 36.54179 29.59461
#
# Velocity S-wave (km/s) = 3.12408 3.96833 3.57124
# Velocity P-wave (km/s) = 5.48268 6.85304 6.20580
#
# Compressibility (1/GPa) = 0.02528064
#
# Stress axis : x y z
#
# Youngs Moduli (GPa) = 44.24939 33.49689 109.00616
#
# Poissons Ratio (x) = 0.37526 0.61389
# Poissons Ratio (y) = 0.49571 0.14591
# Poissons Ratio (z) = 0.24920 0.04484
#
# Static dielectric constant tensor:
#      x y z
#    x 4.061720 0.273060 -0.109480 
#    y 0.273060 4.423570 0.485990 
#    z -0.109480 0.485990 4.371640 
# 
# 
# High freq. dielectric constant tensor:
#      x y z
#    x 1.902420 0.029830 -0.010750 
#    y 0.029830 1.921330 0.029860 
#    z -0.010750 0.029860 1.918790 
# 
# From -- ./inp_files/425178.got.cif
#   From: 2010.06.25/outbox.cif.g09.slc.cpg/sg2_213_cif.got.tgz:425178.got - 2010.06.27 13:26:56.
