data_PCOD8006579
_publ_section_title
;
Structure prediction by ZEFSAII (Michael W. Deem and Ramdas Pophale) SiO2 
 PCOD8006579
Probable space group: P -1
;
_chemical_formula_sum "Si O2"
_cell_formula_units_Z 16
_cell_length_a 15.155068
_cell_length_b 11.990629
_cell_length_c 13.996456
_cell_angle_alpha 67.645284
_cell_angle_beta 29.825417
_cell_angle_gamma 47.818232
_cell_volume 783.704401
_symmetry_space_group_name_H-M "P -1"
_symmetry_group_IT_number 2
_symmetry_cell_setting 'triclinic'
loop_
_space_group_symop_operation_xyz
x,y,z
-x,-y,-z
loop_
_atom_site_type_symbol
_atom_site_label
_atom_site_fract_x
_atom_site_fract_y
_atom_site_fract_z
Si Si1 0.722543 0.132735 0.340071
Si Si2 0.908749 0.231481 0.000626
Si Si3 0.398598 0.085150 0.671082
Si Si4 0.837299 0.086766 0.456953
Si Si5 0.478505 0.607629 0.194322
Si Si6 0.709647 0.468402 0.753348
Si Si7 0.545020 0.206891 0.011194
Si Si8 0.297478 0.116295 0.360527
O O1 0.701797 0.247732 0.243570
O O2 0.438244 0.210735 0.598986
O O3 0.817031 0.139378 0.349461
O O4 0.932332 0.924143 0.177831
O O5 0.755530 0.415632 0.033206
O O6 0.093890 0.196156 0.921745
O O7 0.500000 0.000000 0.500000
O O8 0.562798 0.937692 0.649789
O O9 0.692257 0.257330 0.602020
O O10 0.706690 0.021900 0.619804
O O11 0.144255 0.927596 0.246043
O O12 0.302378 0.586457 0.322131
O O13 0.564394 0.671601 0.020555
O O14 0.595823 0.662483 0.804510
O O15 0.999309 0.317252 0.577249
O O16 0.500000 0.500000 0.000000
O O17 0.467032 0.105092 0.125228
#
# Coordination Sequence:
#
# PCOD8006579 Si02
#       8
#     2   2   2   2   2   2   2   2
#     4   9  20  38  64  85 115 165 198 256 308 358
#     4  10  20  40  61  91 119 154 210 252 307 359
#     4   9  20  34  60  88 115 148 197 256 296 357
#     4  11  22  42  61  88 130 165 206 250 309 369
#     4  11  24  39  62  92 128 165 202 258 305 369
#     4  10  21  39  62  90 122 157 203 259 302 359
#     4  11  23  39  64  89 123 167 205 254 307 359
#     4  11  22  40  65  90 121 164 210 246 311 368
#
# _framework density 20.415859999999999
#
# number of rings (size 3 to 8) (size 9 to 14) (size 15 to 20)
#    0.000    1.750    2.500    2.250    8.750    3.000 
#    2.250    2.500    0.000    0.000    0.000    0.000 
#    0.000    0.000    0.000    0.000    0.000    0.000 
#
# Total GULP energy -198279.659237 kJ/mol
# GULP energy per Si atom -12392.478702 kJ/mol
# Density = 2.036939 g / cm^3
# Si number density = 20.415860 Si / 1000 Ang^3
#
#
#
# Elastic Constant Matrix: (Units=GPa)
#
#
# Indices 1 2 3 4 5 6 
#
# 1 100.9629 56.1615 67.2988 11.7813 -3.4921 -2.7240
# 2 56.1615 83.9854 41.2693 -8.9428 0.9403 -12.4806
# 3 67.2988 41.2693 69.2589 -8.2072 -10.2748 -6.3699
# 4 11.7813 -8.9428 -8.2072 36.2472 0.6765 4.2613
# 5 -3.4921 0.9403 -10.2748 0.6765 35.7413 8.4921
# 6 -2.7240 -12.4806 -6.3699 4.2613 8.4921 28.8967
#
#
#
# Elastic Compliance Matrix: (Units=1/GPa)
#
#
# Indices 1 2 3 4 5 6 
#
# 1 0.056104 -0.017657 -0.049399 -0.032888 -0.006065 -0.006595
# 2 -0.017657 0.024140 0.004482 0.011712 -0.003440 0.009034
# 3 -0.049399 0.004482 0.065662 0.031390 0.012519 0.003445
# 4 -0.032888 0.011712 0.031390 0.048137 0.004481 0.000462
# 5 -0.006065 -0.003440 0.012519 0.004481 0.033307 -0.009747
# 6 -0.006595 0.009034 0.003445 0.000462 -0.009747 0.041442
#
#
# Mechanical properties :
#
#
# Convention : Reuss Voigt Hill
#
# Bulk Modulus (GPa) = 48.17334 64.85183 56.51258
# Shear Modulus (GPa) = 12.47317 26.14221 19.30769
#
# Velocity S-wave (km/s) = 2.47443 3.58227 3.07859
# Velocity P-wave (km/s) = 5.64013 6.99604 6.35435
#
# Compressibility (1/GPa) = 0.02075837
#
# Stress axis : x y z
#
# Youngs Moduli (GPa) = 17.82394 41.42454 15.22939
#
# Poissons Ratio (x) = 0.73145 0.75231
# Poissons Ratio (y) = 0.31473 -0.06825
# Poissons Ratio (z) = 0.88048 -0.18565
#
# Static dielectric constant tensor:
#      x y z
#    x 4.221360 0.307630 -0.345210 
#    y 0.307630 3.840260 -0.213590 
#    z -0.345210 -0.213590 3.767970 
# 
# 
# High freq. dielectric constant tensor:
#      x y z
#    x 1.798220 -0.003680 -0.012590 
#    y -0.003680 1.788120 -0.015700 
#    z -0.012590 -0.015700 1.783950 
# 
# From -- ./inp_files/455571.got.cif
#   From: 2010.06.25/outbox.cif.g09.slc.cpg/sg2_228_cif.got.tgz:455571.got - 2010.06.27 13:26:56.
