data_PCOD8006204
_publ_section_title
;
Structure prediction by ZEFSAII (Michael W. Deem and Ramdas Pophale) SiO2 
 PCOD8006204
Probable space group: P -1
;
_chemical_formula_sum "Si O2"
_cell_formula_units_Z 12
_cell_length_a 8.658162
_cell_length_b 21.265989
_cell_length_c 11.531884
_cell_angle_alpha 29.720284
_cell_angle_beta 44.221192
_cell_angle_gamma 31.385231
_cell_volume 545.693171
_symmetry_space_group_name_H-M "P -1"
_symmetry_group_IT_number 2
_symmetry_cell_setting 'triclinic'
loop_
_space_group_symop_operation_xyz
x,y,z
-x,-y,-z
loop_
_atom_site_type_symbol
_atom_site_label
_atom_site_fract_x
_atom_site_fract_y
_atom_site_fract_z
Si Si1 0.589537 0.023421 0.179426
Si Si2 0.699489 0.808184 0.155996
Si Si3 0.649386 0.365980 0.875837
Si Si4 0.694358 0.267751 0.506045
Si Si5 0.191363 0.958868 0.577580
Si Si6 0.761055 0.220696 0.820418
O O1 0.478498 0.937912 0.437072
O O2 0.323301 0.175453 0.997457
O O3 0.682653 0.104241 0.084458
O O4 0.892951 0.880394 0.172027
O O5 0.561095 0.730429 0.402550
O O6 0.040006 0.678933 0.214980
O O7 0.500000 0.000000 0.000000
O O8 0.396759 0.553552 0.767789
O O9 0.569966 0.377179 0.763459
O O10 0.673735 0.223956 0.156242
O O11 0.709417 0.263726 0.643911
O O12 0.998364 0.108538 0.536967
O O13 0.000000 0.000000 0.500000
#
# Coordination Sequence:
#
# PCOD8006204 Si02
#       6
#     2   2   2   2   2   2
#     4  10  20  39  66  92 125 173 208 257 317 373
#     4  11  18  40  65  93 123 167 219 259 307 365
#     4  12  23  41  67  95 128 167 212 264 314 373
#     4  11  25  41  64  97 128 168 213 258 317 376
#     4  12  24  42  65  94 134 166 208 261 320 377
#     4  10  22  41  67  94 126 165 218 259 310 377
#
# _framework density 21.990382
#
# number of rings (size 3 to 8) (size 9 to 14) (size 15 to 20)
#    0.000    1.000    5.000    3.000    0.000    3.333 
#    0.000    5.000    0.000    0.000    0.000    0.000 
#    0.000    0.000    0.000    0.000    0.000    0.000 
#
# Total GULP energy -148679.401152 kJ/mol
# GULP energy per Si atom -12389.950096 kJ/mol
# Density = 2.194033 g / cm^3
# Si number density = 21.990382 Si / 1000 Ang^3
#
#
#
# Elastic Constant Matrix: (Units=GPa)
#
#
# Indices 1 2 3 4 5 6 
#
# 1 79.5610 31.9238 50.2195 11.7026 -10.0377 0.8880
# 2 31.9238 65.8311 69.4178 -14.9000 -21.4627 12.0021
# 3 50.2195 69.4178 147.1775 -12.4631 -27.5253 6.9868
# 4 11.7026 -14.9000 -12.4631 42.5369 -5.9589 -10.0024
# 5 -10.0377 -21.4627 -27.5253 -5.9589 36.3571 8.3782
# 6 0.8880 12.0021 6.9868 -10.0024 8.3782 29.3699
#
#
#
# Elastic Compliance Matrix: (Units=1/GPa)
#
#
# Indices 1 2 3 4 5 6 
#
# 1 0.020023 -0.010044 -0.004211 -0.010472 -0.005910 0.002620
# 2 -0.010044 0.046685 -0.012518 0.014470 0.021607 -0.017032
# 3 -0.004211 -0.012518 0.014671 0.001810 0.002468 0.001665
# 4 -0.010472 0.014470 0.001810 0.034196 0.012128 0.002159
# 5 -0.005910 0.021607 0.002468 0.012128 0.046734 -0.018439
# 6 0.002620 -0.017032 0.001665 0.002159 -0.018439 0.046529
#
#
# Mechanical properties :
#
#
# Convention : Reuss Voigt Hill
#
# Bulk Modulus (GPa) = 35.92709 66.18799 51.05754
# Shear Modulus (GPa) = 18.40524 31.05334 24.72929
#
# Velocity S-wave (km/s) = 2.89618 3.76191 3.35707
# Velocity P-wave (km/s) = 5.24947 7.00238 6.18830
#
# Compressibility (1/GPa) = 0.02783415
#
# Stress axis : x y z
#
# Youngs Moduli (GPa) = 49.94315 21.41994 68.15944
#
# Poissons Ratio (x) = 0.21513 0.28704
# Poissons Ratio (y) = 0.50161 0.85321
# Poissons Ratio (z) = 0.21033 0.26813
#
# Static dielectric constant tensor:
#      x y z
#    x 4.405420 0.040900 -0.199660 
#    y 0.040900 3.799650 -0.082890 
#    z -0.199660 -0.082890 3.985380 
# 
# 
# High freq. dielectric constant tensor:
#      x y z
#    x 1.883370 0.007310 -0.014000 
#    y 0.007310 1.837820 -0.005590 
#    z -0.014000 -0.005590 1.859900 
# 
# From -- ./inp_files/155453.got.cif
#   From: 2010.06.25/outbox.cif.g09.slc.cpg/sg2_78_cif.got.tgz:155453.got - 2010.06.27 13:26:56.
