data_PCOD8006354
_publ_section_title
;
Structure prediction by ZEFSAII (Michael W. Deem and Ramdas Pophale) SiO2 
 PCOD8006354
Probable space group: P -1
;
_chemical_formula_sum "Si O2"
_cell_formula_units_Z 16
_cell_length_a 15.473570
_cell_length_b 9.312717
_cell_length_c 12.919492
_cell_angle_alpha 42.038177
_cell_angle_beta 40.797661
_cell_angle_gamma 66.677467
_cell_volume 753.390567
_symmetry_space_group_name_H-M "P -1"
_symmetry_group_IT_number 2
_symmetry_cell_setting 'triclinic'
loop_
_space_group_symop_operation_xyz
x,y,z
-x,-y,-z
loop_
_atom_site_type_symbol
_atom_site_label
_atom_site_fract_x
_atom_site_fract_y
_atom_site_fract_z
Si Si1 0.531094 0.202182 0.548746
Si Si2 0.584120 0.333339 0.006417
Si Si3 0.638325 0.206574 0.804032
Si Si4 0.326680 0.456610 0.586311
Si Si5 0.832905 0.334373 0.108651
Si Si6 0.141663 0.625212 0.174079
Si Si7 0.889084 0.175902 0.699366
Si Si8 0.045180 0.235119 0.097890
O O1 0.403920 0.278367 0.579892
O O2 0.568044 0.326083 0.559666
O O3 0.668034 0.290588 0.301779
O O4 0.488994 0.927091 0.742305
O O5 0.500000 0.500000 0.000000
O O6 0.607532 0.326141 0.868214
O O7 0.730272 0.461129 0.870125
O O8 0.706061 0.421593 0.549603
O O9 0.751973 0.092384 0.792928
O O10 0.500000 0.000000 0.000000
O O11 0.179698 0.324240 0.850527
O O12 0.935615 0.591181 0.916231
O O13 0.850240 0.288205 0.997207
O O14 0.894918 0.174800 0.205559
O O15 0.158196 0.827338 0.135097
O O16 0.988507 0.427550 0.436321
O O17 0.969024 0.001765 0.707621
#
# Coordination Sequence:
#
# PCOD8006354 Si02
#       8
#     2   2   2   2   2   2   2   2
#     4  10  22  40  63  93 127 164 211 266 311 372
#     4  11  25  41  58  93 136 165 206 259 320 379
#     4  11  22  39  68  94 119 165 219 261 310 374
#     4  10  20  39  68  91 122 163 216 264 309 374
#     4  10  23  40  63  94 127 160 213 263 324 368
#     4  10  23  43  60  87 130 172 205 255 310 387
#     4  10  23  42  64  91 128 165 215 256 311 384
#     4  10  22  41  65  93 124 164 212 269 311 372
#
# _framework density 21.237325999999999
#
# number of rings (size 3 to 8) (size 9 to 14) (size 15 to 20)
#    0.000    1.750    1.250    2.250    7.000    1.500 
#    2.250    0.000    0.000    0.000    0.000    0.000 
#    0.000    0.000    0.000    0.000    0.000    0.000 
#
# Total GULP energy -198320.167923 kJ/mol
# GULP energy per Si atom -12395.010495 kJ/mol
# Density = 2.118899 g / cm^3
# Si number density = 21.237326 Si / 1000 Ang^3
#
#
#
# Elastic Constant Matrix: (Units=GPa)
#
#
# Indices 1 2 3 4 5 6 
#
# 1 115.5703 44.9385 13.9746 -3.2042 4.0292 -2.7377
# 2 44.9385 71.7045 16.4166 -9.8483 13.8136 -23.4340
# 3 13.9746 16.4166 45.6375 -1.4823 7.4836 7.5542
# 4 -3.2042 -9.8483 -1.4823 31.7260 -4.9222 7.6268
# 5 4.0292 13.8136 7.4836 -4.9222 37.3623 4.2784
# 6 -2.7377 -23.4340 7.5542 7.6268 4.2784 37.6755
#
#
#
# Elastic Compliance Matrix: (Units=1/GPa)
#
#
# Indices 1 2 3 4 5 6 
#
# 1 0.012415 -0.010468 0.000451 -0.000035 0.003129 -0.006048
# 2 -0.010468 0.032639 -0.010387 0.001405 -0.011263 0.022618
# 3 0.000451 -0.010387 0.027586 0.000995 -0.000213 -0.012136
# 4 -0.000035 0.001405 0.000995 0.034346 0.004589 -0.006802
# 5 0.003129 -0.011263 -0.000213 0.004589 0.032540 -0.011360
# 6 -0.006048 0.022618 -0.012136 -0.006802 -0.011360 0.045272
#
#
# Mechanical properties :
#
#
# Convention : Reuss Voigt Hill
#
# Bulk Modulus (GPa) = 31.41469 42.61909 37.01689
# Shear Modulus (GPa) = 21.16690 31.85826 26.51258
#
# Velocity S-wave (km/s) = 3.16046 3.87732 3.53710
# Velocity P-wave (km/s) = 5.30493 6.33691 5.84375
#
# Compressibility (1/GPa) = 0.03183225
#
# Stress axis : x y z
#
# Youngs Moduli (GPa) = 80.54534 30.63789 36.25000
#
# Poissons Ratio (x) = 0.32072 -0.01634
# Poissons Ratio (y) = 0.84316 0.37652
# Poissons Ratio (z) = -0.03630 0.31823
#
# Static dielectric constant tensor:
#      x y z
#    x 3.532220 -0.133440 0.158710 
#    y -0.133440 3.803060 0.086700 
#    z 0.158710 0.086700 3.564830 
# 
# 
# High freq. dielectric constant tensor:
#      x y z
#    x 1.843680 -0.008820 -0.002800 
#    y -0.008820 1.825900 0.004670 
#    z -0.002800 0.004670 1.824520 
# 
# From -- ./inp_files/216335.got.cif
#   From: 2010.06.25/outbox.cif.g09.slc.cpg/sg2_109_cif.got.tgz:216335.got - 2010.06.27 13:26:56.
