data_PCOD8006861
_publ_section_title
;
Structure prediction by ZEFSAII (Michael W. Deem and Ramdas Pophale) SiO2 
 PCOD8006861
Probable space group: P -1
;
_chemical_formula_sum "Si O2"
_cell_formula_units_Z 14
_cell_length_a 15.208041
_cell_length_b 11.978473
_cell_length_c 13.258635
_cell_angle_alpha 45.918135
_cell_angle_beta 40.670106
_cell_angle_gamma 27.027536
_cell_volume 713.644792
_symmetry_space_group_name_H-M "P -1"
_symmetry_group_IT_number 2
_symmetry_cell_setting 'triclinic'
loop_
_space_group_symop_operation_xyz
x,y,z
-x,-y,-z
loop_
_atom_site_type_symbol
_atom_site_label
_atom_site_fract_x
_atom_site_fract_y
_atom_site_fract_z
Si Si1 0.737075 0.936229 0.601842
Si Si2 0.248972 0.598922 0.887981
Si Si3 0.363619 0.322786 0.151600
Si Si4 0.816675 0.036230 0.885381
Si Si5 0.190463 0.592617 0.339303
Si Si6 0.681683 0.167830 0.701742
Si Si7 0.528407 0.622345 0.586377
O O1 0.673123 0.820729 0.760733
O O2 0.951277 0.748143 0.468665
O O3 0.780054 0.995701 0.628439
O O4 0.541952 0.185474 0.552700
O O5 0.435720 0.334243 0.833914
O O6 0.319928 0.717606 0.752951
O O7 0.026429 0.772879 0.916197
O O8 0.232939 0.552266 0.045674
O O9 0.275869 0.422410 0.276958
O O10 0.614794 0.134161 0.050147
O O11 0.800351 0.232769 0.800192
O O12 0.824880 0.000942 0.780146
O O13 0.341606 0.411736 0.415549
O O14 0.680514 0.356788 0.566347
#
# Coordination Sequence:
#
# PCOD8006861 Si02
#       7
#     2   2   2   2   2   2   2
#     4  12  23  39  60  88 125 154 183 248 303 331
#     4   9  20  40  61  90 111 151 198 240 292 342
#     4  11  25  38  58  91 121 151 198 243 284 347
#     4  10  20  40  65  86 112 158 197 241 289 340
#     4  11  22  40  60  86 120 156 200 235 283 353
#     4   8  20  38  61  90 116 146 202 237 286 357
#     4   9  21  38  62  89 111 152 201 235 284 355
#
# _framework density 19.617602999999999
#
# number of rings (size 3 to 8) (size 9 to 14) (size 15 to 20)
#    0.857    1.143    2.857    1.286    0.000    9.143 
#    0.000    1.429    0.000    0.000    0.000    0.000 
#    0.000    0.000    0.000    0.000    0.000    0.000 
#
# Total GULP energy -173572.104129 kJ/mol
# GULP energy per Si atom -12398.007438 kJ/mol
# Density = 1.957295 g / cm^3
# Si number density = 19.617603 Si / 1000 Ang^3
#
#
#
# Elastic Constant Matrix: (Units=GPa)
#
#
# Indices 1 2 3 4 5 6 
#
# 1 71.9761 39.2721 23.0342 -14.6746 15.2202 -14.8262
# 2 39.2721 49.5463 10.9392 -3.7069 9.0866 -14.3088
# 3 23.0342 10.9392 48.2873 -2.6655 -5.6606 4.7190
# 4 -14.6746 -3.7069 -2.6655 22.3356 -2.9864 1.4172
# 5 15.2202 9.0866 -5.6606 -2.9864 36.4294 5.5911
# 6 -14.8262 -14.3088 4.7190 1.4172 5.5911 33.9488
#
#
#
# Elastic Compliance Matrix: (Units=1/GPa)
#
#
# Indices 1 2 3 4 5 6 
#
# 1 0.039148 -0.019873 -0.016106 0.017780 -0.014376 0.012585
# 2 -0.019873 0.038708 -0.000971 -0.007762 -0.003469 0.008666
# 3 -0.016106 -0.000971 0.031325 -0.004305 0.013613 -0.013860
# 4 0.017780 -0.007762 -0.004305 0.054152 -0.002212 0.003195
# 5 -0.014376 -0.003469 0.013613 -0.002212 0.038698 -0.015914
# 6 0.012585 0.008666 -0.013860 0.003195 -0.015914 0.043019
#
#
# Mechanical properties :
#
#
# Convention : Reuss Voigt Hill
#
# Bulk Modulus (GPa) = 28.34444 35.14453 31.74449
# Shear Modulus (GPa) = 15.11890 24.98038 20.04964
#
# Velocity S-wave (km/s) = 2.77912 3.57230 3.20038
# Velocity P-wave (km/s) = 4.97774 5.91344 5.46565
#
# Compressibility (1/GPa) = 0.03528029
#
# Stress axis : x y z
#
# Youngs Moduli (GPa) = 25.54385 25.83456 31.92325
#
# Poissons Ratio (x) = 0.51341 0.51416
# Poissons Ratio (y) = 0.50763 0.03100
# Poissons Ratio (z) = 0.41142 0.02509
#
# Static dielectric constant tensor:
#      x y z
#    x 3.497650 -0.167370 0.023980 
#    y -0.167370 3.360790 -0.020070 
#    z 0.023980 -0.020070 3.440030 
# 
# 
# High freq. dielectric constant tensor:
#      x y z
#    x 1.760180 -0.016530 0.008380 
#    y -0.016530 1.750040 0.000930 
#    z 0.008380 0.000930 1.758210 
# 
# From -- ./inp_files/449733.got.cif
#   From: 2010.06.25/outbox.cif.g09.slc.cpg/sg2_225_cif.got.tgz:449733.got - 2010.06.27 13:26:56.
