data_PCOD8006301
_publ_section_title
;
Structure prediction by ZEFSAII (Michael W. Deem and Ramdas Pophale) SiO2 
 PCOD8006301
Probable space group: P -1
;
_chemical_formula_sum "Si O2"
_cell_formula_units_Z 16
_cell_length_a 9.507029
_cell_length_b 12.055526
_cell_length_c 9.689689
_cell_angle_alpha 90.916128
_cell_angle_beta 98.203607
_cell_angle_gamma 137.877263
_cell_volume 724.731678
_symmetry_space_group_name_H-M "P -1"
_symmetry_group_IT_number 2
_symmetry_cell_setting 'triclinic'
loop_
_space_group_symop_operation_xyz
x,y,z
-x,-y,-z
loop_
_atom_site_type_symbol
_atom_site_label
_atom_site_fract_x
_atom_site_fract_y
_atom_site_fract_z
Si Si1 0.104095 0.346192 0.819882
Si Si2 0.195476 0.537206 0.080766
Si Si3 0.255791 0.809371 0.785883
Si Si4 0.164787 0.168925 0.683727
Si Si5 0.795836 0.432542 0.397545
Si Si6 0.698559 0.176135 0.906957
Si Si7 0.357326 0.538186 0.366826
Si Si8 0.025238 0.171530 0.383800
O O1 0.144124 0.237545 0.813982
O O2 0.160632 0.432435 0.682351
O O3 0.855289 0.228370 0.808276
O O4 0.249816 0.477160 0.970832
O O5 0.381054 0.742014 0.120737
O O6 0.174505 0.475234 0.231949
O O7 0.000000 0.500000 0.000000
O O8 0.295293 0.713435 0.720588
O O9 0.138997 0.823623 0.664596
O O10 0.496459 0.980387 0.864834
O O11 0.156314 0.750334 0.926980
O O12 0.413540 0.317369 0.672545
O O13 0.015374 0.132047 0.541458
O O14 0.064881 0.990642 0.712185
O O15 0.634730 0.379337 0.494853
O O16 0.000000 0.500000 0.500000
O O17 0.269748 0.360209 0.384580
#
# Coordination Sequence:
#
# PCOD8006301 Si02
#       8
#     2   2   2   2   2   2   2   2
#     4  11  22  41  64  93 132 173 220 266 323 396
#     4  10  20  39  67  94 129 169 207 274 338 381
#     4  11  22  41  65 103 131 165 217 279 347 386
#     4  11  26  44  62  93 132 185 224 260 323 397
#     4  12  22  38  68  99 124 165 220 273 335 388
#     4  10  22  39  66 100 135 165 210 280 345 390
#     4  12  24  43  68  95 132 177 220 269 331 392
#     4  11  23  42  65  90 134 173 220 274 323 387
#
# _framework density 22.077135999999999
#
# number of rings (size 3 to 8) (size 9 to 14) (size 15 to 20)
#    0.000    1.000    3.750    4.125    0.000    2.500 
#    0.000    5.000    0.000    0.000    0.000    0.000 
#    0.000    0.000    0.000    0.000    0.000    0.000 
#
# Total GULP energy -198216.195977 kJ/mol
# GULP energy per Si atom -12388.512249 kJ/mol
# Density = 2.202689 g / cm^3
# Si number density = 22.077136 Si / 1000 Ang^3
#
#
#
# Elastic Constant Matrix: (Units=GPa)
#
#
# Indices 1 2 3 4 5 6 
#
# 1 77.3453 40.2907 27.5220 7.9903 -27.7179 -20.6384
# 2 40.2907 126.5335 24.6817 14.9599 -20.9362 -30.9230
# 3 27.5220 24.6817 93.9877 1.5594 -17.4404 -6.6290
# 4 7.9903 14.9599 1.5594 32.3737 -12.2352 -1.6164
# 5 -27.7179 -20.9362 -17.4404 -12.2352 43.2117 6.7846
# 6 -20.6384 -30.9230 -6.6290 -1.6164 6.7846 34.8959
#
#
#
# Elastic Compliance Matrix: (Units=1/GPa)
#
#
# Indices 1 2 3 4 5 6 
#
# 1 0.020879 -0.002615 -0.003086 0.000274 0.009772 0.007558
# 2 -0.002615 0.011625 -0.001467 -0.003876 0.000993 0.008103
# 3 -0.003086 -0.001467 0.012372 0.001933 0.003052 -0.001278
# 4 0.000274 -0.003876 0.001933 0.036059 0.009781 -0.003137
# 5 0.009772 0.000993 0.003052 0.009781 0.033713 0.001137
# 6 0.007558 0.008103 -0.001278 -0.003137 0.001137 0.039698
#
#
# Mechanical properties :
#
#
# Convention : Reuss Voigt Hill
#
# Bulk Modulus (GPa) = 32.74209 53.65059 43.19634
# Shear Modulus (GPa) = 27.95431 35.78774 31.87102
#
# Velocity S-wave (km/s) = 3.56225 4.03057 3.80362
# Velocity P-wave (km/s) = 5.63759 6.78343 6.23688
#
# Compressibility (1/GPa) = 0.03054172
#
# Stress axis : x y z
#
# Youngs Moduli (GPa) = 47.89401 86.02334 80.82464
#
# Poissons Ratio (x) = 0.22496 0.24939
# Poissons Ratio (y) = 0.12525 0.11856
# Poissons Ratio (z) = 0.14778 0.12618
#
# Static dielectric constant tensor:
#      x y z
#    x 3.775280 -0.326910 -0.096080 
#    y -0.326910 4.931020 0.050370 
#    z -0.096080 0.050370 4.487550 
# 
# 
# High freq. dielectric constant tensor:
#      x y z
#    x 1.842880 -0.016830 0.006980 
#    y -0.016830 1.893050 0.007670 
#    z 0.006980 0.007670 1.875820 
# 
# From -- ./inp_files/187707.got.cif
#   From: 2010.06.25/outbox.cif.g09.slc.cpg/sg2_94_cif.got.tgz:187707.got - 2010.06.27 13:26:56.
