data_PCOD8006376
_publ_section_title
;
Structure prediction by ZEFSAII (Michael W. Deem and Ramdas Pophale) SiO2 
 PCOD8006376
Probable space group: P -1
;
_chemical_formula_sum "Si O2"
_cell_formula_units_Z 16
_cell_length_a 14.742900
_cell_length_b 11.588293
_cell_length_c 9.497995
_cell_angle_alpha 78.268490
_cell_angle_beta 114.611305
_cell_angle_gamma 149.210144
_cell_volume 712.385717
_symmetry_space_group_name_H-M "P -1"
_symmetry_group_IT_number 2
_symmetry_cell_setting 'triclinic'
loop_
_space_group_symop_operation_xyz
x,y,z
-x,-y,-z
loop_
_atom_site_type_symbol
_atom_site_label
_atom_site_fract_x
_atom_site_fract_y
_atom_site_fract_z
Si Si1 0.827689 0.583663 0.364511
Si Si2 0.398441 0.515111 0.276865
Si Si3 0.164771 0.417332 0.931184
Si Si4 0.239545 0.955192 0.680441
Si Si5 0.500473 0.356217 0.378059
Si Si6 0.765648 0.132997 0.764691
Si Si7 0.229550 0.732890 0.543698
Si Si8 0.429314 0.042127 0.023064
O O1 0.923145 0.721696 0.240821
O O2 0.674778 0.526994 0.330607
O O3 0.698304 0.324857 0.352055
O O4 0.014281 0.762784 0.546850
O O5 0.386248 0.362634 0.288300
O O6 0.382796 0.536458 0.424515
O O7 0.615433 0.782940 0.298033
O O8 0.211140 0.375522 0.099053
O O9 0.376562 0.675681 0.936191
O O10 0.003903 0.350180 0.896916
O O11 0.333611 0.946710 0.644410
O O12 0.241188 0.908722 0.852537
O O13 0.330417 0.083161 0.310698
O O14 0.745379 0.219155 0.618834
O O15 0.651900 0.063459 0.846128
O O16 0.000000 0.500000 0.500000
O O17 0.500000 0.000000 0.000000
#
# Coordination Sequence:
#
# PCOD8006376 Si02
#       8
#     2   2   2   2   2   2   2   2
#     4  11  22  40  67  99 134 175 228 271 332 413
#     4  10  24  44  67  96 135 172 228 289 329 397
#     4  11  23  44  67  99 135 175 225 279 334 400
#     4  10  21  42  64  94 139 174 214 282 336 393
#     4  11  24  44  67  99 130 179 231 272 343 404
#     4  12  24  44  70  96 139 184 220 275 344 397
#     4  10  20  39  68  96 131 174 220 264 334 413
#     4  11  26  42  63 102 143 174 227 274 330 406
#
# _framework density 22.459744000000001
#
# number of rings (size 3 to 8) (size 9 to 14) (size 15 to 20)
#    0.000    1.250    5.000    0.750    3.500    4.500 
#    0.000    0.000    0.000    0.000    0.000    0.000 
#    0.000    0.000    0.000    0.000    0.000    0.000 
#
# Total GULP energy -198243.363261 kJ/mol
# GULP energy per Si atom -12390.210204 kJ/mol
# Density = 2.240862 g / cm^3
# Si number density = 22.459744 Si / 1000 Ang^3
#
#
#
# Elastic Constant Matrix: (Units=GPa)
#
#
# Indices 1 2 3 4 5 6 
#
# 1 84.6264 23.1767 42.6211 -12.0573 -9.1729 10.1711
# 2 23.1767 53.1414 30.8835 -10.6718 -6.3582 4.3533
# 3 42.6211 30.8835 140.9125 -23.8556 8.9877 8.4530
# 4 -12.0573 -10.6718 -23.8556 35.9532 9.0003 0.2593
# 5 -9.1729 -6.3582 8.9877 9.0003 35.5471 -2.0125
# 6 10.1711 4.3533 8.4530 0.2593 -2.0125 38.8494
#
#
#
# Elastic Compliance Matrix: (Units=1/GPa)
#
#
# Indices 1 2 3 4 5 6 
#
# 1 0.015650 -0.003733 -0.003929 0.000530 0.004082 -0.002616
# 2 -0.003733 0.023634 -0.003851 0.002308 0.003616 -0.000661
# 3 -0.003929 -0.003851 0.010615 0.006092 -0.005997 -0.001201
# 4 0.000530 0.002308 0.006092 0.035255 -0.010057 -0.002479
# 5 0.004082 0.003616 -0.005997 -0.010057 0.033988 0.001659
# 6 -0.002616 -0.000661 -0.001201 -0.002479 0.001659 0.026863
#
#
# Mechanical properties :
#
#
# Convention : Reuss Voigt Hill
#
# Bulk Modulus (GPa) = 37.21187 52.44921 44.83054
# Shear Modulus (GPa) = 28.09146 34.20321 31.14733
#
# Velocity S-wave (km/s) = 3.54043 3.90663 3.72803
# Velocity P-wave (km/s) = 5.77209 6.61455 6.20763
#
# Compressibility (1/GPa) = 0.02687315
#
# Stress axis : x y z
#
# Youngs Moduli (GPa) = 63.89650 42.31172 94.20609
#
# Poissons Ratio (x) = 0.15795 0.37015
# Poissons Ratio (y) = 0.23852 0.36280
# Poissons Ratio (z) = 0.25106 0.16295
#
# Static dielectric constant tensor:
#      x y z
#    x 4.054800 -0.226650 -0.098300 
#    y -0.226650 4.020150 0.061810 
#    z -0.098300 0.061810 4.513280 
# 
# 
# High freq. dielectric constant tensor:
#      x y z
#    x 1.863850 0.011560 0.004370 
#    y 0.011560 1.872000 0.001220 
#    z 0.004370 0.001220 1.910410 
# 
# From -- ./inp_files/307383.got.cif
#   From: 2010.06.25/outbox.cif.g09.slc.cpg/sg2_154_cif.got.tgz:307383.got - 2010.06.27 13:26:56.
