data_PCOD8006101
_publ_section_title
;
Structure prediction by ZEFSAII (Michael W. Deem and Ramdas Pophale) SiO2 
 PCOD8006101
Probable space group: P -1
;
_chemical_formula_sum "Si O2"
_cell_formula_units_Z 14
_cell_length_a 6.624807
_cell_length_b 16.536045
_cell_length_c 7.422811
_cell_angle_alpha 126.845503
_cell_angle_beta 113.984106
_cell_angle_gamma 69.448163
_cell_volume 588.108829
_symmetry_space_group_name_H-M "P -1"
_symmetry_group_IT_number 2
_symmetry_cell_setting 'triclinic'
loop_
_space_group_symop_operation_xyz
x,y,z
-x,-y,-z
loop_
_atom_site_type_symbol
_atom_site_label
_atom_site_fract_x
_atom_site_fract_y
_atom_site_fract_z
Si Si1 0.271223 0.187872 0.979911
Si Si2 0.522605 0.028112 0.340517
Si Si3 0.711608 0.253223 0.132643
Si Si4 0.420771 0.532282 0.713902
Si Si5 0.796660 0.199431 0.707590
Si Si6 0.405701 0.368074 0.764430
Si Si7 0.151006 0.197048 0.348912
O O1 0.065451 0.195277 0.769349
O O2 0.406792 0.073367 0.886231
O O3 0.450884 0.262771 0.101780
O O4 0.171693 0.225471 0.184910
O O5 0.702582 0.103346 0.454797
O O6 0.273870 0.083211 0.274698
O O7 0.500000 0.000000 0.500000
O O8 0.761437 0.367000 0.247922
O O9 0.881104 0.208152 0.296164
O O10 0.752769 0.180165 0.877430
O O11 0.500000 0.500000 0.500000
O O12 0.325979 0.440001 0.659666
O O13 0.606671 0.565793 0.966779
O O14 0.657824 0.307763 0.737530
O O15 0.248113 0.281128 0.617964
#
# Coordination Sequence:
#
# PCOD8006101 Si02
#       7
#     2   2   2   2   2   2   2
#     4  11  21  39  63  88 121 166 207 248 303 366
#     4  11  21  40  60  88 123 161 205 255 302 360
#     4  10  21  39  61  89 123 161 201 254 304 364
#     4  10  20  39  65  93 122 158 208 250 311 373
#     4   9  20  40  61  88 125 161 202 255 308 352
#     4   9  20  41  63  89 128 160 198 263 305 363
#     4  10  23  41  60  87 124 161 203 252 307 361
#
# _framework density 23.805119000000001
#
# number of rings (size 3 to 8) (size 9 to 14) (size 15 to 20)
#    0.000    2.000    1.429    1.714    0.000    1.143 
#   10.286    4.286    0.000    0.000    0.000    0.000 
#    0.000    0.000    0.000    0.000    0.000    0.000 
#
# Total GULP energy -173459.762775 kJ/mol
# GULP energy per Si atom -12389.983055 kJ/mol
# Density = 2.375094 g / cm^3
# Si number density = 23.805119 Si / 1000 Ang^3
#
#
#
# Elastic Constant Matrix: (Units=GPa)
#
#
# Indices 1 2 3 4 5 6 
#
# 1 92.9977 33.2424 12.1006 -6.3080 22.0733 -19.5820
# 2 33.2424 128.4135 18.4671 2.0513 21.8269 -19.3402
# 3 12.1006 18.4671 84.2356 10.2934 -5.5382 -1.3723
# 4 -6.3080 2.0513 10.2934 34.4622 -4.1780 4.6067
# 5 22.0733 21.8269 -5.5382 -4.1780 32.8720 -14.1750
# 6 -19.5820 -19.3402 -1.3723 4.6067 -14.1750 29.5116
#
#
#
# Elastic Compliance Matrix: (Units=1/GPa)
#
#
# Indices 1 2 3 4 5 6 
#
# 1 0.014347 -0.001545 -0.002317 0.001950 -0.006634 0.004909
# 2 -0.001545 0.009762 -0.002008 -0.001253 -0.004517 0.003305
# 3 -0.002317 -0.002008 0.013453 -0.003819 0.005003 0.000771
# 4 0.001950 -0.001253 -0.003819 0.031266 0.001105 -0.004055
# 5 -0.006634 -0.004517 0.005003 0.001105 0.045038 0.014331
# 6 0.004909 0.003305 0.000771 -0.004055 0.014331 0.046860
#
#
# Mechanical properties :
#
#
# Convention : Reuss Voigt Hill
#
# Bulk Modulus (GPa) = 38.72716 48.14079 43.43397
# Shear Modulus (GPa) = 27.61338 35.49162 31.55250
#
# Velocity S-wave (km/s) = 3.40954 3.86544 3.64462
# Velocity P-wave (km/s) = 5.63947 6.33947 5.99969
#
# Compressibility (1/GPa) = 0.02582167
#
# Stress axis : x y z
#
# Youngs Moduli (GPa) = 69.70041 102.44261 74.33477
#
# Poissons Ratio (x) = 0.15829 0.17221
# Poissons Ratio (y) = 0.10770 0.14927
# Poissons Ratio (z) = 0.16147 0.20571
#
# Static dielectric constant tensor:
#      x y z
#    x 4.039950 -0.231740 0.158940 
#    y -0.231740 4.441740 0.007880 
#    z 0.158940 0.007880 4.479830 
# 
# 
# High freq. dielectric constant tensor:
#      x y z
#    x 1.904970 -0.007590 0.002170 
#    y -0.007590 1.950810 -0.000420 
#    z 0.002170 -0.000420 1.950960 
# 
# From -- ./inp_files/52136.got.cif
#   From: 2010.06.25/outbox.cif.g09.slc.cpg/sg2_27_cif.got.tgz:52136.got - 2010.06.27 13:26:56.
