data_PCOD8006761
_publ_section_title
;
Structure prediction by ZEFSAII (Michael W. Deem and Ramdas Pophale) SiO2 
 PCOD8006761
Probable space group: P -1
;
_chemical_formula_sum "Si O2"
_cell_formula_units_Z 16
_cell_length_a 11.446433
_cell_length_b 12.247894
_cell_length_c 10.874978
_cell_angle_alpha 56.270749
_cell_angle_beta 144.867871
_cell_angle_gamma 132.270252
_cell_volume 649.181671
_symmetry_space_group_name_H-M "P -1"
_symmetry_group_IT_number 2
_symmetry_cell_setting 'triclinic'
loop_
_space_group_symop_operation_xyz
x,y,z
-x,-y,-z
loop_
_atom_site_type_symbol
_atom_site_label
_atom_site_fract_x
_atom_site_fract_y
_atom_site_fract_z
Si Si1 0.290674 0.173342 0.681207
Si Si2 0.856799 0.137864 0.204730
Si Si3 0.787268 0.853733 0.865102
Si Si4 0.598047 0.389876 0.186341
Si Si5 0.838183 0.382121 0.153537
Si Si6 0.006217 0.692588 0.028642
Si Si7 0.514148 0.760349 0.459665
Si Si8 0.673160 0.534689 0.409266
O O1 0.404675 0.184971 0.640346
O O2 0.408244 0.333174 0.758709
O O3 0.027846 0.138570 0.458085
O O4 0.301893 0.037104 0.849801
O O5 0.705472 0.222126 0.068882
O O6 0.995503 0.222037 0.150325
O O7 0.594296 0.779434 0.850694
O O8 0.674915 0.878546 0.626731
O O9 0.882912 0.736335 0.001678
O O10 0.000000 0.000000 0.000000
O O11 0.762406 0.383255 0.227025
O O12 0.725747 0.464063 0.376792
O O13 0.500000 0.500000 0.000000
O O14 0.852459 0.515346 0.996897
O O15 0.091490 0.394262 0.359460
O O16 0.258853 0.738824 0.266306
O O17 0.516653 0.603273 0.589932
#
# Coordination Sequence:
#
# PCOD8006761 Si02
#       8
#     2   2   2   2   2   2   2   2
#     4  10  20  40  63  99 138 178 219 271 344 400
#     4  10  22  38  65  98 138 176 218 283 338 391
#     4  11  25  45  66  98 139 176 220 284 339 399
#     4  11  22  40  65  96 128 177 228 269 335 402
#     4  10  21  41  65  98 130 176 229 275 329 399
#     4  11  22  42  68  97 133 173 231 279 330 399
#     4  10  22  41  69  97 131 180 228 269 338 409
#     4   9  21  38  66  98 133 176 220 283 322 400
#
# _framework density 24.646412999999999
#
# number of rings (size 3 to 8) (size 9 to 14) (size 15 to 20)
#    0.000    1.750    2.500    1.125    0.000    4.000 
#    2.250    0.000    0.000    0.000    0.000    0.000 
#    0.000    0.000    0.000    0.000    0.000    0.000 
#
# Total GULP energy -198259.694915 kJ/mol
# GULP energy per Si atom -12391.230932 kJ/mol
# Density = 2.459032 g / cm^3
# Si number density = 24.646413 Si / 1000 Ang^3
#
#
#
# Elastic Constant Matrix: (Units=GPa)
#
#
# Indices 1 2 3 4 5 6 
#
# 1 120.1485 59.6242 3.2949 -13.9243 -13.9796 15.4140
# 2 59.6242 194.4876 47.8880 -14.8591 -16.9059 11.2900
# 3 3.2949 47.8880 44.7721 -0.5643 -12.5883 1.7051
# 4 -13.9243 -14.8591 -0.5643 45.7624 0.0309 0.8154
# 5 -13.9796 -16.9059 -12.5883 0.0309 28.7887 -7.9013
# 6 15.4140 11.2900 1.7051 0.8154 -7.9013 32.4980
#
#
#
# Elastic Compliance Matrix: (Units=1/GPa)
#
#
# Indices 1 2 3 4 5 6 
#
# 1 0.011313 -0.003881 0.004701 0.002295 0.004373 -0.003258
# 2 -0.003881 0.008693 -0.009266 0.001546 -0.001108 -0.001001
# 3 0.004701 -0.009266 0.035446 -0.001191 0.012977 0.002315
# 4 0.002295 0.001546 -0.001191 0.023071 0.000952 -0.001910
# 5 0.004373 -0.001108 0.012977 0.000952 0.044173 0.008346
# 6 -0.003258 -0.001001 0.002315 -0.001910 0.008346 0.034620
#
#
# Mechanical properties :
#
#
# Convention : Reuss Voigt Hill
#
# Bulk Modulus (GPa) = 25.93369 64.55806 45.24588
# Shear Modulus (GPa) = 26.72911 37.98324 32.35617
#
# Velocity S-wave (km/s) = 3.29675 3.92998 3.62721
# Velocity P-wave (km/s) = 5.00366 6.84423 5.99500
#
# Compressibility (1/GPa) = 0.03855988
#
# Stress axis : x y z
#
# Youngs Moduli (GPa) = 88.39371 115.03325 28.21177
#
# Poissons Ratio (x) = 0.44647 -0.13263
# Poissons Ratio (y) = 0.34307 0.26142
# Poissons Ratio (z) = -0.41557 1.06595
#
# Static dielectric constant tensor:
#      x y z
#    x 3.485810 0.232980 0.567920 
#    y 0.232980 5.157530 -0.153890 
#    z 0.567920 -0.153890 4.311080 
# 
# 
# High freq. dielectric constant tensor:
#      x y z
#    x 1.971080 0.008220 0.017910 
#    y 0.008220 1.990850 0.002170 
#    z 0.017910 0.002170 1.989990 
# 
# From -- ./inp_files/427911.got.cif
#   From: 2010.06.25/outbox.cif.g09.slc.cpg/sg2_214_cif.got.tgz:427911.got - 2010.06.27 13:26:56.
