data_PCOD8006588
_publ_section_title
;
Structure prediction by ZEFSAII (Michael W. Deem and Ramdas Pophale) SiO2 
 PCOD8006588
Probable space group: P -1
;
_chemical_formula_sum "Si O2"
_cell_formula_units_Z 12
_cell_length_a 14.687648
_cell_length_b 7.664498
_cell_length_c 13.019689
_cell_angle_alpha 60.471629
_cell_angle_beta 29.023875
_cell_angle_gamma 47.946615
_cell_volume 510.172088
_symmetry_space_group_name_H-M "P -1"
_symmetry_group_IT_number 2
_symmetry_cell_setting 'triclinic'
loop_
_space_group_symop_operation_xyz
x,y,z
-x,-y,-z
loop_
_atom_site_type_symbol
_atom_site_label
_atom_site_fract_x
_atom_site_fract_y
_atom_site_fract_z
Si Si1 0.829148 0.087032 0.466832
Si Si2 0.505968 0.467257 0.833196
Si Si3 0.190140 0.554110 0.295692
Si Si4 0.130281 0.629245 0.829421
Si Si5 0.745625 0.065727 0.177755
Si Si6 0.523270 0.121008 0.595918
O O1 0.682729 0.214594 0.675827
O O2 0.874775 0.267159 0.308389
O O3 0.697153 0.999074 0.554254
O O4 0.071299 0.845137 0.326995
O O5 0.650586 0.546689 0.730898
O O6 0.339579 0.668060 0.854540
O O7 0.349552 0.430464 0.074363
O O8 0.000000 0.500000 0.500000
O O9 0.387346 0.412163 0.666771
O O10 0.000000 0.500000 0.000000
O O11 0.021384 0.857265 0.952749
O O12 0.637743 0.973024 0.228880
O O13 0.671910 0.058730 0.365839
#
# Coordination Sequence:
#
# PCOD8006588 Si02
#       6
#     2   2   2   2   2   2
#     4  12  23  42  64  96 127 167 210 264 316 377
#     4  11  24  44  69  91 130 163 216 272 316 369
#     4  11  26  48  66  93 122 170 221 266 321 375
#     4  10  21  37  59  95 131 164 204 249 313 381
#     4  10  20  40  61  92 127 173 200 257 315 378
#     4  10  22  37  62  93 134 161 209 250 313 386
#
# _framework density 23.521474000000001
#
# number of rings (size 3 to 8) (size 9 to 14) (size 15 to 20)
#    0.000    1.333    3.333    2.000    0.000    2.667 
#    6.000    0.000    0.000    0.000    0.000    0.000 
#    0.000    0.000    0.000    0.000    0.000    0.000 
#
# Total GULP energy -148784.587525 kJ/mol
# GULP energy per Si atom -12398.715627 kJ/mol
# Density = 2.346794 g / cm^3
# Si number density = 23.521474 Si / 1000 Ang^3
#
#
#
# Elastic Constant Matrix: (Units=GPa)
#
#
# Indices 1 2 3 4 5 6 
#
# 1 50.3847 -5.0380 20.6727 5.6764 15.9953 4.0698
# 2 -5.0380 72.5455 16.5682 25.8604 13.5766 -3.9393
# 3 20.6727 16.5682 116.2347 16.4802 17.2969 19.8671
# 4 5.6764 25.8604 16.4802 43.3865 15.4785 1.7262
# 5 15.9953 13.5766 17.2969 15.4785 48.6096 4.5442
# 6 4.0698 -3.9393 19.8671 1.7262 4.5442 31.7841
#
#
#
# Elastic Compliance Matrix: (Units=1/GPa)
#
#
# Indices 1 2 3 4 5 6 
#
# 1 0.024379 0.004697 -0.003793 -0.001925 -0.007465 0.001003
# 2 0.004697 0.019090 -0.002372 -0.010116 -0.003210 0.004256
# 3 -0.003793 -0.002372 0.011110 -0.001736 -0.000879 -0.006532
# 4 -0.001925 -0.010116 -0.001736 0.032198 -0.006101 -0.000798
# 5 -0.007465 -0.003210 -0.000879 -0.006101 0.026399 -0.002335
# 6 0.001003 0.004256 -0.006532 -0.000798 -0.002335 0.036322
#
#
# Mechanical properties :
#
#
# Convention : Reuss Voigt Hill
#
# Bulk Modulus (GPa) = 19.36364 33.73008 26.54686
# Shear Modulus (GPa) = 29.47277 38.55349 34.01313
#
# Velocity S-wave (km/s) = 3.54364 4.05294 3.80682
# Velocity P-wave (km/s) = 4.99933 6.02271 5.53473
#
# Compressibility (1/GPa) = 0.05164317
#
# Stress axis : x y z
#
# Youngs Moduli (GPa) = 41.01899 52.38231 90.01287
#
# Poissons Ratio (x) = -0.24604 0.34142
# Poissons Ratio (y) = -0.19267 0.21350
# Poissons Ratio (z) = 0.15559 0.12425
#
# Static dielectric constant tensor:
#      x y z
#    x 4.221410 0.048500 -0.110250 
#    y 0.048500 4.540870 0.448430 
#    z -0.110250 0.448430 4.453130 
# 
# 
# High freq. dielectric constant tensor:
#      x y z
#    x 1.928350 -0.001010 -0.005280 
#    y -0.001010 1.932710 0.021340 
#    z -0.005280 0.021340 1.947730 
# 
# From -- ./inp_files/265247.got.cif
#   From: 2010.06.25/outbox.cif.g09.slc.cpg/sg2_133_cif.got.tgz:265247.got - 2010.06.27 13:26:56.
