data_PCOD8006641
_publ_section_title
;
Structure prediction by ZEFSAII (Michael W. Deem and Ramdas Pophale) SiO2 
 PCOD8006641
Probable space group: P -1
;
_chemical_formula_sum "Si O2"
_cell_formula_units_Z 16
_cell_length_a 11.779856
_cell_length_b 9.024567
_cell_length_c 11.977202
_cell_angle_alpha 57.264103
_cell_angle_beta 47.136327
_cell_angle_gamma 78.403264
_cell_volume 755.758666
_symmetry_space_group_name_H-M "P -1"
_symmetry_group_IT_number 2
_symmetry_cell_setting 'triclinic'
loop_
_space_group_symop_operation_xyz
x,y,z
-x,-y,-z
loop_
_atom_site_type_symbol
_atom_site_label
_atom_site_fract_x
_atom_site_fract_y
_atom_site_fract_z
Si Si1 0.785267 0.820817 0.255152
Si Si2 0.849215 0.962629 0.699880
Si Si3 0.725280 0.221751 0.321908
Si Si4 0.360885 0.567302 0.513102
Si Si5 0.024338 0.108255 0.117036
Si Si6 0.620616 0.186213 0.799011
Si Si7 0.450925 0.919878 0.707294
Si Si8 0.485282 0.301501 0.043215
O O1 0.738352 0.611189 0.416093
O O2 0.924673 0.915998 0.208710
O O3 0.643813 0.922498 0.300217
O O4 0.839616 0.802894 0.098838
O O5 0.700839 0.799161 0.820072
O O6 0.897294 0.910545 0.810079
O O7 0.794405 0.149850 0.676711
O O8 0.000000 0.000000 0.500000
O O9 0.736509 0.379559 0.340138
O O10 0.907330 0.237679 0.159643
O O11 0.623248 0.237209 0.271579
O O12 0.637689 0.020821 0.514786
O O13 0.500000 0.500000 0.500000
O O14 0.427821 0.740387 0.316230
O O15 0.607452 0.331989 0.843348
O O16 0.500000 0.000000 0.000000
O O17 0.443107 0.822694 0.870319
O O18 0.500000 0.500000 0.000000
#
# Coordination Sequence:
#
# PCOD8006641 Si02
#       8
#     2   2   2   2   2   2   2   2
#     4  10  23  40  66  92 126 169 212 275 316 385
#     4  11  23  42  69  90 133 179 215 259 330 407
#     4  10  21  37  64  93 125 167 208 272 314 385
#     4  12  24  37  67 100 127 156 224 274 320 364
#     4  10  22  42  63  90 129 176 212 249 337 389
#     4  10  24  43  65  94 131 177 215 264 329 394
#     4  10  20  40  62  90 128 169 218 260 323 378
#     4  11  25  40  66  96 130 168 227 273 322 383
#
# _framework density 21.170780000000001
#
# number of rings (size 3 to 8) (size 9 to 14) (size 15 to 20)
#    0.000    1.500    1.250    3.750    5.250    1.500 
#    0.000   10.000    0.000    0.000    0.000    0.000 
#    0.000    0.000    0.000    0.000    0.000    0.000 
#
# Total GULP energy -198262.167436 kJ/mol
# GULP energy per Si atom -12391.385465 kJ/mol
# Density = 2.112259 g / cm^3
# Si number density = 21.170780 Si / 1000 Ang^3
#
#
#
# Elastic Constant Matrix: (Units=GPa)
#
#
# Indices 1 2 3 4 5 6 
#
# 1 104.2459 37.5866 38.8580 -1.0705 15.1287 7.5121
# 2 37.5866 135.8948 44.3593 15.0076 -1.0021 7.7943
# 3 38.8580 44.3593 94.2670 21.1417 5.7197 -4.2438
# 4 -1.0705 15.0076 21.1417 43.6241 1.4357 -2.7251
# 5 15.1287 -1.0021 5.7197 1.4357 28.7301 6.1732
# 6 7.5121 7.7943 -4.2438 -2.7251 6.1732 30.6298
#
#
#
# Elastic Compliance Matrix: (Units=1/GPa)
#
#
# Indices 1 2 3 4 5 6 
#
# 1 0.013312 -0.002428 -0.004876 0.003607 -0.005915 -0.001809
# 2 -0.002428 0.009551 -0.003368 -0.002007 0.003047 -0.003094
# 3 -0.004876 -0.003368 0.015884 -0.006373 -0.001240 0.003936
# 4 0.003607 -0.002007 -0.006373 0.026971 -0.002398 0.001626
# 5 -0.005915 0.003047 -0.001240 -0.002398 0.040067 -0.007785
# 6 -0.001809 -0.003094 0.003936 0.001626 -0.007785 0.036138
#
#
# Mechanical properties :
#
#
# Convention : Reuss Voigt Hill
#
# Bulk Modulus (GPa) = 57.46011 64.00173 60.73092
# Shear Modulus (GPa) = 29.57386 34.83705 32.20546
#
# Velocity S-wave (km/s) = 3.74159 4.06091 3.90452
# Velocity P-wave (km/s) = 6.77246 7.23082 7.00539
#
# Compressibility (1/GPa) = 0.01740338
#
# Stress axis : x y z
#
# Youngs Moduli (GPa) = 75.12214 104.69988 62.95475
#
# Poissons Ratio (x) = 0.25425 0.30697
# Poissons Ratio (y) = 0.18242 0.21201
# Poissons Ratio (z) = 0.36629 0.35259
#
# Static dielectric constant tensor:
#      x y z
#    x 3.858810 0.034690 -0.096080 
#    y 0.034690 3.532350 0.579450 
#    z -0.096080 0.579450 4.587770 
# 
# 
# High freq. dielectric constant tensor:
#      x y z
#    x 1.826070 0.008230 0.006890 
#    y 0.008230 1.840420 0.025240 
#    z 0.006890 0.025240 1.825470 
# 
# From -- ./inp_files/416459.got.cif
#   From: 2010.06.25/outbox.cif.g09.slc.cpg/sg2_209_cif.got.tgz:416459.got - 2010.06.27 13:26:56.
