data_PCOD8006701
_publ_section_title
;
Structure prediction by ZEFSAII (Michael W. Deem and Ramdas Pophale) SiO2 
 PCOD8006701
Probable space group: P -1
;
_chemical_formula_sum "Si O2"
_cell_formula_units_Z 16
_cell_length_a 17.319617
_cell_length_b 9.018654
_cell_length_c 20.454634
_cell_angle_alpha 130.541915
_cell_angle_beta 18.727902
_cell_angle_gamma 123.127198
_cell_volume 747.657325
_symmetry_space_group_name_H-M "P -1"
_symmetry_group_IT_number 2
_symmetry_cell_setting 'triclinic'
loop_
_space_group_symop_operation_xyz
x,y,z
-x,-y,-z
loop_
_atom_site_type_symbol
_atom_site_label
_atom_site_fract_x
_atom_site_fract_y
_atom_site_fract_z
Si Si1 0.041635 0.859471 0.988688
Si Si2 0.873948 0.523892 0.975402
Si Si3 0.581061 0.718678 0.546099
Si Si4 0.283715 0.903511 0.426772
Si Si5 0.946829 0.910076 0.821765
Si Si6 0.488133 0.722091 0.761808
Si Si7 0.048505 0.143905 0.557868
Si Si8 0.240986 0.422472 0.062503
O O1 0.330554 0.706447 0.705263
O O2 0.855128 0.715504 0.093192
O O3 0.000000 0.000000 0.000000
O O4 0.982285 0.980692 0.138994
O O5 0.861342 0.602613 0.934615
O O6 0.143993 0.362641 0.730054
O O7 0.644188 0.427186 0.138921
O O8 0.582205 0.614473 0.586120
O O9 0.527448 0.961948 0.670115
O O10 0.155311 0.872735 0.588234
O O11 0.096624 0.019728 0.552430
O O12 0.460390 0.683994 0.199435
O O13 0.913481 0.688707 0.799078
O O14 0.697041 0.054074 0.032450
O O15 0.727256 0.761998 0.617699
O O16 0.805665 0.339164 0.815335
O O17 0.000000 0.000000 0.500000
#
# Coordination Sequence:
#
# PCOD8006701 Si02
#       8
#     2   2   2   2   2   2   2   2
#     4  11  22  40  61 102 140 184 242 282 317 389
#     4  12  22  40  67  98 136 188 234 272 338 397
#     4  10  20  40  63  88 141 180 222 283 325 392
#     4  11  22  45  69  97 138 183 221 276 351 409
#     4  11  22  42  69  96 143 185 225 280 337 400
#     4  10  21  43  68  93 133 181 219 278 354 398
#     4  11  25  49  76 103 135 171 227 291 347 427
#     4  12  23  43  72  98 139 185 221 278 357 404
#
# _framework density 21.400176999999999
#
# number of rings (size 3 to 8) (size 9 to 14) (size 15 to 20)
#    0.000    1.000    8.750    0.375    1.750    2.500 
#    2.250    4.375    0.000    0.000    0.000    0.000 
#    0.000    0.000    0.000    0.000    0.000    0.000 
#
# Total GULP energy -198275.524093 kJ/mol
# GULP energy per Si atom -12392.220256 kJ/mol
# Density = 2.135147 g / cm^3
# Si number density = 21.400177 Si / 1000 Ang^3
#
#
#
# Elastic Constant Matrix: (Units=GPa)
#
#
# Indices 1 2 3 4 5 6 
#
# 1 83.6834 57.6347 29.7782 -1.4892 9.7081 -2.3636
# 2 57.6347 109.9860 55.5313 -2.0426 6.3475 -9.0355
# 3 29.7782 55.5313 101.7275 4.3758 8.1962 -8.4851
# 4 -1.4892 -2.0426 4.3758 44.5256 -3.8897 2.5184
# 5 9.7081 6.3475 8.1962 -3.8897 26.5950 1.3293
# 6 -2.3636 -9.0355 -8.4851 2.5184 1.3293 34.0288
#
#
#
# Elastic Compliance Matrix: (Units=1/GPa)
#
#
# Indices 1 2 3 4 5 6 
#
# 1 0.019300 -0.009984 0.000092 -0.000167 -0.004660 -0.001093
# 2 -0.009984 0.017887 -0.006832 0.001168 0.001541 0.002206
# 3 0.000092 -0.006832 0.014039 -0.002075 -0.003131 0.001969
# 4 -0.000167 0.001168 -0.002075 0.023171 0.003915 -0.002087
# 5 -0.004660 0.001541 -0.003131 0.003915 0.040600 -0.002571
# 6 -0.001093 0.002206 0.001969 -0.002087 -0.002571 0.030642
#
#
# Mechanical properties :
#
#
# Convention : Reuss Voigt Hill
#
# Bulk Modulus (GPa) = 56.25101 64.58726 60.41913
# Shear Modulus (GPa) = 27.02495 31.19340 29.10918
#
# Velocity S-wave (km/s) = 3.55750 3.82203 3.69213
# Velocity P-wave (km/s) = 6.57395 7.05148 6.81690
#
# Compressibility (1/GPa) = 0.01777746
#
# Stress axis : x y z
#
# Youngs Moduli (GPa) = 51.81332 55.90532 71.23186
#
# Poissons Ratio (x) = 0.55816 -0.00655
# Poissons Ratio (y) = 0.51730 0.48668
# Poissons Ratio (z) = -0.00476 0.38196
#
# Static dielectric constant tensor:
#      x y z
#    x 3.689540 -0.180060 0.000380 
#    y -0.180060 3.935370 -0.063740 
#    z 0.000380 -0.063740 4.208870 
# 
# 
# High freq. dielectric constant tensor:
#      x y z
#    x 1.812160 -0.016510 -0.006330 
#    y -0.016510 1.839940 0.006250 
#    z -0.006330 0.006250 1.843210 
# 
# From -- ./inp_files/599538.got.cif
#   From: 2010.06.25/outbox.cif.g09.slc.cpg/sg2_300_cif.got.tgz:599538.got - 2010.06.27 13:26:56.
