data_PCOD8006489
_publ_section_title
;
Structure prediction by ZEFSAII (Michael W. Deem and Ramdas Pophale) SiO2 
 PCOD8006489
Probable space group: P -1
;
_chemical_formula_sum "Si O2"
_cell_formula_units_Z 14
_cell_length_a 9.684606
_cell_length_b 16.187026
_cell_length_c 15.283499
_cell_angle_alpha 142.641771
_cell_angle_beta 35.684926
_cell_angle_gamma 152.343836
_cell_volume 623.044032
_symmetry_space_group_name_H-M "P -1"
_symmetry_group_IT_number 2
_symmetry_cell_setting 'triclinic'
loop_
_space_group_symop_operation_xyz
x,y,z
-x,-y,-z
loop_
_atom_site_type_symbol
_atom_site_label
_atom_site_fract_x
_atom_site_fract_y
_atom_site_fract_z
Si Si1 0.296939 0.094123 0.363670
Si Si2 0.542097 0.367520 0.163160
Si Si3 0.934997 0.565816 0.957574
Si Si4 0.342100 0.196113 0.875882
Si Si5 0.867650 0.841538 0.232818
Si Si6 0.333894 0.577394 0.431648
Si Si7 0.302826 0.007934 0.895606
O O1 0.578356 0.308391 0.426683
O O2 0.425198 0.990974 0.218062
O O3 0.000000 0.000000 0.500000
O O4 0.157582 0.048257 0.297509
O O5 0.315779 0.411848 0.330773
O O6 0.739268 0.399440 0.176555
O O7 0.796450 0.512427 0.081431
O O8 0.334156 0.158684 0.062636
O O9 0.682294 0.406751 0.884072
O O10 0.008097 0.750963 0.050058
O O11 0.275987 0.136076 0.758079
O O12 0.351381 0.058868 0.810498
O O13 0.061640 0.182258 0.053485
O O14 0.595720 0.711228 0.335495
O O15 0.000000 0.500000 0.500000
#
# Coordination Sequence:
#
# PCOD8006489 Si02
#       7
#     2   2   2   2   2   2   2
#     4  10  22  39  61  86 121 161 197 234 307 363
#     4   9  18  36  61  85 111 158 201 241 289 359
#     4   9  17  33  60  85 116 145 199 246 297 337
#     4  10  22  33  63  91 121 147 206 256 289 340
#     4  10  20  40  57  93 117 158 197 251 296 345
#     4  10  23  38  64  87 121 160 199 239 298 363
#     4  10  21  39  62  90 113 160 201 247 297 349
#
# _framework density 22.470320999999998
#
# number of rings (size 3 to 8) (size 9 to 14) (size 15 to 20)
#    0.000    2.286    1.429    0.429   14.000    0.571 
#    0.000    2.857    0.000    1.714    0.000    0.000 
#    0.000    0.000    0.000    0.000    0.000    0.000 
#
# Total GULP energy -173466.729048 kJ/mol
# GULP energy per Si atom -12390.480646 kJ/mol
# Density = 2.241918 g / cm^3
# Si number density = 22.470321 Si / 1000 Ang^3
#
#
#
# Elastic Constant Matrix: (Units=GPa)
#
#
# Indices 1 2 3 4 5 6 
#
# 1 167.2171 40.3870 62.0767 21.8138 12.4929 46.3727
# 2 40.3870 50.6128 33.1848 17.8100 -3.1683 23.1367
# 3 62.0767 33.1848 93.1061 26.2261 -15.6484 19.2831
# 4 21.8138 17.8100 26.2261 30.7548 8.0974 4.7909
# 5 12.4929 -3.1683 -15.6484 8.0974 41.5514 -4.3773
# 6 46.3727 23.1367 19.2831 4.7909 -4.3773 33.4636
#
#
#
# Elastic Compliance Matrix: (Units=1/GPa)
#
#
# Indices 1 2 3 4 5 6 
#
# 1 0.013850 0.000538 -0.008073 0.001728 -0.009224 -0.016367
# 2 0.000538 0.037908 -0.004777 -0.015289 0.001612 -0.021803
# 3 -0.008073 -0.004777 0.023977 -0.016647 0.014864 0.005001
# 4 0.001728 -0.015289 -0.016647 0.058127 -0.018542 0.007021
# 5 -0.009224 0.001612 0.014864 -0.018542 0.037295 0.010636
# 6 -0.016367 -0.021803 0.005001 0.007021 0.010636 0.065142
#
#
# Mechanical properties :
#
#
# Convention : Reuss Voigt Hill
#
# Bulk Modulus (GPa) = 19.56537 64.69257 42.12897
# Shear Modulus (GPa) = 17.98820 32.83980 25.41400
#
# Velocity S-wave (km/s) = 2.83244 3.82707 3.36669
# Velocity P-wave (km/s) = 4.40716 6.95567 5.82256
#
# Compressibility (1/GPa) = 0.05111072
#
# Stress axis : x y z
#
# Youngs Moduli (GPa) = 72.20219 26.37961 41.70663
#
# Poissons Ratio (x) = -0.01419 0.33671
# Poissons Ratio (y) = -0.03883 0.19922
# Poissons Ratio (z) = 0.58291 0.12601
#
# Static dielectric constant tensor:
#      x y z
#    x 6.496280 1.736290 1.672170 
#    y 1.736290 4.894090 1.436520 
#    z 1.672170 1.436520 5.463210 
# 
# 
# High freq. dielectric constant tensor:
#      x y z
#    x 1.901560 0.028460 -0.009480 
#    y 0.028460 1.868490 0.010180 
#    z -0.009480 0.010180 1.849920 
# 
# From -- ./inp_files/239919.got.cif
#   From: 2010.06.25/outbox.cif.g09.slc.cpg/sg2_120_cif.got.tgz:239919.got - 2010.06.27 13:26:56.
