data_PCOD8006318
_publ_section_title
;
Structure prediction by ZEFSAII (Michael W. Deem and Ramdas Pophale) SiO2 
 PCOD8006318
Probable space group: P -1
;
_chemical_formula_sum "Si O2"
_cell_formula_units_Z 14
_cell_length_a 15.347814
_cell_length_b 25.054888
_cell_length_c 9.110122
_cell_angle_alpha 143.542350
_cell_angle_beta 38.158448
_cell_angle_gamma 161.029235
_cell_volume 670.715376
_symmetry_space_group_name_H-M "P -1"
_symmetry_group_IT_number 2
_symmetry_cell_setting 'triclinic'
loop_
_space_group_symop_operation_xyz
x,y,z
-x,-y,-z
loop_
_atom_site_type_symbol
_atom_site_label
_atom_site_fract_x
_atom_site_fract_y
_atom_site_fract_z
Si Si1 0.542153 0.421200 0.110966
Si Si2 0.151931 0.161300 0.571616
Si Si3 0.763024 0.474547 0.391073
Si Si4 0.761986 0.386453 0.894007
Si Si5 0.914542 0.778705 0.496247
Si Si6 0.346018 0.005664 0.668977
Si Si7 0.868265 0.734945 0.905770
O O1 0.800067 0.625905 0.238536
O O2 0.317033 0.309037 0.286420
O O3 0.404110 0.365393 0.014704
O O4 0.650469 0.377679 0.879155
O O5 0.458788 0.295442 0.448357
O O6 0.029213 0.117271 0.476465
O O7 0.126278 0.239289 0.872645
O O8 0.000000 0.000000 0.500000
O O9 0.867224 0.629219 0.639001
O O10 0.951505 0.502667 0.282136
O O11 0.796369 0.480405 0.184160
O O12 0.559108 0.200668 0.807554
O O13 0.191305 0.908673 0.503951
O O14 0.500000 0.000000 0.500000
O O15 0.132990 0.919644 0.885377
#
# Coordination Sequence:
#
# PCOD8006318 Si02
#       7
#     2   2   2   2   2   2   2
#     4  10  20  39  67  97 122 168 226 272 311 380
#     4  12  25  43  67  96 135 174 218 261 327 398
#     4  11  22  41  64  96 125 174 214 269 324 380
#     4  11  22  37  69  96 130 161 224 273 320 378
#     4  10  22  40  65  95 131 167 222 268 324 381
#     4  11  23  40  65  99 131 165 218 275 328 371
#     4  11  23  41  70  91 132 175 213 265 327 388
#
# _framework density 20.873234
#
# number of rings (size 3 to 8) (size 9 to 14) (size 15 to 20)
#    0.000    1.143    4.286    3.000    4.000    1.143 
#    0.000    1.429    0.000    0.000    0.000    0.000 
#    0.000    0.000    0.000    0.000    0.000    0.000 
#
# Total GULP energy -173601.024415 kJ/mol
# GULP energy per Si atom -12400.073173 kJ/mol
# Density = 2.082573 g / cm^3
# Si number density = 20.873234 Si / 1000 Ang^3
#
#
#
# Elastic Constant Matrix: (Units=GPa)
#
#
# Indices 1 2 3 4 5 6 
#
# 1 115.8062 32.9748 34.4746 -4.2993 -11.4119 10.5106
# 2 32.9748 88.1165 25.1827 -6.9307 -5.4260 6.8746
# 3 34.4746 25.1827 80.8717 -1.0788 -8.2211 8.2018
# 4 -4.2993 -6.9307 -1.0788 25.6390 0.6917 -5.7788
# 5 -11.4119 -5.4260 -8.2211 0.6917 37.4774 -2.2229
# 6 10.5106 6.8746 8.2018 -5.7788 -2.2229 37.7758
#
#
#
# Elastic Compliance Matrix: (Units=1/GPa)
#
#
# Indices 1 2 3 4 5 6 
#
# 1 0.010792 -0.002791 -0.003358 0.000505 0.002043 -0.001568
# 2 -0.002791 0.013516 -0.002881 0.002921 0.000386 -0.000588
# 3 -0.003358 -0.002881 0.015049 -0.001181 0.001772 -0.001885
# 4 0.000505 0.002921 -0.001181 0.041154 -0.000093 0.005874
# 5 0.002043 0.000386 0.001772 -0.000093 0.027787 0.000597
# 6 -0.001568 -0.000588 -0.001885 0.005874 0.000597 0.028358
#
#
# Mechanical properties :
#
#
# Convention : Reuss Voigt Hill
#
# Bulk Modulus (GPa) = 46.95449 52.22872 49.59161
# Shear Modulus (GPa) = 30.89941 32.98926 31.94433
#
# Velocity S-wave (km/s) = 3.85169 3.97981 3.91627
# Velocity P-wave (km/s) = 6.50573 6.79667 6.65279
#
# Compressibility (1/GPa) = 0.02129722
#
# Stress axis : x y z
#
# Youngs Moduli (GPa) = 92.66248 73.98711 66.44786
#
# Poissons Ratio (x) = 0.20650 0.22312
# Poissons Ratio (y) = 0.25862 0.19144
# Poissons Ratio (z) = 0.31115 0.21317
#
# Static dielectric constant tensor:
#      x y z
#    x 3.973590 0.168260 -0.050510 
#    y 0.168260 3.852960 0.052250 
#    z -0.050510 0.052250 3.705280 
# 
# 
# High freq. dielectric constant tensor:
#      x y z
#    x 1.819930 0.006630 -0.011830 
#    y 0.006630 1.819490 0.010250 
#    z -0.011830 0.010250 1.801930 
# 
# From -- ./inp_files/149222.got.cif
#   From: 2010.06.25/outbox.cif.g09.slc.cpg/sg2_75_cif.got.tgz:149222.got - 2010.06.27 13:26:56.
