data_PCOD8006348
_publ_section_title
;
Structure prediction by ZEFSAII (Michael W. Deem and Ramdas Pophale) SiO2 
 PCOD8006348
Probable space group: P -1
;
_chemical_formula_sum "Si O2"
_cell_formula_units_Z 12
_cell_length_a 16.039477
_cell_length_b 10.225767
_cell_length_c 7.428680
_cell_angle_alpha 66.925168
_cell_angle_beta 126.206262
_cell_angle_gamma 149.833017
_cell_volume 472.383846
_symmetry_space_group_name_H-M "P -1"
_symmetry_group_IT_number 2
_symmetry_cell_setting 'triclinic'
loop_
_space_group_symop_operation_xyz
x,y,z
-x,-y,-z
loop_
_atom_site_type_symbol
_atom_site_label
_atom_site_fract_x
_atom_site_fract_y
_atom_site_fract_z
Si Si1 0.751722 0.938142 0.586975
Si Si2 0.722650 0.202932 0.492100
Si Si3 0.378107 0.623812 0.848082
Si Si4 0.355316 0.439900 0.558731
Si Si5 0.699951 0.199587 0.853561
Si Si6 0.151838 0.363537 0.037146
O O1 0.577024 0.730260 0.622122
O O2 0.694626 0.786400 0.413476
O O3 0.798231 0.159946 0.487744
O O4 0.935906 0.073146 0.842452
O O5 0.770316 0.414122 0.355299
O O6 0.814806 0.298544 0.760299
O O7 0.483096 0.906878 0.368895
O O8 0.338396 0.455603 0.740190
O O9 0.319542 0.500311 0.037956
O O10 0.606547 0.947511 0.961567
O O11 0.192433 0.338447 0.294223
O O12 0.836555 0.449809 0.028627
#
# Coordination Sequence:
#
# PCOD8006348 Si02
#       6
#     2   2   2   2   2   2
#     4  11  23  37  67  87 117 165 197 245 296 352
#     4   9  16  38  62  86 113 164 190 233 312 335
#     4  10  20  39  68  84 121 163 189 248 306 344
#     4  11  22  47  58  81 132 158 194 247 296 354
#     4   9  16  36  62  85 118 152 191 242 296 350
#     4  12  22  37  66  93 114 157 208 237 300 355
#
# _framework density 25.403068999999999
#
# number of rings (size 3 to 8) (size 9 to 14) (size 15 to 20)
#    1.000    0.667    5.000    1.000    0.000    2.000 
#    0.000    5.000    3.667    0.000    0.000    0.000 
#    0.000    0.000    0.000    0.000    0.000    0.000 
#
# Total GULP energy -148705.202543 kJ/mol
# GULP energy per Si atom -12392.100212 kJ/mol
# Density = 2.534525 g / cm^3
# Si number density = 25.403069 Si / 1000 Ang^3
#
#
#
# Elastic Constant Matrix: (Units=GPa)
#
#
# Indices 1 2 3 4 5 6 
#
# 1 144.9858 18.6803 12.8566 0.3777 -31.4418 -39.3136
# 2 18.6803 25.1190 6.6504 14.1735 -7.9485 -15.6250
# 3 12.8566 6.6504 16.3870 4.6091 -16.4578 -6.7801
# 4 0.3777 14.1735 4.6091 24.9111 -5.5405 -7.5651
# 5 -31.4418 -7.9485 -16.4578 -5.5405 45.1111 6.3726
# 6 -39.3136 -15.6250 -6.7801 -7.5651 6.3726 29.9806
#
#
#
# Elastic Compliance Matrix: (Units=1/GPa)
#
#
# Indices 1 2 3 4 5 6 
#
# 1 0.013484 -0.001183 0.004550 0.007118 0.009190 0.017937
# 2 -0.001183 0.082365 -0.007753 -0.035770 0.002211 0.030125
# 3 0.004550 -0.007753 0.106421 -0.001584 0.037961 0.017525
# 4 0.007118 -0.035770 -0.001584 0.063413 0.005128 0.005245
# 5 0.009190 0.002211 0.037961 0.005128 0.041425 0.014277
# 6 0.017937 0.030125 0.017525 0.005245 0.014277 0.074829
#
#
# Mechanical properties :
#
#
# Convention : Reuss Voigt Hill
#
# Bulk Modulus (GPa) = 5.16797 29.20737 17.18767
# Shear Modulus (GPa) = 10.98399 29.88754 20.43577
#
# Velocity S-wave (km/s) = 2.08165 3.43378 2.83938
# Velocity P-wave (km/s) = 2.79580 5.21955 4.18690
#
# Compressibility (1/GPa) = 0.19349950
#
# Stress axis : x y z
#
# Youngs Moduli (GPa) = 74.15942 12.14106 9.39664
#
# Poissons Ratio (x) = 0.01437 -0.04276
# Poissons Ratio (y) = 0.08776 0.07285
# Poissons Ratio (z) = -0.33745 0.09412
#
# Static dielectric constant tensor:
#      x y z
#    x 4.536340 -0.404160 -0.086260 
#    y -0.404160 4.190550 0.231610 
#    z -0.086260 0.231610 4.019080 
# 
# 
# High freq. dielectric constant tensor:
#      x y z
#    x 2.017470 -0.028510 -0.010090 
#    y -0.028510 1.981810 0.016290 
#    z -0.010090 0.016290 1.984060 
# 
# From -- ./inp_files/330892.got.cif
#   From: 2010.06.25/outbox.cif.g09.slc.cpg/sg2_166_cif.got.tgz:330892.got - 2010.06.27 13:26:56.
