data_PCOD8006056
_publ_section_title
;
Structure prediction by ZEFSAII (Michael W. Deem and Ramdas Pophale) SiO2 
 PCOD8006056
Probable space group: P -1
;
_chemical_formula_sum "Si O2"
_cell_formula_units_Z 14
_cell_length_a 8.733538
_cell_length_b 16.732913
_cell_length_c 11.306525
_cell_angle_alpha 42.070596
_cell_angle_beta 87.807469
_cell_angle_gamma 57.627256
_cell_volume 722.549966
_symmetry_space_group_name_H-M "P -1"
_symmetry_group_IT_number 2
_symmetry_cell_setting 'triclinic'
loop_
_space_group_symop_operation_xyz
x,y,z
-x,-y,-z
loop_
_atom_site_type_symbol
_atom_site_label
_atom_site_fract_x
_atom_site_fract_y
_atom_site_fract_z
Si Si1 0.564732 0.472734 0.166287
Si Si2 0.527497 0.763673 0.929242
Si Si3 0.858521 0.694958 0.835418
Si Si4 0.248542 0.219221 0.900277
Si Si5 0.182663 0.536022 0.211075
Si Si6 0.687819 0.798611 0.353160
Si Si7 0.089478 0.159406 0.532714
O O1 0.400495 0.496826 0.234301
O O2 0.826801 0.268432 0.401578
O O3 0.500000 0.500000 0.000000
O O4 0.568970 0.605030 0.064109
O O5 0.608806 0.800054 0.778620
O O6 0.253236 0.945671 0.764736
O O7 0.683853 0.706185 0.102453
O O8 0.813476 0.815287 0.602498
O O9 0.000000 0.500000 0.000000
O O10 0.016794 0.661952 0.967140
O O11 0.261721 0.254799 0.726622
O O12 0.979111 0.341053 0.803971
O O13 0.424694 0.004665 0.154717
O O14 0.284133 0.341647 0.423197
O O15 0.876188 0.784893 0.409169
#
# Coordination Sequence:
#
# PCOD8006056 Si02
#       7
#     2   2   2   2   2   2   2
#     4  12  24  39  52  83 127 155 182 225 279 348
#     4  10  22  37  59  82 112 150 191 235 280 330
#     4  11  17  36  57  82 113 142 193 241 275 330
#     4   9  21  40  62  88 108 140 198 244 275 329
#     4  11  21  35  58  83 116 152 184 230 285 335
#     4  10  20  39  65  85 109 145 191 243 284 321
#     4  11  21  37  59  83 112 152 189 231 285 330
#
# _framework density 19.375824000000001
#
# number of rings (size 3 to 8) (size 9 to 14) (size 15 to 20)
#    0.000    1.429    4.286    1.714    0.000    1.714 
#    0.000    2.857    0.000    5.143    0.000    0.000 
#    0.000    0.000    0.000    0.000    0.000    0.000 
#
# Total GULP energy -173574.254801 kJ/mol
# GULP energy per Si atom -12398.161057 kJ/mol
# Density = 1.933172 g / cm^3
# Si number density = 19.375824 Si / 1000 Ang^3
#
#
#
# Elastic Constant Matrix: (Units=GPa)
#
#
# Indices 1 2 3 4 5 6 
#
# 1 93.2116 47.7561 22.5901 -11.6161 18.5802 -18.7689
# 2 47.7561 104.4113 24.1980 -6.5586 9.0321 1.9159
# 3 22.5901 24.1980 59.5590 -5.6772 15.7951 -6.2399
# 4 -11.6161 -6.5586 -5.6772 24.7823 -4.7046 8.7082
# 5 18.5802 9.0321 15.7951 -4.7046 24.7276 -6.0861
# 6 -18.7689 1.9159 -6.2399 8.7082 -6.0861 30.7441
#
#
#
# Elastic Compliance Matrix: (Units=1/GPa)
#
#
# Indices 1 2 3 4 5 6 
#
# 1 0.018597 -0.007745 -0.000600 0.001601 -0.008079 0.009661
# 2 -0.007745 0.014073 -0.003774 0.001876 0.001837 -0.006539
# 3 -0.000600 -0.003774 0.021884 0.000923 -0.011540 0.001765
# 4 0.001601 0.001876 0.000923 0.046497 0.003558 -0.011418
# 5 -0.008079 0.001837 -0.011540 0.003558 0.054476 0.002387
# 6 0.009661 -0.006539 0.001765 -0.011418 0.002387 0.042897
#
#
# Mechanical properties :
#
#
# Convention : Reuss Voigt Hill
#
# Bulk Modulus (GPa) = 32.98365 49.58560 41.28462
# Shear Modulus (GPa) = 21.48072 26.89332 24.18702
#
# Velocity S-wave (km/s) = 3.33323 3.72961 3.53698
# Velocity P-wave (km/s) = 5.64570 6.64783 6.16716
#
# Compressibility (1/GPa) = 0.03031805
#
# Stress axis : x y z
#
# Youngs Moduli (GPa) = 53.77231 71.05621 45.69571
#
# Poissons Ratio (x) = 0.55032 0.02740
# Poissons Ratio (y) = 0.41646 0.17244
# Poissons Ratio (z) = 0.03224 0.26814
#
# Static dielectric constant tensor:
#      x y z
#    x 3.389840 -0.087160 0.035620 
#    y -0.087160 3.829080 0.085250 
#    z 0.035620 0.085250 3.921440 
# 
# 
# High freq. dielectric constant tensor:
#      x y z
#    x 1.727260 0.002480 0.012680 
#    y 0.002480 1.766160 -0.011430 
#    z 0.012680 -0.011430 1.759230 
# 
# From -- ./inp_files/246463.got.cif
#   From: 2010.06.25/outbox.cif.g09.slc.cpg/sg2_124_cif.got.tgz:246463.got - 2010.06.27 13:26:56.
