data_PCOD8006674
_publ_section_title
;
Structure prediction by ZEFSAII (Michael W. Deem and Ramdas Pophale) SiO2 
 PCOD8006674
Probable space group: P -1
;
_chemical_formula_sum "Si O2"
_cell_formula_units_Z 16
_cell_length_a 11.147237
_cell_length_b 9.584484
_cell_length_c 9.404277
_cell_angle_alpha 134.489973
_cell_angle_beta 98.018960
_cell_angle_gamma 81.940218
_cell_volume 708.476115
_symmetry_space_group_name_H-M "P -1"
_symmetry_group_IT_number 2
_symmetry_cell_setting 'triclinic'
loop_
_space_group_symop_operation_xyz
x,y,z
-x,-y,-z
loop_
_atom_site_type_symbol
_atom_site_label
_atom_site_fract_x
_atom_site_fract_y
_atom_site_fract_z
Si Si1 0.717526 0.886753 0.322160
Si Si2 0.629833 0.446260 0.411056
Si Si3 0.202799 0.949891 0.245379
Si Si4 0.050776 0.945397 0.618831
Si Si5 0.008282 0.511412 0.344273
Si Si6 0.258383 0.521650 0.842009
Si Si7 0.387052 0.989848 0.868867
Si Si8 0.779057 0.755680 0.796411
O O1 0.709313 0.653059 0.166674
O O2 0.735053 0.980920 0.548165
O O3 0.823321 0.948537 0.273236
O O4 0.596195 0.967867 0.269738
O O5 0.500000 0.500000 0.500000
O O6 0.640551 0.492551 0.277142
O O7 0.667725 0.218983 0.272324
O O8 0.729256 0.555552 0.590115
O O9 0.238848 0.084952 0.217677
O O10 0.255943 0.728997 0.070112
O O11 0.055458 0.970784 0.232247
O O12 0.071720 0.710346 0.458371
O O13 0.000000 0.000000 0.500000
O O14 0.086812 0.312093 0.170972
O O15 0.000000 0.500000 0.500000
O O16 0.875042 0.514746 0.261468
O O17 0.500000 0.000000 0.000000
O O18 0.292457 0.163641 0.022717
#
# Coordination Sequence:
#
# PCOD8006674 Si02
#       8
#     2   2   2   2   2   2   2   2
#     4  11  25  47  69 101 150 186 233 294 355 422
#     4  12  24  47  76  98 142 183 237 304 347 411
#     4  11  23  43  71 101 151 189 232 283 353 432
#     4  10  20  40  63 101 148 192 219 278 353 416
#     4  12  21  39  70 105 150 186 231 285 350 425
#     4  12  25  43  72 109 143 190 237 286 359 433
#     4  12  28  48  73 105 133 183 250 298 354 419
#     4  12  24  44  73 104 141 190 237 291 355 415
#
# _framework density 22.583682
#
# number of rings (size 3 to 8) (size 9 to 14) (size 15 to 20)
#    0.000    0.500    8.750    0.750    1.750    4.000 
#    0.000    3.125    0.000    0.000    0.000    0.000 
#    0.000    0.000    0.000    0.000    0.000    0.000 
#
# Total GULP energy -198215.685655 kJ/mol
# GULP energy per Si atom -12388.480353 kJ/mol
# Density = 2.253228 g / cm^3
# Si number density = 22.583682 Si / 1000 Ang^3
#
#
#
# Elastic Constant Matrix: (Units=GPa)
#
#
# Indices 1 2 3 4 5 6 
#
# 1 66.8951 34.5261 25.1238 2.9711 -12.3619 -2.9208
# 2 34.5261 176.7876 54.1752 12.5489 17.5338 -0.8425
# 3 25.1238 54.1752 108.5288 21.0429 -0.8569 -0.8673
# 4 2.9711 12.5489 21.0429 42.5276 -3.8098 7.4594
# 5 -12.3619 17.5338 -0.8569 -3.8098 35.6677 2.0526
# 6 -2.9208 -0.8425 -0.8673 7.4594 2.0526 29.0635
#
#
#
# Elastic Compliance Matrix: (Units=1/GPa)
#
#
# Indices 1 2 3 4 5 6 
#
# 1 0.019655 -0.003972 -0.002858 0.001891 0.008860 0.000664
# 2 -0.003972 0.007940 -0.002845 -0.001230 -0.005505 0.000450
# 3 -0.002858 -0.002845 0.012334 -0.005296 0.000061 0.001353
# 4 0.001891 -0.001230 -0.005296 0.028096 0.004567 -0.007537
# 5 0.008860 -0.005505 0.000061 0.004567 0.034468 -0.002874
# 6 0.000664 0.000450 0.001353 -0.007537 -0.002874 0.036665
#
#
# Mechanical properties :
#
#
# Convention : Reuss Voigt Hill
#
# Bulk Modulus (GPa) = 48.59838 64.42909 56.51373
# Shear Modulus (GPa) = 30.23536 37.34418 33.78977
#
# Velocity S-wave (km/s) = 3.66295 4.07085 3.87227
# Velocity P-wave (km/s) = 6.28137 7.11946 6.71351
#
# Compressibility (1/GPa) = 0.02057682
#
# Stress axis : x y z
#
# Youngs Moduli (GPa) = 50.87816 125.95043 81.07556
#
# Poissons Ratio (x) = 0.50032 0.23174
# Poissons Ratio (y) = 0.20211 0.23067
# Poissons Ratio (z) = 0.14543 0.35835
#
# Static dielectric constant tensor:
#      x y z
#    x 2.702650 0.087160 -0.168680 
#    y 0.087160 4.152210 0.063730 
#    z -0.168680 0.063730 4.202390 
# 
# 
# High freq. dielectric constant tensor:
#      x y z
#    x 1.874760 0.001140 0.000770 
#    y 0.001140 1.909660 0.004890 
#    z 0.000770 0.004890 1.896010 
# 
# From -- ./inp_files/206215.got.cif
#   From: 2010.06.25/outbox.cif.g09.slc.cpg/sg2_104_cif.got.tgz:206215.got - 2010.06.27 13:26:56.
