data_PCOD8006877
_publ_section_title
;
Structure prediction by ZEFSAII (Michael W. Deem and Ramdas Pophale) SiO2 
 PCOD8006877
Probable space group: P -1
;
_chemical_formula_sum "Si O2"
_cell_formula_units_Z 16
_cell_length_a 7.870138
_cell_length_b 13.619506
_cell_length_c 16.522529
_cell_angle_alpha 121.702965
_cell_angle_beta 44.314657
_cell_angle_gamma 137.740333
_cell_volume 831.991031
_symmetry_space_group_name_H-M "P -1"
_symmetry_group_IT_number 2
_symmetry_cell_setting 'triclinic'
loop_
_space_group_symop_operation_xyz
x,y,z
-x,-y,-z
loop_
_atom_site_type_symbol
_atom_site_label
_atom_site_fract_x
_atom_site_fract_y
_atom_site_fract_z
Si Si1 0.763412 0.843586 0.246623
Si Si2 0.728553 0.172389 0.504576
Si Si3 0.831984 0.854567 0.045640
Si Si4 0.207320 0.152574 0.294567
Si Si5 0.889728 0.288826 0.167831
Si Si6 0.706098 0.563535 0.163103
Si Si7 0.066494 0.300201 0.293598
Si Si8 0.791649 0.435786 0.921804
O O1 0.412193 0.775656 0.362989
O O2 0.802523 0.894573 0.163305
O O3 0.829089 0.727782 0.181459
O O4 0.009795 0.977650 0.279068
O O5 0.050568 0.200887 0.431646
O O6 0.796414 0.255148 0.430366
O O7 0.500000 0.000000 0.500000
O O8 0.494991 0.729132 0.071118
O O9 0.035319 0.797705 0.952236
O O10 0.000000 0.000000 0.000000
O O11 0.543256 0.224527 0.241836
O O12 0.199006 0.210522 0.232927
O O13 0.923049 0.260208 0.236406
O O14 0.117036 0.460906 0.142861
O O15 0.357834 0.470542 0.274795
O O16 0.921394 0.560898 0.152211
O O17 0.700057 0.495230 0.050570
#
# Coordination Sequence:
#
# PCOD8006877 Si02
#       8
#     2   2   2   2   2   2   2   2
#     4  11  22  40  63  90 128 164 202 257 315 355
#     4   8  19  41  63  85 124 165 202 254 310 360
#     4  12  26  37  62  97 126 157 205 264 306 373
#     4   9  22  41  63  93 121 166 206 251 307 368
#     4  12  21  41  67  91 122 167 207 248 320 365
#     4  11  22  38  63  87 128 169 202 255 305 377
#     4  10  20  40  65  88 118 167 204 253 307 365
#     4  11  23  41  57  92 129 165 207 244 316 375
#
# _framework density 19.230978
#
# number of rings (size 3 to 8) (size 9 to 14) (size 15 to 20)
#    0.750    0.750    3.750    1.875    1.750    1.000 
#    0.000    3.750    0.000    3.000    0.000    0.000 
#    0.000    0.000    0.000    0.000    0.000    0.000 
#
# Total GULP energy -198263.457271 kJ/mol
# GULP energy per Si atom -12391.466079 kJ/mol
# Density = 1.918721 g / cm^3
# Si number density = 19.230978 Si / 1000 Ang^3
#
#
#
# Elastic Constant Matrix: (Units=GPa)
#
#
# Indices 1 2 3 4 5 6 
#
# 1 104.6474 37.5739 47.6292 -15.5192 -11.3113 -2.6994
# 2 37.5739 111.6715 31.3944 -13.9118 -4.2986 -6.9305
# 3 47.6292 31.3944 109.0210 -19.1883 -3.6949 -2.5778
# 4 -15.5192 -13.9118 -19.1883 32.1388 -2.4879 -1.8335
# 5 -11.3113 -4.2986 -3.6949 -2.4879 16.7957 -10.2809
# 6 -2.6994 -6.9305 -2.5778 -1.8335 -10.2809 28.8533
#
#
#
# Elastic Compliance Matrix: (Units=1/GPa)
#
#
# Indices 1 2 3 4 5 6 
#
# 1 0.014445 -0.002309 -0.004316 0.004601 0.011894 0.004942
# 2 -0.002309 0.010904 -0.001326 0.003326 0.003791 0.003847
# 3 -0.004316 -0.001326 0.012338 0.004822 0.000771 0.000961
# 4 0.004601 0.003326 0.004822 0.039573 0.017174 0.010294
# 5 0.011894 0.003791 0.000771 0.017174 0.093595 0.036533
# 6 0.004942 0.003847 0.000961 0.010294 0.036533 0.049802
#
#
# Mechanical properties :
#
#
# Convention : Reuss Voigt Hill
#
# Bulk Modulus (GPa) = 45.90626 62.05941 53.98284
# Shear Modulus (GPa) = 20.50702 29.47372 24.99037
#
# Velocity S-wave (km/s) = 3.26905 3.91911 3.60875
# Velocity P-wave (km/s) = 6.17833 7.26773 6.74506
#
# Compressibility (1/GPa) = 0.02178352
#
# Stress axis : x y z
#
# Youngs Moduli (GPa) = 69.22900 91.71273 81.05296
#
# Poissons Ratio (x) = 0.21178 0.34981
# Poissons Ratio (y) = 0.15986 0.10750
# Poissons Ratio (z) = 0.29878 0.12164
#
# Static dielectric constant tensor:
#      x y z
#    x 3.367970 -0.133230 -0.127930 
#    y -0.133230 3.588180 -0.235130 
#    z -0.127930 -0.235130 3.747710 
# 
# 
# High freq. dielectric constant tensor:
#      x y z
#    x 1.734870 -0.011960 -0.011260 
#    y -0.011960 1.758230 -0.019170 
#    z -0.011260 -0.019170 1.739600 
# 
# From -- ./inp_files/560875.got.cif
#   From: 2010.06.25/outbox.cif.g09.slc.cpg/sg2_281_cif.got.tgz:560875.got - 2010.06.27 13:26:56.
