data_PCOD8006280
_publ_section_title
;
Structure prediction by ZEFSAII (Michael W. Deem and Ramdas Pophale) SiO2 
 PCOD8006280
Probable space group: P -1
;
_chemical_formula_sum "Si O2"
_cell_formula_units_Z 16
_cell_length_a 11.148133
_cell_length_b 14.325478
_cell_length_c 20.070917
_cell_angle_alpha 33.195296
_cell_angle_beta 32.224154
_cell_angle_gamma 28.308305
_cell_volume 754.971595
_symmetry_space_group_name_H-M "P -1"
_symmetry_group_IT_number 2
_symmetry_cell_setting 'triclinic'
loop_
_space_group_symop_operation_xyz
x,y,z
-x,-y,-z
loop_
_atom_site_type_symbol
_atom_site_label
_atom_site_fract_x
_atom_site_fract_y
_atom_site_fract_z
Si Si1 0.579150 0.757526 0.367706
Si Si2 0.949071 0.359765 0.691266
Si Si3 0.269053 0.715800 0.645140
Si Si4 0.412792 0.204332 0.458885
Si Si5 0.707291 0.100010 0.970655
Si Si6 0.844608 0.672407 0.160385
Si Si7 0.746749 0.791379 0.780885
Si Si8 0.286020 0.365442 0.903594
O O1 0.425141 0.666982 0.529312
O O2 0.601403 0.728610 0.294094
O O3 0.889667 0.640160 0.320301
O O4 0.393015 0.009287 0.322104
O O5 0.676551 0.600468 0.664806
O O6 0.878843 0.195588 0.836778
O O7 0.145258 0.275510 0.585226
O O8 0.326156 0.856879 0.579774
O O9 0.402614 0.503161 0.752344
O O10 0.949411 0.809175 0.724809
O O11 0.500000 0.000000 0.500000
O O12 0.532208 0.158162 0.949849
O O13 0.486066 0.203937 0.071738
O O14 0.912131 0.843884 0.036189
O O15 0.752373 0.702191 0.109664
O O16 0.096383 0.428495 0.201961
O O17 0.000000 0.500000 0.000000
#
# Coordination Sequence:
#
# PCOD8006280 Si02
#       8
#     2   2   2   2   2   2   2   2
#     4  10  23  42  60  88 128 166 209 245 304 370
#     4  10  23  41  61  88 128 164 203 256 301 365
#     4  10  20  39  67  89 124 162 198 263 310 354
#     4  10  22  41  62  91 120 166 211 249 306 361
#     4  11  21  40  63  91 125 158 205 257 310 362
#     4  10  23  38  62  92 120 165 207 246 311 369
#     4  10  22  40  61  91 126 160 200 258 306 361
#     4  11  20  38  64  92 128 155 199 265 313 356
#
# _framework density 21.19285
#
# number of rings (size 3 to 8) (size 9 to 14) (size 15 to 20)
#    0.000    1.750    3.750    0.750    0.000    8.000 
#    4.500    1.250    0.000    0.000    0.000    0.000 
#    0.000    0.000    0.000    0.000    0.000    0.000 
#
# Total GULP energy -198254.187623 kJ/mol
# GULP energy per Si atom -12390.886726 kJ/mol
# Density = 2.114461 g / cm^3
# Si number density = 21.192850 Si / 1000 Ang^3
#
#
#
# Elastic Constant Matrix: (Units=GPa)
#
#
# Indices 1 2 3 4 5 6 
#
# 1 51.3818 23.4810 23.0617 2.3216 -0.5827 5.0612
# 2 23.4810 108.2404 42.7750 -18.2094 2.4446 11.1836
# 3 23.0617 42.7750 140.6362 -7.5302 -0.7513 11.7181
# 4 2.3216 -18.2094 -7.5302 24.6088 -1.4658 0.2195
# 5 -0.5827 2.4446 -0.7513 -1.4658 38.1184 -1.1191
# 6 5.0612 11.1836 11.7181 0.2195 -1.1191 34.5996
#
#
#
# Elastic Compliance Matrix: (Units=1/GPa)
#
#
# Indices 1 2 3 4 5 6 
#
# 1 0.023336 -0.005103 -0.002563 -0.006733 0.000350 -0.000842
# 2 -0.005103 0.013212 -0.002446 0.009493 -0.000690 -0.002778
# 3 -0.002563 -0.002446 0.008475 0.001057 0.000275 -0.001703
# 4 -0.006733 0.009493 0.001057 0.048709 0.001102 -0.002715
# 5 0.000350 -0.000690 0.000275 0.001102 0.026359 0.000924
# 6 -0.000842 -0.002778 -0.001703 -0.002715 0.000924 0.030547
#
#
# Mechanical properties :
#
#
# Convention : Reuss Voigt Hill
#
# Bulk Modulus (GPa) = 40.32452 53.21043 46.76747
# Shear Modulus (GPa) = 27.91333 33.52809 30.72071
#
# Velocity S-wave (km/s) = 3.63314 3.98181 3.81146
# Velocity P-wave (km/s) = 6.05544 6.80456 6.44090
#
# Compressibility (1/GPa) = 0.02479881
#
# Stress axis : x y z
#
# Youngs Moduli (GPa) = 42.85275 75.68987 118.00015
#
# Poissons Ratio (x) = 0.38626 0.30243
# Poissons Ratio (y) = 0.21868 0.28857
# Poissons Ratio (z) = 0.10983 0.18510
#
# Static dielectric constant tensor:
#      x y z
#    x 3.688920 -0.114530 0.219030 
#    y -0.114530 3.769100 -0.207020 
#    z 0.219030 -0.207020 4.086130 
# 
# 
# High freq. dielectric constant tensor:
#      x y z
#    x 1.817480 -0.005470 0.014850 
#    y -0.005470 1.813610 -0.013360 
#    z 0.014850 -0.013360 1.848940 
# 
# From -- ./inp_files/471061.got.cif
#   From: 2010.06.25/outbox.cif.g09.slc.cpg/sg2_236_cif.got.tgz:471061.got - 2010.06.27 13:26:56.
