data_PCOD8006089
_publ_section_title
;
Structure prediction by ZEFSAII (Michael W. Deem and Ramdas Pophale) SiO2 
 PCOD8006089
Probable space group: P -1
;
_chemical_formula_sum "Si O2"
_cell_formula_units_Z 16
_cell_length_a 19.804976
_cell_length_b 12.850381
_cell_length_c 9.185943
_cell_angle_alpha 37.812788
_cell_angle_beta 48.388762
_cell_angle_gamma 30.686666
_cell_volume 730.591121
_symmetry_space_group_name_H-M "P -1"
_symmetry_group_IT_number 2
_symmetry_cell_setting 'triclinic'
loop_
_space_group_symop_operation_xyz
x,y,z
-x,-y,-z
loop_
_atom_site_type_symbol
_atom_site_label
_atom_site_fract_x
_atom_site_fract_y
_atom_site_fract_z
Si Si1 0.082024 0.058238 0.343097
Si Si2 0.706982 0.655414 0.518358
Si Si3 0.455251 0.800316 0.815242
Si Si4 0.172755 0.086519 0.476859
Si Si5 0.295519 0.529375 0.567964
Si Si6 0.449648 0.654625 0.674936
Si Si7 0.959986 0.248953 0.798203
Si Si8 0.128951 0.526860 0.006084
O O1 0.096280 0.092776 0.451878
O O2 0.000068 0.313581 0.090936
O O3 0.226400 0.811283 0.345064
O O4 0.000000 0.000000 0.500000
O O5 0.595648 0.699610 0.709589
O O6 0.744591 0.528059 0.449480
O O7 0.836090 0.474326 0.630878
O O8 0.657091 0.917100 0.278981
O O9 0.407647 0.790091 0.740739
O O10 0.474712 0.627023 0.098539
O O11 0.085277 0.189533 0.634130
O O12 0.318196 0.806053 0.600931
O O13 0.195164 0.252542 0.225852
O O14 0.452887 0.348670 0.545882
O O15 0.243564 0.498319 0.817821
O O16 0.926400 0.328424 0.924225
O O17 0.000000 0.000000 0.000000
#
# Coordination Sequence:
#
# PCOD8006089 Si02
#       8
#     2   2   2   2   2   2   2   2
#     4  10  22  43  63  88 125 164 206 253 319 379
#     4  10  20  39  65  92 121 165 213 255 311 367
#     4   9  20  38  63  92 126 162 208 261 306 372
#     4  12  25  41  64  93 125 165 214 262 308 373
#     4  10  22  41  63  89 128 168 204 254 313 377
#     4  10  22  40  62  94 128 164 208 256 314 369
#     4  12  23  39  65  93 127 165 210 262 309 369
#     4  11  24  41  63  94 128 164 210 262 314 370
#
# _framework density 21.900072999999999
#
# number of rings (size 3 to 8) (size 9 to 14) (size 15 to 20)
#    0.000    1.500    0.000    6.000    0.000    5.000 
#    0.000    0.000    0.000    0.000    0.000    0.000 
#    0.000    0.000    0.000    0.000    0.000    0.000 
#
# Total GULP energy -198408.913207 kJ/mol
# GULP energy per Si atom -12400.557075 kJ/mol
# Density = 2.185023 g / cm^3
# Si number density = 21.900073 Si / 1000 Ang^3
#
#
#
# Elastic Constant Matrix: (Units=GPa)
#
#
# Indices 1 2 3 4 5 6 
#
# 1 102.5214 40.7409 46.5870 13.3502 13.9457 -12.8799
# 2 40.7409 107.0943 59.9367 5.9929 14.1257 1.4028
# 3 46.5870 59.9367 126.9339 -2.9674 1.3190 -5.1407
# 4 13.3502 5.9929 -2.9674 36.6747 4.8310 0.2886
# 5 13.9457 14.1257 1.3190 4.8310 27.8620 -5.1444
# 6 -12.8799 1.4028 -5.1407 0.2886 -5.1444 39.5297
#
#
#
# Elastic Compliance Matrix: (Units=1/GPa)
#
#
# Indices 1 2 3 4 5 6 
#
# 1 0.014135 -0.002392 -0.003973 -0.004550 -0.004210 0.003659
# 2 -0.002392 0.014579 -0.006086 -0.001159 -0.006239 -0.002892
# 3 -0.003973 -0.006086 0.012276 0.002874 0.004187 0.001042
# 4 -0.004550 -0.001159 0.002874 0.029717 -0.002726 -0.001639
# 5 -0.004210 -0.006239 0.004187 -0.002726 0.042345 0.004925
# 6 0.003659 -0.002892 0.001042 -0.001639 0.004925 0.027381
#
#
# Mechanical properties :
#
#
# Convention : Reuss Voigt Hill
#
# Bulk Modulus (GPa) = 62.15419 70.11987 66.13703
# Shear Modulus (GPa) = 29.29197 33.43228 31.36213
#
# Velocity S-wave (km/s) = 3.66119 3.91139 3.78836
# Velocity P-wave (km/s) = 6.80550 7.24474 7.02855
#
# Compressibility (1/GPa) = 0.01608902
#
# Stress axis : x y z
#
# Youngs Moduli (GPa) = 70.74843 68.59181 81.46240
#
# Poissons Ratio (x) = 0.16406 0.32363
# Poissons Ratio (y) = 0.16921 0.49575
# Poissons Ratio (z) = 0.28106 0.41742
#
# Static dielectric constant tensor:
#      x y z
#    x 3.907670 -0.055660 0.053630 
#    y -0.055660 4.270120 -0.206940 
#    z 0.053630 -0.206940 4.081110 
# 
# 
# High freq. dielectric constant tensor:
#      x y z
#    x 1.856600 -0.001850 -0.002720 
#    y -0.001850 1.873230 -0.008450 
#    z -0.002720 -0.008450 1.858170 
# 
# From -- ./inp_files/345846.got.cif
#   From: 2010.06.25/outbox.cif.g09.slc.cpg/sg2_173_cif.got.tgz:345846.got - 2010.06.27 13:26:56.
