data_PCOD8006148
_publ_section_title
;
Structure prediction by ZEFSAII (Michael W. Deem and Ramdas Pophale) SiO2 
 PCOD8006148
Probable space group: P -1
;
_chemical_formula_sum "Si O2"
_cell_formula_units_Z 16
_cell_length_a 8.047503
_cell_length_b 9.157306
_cell_length_c 16.014709
_cell_angle_alpha 57.099935
_cell_angle_beta 80.169215
_cell_angle_gamma 116.793671
_cell_volume 736.071854
_symmetry_space_group_name_H-M "P -1"
_symmetry_group_IT_number 2
_symmetry_cell_setting 'triclinic'
loop_
_space_group_symop_operation_xyz
x,y,z
-x,-y,-z
loop_
_atom_site_type_symbol
_atom_site_label
_atom_site_fract_x
_atom_site_fract_y
_atom_site_fract_z
Si Si1 0.034366 0.837336 0.004488
Si Si2 0.387438 0.646733 0.405447
Si Si3 0.670348 0.525717 0.363065
Si Si4 0.544870 0.019892 0.157017
Si Si5 0.909932 0.313323 0.790307
Si Si6 0.977200 0.713910 0.576840
Si Si7 0.337306 0.216127 0.342995
Si Si8 0.410006 0.570909 0.916981
O O1 0.058204 0.694946 0.111800
O O2 0.826246 0.663984 0.017064
O O3 0.263157 0.985033 0.886244
O O4 0.000000 0.000000 0.000000
O O5 0.590621 0.657655 0.360482
O O6 0.362323 0.638831 0.509537
O O7 0.159285 0.423121 0.452774
O O8 0.443956 0.877479 0.296417
O O9 0.547265 0.376626 0.336719
O O10 0.934525 0.722851 0.259580
O O11 0.634500 0.273653 0.084340
O O12 0.349298 0.887933 0.145907
O O13 0.008373 0.567774 0.678237
O O14 0.844640 0.758980 0.632059
O O15 0.216538 0.949546 0.453056
O O16 0.418816 0.291936 0.217338
O O17 0.500000 0.500000 0.000000
#
# Coordination Sequence:
#
# PCOD8006148 Si02
#       8
#     2   2   2   2   2   2   2   2
#     4  12  26  48  72  95 129 180 232 277 333 397
#     4   9  21  40  66  95 136 169 222 269 328 399
#     4  10  20  39  65  97 133 172 218 267 333 388
#     4  11  26  44  67 101 136 174 222 279 335 393
#     4  11  23  39  72  98 130 172 225 275 330 402
#     4   9  22  39  66  97 131 175 214 277 324 406
#     4  10  22  44  63  94 137 173 220 265 342 386
#     4  12  28  46  68  98 136 177 222 281 334 397
#
# _framework density 21.737009
#
# number of rings (size 3 to 8) (size 9 to 14) (size 15 to 20)
#    0.000    1.500    1.250    2.250    8.750    2.500 
#    6.750    0.000    0.000    0.000    0.000    0.000 
#    0.000    0.000    0.000    0.000    0.000    0.000 
#
# Total GULP energy -198426.785182 kJ/mol
# GULP energy per Si atom -12401.674074 kJ/mol
# Density = 2.168754 g / cm^3
# Si number density = 21.737009 Si / 1000 Ang^3
#
#
#
# Elastic Constant Matrix: (Units=GPa)
#
#
# Indices 1 2 3 4 5 6 
#
# 1 88.1446 46.1362 38.3234 -1.3629 -5.7800 21.1865
# 2 46.1362 98.3853 47.4033 -8.4595 2.4425 3.9541
# 3 38.3234 47.4033 109.6259 9.9154 3.3581 13.8302
# 4 -1.3629 -8.4595 9.9154 39.1103 5.5608 2.8402
# 5 -5.7800 2.4425 3.3581 5.5608 49.3689 2.0197
# 6 21.1865 3.9541 13.8302 2.8402 2.0197 31.3825
#
#
#
# Elastic Compliance Matrix: (Units=1/GPa)
#
#
# Indices 1 2 3 4 5 6 
#
# 1 0.019148 -0.007618 -0.002070 -0.000098 0.003231 -0.011254
# 2 -0.007618 0.016655 -0.005553 0.004662 -0.002076 0.005203
# 3 -0.002070 -0.005553 0.013054 -0.004313 -0.000237 -0.003250
# 4 -0.000098 0.004662 -0.004313 0.028176 -0.003083 -0.000972
# 5 0.003231 -0.002076 -0.000237 -0.003083 0.021219 -0.002902
# 6 -0.011254 0.005203 -0.003250 -0.000972 -0.002902 0.040514
#
#
# Mechanical properties :
#
#
# Convention : Reuss Voigt Hill
#
# Bulk Modulus (GPa) = 54.42275 62.20905 58.31590
# Shear Modulus (GPa) = 28.51060 34.92521 31.71791
#
# Velocity S-wave (km/s) = 3.62555 4.01274 3.82405
# Velocity P-wave (km/s) = 6.52820 7.08170 6.81058
#
# Compressibility (1/GPa) = 0.01837467
#
# Stress axis : x y z
#
# Youngs Moduli (GPa) = 52.22588 60.04058 76.60293
#
# Poissons Ratio (x) = 0.45738 0.15857
# Poissons Ratio (y) = 0.39785 0.42541
# Poissons Ratio (z) = 0.10811 0.33343
#
# Static dielectric constant tensor:
#      x y z
#    x 4.086970 0.006950 0.052090 
#    y 0.006950 3.728690 0.023850 
#    z 0.052090 0.023850 4.112270 
# 
# 
# High freq. dielectric constant tensor:
#      x y z
#    x 1.869670 0.001110 0.001840 
#    y 0.001110 1.836130 0.002790 
#    z 0.001840 0.002790 1.868490 
# 
# From -- ./inp_files/494490.got.cif
#   From: 2010.06.25/outbox.cif.g09.slc.cpg/sg2_248_cif.got.tgz:494490.got - 2010.06.27 13:26:56.
