data_PCOD8006479
_publ_section_title
;
Structure prediction by ZEFSAII (Michael W. Deem and Ramdas Pophale) SiO2 
 PCOD8006479
Probable space group: P -1
;
_chemical_formula_sum "Si O2"
_cell_formula_units_Z 16
_cell_length_a 12.814639
_cell_length_b 14.734802
_cell_length_c 9.605202
_cell_angle_alpha 109.929788
_cell_angle_beta 131.626526
_cell_angle_gamma 42.334353
_cell_volume 871.427073
_symmetry_space_group_name_H-M "P -1"
_symmetry_group_IT_number 2
_symmetry_cell_setting 'triclinic'
loop_
_space_group_symop_operation_xyz
x,y,z
-x,-y,-z
loop_
_atom_site_type_symbol
_atom_site_label
_atom_site_fract_x
_atom_site_fract_y
_atom_site_fract_z
Si Si1 0.257079 0.323059 0.381571
Si Si2 0.714764 0.005791 0.916581
Si Si3 0.266869 0.638103 0.391946
Si Si4 0.276514 0.178142 0.570628
Si Si5 0.291754 0.954991 0.383627
Si Si6 0.958487 0.372926 0.622220
Si Si7 0.908172 0.713530 0.014300
Si Si8 0.040547 0.947392 0.350516
O O1 0.207577 0.261298 0.409729
O O2 0.499059 0.212047 0.510060
O O3 0.169596 0.466402 0.439317
O O4 0.133300 0.360990 0.150994
O O5 0.469324 0.141438 0.782499
O O6 0.788549 0.997765 0.822073
O O7 0.827226 0.016757 0.134170
O O8 0.751383 0.875505 0.915379
O O9 0.500000 0.500000 0.500000
O O10 0.202251 0.631276 0.484240
O O11 0.137906 0.642131 0.163869
O O12 0.213825 0.777645 0.409741
O O13 0.081848 0.279021 0.548684
O O14 0.343236 0.035294 0.526785
O O15 0.120038 0.994981 0.350803
O O16 0.118637 0.303936 0.856556
O O17 0.000000 0.000000 0.500000
#
# Coordination Sequence:
#
# PCOD8006479 Si02
#       8
#     2   2   2   2   2   2   2   2
#     4  11  19  38  57  88 110 149 197 223 285 343
#     4  10  20  40  56  86 115 153 189 228 285 342
#     4   9  20  39  55  76 114 150 187 225 282 335
#     4  11  21  37  60  86 119 147 183 245 282 334
#     4  11  21  36  65  80 114 157 190 228 279 350
#     4  10  22  33  58  84 113 147 183 242 285 318
#     4   9  19  35  58  80 111 147 192 228 275 339
#     4  11  23  38  58  87 116 147 190 243 279 332
#
# _framework density 18.360686999999999
#
# number of rings (size 3 to 8) (size 9 to 14) (size 15 to 20)
#    0.750    1.000    2.500    3.375    0.000    1.500 
#    2.250    0.000    0.000    0.750    0.000    0.000 
#    0.000    0.000    0.000    0.000    0.000    0.000 
#
# Total GULP energy -198316.176227 kJ/mol
# GULP energy per Si atom -12394.761014 kJ/mol
# Density = 1.831890 g / cm^3
# Si number density = 18.360687 Si / 1000 Ang^3
#
#
#
# Elastic Constant Matrix: (Units=GPa)
#
#
# Indices 1 2 3 4 5 6 
#
# 1 87.5432 24.7513 8.4839 4.3824 0.1224 -6.0085
# 2 24.7513 71.1418 31.7807 -5.5565 -4.5230 -4.2813
# 3 8.4839 31.7807 74.3927 11.1859 7.8194 -5.9377
# 4 4.3824 -5.5565 11.1859 23.7916 -0.5182 -3.7996
# 5 0.1224 -4.5230 7.8194 -0.5182 16.9400 -0.5064
# 6 -6.0085 -4.2813 -5.9377 -3.7996 -0.5064 33.2360
#
#
#
# Elastic Compliance Matrix: (Units=1/GPa)
#
#
# Indices 1 2 3 4 5 6 
#
# 1 0.013261 -0.006059 0.002198 -0.004725 -0.002830 0.001426
# 2 -0.006059 0.023715 -0.012626 0.013089 0.012646 0.001393
# 3 0.002198 -0.012626 0.022237 -0.013966 -0.014051 0.000933
# 4 -0.004725 0.013089 -0.013966 0.053521 0.011751 0.004635
# 5 -0.002830 0.012646 -0.014051 0.011751 0.069304 0.001007
# 6 0.001426 0.001393 0.000933 0.004635 0.001007 0.031237
#
#
# Mechanical properties :
#
#
# Convention : Reuss Voigt Hill
#
# Bulk Modulus (GPa) = 38.11199 40.34549 39.22874
# Shear Modulus (GPa) = 19.60819 25.99764 22.80291
#
# Velocity S-wave (km/s) = 3.27149 3.76698 3.52794
# Velocity P-wave (km/s) = 5.92221 6.39857 6.16500
#
# Compressibility (1/GPa) = 0.02623846
#
# Stress axis : x y z
#
# Youngs Moduli (GPa) = 75.40735 42.16759 44.97063
#
# Poissons Ratio (x) = 0.25548 -0.09883
# Poissons Ratio (y) = 0.45687 0.56781
# Poissons Ratio (z) = -0.16572 0.53242
#
# Static dielectric constant tensor:
#      x y z
#    x 3.342700 0.144220 -0.092240 
#    y 0.144220 3.175390 -0.057670 
#    z -0.092240 -0.057670 3.321030 
# 
# 
# High freq. dielectric constant tensor:
#      x y z
#    x 1.712630 0.011540 -0.006660 
#    y 0.011540 1.701540 -0.009450 
#    z -0.006660 -0.009450 1.706590 
# 
# From -- ./inp_files/273478.got.cif
#   From: 2010.06.25/outbox.cif.g09.slc.cpg/sg2_137_cif.got.tgz:273478.got - 2010.06.27 13:26:56.
