data_PCOD8006985
_publ_section_title
;
Structure prediction by ZEFSAII (Michael W. Deem and Ramdas Pophale) SiO2 
 PCOD8006985
Probable space group: P -1
;
_chemical_formula_sum "Si O2"
_cell_formula_units_Z 16
_cell_length_a 11.484303
_cell_length_b 12.834287
_cell_length_c 14.943242
_cell_angle_alpha 65.860442
_cell_angle_beta 150.001254
_cell_angle_gamma 132.247975
_cell_volume 720.271695
_symmetry_space_group_name_H-M "P -1"
_symmetry_group_IT_number 2
_symmetry_cell_setting 'triclinic'
loop_
_space_group_symop_operation_xyz
x,y,z
-x,-y,-z
loop_
_atom_site_type_symbol
_atom_site_label
_atom_site_fract_x
_atom_site_fract_y
_atom_site_fract_z
Si Si1 0.706202 0.216156 0.247568
Si Si2 0.218834 0.343086 0.055147
Si Si3 0.135763 0.333680 0.331151
Si Si4 0.658415 0.822854 0.322365
Si Si5 0.126629 0.554825 0.165415
Si Si6 0.826080 0.702130 0.332649
Si Si7 0.838283 0.139136 0.035375
Si Si8 0.359537 0.325847 0.970981
O O1 0.651351 0.332819 0.163627
O O2 0.002887 0.267343 0.366204
O O3 0.820304 0.214901 0.422977
O O4 0.367896 0.045101 0.052190
O O5 0.592717 0.511586 0.251780
O O6 0.164343 0.248108 0.962438
O O7 0.986133 0.372813 0.881737
O O8 0.123270 0.238049 0.115920
O O9 0.500000 0.500000 0.500000
O O10 0.969069 0.396551 0.168991
O O11 0.010066 0.192908 0.228331
O O12 0.531667 0.701489 0.368011
O O13 0.661961 0.749047 0.261710
O O14 0.386939 0.827253 0.134287
O O15 0.000000 0.000000 0.500000
O O16 0.000000 0.500000 0.000000
O O17 0.867780 0.762756 0.237352
O O18 0.500000 0.500000 0.000000
#
# Coordination Sequence:
#
# PCOD8006985 Si02
#       8
#     2   2   2   2   2   2   2   2
#     4  12  25  40  65  97 129 170 217 267 326 387
#     4  10  20  40  66  90 123 174 217 264 317 375
#     4  12  23  38  61 100 130 163 212 263 321 395
#     4  11  19  34  64  94 126 167 198 256 334 380
#     4  11  19  37  65  88 120 165 205 258 316 381
#     4  11  21  41  67  93 128 170 221 264 316 384
#     4  11  22  39  62  96 137 166 207 271 329 382
#     4  10  24  43  66  91 124 174 228 266 316 379
#
# _framework density 22.213837999999999
#
# number of rings (size 3 to 8) (size 9 to 14) (size 15 to 20)
#    0.000    1.000    5.000    4.125    0.000    2.500 
#    0.000    1.875    0.000    0.000    0.000    0.000 
#    0.000    0.000    0.000    0.000    0.000    0.000 
#
# Total GULP energy -198275.201792 kJ/mol
# GULP energy per Si atom -12392.200112 kJ/mol
# Density = 2.216328 g / cm^3
# Si number density = 22.213838 Si / 1000 Ang^3
#
#
#
# Elastic Constant Matrix: (Units=GPa)
#
#
# Indices 1 2 3 4 5 6 
#
# 1 144.2475 20.5131 46.6700 1.2016 -20.4996 -0.8942
# 2 20.5131 60.6783 8.1176 16.8331 -2.5283 -4.1560
# 3 46.6700 8.1176 95.7012 15.1879 -14.8380 -3.0328
# 4 1.2016 16.8331 15.1879 33.3697 4.3095 4.0472
# 5 -20.4996 -2.5283 -14.8380 4.3095 31.1610 -2.1368
# 6 -0.8942 -4.1560 -3.0328 4.0472 -2.1368 25.2952
#
#
#
# Elastic Compliance Matrix: (Units=1/GPa)
#
#
# Indices 1 2 3 4 5 6 
#
# 1 0.009194 -0.003277 -0.004178 0.002903 0.003330 -0.000898
# 2 -0.003277 0.021370 0.002482 -0.012902 0.002956 0.006007
# 3 -0.004178 0.002482 0.014779 -0.009090 0.006021 0.003995
# 4 0.002903 -0.012902 -0.009090 0.043141 -0.010177 -0.010869
# 5 0.003330 0.002956 0.006021 -0.010177 0.039226 0.006267
# 6 -0.000898 0.006007 0.003995 -0.010869 0.006267 0.043236
#
#
# Mechanical properties :
#
#
# Convention : Reuss Voigt Hill
#
# Bulk Modulus (GPa) = 28.25241 50.13647 39.19444
# Shear Modulus (GPa) = 25.94819 32.98692 29.46756
#
# Velocity S-wave (km/s) = 3.42147 3.85771 3.64612
# Velocity P-wave (km/s) = 5.32490 6.51625 5.95047
#
# Compressibility (1/GPa) = 0.03539521
#
# Stress axis : x y z
#
# Youngs Moduli (GPa) = 108.76775 46.79472 67.66329
#
# Poissons Ratio (x) = 0.15335 0.28272
# Poissons Ratio (y) = 0.35644 -0.16791
# Poissons Ratio (z) = 0.45447 -0.11613
#
# Static dielectric constant tensor:
#      x y z
#    x 4.438550 -0.086790 -0.233360 
#    y -0.086790 3.539050 -0.171860 
#    z -0.233360 -0.171860 4.324590 
# 
# 
# High freq. dielectric constant tensor:
#      x y z
#    x 1.872570 0.000800 -0.006360 
#    y 0.000800 1.872540 -0.006860 
#    z -0.006360 -0.006860 1.869800 
# 
# From -- ./inp_files/389967.got.cif
#   From: 2010.06.25/outbox.cif.g09.slc.cpg/sg2_195_cif.got.tgz:389967.got - 2010.06.27 13:26:56.
