data_PCOD8006312
_publ_section_title
;
Structure prediction by ZEFSAII (Michael W. Deem and Ramdas Pophale) SiO2 
 PCOD8006312
Probable space group: P -1
;
_chemical_formula_sum "Si O2"
_cell_formula_units_Z 16
_cell_length_a 11.724960
_cell_length_b 14.898723
_cell_length_c 13.514939
_cell_angle_alpha 130.881625
_cell_angle_beta 30.573301
_cell_angle_gamma 141.330653
_cell_volume 749.147378
_symmetry_space_group_name_H-M "P -1"
_symmetry_group_IT_number 2
_symmetry_cell_setting 'triclinic'
loop_
_space_group_symop_operation_xyz
x,y,z
-x,-y,-z
loop_
_atom_site_type_symbol
_atom_site_label
_atom_site_fract_x
_atom_site_fract_y
_atom_site_fract_z
Si Si1 0.766992 0.297409 0.952150
Si Si2 0.317257 0.549465 0.447947
Si Si3 0.834954 0.243526 0.650714
Si Si4 0.872037 0.595900 0.065722
Si Si5 0.211372 0.185736 0.222520
Si Si6 0.767831 0.969219 0.075511
Si Si7 0.290057 0.419291 0.185303
Si Si8 0.133147 0.735178 0.770563
O O1 0.816875 0.224586 0.769325
O O2 0.901186 0.283339 0.940883
O O3 0.905795 0.464942 0.945488
O O4 0.443232 0.217946 0.151370
O O5 0.576437 0.550887 0.291815
O O6 0.295226 0.538746 0.336529
O O7 0.348713 0.691193 0.572032
O O8 0.031819 0.411617 0.600411
O O9 0.952394 0.157599 0.454104
O O10 0.531538 0.176209 0.784207
O O11 0.919547 0.657035 0.963375
O O12 0.348190 0.325502 0.147573
O O13 0.124866 0.045450 0.121489
O O14 0.719559 0.095713 0.202437
O O15 0.000000 0.000000 0.000000
O O16 0.004516 0.309255 0.266652
O O17 0.500000 0.500000 0.000000
#
# Coordination Sequence:
#
# PCOD8006312 Si02
#       8
#     2   2   2   2   2   2   2   2
#     4  10  20  39  67  96 124 164 206 265 315 370
#     4  11  23  39  63  99 127 164 207 258 322 372
#     4  10  22  41  63  91 127 162 215 253 310 378
#     4  11  22  38  65  99 128 159 209 264 320 361
#     4  10  21  43  63  91 124 170 212 251 320 371
#     4  11  25  43  62  89 129 174 211 254 309 378
#     4  11  20  38  63  90 129 162 200 259 322 374
#     4  12  24  41  61  95 132 162 210 262 312 376
#
# _framework density 21.357613000000001
#
# number of rings (size 3 to 8) (size 9 to 14) (size 15 to 20)
#    0.000    1.250    6.250    0.375    1.750    3.000 
#    4.500    2.500    0.000    4.500    0.000    0.000 
#    0.000    0.000    0.000    0.000    0.000    0.000 
#
# Total GULP energy -198299.371881 kJ/mol
# GULP energy per Si atom -12393.710743 kJ/mol
# Density = 2.130900 g / cm^3
# Si number density = 21.357613 Si / 1000 Ang^3
#
#
#
# Elastic Constant Matrix: (Units=GPa)
#
#
# Indices 1 2 3 4 5 6 
#
# 1 111.6859 24.6000 45.1035 0.0503 -13.2768 32.1700
# 2 24.6000 76.1764 44.1371 25.7727 -3.8473 11.4170
# 3 45.1035 44.1371 143.6001 17.0176 -1.5023 18.0430
# 4 0.0503 25.7727 17.0176 38.9945 9.3391 1.0790
# 5 -13.2768 -3.8473 -1.5023 9.3391 29.7476 -3.3568
# 6 32.1700 11.4170 18.0430 1.0790 -3.3568 31.2064
#
#
#
# Elastic Compliance Matrix: (Units=1/GPa)
#
#
# Indices 1 2 3 4 5 6 
#
# 1 0.014429 -0.001576 -0.002626 0.001496 0.004237 -0.012376
# 2 -0.001576 0.021283 -0.004027 -0.013624 0.005814 -0.002737
# 3 -0.002626 -0.004027 0.009308 -0.001119 -0.001015 -0.001272
# 4 0.001496 -0.013624 -0.001119 0.038209 -0.012992 0.001370
# 5 0.004237 0.005814 -0.001015 -0.012992 0.040158 -0.001139
# 6 -0.012376 -0.002737 -0.001272 0.001370 -0.001139 0.046370
#
#
# Mechanical properties :
#
#
# Convention : Reuss Voigt Hill
#
# Bulk Modulus (GPa) = 35.01106 62.12706 48.56906
# Shear Modulus (GPa) = 25.54479 34.49781 30.02130
#
# Velocity S-wave (km/s) = 3.46215 4.02337 3.75327
# Velocity P-wave (km/s) = 5.69301 7.12288 6.44771
#
# Compressibility (1/GPa) = 0.02856240
#
# Stress axis : x y z
#
# Youngs Moduli (GPa) = 69.30561 46.98605 107.43286
#
# Poissons Ratio (x) = 0.07403 0.28208
# Poissons Ratio (y) = 0.10920 0.43268
# Poissons Ratio (z) = 0.18197 0.18923
#
# Static dielectric constant tensor:
#      x y z
#    x 3.974330 0.344560 0.087380 
#    y 0.344560 3.725960 0.270620 
#    z 0.087380 0.270620 3.969700 
# 
# 
# High freq. dielectric constant tensor:
#      x y z
#    x 1.827270 0.031120 0.000380 
#    y 0.031120 1.809860 0.016660 
#    z 0.000380 0.016660 1.846170 
# 
# From -- ./inp_files/522413.got.cif
#   From: 2010.06.25/outbox.cif.g09.slc.cpg/sg2_262_cif.got.tgz:522413.got - 2010.06.27 13:26:56.
