data_PCOD8006053
_publ_section_title
;
Structure prediction by ZEFSAII (Michael W. Deem and Ramdas Pophale) SiO2 
 PCOD8006053
Probable space group: P -1
;
_chemical_formula_sum "Si O2"
_cell_formula_units_Z 16
_cell_length_a 9.627793
_cell_length_b 9.183608
_cell_length_c 11.803500
_cell_angle_alpha 132.464637
_cell_angle_beta 100.648840
_cell_angle_gamma 86.979286
_cell_volume 752.881777
_symmetry_space_group_name_H-M "P -1"
_symmetry_group_IT_number 2
_symmetry_cell_setting 'triclinic'
loop_
_space_group_symop_operation_xyz
x,y,z
-x,-y,-z
loop_
_atom_site_type_symbol
_atom_site_label
_atom_site_fract_x
_atom_site_fract_y
_atom_site_fract_z
Si Si1 0.139919 0.648237 0.386547
Si Si2 0.725620 0.950387 0.712756
Si Si3 0.057600 0.720517 0.160273
Si Si4 0.506296 0.216494 0.813770
Si Si5 0.812086 0.923046 0.317728
Si Si6 0.391212 0.384028 0.331992
Si Si7 0.834829 0.674519 0.401254
Si Si8 0.443686 0.564966 0.842872
O O1 0.136682 0.700905 0.280980
O O2 0.252372 0.496173 0.349901
O O3 0.982671 0.572217 0.372303
O O4 0.189549 0.843403 0.568107
O O5 0.670091 0.839850 0.760930
O O6 0.789257 0.773750 0.561927
O O7 0.835369 0.151892 0.844200
O O8 0.582480 0.029446 0.678674
O O9 0.923106 0.846531 0.206969
O O10 0.000000 0.500000 0.000000
O O11 0.341176 0.173716 0.789815
O O12 0.529803 0.390987 0.816513
O O13 0.573239 0.273795 0.977146
O O14 0.857174 0.860040 0.416761
O O15 0.500000 0.500000 0.500000
O O16 0.471574 0.351742 0.210174
O O17 0.715678 0.507791 0.255661
#
# Coordination Sequence:
#
# PCOD8006053 Si02
#       8
#     2   2   2   2   2   2   2   2
#     4  11  22  42  68  95 131 175 220 281 328 386
#     4  12  23  42  61 100 130 175 223 264 331 400
#     4  11  24  41  70  96 133 170 226 286 331 385
#     4  10  24  39  70  96 128 176 221 286 329 380
#     4  10  20  39  65 103 124 165 226 278 335 380
#     4  12  26  42  66  99 137 181 220 265 332 406
#     4  10  20  39  65  96 128 164 222 277 316 397
#     4  10  23  43  65  97 132 171 228 271 336 390
#
# _framework density 21.251676
#
# number of rings (size 3 to 8) (size 9 to 14) (size 15 to 20)
#    0.000    1.250    3.750    2.250    8.750    2.000 
#    0.000    0.625    0.000    0.000    0.000    0.000 
#    0.000    0.000    0.000    0.000    0.000    0.000 
#
# Total GULP energy -198280.197215 kJ/mol
# GULP energy per Si atom -12392.512326 kJ/mol
# Density = 2.120331 g / cm^3
# Si number density = 21.251676 Si / 1000 Ang^3
#
#
#
# Elastic Constant Matrix: (Units=GPa)
#
#
# Indices 1 2 3 4 5 6 
#
# 1 128.6154 57.1798 18.1360 -1.7461 5.6644 5.7731
# 2 57.1798 98.7396 29.5566 12.1746 9.5860 27.2320
# 3 18.1360 29.5566 75.8316 4.7851 15.1372 15.1642
# 4 -1.7461 12.1746 4.7851 24.9152 3.3858 -6.0561
# 5 5.6644 9.5860 15.1372 3.3858 25.1706 1.1215
# 6 5.7731 27.2320 15.1642 -6.0561 1.1215 37.9149
#
#
#
# Elastic Compliance Matrix: (Units=1/GPa)
#
#
# Indices 1 2 3 4 5 6 
#
# 1 0.011780 -0.009135 -0.000993 0.006977 0.000207 0.006273
# 2 -0.009135 0.022606 -0.001865 -0.014951 -0.002690 -0.016408
# 3 -0.000993 -0.001865 0.017180 -0.002608 -0.008801 -0.005537
# 4 0.006977 -0.014951 -0.002608 0.053450 -0.002359 0.019326
# 5 0.000207 -0.002690 -0.008801 -0.002359 0.046153 0.003678
# 6 0.006273 -0.016408 -0.005537 0.019326 0.003678 0.042398
#
#
# Mechanical properties :
#
#
# Convention : Reuss Voigt Hill
#
# Bulk Modulus (GPa) = 36.25696 56.99239 46.62468
# Shear Modulus (GPa) = 22.05117 30.82108 26.43613
#
# Velocity S-wave (km/s) = 3.22471 3.81240 3.53080
# Velocity P-wave (km/s) = 5.56442 6.80112 6.21361
#
# Compressibility (1/GPa) = 0.02758091
#
# Stress axis : x y z
#
# Youngs Moduli (GPa) = 84.88625 44.23609 58.20770
#
# Poissons Ratio (x) = 0.40411 0.05779
# Poissons Ratio (y) = 0.77545 0.10854
# Poissons Ratio (z) = 0.08428 0.08249
#
# Static dielectric constant tensor:
#      x y z
#    x 4.273830 0.119370 -0.146180 
#    y 0.119370 3.774120 0.041660 
#    z -0.146180 0.041660 3.867630 
# 
# 
# High freq. dielectric constant tensor:
#      x y z
#    x 1.860760 0.008070 -0.002320 
#    y 0.008070 1.812660 0.012830 
#    z -0.002320 0.012830 1.816000 
# 
# From -- ./inp_files/184280.got.cif
#   From: 2010.06.25/outbox.cif.g09.slc.cpg/sg2_93_cif.got.tgz:184280.got - 2010.06.27 13:26:56.
