data_PCOD8006920
_publ_section_title
;
Structure prediction by ZEFSAII (Michael W. Deem and Ramdas Pophale) SiO2 
 PCOD8006920
Probable space group: P -1
;
_chemical_formula_sum "Si O2"
_cell_formula_units_Z 16
_cell_length_a 18.569354
_cell_length_b 9.013576
_cell_length_c 10.018904
_cell_angle_alpha 72.609268
_cell_angle_beta 104.082522
_cell_angle_gamma 41.319718
_cell_volume 707.830393
_symmetry_space_group_name_H-M "P -1"
_symmetry_group_IT_number 2
_symmetry_cell_setting 'triclinic'
loop_
_space_group_symop_operation_xyz
x,y,z
-x,-y,-z
loop_
_atom_site_type_symbol
_atom_site_label
_atom_site_fract_x
_atom_site_fract_y
_atom_site_fract_z
Si Si1 0.898765 0.593303 0.317637
Si Si2 0.742281 0.381776 0.805008
Si Si3 0.533810 0.324373 0.900160
Si Si4 0.100466 0.277271 0.237210
Si Si5 0.340736 0.549044 0.531035
Si Si6 0.090389 0.633773 0.180524
Si Si7 0.794981 0.513165 0.460528
Si Si8 0.503971 0.719498 0.827074
O O1 0.865383 0.476117 0.376438
O O2 0.000000 0.500000 0.500000
O O3 0.989402 0.415525 0.267039
O O4 0.724273 0.998652 0.104473
O O5 0.623538 0.579266 0.568899
O O6 0.794673 0.463994 0.825051
O O7 0.658293 0.489570 0.874806
O O8 0.903816 0.978721 0.951624
O O9 0.504528 0.286073 0.758445
O O10 0.448874 0.652209 0.765885
O O11 0.450098 0.383775 0.967307
O O12 0.171600 0.312341 0.303038
O O13 0.242334 0.891585 0.381471
O O14 0.000000 0.500000 0.000000
O O15 0.248671 0.584868 0.564936
O O16 0.071444 0.734073 0.295759
O O17 0.639271 0.889243 0.355330
#
# Coordination Sequence:
#
# PCOD8006920 Si02
#       8
#     2   2   2   2   2   2   2   2
#     4  11  24  44  73  95 129 177 220 267 328 394
#     4  10  22  41  65  96 128 177 214 270 324 388
#     4  10  24  43  65 102 129 169 222 277 318 395
#     4  12  24  43  65 100 133 171 216 276 332 383
#     4  11  25  43  63  97 141 166 217 275 328 385
#     4  10  20  40  65  92 135 166 223 262 320 394
#     4  10  23  44  67  97 130 174 222 271 320 393
#     4  10  22  42  68  94 127 175 222 261 328 390
#
# _framework density 22.604285999999998
#
# number of rings (size 3 to 8) (size 9 to 14) (size 15 to 20)
#    0.000    1.500    2.500    1.500    3.500    5.000 
#    6.750    0.000    0.000    0.000    0.000    0.000 
#    0.000    0.000    0.000    0.000    0.000    0.000 
#
# Total GULP energy -198302.823791 kJ/mol
# GULP energy per Si atom -12393.926487 kJ/mol
# Density = 2.255284 g / cm^3
# Si number density = 22.604286 Si / 1000 Ang^3
#
#
#
# Elastic Constant Matrix: (Units=GPa)
#
#
# Indices 1 2 3 4 5 6 
#
# 1 130.1205 32.9624 35.6348 -6.8275 -11.2713 -4.2013
# 2 32.9624 47.9034 25.9350 5.0771 6.2225 -10.8973
# 3 35.6348 25.9350 105.5148 16.7989 10.5728 3.4896
# 4 -6.8275 5.0771 16.7989 24.9298 9.5312 -8.0771
# 5 -11.2713 6.2225 10.5728 9.5312 33.2878 2.0555
# 6 -4.2013 -10.8973 3.4896 -8.0771 2.0555 50.2217
#
#
#
# Elastic Compliance Matrix: (Units=1/GPa)
#
#
# Indices 1 2 3 4 5 6 
#
# 1 0.010986 -0.006842 -0.003286 0.004940 0.004611 0.000269
# 2 -0.006842 0.030554 -0.004706 -0.000131 -0.006906 0.006646
# 3 -0.003286 -0.004706 0.013567 -0.009709 -0.001531 -0.003738
# 4 0.004940 -0.000131 -0.009709 0.056006 -0.011907 0.010554
# 5 0.004611 -0.006906 -0.001531 -0.011907 0.037063 -0.004438
# 6 0.000269 0.006646 -0.003738 0.010554 -0.004438 0.023515
#
#
# Mechanical properties :
#
#
# Convention : Reuss Voigt Hill
#
# Bulk Modulus (GPa) = 39.31064 52.51145 45.91105
# Shear Modulus (GPa) = 23.82795 34.28829 29.05812
#
# Velocity S-wave (km/s) = 3.25027 3.89896 3.58930
# Velocity P-wave (km/s) = 5.61375 6.59927 6.12636
#
# Compressibility (1/GPa) = 0.02543840
#
# Stress axis : x y z
#
# Youngs Moduli (GPa) = 91.02902 32.72902 73.71032
#
# Poissons Ratio (x) = 0.22392 0.24220
# Poissons Ratio (y) = 0.62279 0.34690
# Poissons Ratio (z) = 0.29911 0.15403
#
# Static dielectric constant tensor:
#      x y z
#    x 4.479230 0.363030 -0.123820 
#    y 0.363030 3.986080 0.245030 
#    z -0.123820 0.245030 4.228300 
# 
# 
# High freq. dielectric constant tensor:
#      x y z
#    x 1.902930 0.009730 -0.019920 
#    y 0.009730 1.862110 0.010460 
#    z -0.019920 0.010460 1.897430 
# 
# From -- ./inp_files/462054.got.cif
#   From: 2010.06.25/outbox.cif.g09.slc.cpg/sg2_232_cif.got.tgz:462054.got - 2010.06.27 13:26:56.
