data_PCOD8006123
_publ_section_title
;
Structure prediction by ZEFSAII (Michael W. Deem and Ramdas Pophale) SiO2 
 PCOD8006123
Probable space group: P -1
;
_chemical_formula_sum "Si O2"
_cell_formula_units_Z 14
_cell_length_a 8.848804
_cell_length_b 22.099938
_cell_length_c 5.509105
_cell_angle_alpha 98.093480
_cell_angle_beta 55.529173
_cell_angle_gamma 131.077534
_cell_volume 621.512278
_symmetry_space_group_name_H-M "P -1"
_symmetry_group_IT_number 2
_symmetry_cell_setting 'triclinic'
loop_
_space_group_symop_operation_xyz
x,y,z
-x,-y,-z
loop_
_atom_site_type_symbol
_atom_site_label
_atom_site_fract_x
_atom_site_fract_y
_atom_site_fract_z
Si Si1 0.145821 0.672867 0.962996
Si Si2 0.423708 0.181362 0.671289
Si Si3 0.862496 0.448723 0.847578
Si Si4 0.549778 0.938507 0.664916
Si Si5 0.762481 0.197577 0.747699
Si Si6 0.906308 0.122933 0.285308
Si Si7 0.625513 0.508177 0.139042
O O1 0.424267 0.741401 0.618441
O O2 0.176659 0.633210 0.141022
O O3 0.078203 0.725315 0.154456
O O4 0.924377 0.601318 0.931678
O O5 0.344915 0.096298 0.591875
O O6 0.620233 0.215839 0.731236
O O7 0.175182 0.162112 0.958870
O O8 0.000000 0.500000 0.500000
O O9 0.603792 0.429326 0.087863
O O10 0.000000 0.500000 0.000000
O O11 0.296678 0.909882 0.760160
O O12 0.784852 0.042054 0.524778
O O13 0.464583 0.898701 0.988554
O O14 0.956339 0.198133 0.428082
O O15 0.500000 0.500000 0.500000
O O16 0.500000 0.500000 0.000000
#
# Coordination Sequence:
#
# PCOD8006123 Si02
#       7
#     2   2   2   2   2   2   2
#     4  10  24  44  62  90 139 168 217 285 338 413
#     4  10  22  39  61  95 133 178 220 276 345 394
#     4  10  22  43  71  93 127 174 219 272 342 410
#     4   9  20  39  62  92 137 171 230 281 320 397
#     4  10  22  39  60  95 133 175 219 282 337 394
#     4  10  20  39  65  94 129 182 226 271 331 404
#     4  11  24  45  71 102 126 171 229 280 343 413
#
# _framework density 22.525698999999999
#
# number of rings (size 3 to 8) (size 9 to 14) (size 15 to 20)
#    0.000    2.000    0.000    2.571    6.000    2.857 
#   10.286    0.000    0.000    0.000    0.000    0.000 
#    0.000    0.000    0.000    0.000    0.000    0.000 
#
# Total GULP energy -173438.099956 kJ/mol
# GULP energy per Si atom -12388.435711 kJ/mol
# Density = 2.247443 g / cm^3
# Si number density = 22.525699 Si / 1000 Ang^3
#
#
#
# Elastic Constant Matrix: (Units=GPa)
#
#
# Indices 1 2 3 4 5 6 
#
# 1 126.2344 48.2205 75.9428 3.4469 1.3788 -21.3286
# 2 48.2205 107.9731 58.0215 -0.2396 -8.5587 -16.2639
# 3 75.9428 58.0215 148.2015 16.9113 -12.5192 -20.7234
# 4 3.4469 -0.2396 16.9113 32.7175 -9.8369 8.2560
# 5 1.3788 -8.5587 -12.5192 -9.8369 54.8420 1.6105
# 6 -21.3286 -16.2639 -20.7234 8.2560 1.6105 28.1875
#
#
#
# Elastic Compliance Matrix: (Units=1/GPa)
#
#
# Indices 1 2 3 4 5 6 
#
# 1 0.012712 -0.002433 -0.004987 -0.000633 -0.002094 0.004853
# 2 -0.002433 0.012701 -0.003525 0.002082 0.001548 0.002197
# 3 -0.004987 -0.003525 0.012270 -0.006846 0.000997 0.005162
# 4 -0.000633 0.002082 -0.006846 0.040296 0.006490 -0.016484
# 5 -0.002094 0.001548 0.000997 0.006490 0.020008 -0.003003
# 6 0.004853 0.002197 0.005162 -0.016484 -0.003003 0.049211
#
#
# Mechanical properties :
#
#
# Convention : Reuss Voigt Hill
#
# Bulk Modulus (GPa) = 63.32531 82.97541 73.15036
# Shear Modulus (GPa) = 28.67735 36.49768 32.58751
#
# Velocity S-wave (km/s) = 3.57192 4.02962 3.80765
# Velocity P-wave (km/s) = 6.72197 7.65286 7.20247
#
# Compressibility (1/GPa) = 0.01579148
#
# Stress axis : x y z
#
# Youngs Moduli (GPa) = 78.66731 78.73474 81.49701
#
# Poissons Ratio (x) = 0.19160 0.40644
# Poissons Ratio (y) = 0.19143 0.28729
# Poissons Ratio (z) = 0.39233 0.27755
#
# Static dielectric constant tensor:
#      x y z
#    x 4.372620 -0.499330 0.087780 
#    y -0.499330 4.276220 0.162160 
#    z 0.087780 0.162160 4.043980 
# 
# 
# High freq. dielectric constant tensor:
#      x y z
#    x 1.886840 -0.025940 0.010970 
#    y -0.025940 1.886880 0.020030 
#    z 0.010970 0.020030 1.888540 
# 
# From -- ./inp_files/43980.got.cif
#   From: 2010.06.25/outbox.cif.g09.slc.cpg/sg2_22_cif.got.tgz:43980.got - 2010.06.27 13:26:56.
