data_PCOD8006750
_publ_section_title
;
Structure prediction by ZEFSAII (Michael W. Deem and Ramdas Pophale) SiO2 
 PCOD8006750
Probable space group: P -1
;
_chemical_formula_sum "Si O2"
_cell_formula_units_Z 16
_cell_length_a 14.331358
_cell_length_b 11.128331
_cell_length_c 10.471622
_cell_angle_alpha 35.537892
_cell_angle_beta 121.312665
_cell_angle_gamma 98.386510
_cell_volume 688.244991
_symmetry_space_group_name_H-M "P -1"
_symmetry_group_IT_number 2
_symmetry_cell_setting 'triclinic'
loop_
_space_group_symop_operation_xyz
x,y,z
-x,-y,-z
loop_
_atom_site_type_symbol
_atom_site_label
_atom_site_fract_x
_atom_site_fract_y
_atom_site_fract_z
Si Si1 0.782490 0.766323 0.828118
Si Si2 0.265108 0.447936 0.267795
Si Si3 0.207918 0.906516 0.947308
Si Si4 0.916964 0.554018 0.649467
Si Si5 0.366507 0.696061 0.642141
Si Si6 0.135903 0.749890 0.283353
Si Si7 0.558061 0.151843 0.694525
Si Si8 0.595950 0.781632 0.855133
O O1 0.743244 0.658579 0.779096
O O2 0.745661 0.671590 0.010107
O O3 0.693473 0.069882 0.505974
O O4 0.935164 0.663514 0.017556
O O5 0.185515 0.394551 0.357521
O O6 0.418911 0.309824 0.530245
O O7 0.215207 0.740550 0.975625
O O8 0.089719 0.192206 0.593745
O O9 0.183294 0.786804 0.151400
O O10 0.340334 0.895427 0.081084
O O11 0.883674 0.475050 0.560178
O O12 0.243388 0.678556 0.529080
O O13 0.432402 0.718485 0.540979
O O14 0.448462 0.416900 0.011742
O O15 0.000000 0.000000 0.000000
O O16 0.581451 0.888967 0.894529
O O17 0.500000 0.000000 0.500000
#
# Coordination Sequence:
#
# PCOD8006750 Si02
#       8
#     2   2   2   2   2   2   2   2
#     4  11  24  41  61  95 130 167 211 256 311 386
#     4  11  24  43  61  88 131 169 221 254 301 383
#     4  10  24  40  64  94 124 168 213 262 311 364
#     4  11  24  40  65  94 128 169 210 258 315 368
#     4  10  23  40  69  93 127 165 199 272 323 360
#     4  10  20  40  63  96 124 160 208 255 314 382
#     4  10  22  44  63  95 126 162 216 261 313 375
#     4  11  23  42  65  98 124 159 213 261 316 383
#
# _framework density 23.247533000000001
#
# number of rings (size 3 to 8) (size 9 to 14) (size 15 to 20)
#    0.000    1.500    2.500    1.500    1.750    5.500 
#    0.000    0.000    0.000    0.000    0.000    0.000 
#    0.000    0.000    0.000    0.000    0.000    0.000 
#
# Total GULP energy -198302.634998 kJ/mol
# GULP energy per Si atom -12393.914687 kJ/mol
# Density = 2.319462 g / cm^3
# Si number density = 23.247533 Si / 1000 Ang^3
#
#
#
# Elastic Constant Matrix: (Units=GPa)
#
#
# Indices 1 2 3 4 5 6 
#
# 1 81.4890 12.2269 31.4126 -8.6887 17.3416 6.7457
# 2 12.2269 138.8875 49.6901 -47.1039 -3.1926 17.5084
# 3 31.4126 49.6901 112.9795 -34.2783 -5.5859 3.5853
# 4 -8.6887 -47.1039 -34.2783 42.0730 8.0424 -1.7649
# 5 17.3416 -3.1926 -5.5859 8.0424 37.1559 -6.8974
# 6 6.7457 17.5084 3.5853 -1.7649 -6.8974 31.8446
#
#
#
# Elastic Compliance Matrix: (Units=1/GPa)
#
#
# Indices 1 2 3 4 5 6 
#
# 1 0.016923 0.001953 -0.004828 0.003468 -0.010351 -0.006165
# 2 0.001953 0.013553 -0.002111 0.014415 -0.004639 -0.007833
# 3 -0.004828 -0.002111 0.013344 0.007034 0.002870 0.001692
# 4 0.003468 0.014415 0.007034 0.048157 -0.011466 -0.009267
# 5 -0.010351 -0.004639 0.002870 -0.011466 0.036427 0.011674
# 6 -0.006165 -0.007833 0.001692 -0.009267 0.011674 0.038840
#
#
# Mechanical properties :
#
#
# Convention : Reuss Voigt Hill
#
# Bulk Modulus (GPa) = 29.54411 57.77946 43.66179
# Shear Modulus (GPa) = 26.52530 38.21646 32.37088
#
# Velocity S-wave (km/s) = 3.38153 4.05889 3.73559
# Velocity P-wave (km/s) = 5.28984 6.84647 6.11786
#
# Compressibility (1/GPa) = 0.03384769
#
# Stress axis : x y z
#
# Youngs Moduli (GPa) = 59.09257 73.78279 74.93826
#
# Poissons Ratio (x) = -0.14408 0.36181
# Poissons Ratio (y) = -0.11540 0.15819
# Poissons Ratio (z) = 0.28530 0.15575
#
# Static dielectric constant tensor:
#      x y z
#    x 4.171900 0.505960 0.192210 
#    y 0.505960 4.720620 -0.282630 
#    z 0.192210 -0.282630 4.184430 
# 
# 
# High freq. dielectric constant tensor:
#      x y z
#    x 1.922890 0.026670 0.016920 
#    y 0.026670 1.940510 -0.020520 
#    z 0.016920 -0.020520 1.910680 
# 
# From -- ./inp_files/71186.got.cif
#   From: 2010.06.25/outbox.cif.g09.slc.cpg/sg2_36_cif.got.tgz:71186.got - 2010.06.27 13:26:56.
