data_PCOD8006759
_publ_section_title
;
Structure prediction by ZEFSAII (Michael W. Deem and Ramdas Pophale) SiO2 
 PCOD8006759
Probable space group: P -1
;
_chemical_formula_sum "Si O2"
_cell_formula_units_Z 16
_cell_length_a 22.608992
_cell_length_b 5.393323
_cell_length_c 11.418137
_cell_angle_alpha 63.659118
_cell_angle_beta 34.840267
_cell_angle_gamma 79.230232
_cell_volume 668.706275
_symmetry_space_group_name_H-M "P -1"
_symmetry_group_IT_number 2
_symmetry_cell_setting 'triclinic'
loop_
_space_group_symop_operation_xyz
x,y,z
-x,-y,-z
loop_
_atom_site_type_symbol
_atom_site_label
_atom_site_fract_x
_atom_site_fract_y
_atom_site_fract_z
Si Si1 0.226646 0.972310 0.010997
Si Si2 0.243961 0.368214 0.130703
Si Si3 0.852858 0.529555 0.332660
Si Si4 0.264220 0.075771 0.678784
Si Si5 0.001163 0.065551 0.619408
Si Si6 0.457248 0.167466 0.181779
Si Si7 0.077129 0.564891 0.009481
Si Si8 0.655346 0.018450 0.831888
O O1 0.284294 0.723408 0.979984
O O2 0.245179 0.193169 0.044382
O O3 0.095299 0.794289 0.236640
O O4 0.278165 0.177887 0.770380
O O5 0.328613 0.288622 0.096341
O O6 0.124508 0.270954 0.409530
O O7 0.794423 0.760628 0.346025
O O8 0.971504 0.675995 0.174910
O O9 0.771507 0.285984 0.603091
O O10 0.878645 0.373949 0.207866
O O11 0.386209 0.120574 0.424983
O O12 0.180438 0.736997 0.888220
O O13 0.964209 0.777365 0.820673
O O14 0.000000 0.000000 0.500000
O O15 0.379579 0.968887 0.248558
O O16 0.500000 0.500000 0.000000
O O17 0.560770 0.061260 0.059629
#
# Coordination Sequence:
#
# PCOD8006759 Si02
#       8
#     2   2   2   2   2   2   2   2
#     4  11  25  43  68 101 142 191 230 280 343 417
#     4  11  25  45  71 100 143 184 237 285 338 416
#     4  11  22  39  64  99 137 171 226 282 354 414
#     4  12  23  41  68  96 141 181 229 284 352 415
#     4  10  20  40  63  98 138 188 225 268 333 416
#     4  11  25  44  72  98 129 179 233 293 354 410
#     4  11  22  39  60 101 141 176 222 277 353 419
#     4  11  24  46  70 100 133 176 236 293 350 409
#
# _framework density 23.926798999999999
#
# number of rings (size 3 to 8) (size 9 to 14) (size 15 to 20)
#    0.000    1.000    5.000    2.250    1.750    1.000 
#    2.250    1.250    0.000    0.000    0.000    0.000 
#    0.000    0.000    0.000    0.000    0.000    0.000 
#
# Total GULP energy -198346.108455 kJ/mol
# GULP energy per Si atom -12396.631778 kJ/mol
# Density = 2.387234 g / cm^3
# Si number density = 23.926799 Si / 1000 Ang^3
#
#
#
# Elastic Constant Matrix: (Units=GPa)
#
#
# Indices 1 2 3 4 5 6 
#
# 1 46.5272 12.0693 32.0250 10.6193 3.0418 -19.6325
# 2 12.0693 102.0289 25.0748 13.3989 -0.6208 -23.1407
# 3 32.0250 25.0748 139.5607 28.4805 -0.5300 -4.2023
# 4 10.6193 13.3989 28.4805 39.7687 -3.5302 -5.3838
# 5 3.0418 -0.6208 -0.5300 -3.5302 30.0527 3.1300
# 6 -19.6325 -23.1407 -4.2023 -5.3838 3.1300 43.8165
#
#
#
# Elastic Compliance Matrix: (Units=1/GPa)
#
#
# Indices 1 2 3 4 5 6 
#
# 1 0.033178 0.001520 -0.006863 -0.002896 -0.005354 0.015037
# 2 0.001520 0.011848 -0.001817 -0.002290 -0.000892 0.006546
# 3 -0.006863 -0.001817 0.010013 -0.005180 0.000616 -0.003755
# 4 -0.002896 -0.002290 -0.005180 0.030800 0.003719 0.000515
# 5 -0.005354 -0.000892 0.000616 0.003719 0.034750 -0.004836
# 6 0.015037 0.006546 -0.003755 0.000515 -0.004836 0.033066
#
#
# Mechanical properties :
#
#
# Convention : Reuss Voigt Hill
#
# Bulk Modulus (GPa) = 24.55780 47.38391 35.97085
# Shear Modulus (GPa) = 27.54111 37.32410 32.43260
#
# Velocity S-wave (km/s) = 3.39640 3.95388 3.68570
# Velocity P-wave (km/s) = 5.06624 6.37894 5.76011
#
# Compressibility (1/GPa) = 0.04072026
#
# Stress axis : x y z
#
# Youngs Moduli (GPa) = 30.14003 84.40401 99.87092
#
# Poissons Ratio (x) = -0.12831 0.68543
# Poissons Ratio (y) = -0.04582 0.18142
# Poissons Ratio (z) = 0.20685 0.15332
#
# Static dielectric constant tensor:
#      x y z
#    x 4.288150 -0.215550 -0.104670 
#    y -0.215550 4.144230 0.291860 
#    z -0.104670 0.291860 4.458170 
# 
# 
# High freq. dielectric constant tensor:
#      x y z
#    x 1.933630 -0.016010 0.005860 
#    y -0.016010 1.940120 0.016080 
#    z 0.005860 0.016080 1.949100 
# 
# From -- ./inp_files/364700.got.cif
#   From: 2010.06.25/outbox.cif.g09.slc.cpg/sg2_183_cif.got.tgz:364700.got - 2010.06.27 13:26:56.
