data_PCOD8006997
_publ_section_title
;
Structure prediction by ZEFSAII (Michael W. Deem and Ramdas Pophale) SiO2 
 PCOD8006997
Probable space group: P -1
;
_chemical_formula_sum "Si O2"
_cell_formula_units_Z 16
_cell_length_a 8.718959
_cell_length_b 22.087202
_cell_length_c 21.270888
_cell_angle_alpha 17.980057
_cell_angle_beta 149.504069
_cell_angle_gamma 144.928713
_cell_volume 641.671386
_symmetry_space_group_name_H-M "P -1"
_symmetry_group_IT_number 2
_symmetry_cell_setting 'triclinic'
loop_
_space_group_symop_operation_xyz
x,y,z
-x,-y,-z
loop_
_atom_site_type_symbol
_atom_site_label
_atom_site_fract_x
_atom_site_fract_y
_atom_site_fract_z
Si Si1 0.182506 0.036578 0.383020
Si Si2 0.398477 0.224319 0.785305
Si Si3 0.673855 0.057746 0.852293
Si Si4 0.242932 0.105630 0.535823
Si Si5 0.598372 0.649550 0.767354
Si Si6 0.482611 0.229030 0.109324
Si Si7 0.069916 0.921165 0.330450
Si Si8 0.141240 0.639635 0.283626
O O1 0.500000 0.000000 0.500000
O O2 0.182388 0.258248 0.192199
O O3 0.948260 0.984180 0.295102
O O4 0.094702 0.891191 0.554307
O O5 0.178244 0.409045 0.535289
O O6 0.715692 0.295690 0.797282
O O7 0.219133 0.074604 0.822119
O O8 0.451988 0.120493 0.973290
O O9 0.682516 0.253554 0.703766
O O10 0.478600 0.107672 0.673357
O O11 0.000000 0.000000 0.000000
O O12 0.303365 0.282642 0.335092
O O13 0.266040 0.888952 0.725920
O O14 0.630061 0.415195 0.012851
O O15 0.247371 0.711815 0.596319
O O16 0.213778 0.309194 0.890112
O O17 0.334677 0.074741 0.256895
#
# Coordination Sequence:
#
# PCOD8006997 Si02
#       8
#     2   2   2   2   2   2   2   2
#     4  10  23  43  70  93 120 161 209 265 318 364
#     4  11  23  39  62  92 129 169 207 253 307 371
#     4  12  23  39  63  95 131 168 202 252 306 373
#     4  11  24  42  65  93 125 167 209 251 312 373
#     4  10  22  43  64  88 126 160 210 259 312 364
#     4  11  22  39  65  89 126 168 204 256 311 367
#     4  10  20  40  66  91 123 162 209 258 311 366
#     4  11  23  38  61  90 129 170 208 249 308 367
#
# _framework density 24.934881000000001
#
# number of rings (size 3 to 8) (size 9 to 14) (size 15 to 20)
#    0.000    1.250    3.750    2.250    1.750    2.500 
#    0.000    2.500    0.000    0.000    0.000    0.000 
#    0.000    0.000    0.000    0.000    0.000    0.000 
#
# Total GULP energy -198334.930969 kJ/mol
# GULP energy per Si atom -12395.933186 kJ/mol
# Density = 2.487813 g / cm^3
# Si number density = 24.934881 Si / 1000 Ang^3
#
#
#
# Elastic Constant Matrix: (Units=GPa)
#
#
# Indices 1 2 3 4 5 6 
#
# 1 127.6712 42.0690 33.0165 -1.4014 -0.2672 -2.3476
# 2 42.0690 70.4723 23.6620 -15.6762 -11.0646 -17.1169
# 3 33.0165 23.6620 102.9106 -24.7094 0.8070 -7.5247
# 4 -1.4014 -15.6762 -24.7094 40.1054 -0.3158 4.7001
# 5 -0.2672 -11.0646 0.8070 -0.3158 24.2910 6.0757
# 6 -2.3476 -17.1169 -7.5247 4.7001 6.0757 43.5119
#
#
#
# Elastic Compliance Matrix: (Units=1/GPa)
#
#
# Indices 1 2 3 4 5 6 
#
# 1 0.010923 -0.007354 -0.002917 -0.004078 -0.002687 -0.001992
# 2 -0.007354 0.023627 -0.000790 0.007785 0.009147 0.006643
# 3 -0.002917 -0.000790 0.012664 0.007258 -0.000987 0.001076
# 4 -0.004078 0.007785 0.007258 0.032324 0.003657 0.000095
# 5 -0.002687 0.009147 -0.000987 0.003657 0.046279 -0.003574
# 6 -0.001992 0.006643 0.001076 0.000095 -0.003574 0.026163
#
#
# Mechanical properties :
#
#
# Convention : Reuss Voigt Hill
#
# Bulk Modulus (GPa) = 39.85478 55.39434 47.62456
# Shear Modulus (GPa) = 27.40244 35.06878 31.23561
#
# Velocity S-wave (km/s) = 3.31865 3.75429 3.54317
# Velocity P-wave (km/s) = 5.54102 6.40755 5.98997
#
# Compressibility (1/GPa) = 0.02509110
#
# Stress axis : x y z
#
# Youngs Moduli (GPa) = 91.54724 42.32507 78.96564
#
# Poissons Ratio (x) = 0.31127 0.23037
# Poissons Ratio (y) = 0.67326 0.06237
# Poissons Ratio (z) = 0.26707 0.03343
#
# Static dielectric constant tensor:
#      x y z
#    x 5.014910 -0.319150 0.111910 
#    y -0.319150 5.247180 0.287030 
#    z 0.111910 0.287030 4.529560 
# 
# 
# High freq. dielectric constant tensor:
#      x y z
#    x 2.006010 0.001770 0.011960 
#    y 0.001770 2.011490 0.008940 
#    z 0.011960 0.008940 1.981070 
# 
# From -- ./inp_files/591645.got.cif
#   From: 2010.06.25/outbox.cif.g09.slc.cpg/sg2_296_cif.got.tgz:591645.got - 2010.06.27 13:26:56.
