data_PCOD8006245
_publ_section_title
;
Structure prediction by ZEFSAII (Michael W. Deem and Ramdas Pophale) SiO2 
 PCOD8006245
Probable space group: P -1
;
_chemical_formula_sum "Si O2"
_cell_formula_units_Z 16
_cell_length_a 13.431540
_cell_length_b 10.694655
_cell_length_c 14.163680
_cell_angle_alpha 150.341993
_cell_angle_beta 128.574967
_cell_angle_gamma 46.837160
_cell_volume 731.941603
_symmetry_space_group_name_H-M "P -1"
_symmetry_group_IT_number 2
_symmetry_cell_setting 'triclinic'
loop_
_space_group_symop_operation_xyz
x,y,z
-x,-y,-z
loop_
_atom_site_type_symbol
_atom_site_label
_atom_site_fract_x
_atom_site_fract_y
_atom_site_fract_z
Si Si1 0.530335 0.596064 0.293620
Si Si2 0.017432 0.086722 0.799982
Si Si3 0.373349 0.234234 0.907741
Si Si4 0.123034 0.219916 0.391837
Si Si5 0.598503 0.660079 0.681854
Si Si6 0.195096 0.410707 0.086787
Si Si7 0.231927 0.515332 0.512615
Si Si8 0.348559 0.164972 0.631829
O O1 0.654051 0.407830 0.310243
O O2 0.594527 0.632386 0.255747
O O3 0.462207 0.866106 0.492601
O O4 0.412230 0.488628 0.126621
O O5 0.909820 0.281787 0.789553
O O6 0.096649 0.788320 0.605699
O O7 0.121199 0.237637 0.988125
O O8 0.935623 0.028034 0.804858
O O9 0.322027 0.250096 0.780896
O O10 0.509433 0.975843 0.836409
O O11 0.247274 0.252203 0.913897
O O12 0.214720 0.247131 0.375354
O O13 0.205210 0.184097 0.514902
O O14 0.000000 0.500000 0.500000
O O15 0.500000 0.500000 0.500000
O O16 0.673148 0.578297 0.772940
O O17 0.719962 0.581448 0.626892
#
# Coordination Sequence:
#
# PCOD8006245 Si02
#       8
#     2   2   2   2   2   2   2   2
#     4  10  20  39  66  97 138 164 206 279 328 393
#     4  10  22  45  64  86 130 176 220 270 322 379
#     4  12  23  40  65  99 131 171 218 267 332 391
#     4   9  20  40  67  90 125 169 215 271 323 383
#     4  12  25  41  65  99 133 174 221 270 336 392
#     4  11  25  42  62  93 135 175 220 273 319 389
#     4  10  20  41  68  96 125 173 218 266 337 387
#     4  10  21  38  67  98 132 170 214 264 338 393
#
# _framework density 21.859667000000002
#
# number of rings (size 3 to 8) (size 9 to 14) (size 15 to 20)
#    0.000    1.500    1.250    3.750    1.750    0.500 
#   11.250    0.625    0.000    0.000    0.000    0.000 
#    0.000    0.000    0.000    0.000    0.000    0.000 
#
# Total GULP energy -198326.194344 kJ/mol
# GULP energy per Si atom -12395.387146 kJ/mol
# Density = 2.180991 g / cm^3
# Si number density = 21.859667 Si / 1000 Ang^3
#
#
#
# Elastic Constant Matrix: (Units=GPa)
#
#
# Indices 1 2 3 4 5 6 
#
# 1 116.7969 32.8084 49.0785 -6.4999 -1.3932 8.8028
# 2 32.8084 116.7448 24.4296 -1.0596 -13.0459 -5.8562
# 3 49.0785 24.4296 70.0833 -4.2635 -0.5854 10.7506
# 4 -6.4999 -1.0596 -4.2635 28.7966 8.5895 2.2370
# 5 -1.3932 -13.0459 -0.5854 8.5895 42.4200 2.1462
# 6 8.8028 -5.8562 10.7506 2.2370 2.1462 33.3202
#
#
#
# Elastic Compliance Matrix: (Units=1/GPa)
#
#
# Indices 1 2 3 4 5 6 
#
# 1 0.012610 -0.002023 -0.007823 0.001901 -0.000638 -0.001249
# 2 -0.002023 0.010196 -0.002688 -0.001679 0.003215 0.003100
# 3 -0.007823 -0.002688 0.021639 0.002038 -0.000921 -0.005465
# 4 0.001901 -0.001679 0.002038 0.038039 -0.007951 -0.003497
# 5 -0.000638 0.003215 -0.000921 -0.007951 0.026145 -0.000119
# 6 -0.001249 0.003100 -0.005465 -0.003497 -0.000119 0.032892
#
#
# Mechanical properties :
#
#
# Convention : Reuss Voigt Hill
#
# Bulk Modulus (GPa) = 51.61101 57.36199 54.48650
# Shear Modulus (GPa) = 28.89346 34.06126 31.47736
#
# Velocity S-wave (km/s) = 3.63956 3.95166 3.79882
# Velocity P-wave (km/s) = 6.42832 6.86431 6.64989
#
# Compressibility (1/GPa) = 0.01937571
#
# Stress axis : x y z
#
# Youngs Moduli (GPa) = 79.30224 98.07420 46.21297
#
# Poissons Ratio (x) = 0.19844 0.36154
# Poissons Ratio (y) = 0.16046 0.12422
# Poissons Ratio (z) = 0.62041 0.26363
#
# Static dielectric constant tensor:
#      x y z
#    x 4.497350 -0.394140 0.011370 
#    y -0.394140 4.799570 0.104240 
#    z 0.011370 0.104240 3.351670 
# 
# 
# High freq. dielectric constant tensor:
#      x y z
#    x 1.875240 -0.003820 0.021060 
#    y -0.003820 1.874800 0.003930 
#    z 0.021060 0.003930 1.824430 
# 
# From -- ./inp_files/532194.got.cif
#   From: 2010.06.25/outbox.cif.g09.slc.cpg/sg2_267_cif.got.tgz:532194.got - 2010.06.27 13:26:56.
