data_PCOD8006315
_publ_section_title
;
Structure prediction by ZEFSAII (Michael W. Deem and Ramdas Pophale) SiO2 
 PCOD8006315
Probable space group: P -1
;
_chemical_formula_sum "Si O2"
_cell_formula_units_Z 16
_cell_length_a 11.786292
_cell_length_b 8.553317
_cell_length_c 11.542357
_cell_angle_alpha 125.063809
_cell_angle_beta 50.616180
_cell_angle_gamma 119.022376
_cell_volume 722.636554
_symmetry_space_group_name_H-M "P -1"
_symmetry_group_IT_number 2
_symmetry_cell_setting 'triclinic'
loop_
_space_group_symop_operation_xyz
x,y,z
-x,-y,-z
loop_
_atom_site_type_symbol
_atom_site_label
_atom_site_fract_x
_atom_site_fract_y
_atom_site_fract_z
Si Si1 0.840127 0.471464 0.038946
Si Si2 0.213398 0.327366 0.390052
Si Si3 0.095772 0.886828 0.266257
Si Si4 0.667028 0.596634 0.891980
Si Si5 0.897774 0.332755 0.602525
Si Si6 0.157888 0.145082 0.936302
Si Si7 0.664720 0.597176 0.412543
Si Si8 0.201866 0.029707 0.617453
O O1 0.850060 0.638023 0.007129
O O2 0.723490 0.481917 0.220922
O O3 0.802507 0.255918 0.916082
O O4 0.000000 0.500000 0.000000
O O5 0.341676 0.388731 0.235548
O O6 0.250637 0.423406 0.531167
O O7 0.066589 0.413867 0.475509
O O8 0.197039 0.096119 0.305660
O O9 0.047110 0.803284 0.390224
O O10 0.952665 0.895473 0.281057
O O11 0.795912 0.470975 0.782062
O O12 0.500000 0.500000 0.000000
O O13 0.731981 0.807820 0.001824
O O14 0.798955 0.190519 0.513416
O O15 0.232774 0.041325 0.740243
O O16 0.000000 0.000000 0.000000
O O17 0.500000 0.500000 0.500000
O O18 0.669520 0.822185 0.470025
#
# Coordination Sequence:
#
# PCOD8006315 Si02
#       8
#     2   2   2   2   2   2   2   2
#     4  11  21  39  68  97 125 162 217 275 316 372
#     4  11  23  42  69  95 128 168 222 262 317 398
#     4  11  18  39  71 102 119 157 221 278 309 373
#     4  12  29  45  62  95 139 176 211 271 330 384
#     4  11  20  43  69  95 124 172 220 260 322 389
#     4  11  23  41  66  94 132 171 218 261 321 387
#     4  11  23  38  62  97 133 163 206 268 331 371
#     4  10  20  39  67  96 126 158 215 276 315 373
#
# _framework density 22.141143
#
# number of rings (size 3 to 8) (size 9 to 14) (size 15 to 20)
#    0.000    1.000    6.250    2.625    3.500    0.000 
#    2.250    1.875    0.000    0.000    0.000    0.000 
#    0.000    0.000    0.000    0.000    0.000    0.000 
#
# Total GULP energy -198246.605960 kJ/mol
# GULP energy per Si atom -12390.412873 kJ/mol
# Density = 2.209075 g / cm^3
# Si number density = 22.141143 Si / 1000 Ang^3
#
#
#
# Elastic Constant Matrix: (Units=GPa)
#
#
# Indices 1 2 3 4 5 6 
#
# 1 49.9008 24.4418 37.1300 -2.3906 8.8654 17.6926
# 2 24.4418 79.4423 61.3697 -4.7072 -6.1582 32.3258
# 3 37.1300 61.3697 137.3051 -7.0525 9.2872 18.1072
# 4 -2.3906 -4.7072 -7.0525 46.8030 7.9466 -2.3314
# 5 8.8654 -6.1582 9.2872 7.9466 39.4136 -5.0611
# 6 17.6926 32.3258 18.1072 -2.3314 -5.0611 34.4162
#
#
#
# Elastic Compliance Matrix: (Units=1/GPa)
#
#
# Indices 1 2 3 4 5 6 
#
# 1 0.030702 0.000463 -0.006091 0.001264 -0.007454 -0.014024
# 2 0.000463 0.030452 -0.011115 -0.000466 0.004495 -0.022363
# 3 -0.006091 -0.011115 0.013356 0.001402 -0.003000 0.006198
# 4 0.001264 -0.000466 0.001402 0.022476 -0.005244 -0.000199
# 5 -0.007454 0.004495 -0.003000 -0.005244 0.030193 0.005273
# 6 -0.014024 -0.022363 0.006198 -0.000199 0.005273 0.054772
#
#
# Mechanical properties :
#
#
# Convention : Reuss Voigt Hill
#
# Bulk Modulus (GPa) = 24.37585 56.94793 40.66189
# Shear Modulus (GPa) = 21.82349 33.70700 27.76525
#
# Velocity S-wave (km/s) = 3.14292 3.90599 3.54504
# Velocity P-wave (km/s) = 4.91973 6.79107 5.92969
#
# Compressibility (1/GPa) = 0.04102421
#
# Stress axis : x y z
#
# Youngs Moduli (GPa) = 32.57089 32.83804 74.87503
#
# Poissons Ratio (x) = -0.01519 0.45604
# Poissons Ratio (y) = -0.01507 0.83223
# Poissons Ratio (z) = 0.19838 0.36499
#
# Static dielectric constant tensor:
#      x y z
#    x 3.958810 -0.158930 0.243250 
#    y -0.158930 4.150250 0.036330 
#    z 0.243250 0.036330 4.089720 
# 
# 
# High freq. dielectric constant tensor:
#      x y z
#    x 1.845180 -0.002140 0.039510 
#    y -0.002140 1.876260 -0.000490 
#    z 0.039510 -0.000490 1.883120 
# 
# From -- ./inp_files/418030.got.cif
#   From: 2010.06.25/outbox.cif.g09.slc.cpg/sg2_210_cif.got.tgz:418030.got - 2010.06.27 13:26:56.
