data_PCOD8006640
_publ_section_title
;
Structure prediction by ZEFSAII (Michael W. Deem and Ramdas Pophale) SiO2 
 PCOD8006640
Probable space group: P -1
;
_chemical_formula_sum "Si O2"
_cell_formula_units_Z 14
_cell_length_a 21.293394
_cell_length_b 5.323087
_cell_length_c 4.987213
_cell_angle_alpha 88.625022
_cell_angle_beta 83.938620
_cell_angle_gamma 92.650822
_cell_volume 561.284415
_symmetry_space_group_name_H-M "P -1"
_symmetry_group_IT_number 2
_symmetry_cell_setting 'triclinic'
loop_
_space_group_symop_operation_xyz
x,y,z
-x,-y,-z
loop_
_atom_site_type_symbol
_atom_site_label
_atom_site_fract_x
_atom_site_fract_y
_atom_site_fract_z
Si Si1 0.068868 0.418847 0.401477
Si Si2 0.873448 0.769649 0.105450
Si Si3 0.508285 0.269904 0.306893
Si Si4 0.687805 0.218587 0.823467
Si Si5 0.172441 0.723121 0.095284
Si Si6 0.625168 0.983426 0.364024
Si Si7 0.600955 0.600344 0.955376
O O1 0.096434 0.237250 0.616278
O O2 0.115094 0.669988 0.335169
O O3 0.000000 0.500000 0.500000
O O4 0.068872 0.253056 0.133610
O O5 0.824345 0.526299 0.089009
O O6 0.838650 0.028822 0.081317
O O7 0.500000 0.500000 0.500000
O O8 0.549366 0.045153 0.421731
O O9 0.436814 0.199955 0.219589
O O10 0.551643 0.363664 0.034258
O O11 0.763116 0.235698 0.769185
O O12 0.661493 0.001257 0.634577
O O13 0.658878 0.489281 0.761396
O O14 0.665314 0.167812 0.140882
O O15 0.624939 0.711768 0.227992
#
# Coordination Sequence:
#
# PCOD8006640 Si02
#       7
#     2   2   2   2   2   2   2
#     4  10  24  45  75 110 145 189 239 295 354 422
#     4  10  25  43  72 103 146 189 235 294 354 422
#     4  10  20  40  62  90 128 161 222 284 356 424
#     4  11  26  43  62  96 132 178 236 286 348 429
#     4  10  27  46  71 104 148 193 242 294 359 425
#     4  11  25  40  66  93 126 176 227 285 361 419
#     4  10  23  41  62  92 127 170 220 292 349 427
#
# _framework density 24.942791
#
# number of rings (size 3 to 8) (size 9 to 14) (size 15 to 20)
#    0.857    0.857    1.429    0.857    8.000    1.714 
#    0.000    0.000    0.000    0.000    0.000    0.000 
#    0.000    0.000    0.000    0.000    0.000    0.000 
#
# Total GULP energy -173494.621917 kJ/mol
# GULP energy per Si atom -12392.472994 kJ/mol
# Density = 2.488602 g / cm^3
# Si number density = 24.942791 Si / 1000 Ang^3
#
#
#
# Elastic Constant Matrix: (Units=GPa)
#
#
# Indices 1 2 3 4 5 6 
#
# 1 166.7421 46.9812 21.6049 -13.4197 1.3454 3.2137
# 2 46.9812 123.7619 20.3284 -1.2119 9.2566 -16.0503
# 3 21.6049 20.3284 82.3959 -0.2504 19.7487 1.0508
# 4 -13.4197 -1.2119 -0.2504 37.9162 -5.4054 7.1809
# 5 1.3454 9.2566 19.7487 -5.4054 30.8541 -8.0772
# 6 3.2137 -16.0503 1.0508 7.1809 -8.0772 29.9578
#
#
#
# Elastic Compliance Matrix: (Units=1/GPa)
#
#
# Indices 1 2 3 4 5 6 
#
# 1 0.007321 -0.002960 -0.001470 0.003195 0.001358 -0.002720
# 2 -0.002960 0.010317 -0.001713 -0.001992 -0.000589 0.006224
# 3 -0.001470 -0.001713 0.015529 -0.001251 -0.010591 -0.003861
# 4 0.003195 -0.001992 -0.001251 0.029443 0.004532 -0.007202
# 5 0.001358 -0.000589 -0.010591 0.004532 0.042815 0.010368
# 6 -0.002720 0.006224 -0.003861 -0.007202 0.010368 0.041663
#
#
# Mechanical properties :
#
#
# Convention : Reuss Voigt Hill
#
# Bulk Modulus (GPa) = 47.89656 61.19207 54.54431
# Shear Modulus (GPa) = 30.05979 38.67797 34.36888
#
# Velocity S-wave (km/s) = 3.47529 3.94212 3.71605
# Velocity P-wave (km/s) = 5.94540 6.73102 6.35037
#
# Compressibility (1/GPa) = 0.02087833
#
# Stress axis : x y z
#
# Youngs Moduli (GPa) = 136.60216 96.92772 64.39707
#
# Poissons Ratio (x) = 0.28695 0.09467
# Poissons Ratio (y) = 0.40440 0.11033
# Poissons Ratio (z) = 0.20083 0.16607
#
# Static dielectric constant tensor:
#      x y z
#    x 4.388770 -0.075420 -0.005330 
#    y -0.075420 4.562650 -0.292500 
#    z -0.005330 -0.292500 4.500840 
# 
# 
# High freq. dielectric constant tensor:
#      x y z
#    x 1.977100 -0.001470 -0.000370 
#    y -0.001470 2.000300 -0.016880 
#    z -0.000370 -0.016880 1.999860 
# 
# From -- ./inp_files/114189.got.cif
#   From: 2010.06.25/outbox.cif.g09.slc.cpg/sg2_58_cif.got.tgz:114189.got - 2010.06.27 13:26:56.
