data_PCOD8006644
_publ_section_title
;
Structure prediction by ZEFSAII (Michael W. Deem and Ramdas Pophale) SiO2 
 PCOD8006644
Probable space group: P -1
;
_chemical_formula_sum "Si O2"
_cell_formula_units_Z 16
_cell_length_a 9.123613
_cell_length_b 21.244580
_cell_length_c 24.542305
_cell_angle_alpha 161.209189
_cell_angle_beta 150.446941
_cell_angle_gamma 32.690325
_cell_volume 750.865466
_symmetry_space_group_name_H-M "P -1"
_symmetry_group_IT_number 2
_symmetry_cell_setting 'triclinic'
loop_
_space_group_symop_operation_xyz
x,y,z
-x,-y,-z
loop_
_atom_site_type_symbol
_atom_site_label
_atom_site_fract_x
_atom_site_fract_y
_atom_site_fract_z
Si Si1 0.367417 0.950494 0.302615
Si Si2 0.748872 0.613537 0.199367
Si Si3 0.185871 0.277955 0.040364
Si Si4 0.010153 0.712168 0.808272
Si Si5 0.838972 0.307273 0.281491
Si Si6 0.595047 0.067108 0.243450
Si Si7 0.086031 0.324851 0.578017
Si Si8 0.333656 0.989196 0.204464
O O1 0.645778 0.840178 0.336279
O O2 0.496436 0.968275 0.298011
O O3 0.306954 0.163233 0.485209
O O4 0.063262 0.840516 0.107420
O O5 0.756292 0.591432 0.249379
O O6 0.049262 0.507905 0.180169
O O7 0.500000 0.500000 0.000000
O O8 0.503077 0.300350 0.191478
O O9 0.261922 0.152897 0.907258
O O10 0.174984 0.721384 0.811473
O O11 0.961536 0.493553 0.632939
O O12 0.707690 0.863826 0.831554
O O13 0.238523 0.783301 0.984177
O O14 0.000000 0.500000 0.500000
O O15 0.033583 0.136093 0.236144
O O16 0.807923 0.230477 0.434589
O O17 0.547905 0.074621 0.299261
#
# Coordination Sequence:
#
# PCOD8006644 Si02
#       8
#     2   2   2   2   2   2   2   2
#     4  10  23  42  65  89 122 164 217 257 305 360
#     4  10  22  42  65  89 121 163 212 263 304 358
#     4  10  20  40  62  91 123 166 205 250 314 363
#     4  11  20  38  61  93 131 165 200 246 313 376
#     4  11  22  36  61  93 135 163 199 254 314 372
#     4  10  21  40  61  95 131 160 201 253 312 372
#     4  11  23  40  66  92 119 164 212 258 304 370
#     4  11  21  41  63  91 133 166 197 255 314 367
#
# _framework density 21.308743
#
# number of rings (size 3 to 8) (size 9 to 14) (size 15 to 20)
#    0.000    1.500    2.500    3.750    3.500    0.500 
#    6.750    1.250    5.500    0.000    0.000    0.000 
#    0.000    0.000    0.000    0.000    0.000    0.000 
#
# Total GULP energy -198210.650505 kJ/mol
# GULP energy per Si atom -12388.165657 kJ/mol
# Density = 2.126024 g / cm^3
# Si number density = 21.308743 Si / 1000 Ang^3
#
#
#
# Elastic Constant Matrix: (Units=GPa)
#
#
# Indices 1 2 3 4 5 6 
#
# 1 81.4974 50.6409 12.7571 15.9771 -13.0780 6.6611
# 2 50.6409 94.4322 12.0756 28.9056 -16.3875 -1.5902
# 3 12.7571 12.0756 72.9982 14.0909 -12.6056 -5.6926
# 4 15.9771 28.9056 14.0909 32.2596 -0.6562 -7.9246
# 5 -13.0780 -16.3875 -12.6056 -0.6562 36.4590 -1.9473
# 6 6.6611 -1.5902 -5.6926 -7.9246 -1.9473 32.1509
#
#
#
# Elastic Compliance Matrix: (Units=1/GPa)
#
#
# Indices 1 2 3 4 5 6 
#
# 1 0.019449 -0.009484 -0.001585 -0.001651 0.001865 -0.005073
# 2 -0.009484 0.021152 0.002214 -0.015067 0.006605 0.000089
# 3 -0.001585 0.002214 0.016283 -0.007753 0.006012 0.001774
# 4 -0.001651 -0.015067 -0.007753 0.051056 -0.008576 0.010289
# 5 0.001865 0.006605 0.006012 -0.008576 0.033037 0.000892
# 6 -0.005073 0.000089 0.001774 0.010289 0.000892 0.035063
#
#
# Mechanical properties :
#
#
# Convention : Reuss Voigt Hill
#
# Bulk Modulus (GPa) = 25.52683 44.43055 34.97869
# Shear Modulus (GPa) = 24.17718 31.73751 27.95735
#
# Velocity S-wave (km/s) = 3.37206 3.86348 3.62610
# Velocity P-wave (km/s) = 5.21215 6.38734 5.82943
#
# Compressibility (1/GPa) = 0.03917448
#
# Stress axis : x y z
#
# Youngs Moduli (GPa) = 51.41671 47.27744 61.41477
#
# Poissons Ratio (x) = 0.44836 0.09734
# Poissons Ratio (y) = 0.48762 -0.13598
# Poissons Ratio (z) = 0.08149 -0.10468
#
# Static dielectric constant tensor:
#      x y z
#    x 3.850830 -0.238270 -0.185970 
#    y -0.238270 4.691660 0.276660 
#    z -0.185970 0.276660 4.023750 
# 
# 
# High freq. dielectric constant tensor:
#      x y z
#    x 1.822250 -0.009700 -0.010740 
#    y -0.009700 1.826210 0.014220 
#    z -0.010740 0.014220 1.845990 
# 
# From -- ./inp_files/178776.got.cif
#   From: 2010.06.25/outbox.cif.g09.slc.cpg/sg2_90_cif.got.tgz:178776.got - 2010.06.27 13:26:56.
