data_PCOD8006409
_publ_section_title
;
Structure prediction by ZEFSAII (Michael W. Deem and Ramdas Pophale) SiO2 
 PCOD8006409
Probable space group: P -1
;
_chemical_formula_sum "Si O2"
_cell_formula_units_Z 14
_cell_length_a 10.291523
_cell_length_b 9.667673
_cell_length_c 7.079821
_cell_angle_alpha 71.934032
_cell_angle_beta 118.796541
_cell_angle_gamma 87.524986
_cell_volume 570.973562
_symmetry_space_group_name_H-M "P -1"
_symmetry_group_IT_number 2
_symmetry_cell_setting 'triclinic'
loop_
_space_group_symop_operation_xyz
x,y,z
-x,-y,-z
loop_
_atom_site_type_symbol
_atom_site_label
_atom_site_fract_x
_atom_site_fract_y
_atom_site_fract_z
Si Si1 0.669231 0.517230 0.571596
Si Si2 0.165476 0.393002 0.681809
Si Si3 0.254066 0.080270 0.712527
Si Si4 0.261381 0.245950 0.195583
Si Si5 0.797612 0.188327 0.818690
Si Si6 0.060009 0.030910 0.287412
Si Si7 0.447673 0.966177 0.254333
O O1 0.500000 0.500000 0.500000
O O2 0.702437 0.545389 0.361637
O O3 0.705408 0.654828 0.650972
O O4 0.787502 0.362196 0.774778
O O5 0.155948 0.235995 0.650811
O O6 0.000000 0.500000 0.500000
O O7 0.213268 0.366021 0.943492
O O8 0.122423 0.006525 0.558506
O O9 0.369362 0.093810 0.611664
O O10 0.366688 0.991485 0.983055
O O11 0.126640 0.162673 0.179703
O O12 0.413060 0.117034 0.294844
O O13 0.895493 0.126190 0.726767
O O14 0.628252 0.164372 0.665801
O O15 0.876825 0.091748 0.099934
#
# Coordination Sequence:
#
# PCOD8006409 Si02
#       7
#     2   2   2   2   2   2   2
#     4  12  26  43  67  99 136 174 216 273 335 387
#     4  11  24  42  67  98 131 173 222 265 327 403
#     4  10  20  39  69  91 124 174 227 259 326 389
#     4  10  23  42  69  92 130 174 222 264 326 394
#     4  10  23  38  58  97 130 160 219 272 322 379
#     4  10  21  40  66  89 126 175 214 269 322 385
#     4   9  21  41  65  94 124 169 223 276 310 396
#
# _framework density 24.519524000000001
#
# number of rings (size 3 to 8) (size 9 to 14) (size 15 to 20)
#    0.000    1.714    1.429    1.714    4.000    4.571 
#    2.571    0.000    0.000    0.000    0.000    0.000 
#    0.000    0.000    0.000    0.000    0.000    0.000 
#
# Total GULP energy -173524.133046 kJ/mol
# GULP energy per Si atom -12394.580932 kJ/mol
# Density = 2.446372 g / cm^3
# Si number density = 24.519524 Si / 1000 Ang^3
#
#
#
# Elastic Constant Matrix: (Units=GPa)
#
#
# Indices 1 2 3 4 5 6 
#
# 1 88.6983 16.8332 9.7309 4.4784 22.3328 11.1669
# 2 16.8332 116.4437 50.7690 -1.3206 15.4800 -17.3723
# 3 9.7309 50.7690 69.3392 2.5605 -1.7870 -15.4976
# 4 4.4784 -1.3206 2.5605 42.8578 -2.4623 4.6889
# 5 22.3328 15.4800 -1.7870 -2.4623 46.4594 0.3747
# 6 11.1669 -17.3723 -15.4976 4.6889 0.3747 28.4688
#
#
#
# Elastic Compliance Matrix: (Units=1/GPa)
#
#
# Indices 1 2 3 4 5 6 
#
# 1 0.014547 -0.000977 -0.003215 -0.000892 -0.006775 -0.007816
# 2 -0.000977 0.014008 -0.009402 0.000417 -0.004568 0.003804
# 3 -0.003215 -0.009402 0.023944 -0.002038 0.005420 0.008822
# 4 -0.000892 0.000417 -0.002038 0.024141 0.001527 -0.004501
# 5 -0.006775 -0.004568 0.005420 0.001527 0.026575 0.002219
# 6 -0.007816 0.003804 0.008822 -0.004501 0.002219 0.046028
#
#
# Mechanical properties :
#
#
# Convention : Reuss Voigt Hill
#
# Bulk Modulus (GPa) = 39.50804 47.68305 43.59555
# Shear Modulus (GPa) = 27.04636 36.70042 31.87339
#
# Velocity S-wave (km/s) = 3.32483 3.87303 3.60935
# Velocity P-wave (km/s) = 5.55762 6.28408 5.93198
#
# Compressibility (1/GPa) = 0.02531130
#
# Stress axis : x y z
#
# Youngs Moduli (GPa) = 68.74164 71.38827 41.76432
#
# Poissons Ratio (x) = 0.06973 0.13427
# Poissons Ratio (y) = 0.06714 0.39267
# Poissons Ratio (z) = 0.22100 0.67120
#
# Static dielectric constant tensor:
#      x y z
#    x 4.956010 -0.004470 -0.149760 
#    y -0.004470 4.327560 -0.020460 
#    z -0.149760 -0.020460 4.709540 
# 
# 
# High freq. dielectric constant tensor:
#      x y z
#    x 1.998610 -0.001770 -0.004900 
#    y -0.001770 1.964850 -0.000730 
#    z -0.004900 -0.000730 1.996520 
# 
# From -- ./inp_files/204458.got.cif
#   From: 2010.06.25/outbox.cif.g09.slc.cpg/sg2_103_cif.got.tgz:204458.got - 2010.06.27 13:26:56.
