data_PCOD8006934
_publ_section_title
;
Structure prediction by ZEFSAII (Michael W. Deem and Ramdas Pophale) SiO2 
 PCOD8006934
Probable space group: P -1
;
_chemical_formula_sum "Si O2"
_cell_formula_units_Z 16
_cell_length_a 8.119638
_cell_length_b 6.336897
_cell_length_c 14.427933
_cell_angle_alpha 111.997295
_cell_angle_beta 103.727572
_cell_angle_gamma 93.426922
_cell_volume 659.489690
_symmetry_space_group_name_H-M "P -1"
_symmetry_group_IT_number 2
_symmetry_cell_setting 'triclinic'
loop_
_space_group_symop_operation_xyz
x,y,z
-x,-y,-z
loop_
_atom_site_type_symbol
_atom_site_label
_atom_site_fract_x
_atom_site_fract_y
_atom_site_fract_z
Si Si1 0.296676 0.919141 0.875993
Si Si2 0.884127 0.568995 0.617860
Si Si3 0.808594 0.901403 0.929200
Si Si4 0.389089 0.583625 0.579292
Si Si5 0.970325 0.930717 0.258845
Si Si6 0.769702 0.417460 0.772226
Si Si7 0.230962 0.431051 0.710246
Si Si8 0.560618 0.028122 0.775332
O O1 0.296709 0.642766 0.825276
O O2 0.439604 0.056532 0.850570
O O3 0.109719 0.975679 0.828932
O O4 0.323739 0.017222 0.999961
O O5 0.799378 0.428315 0.494320
O O6 0.756711 0.507211 0.679983
O O7 0.062482 0.488097 0.646658
O O8 0.909496 0.845316 0.644124
O O9 0.799035 0.627403 0.882777
O O10 0.745143 0.978244 0.832435
O O11 0.000000 0.000000 0.000000
O O12 0.500000 0.500000 0.500000
O O13 0.371193 0.430055 0.646320
O O14 0.470712 0.839535 0.660669
O O15 0.810914 0.818246 0.286652
O O16 0.073332 0.723461 0.219167
O O17 0.593268 0.260641 0.756952
#
# Coordination Sequence:
#
# PCOD8006934 Si02
#       8
#     2   2   2   2   2   2   2   2
#     4  10  23  41  64  93 129 165 202 256 312 367
#     4  10  21  40  62  90 126 166 209 251 300 362
#     4  12  24  42  67  91 121 163 211 259 309 369
#     4  11  22  39  63  90 126 164 203 255 308 362
#     4  10  20  40  65  94 126 163 211 254 301 362
#     4  11  23  40  65  93 125 162 208 258 303 366
#     4   9  21  40  64  91 126 165 205 252 301 364
#     4  11  26  44  61  92 130 163 206 256 311 373
#
# _framework density 24.261181000000001
#
# number of rings (size 3 to 8) (size 9 to 14) (size 15 to 20)
#    0.000    1.500    0.000    6.000    0.000    7.500 
#    0.000    7.500    0.000    0.000    0.000    0.000 
#    0.000    0.000    0.000    0.000    0.000    0.000 
#
# Total GULP energy -198347.116568 kJ/mol
# GULP energy per Si atom -12396.694785 kJ/mol
# Density = 2.420596 g / cm^3
# Si number density = 24.261181 Si / 1000 Ang^3
#
#
#
# Elastic Constant Matrix: (Units=GPa)
#
#
# Indices 1 2 3 4 5 6 
#
# 1 29.3212 31.4460 29.9596 12.1708 -11.8471 20.0044
# 2 31.4460 160.9816 70.2301 12.0361 -2.7279 37.1571
# 3 29.9596 70.2301 157.2411 17.9241 -9.3447 14.3066
# 4 12.1708 12.0361 17.9241 24.0070 6.9923 4.0004
# 5 -11.8471 -2.7279 -9.3447 6.9923 42.3007 -5.8885
# 6 20.0044 37.1571 14.3066 4.0004 -5.8885 52.2632
#
#
#
# Elastic Compliance Matrix: (Units=1/GPa)
#
#
# Indices 1 2 3 4 5 6 
#
# 1 0.091550 -0.006412 -0.005964 -0.043146 0.027923 -0.022402
# 2 -0.006412 0.009506 -0.003089 0.002260 -0.002788 -0.003946
# 3 -0.005964 -0.003089 0.009042 -0.002834 0.000920 0.002324
# 4 -0.043146 0.002260 -0.002834 0.069935 -0.023048 0.007734
# 5 0.027923 -0.002788 0.000920 -0.023048 0.034839 -0.003268
# 6 -0.022402 -0.003946 0.002324 0.007734 -0.003268 0.028918
#
#
# Mechanical properties :
#
#
# Convention : Reuss Voigt Hill
#
# Bulk Modulus (GPa) = 12.63104 67.86837 40.24971
# Shear Modulus (GPa) = 16.60538 38.10807 27.35672
#
# Velocity S-wave (km/s) = 2.61902 3.96756 3.36161
# Velocity P-wave (km/s) = 3.78989 7.00168 5.62969
#
# Compressibility (1/GPa) = 0.07917002
#
# Stress axis : x y z
#
# Youngs Moduli (GPa) = 10.92302 105.19257 110.59896
#
# Poissons Ratio (x) = 0.67447 0.65957
# Poissons Ratio (y) = 0.07004 0.34159
# Poissons Ratio (z) = 0.06514 0.32489
#
# Static dielectric constant tensor:
#      x y z
#    x 4.917280 0.597070 -1.272040 
#    y 0.597070 4.645600 -1.165550 
#    z -1.272040 -1.165550 10.984560 
# 
# 
# High freq. dielectric constant tensor:
#      x y z
#    x 1.986040 0.016570 -0.000510 
#    y 0.016570 1.952220 -0.003420 
#    z -0.000510 -0.003420 1.959130 
# 
# From -- ./inp_files/138951.got.cif
#   From: 2010.06.25/outbox.cif.g09.slc.cpg/sg2_70_cif.got.tgz:138951.got - 2010.06.27 13:26:56.
