data_PCOD8006851
_publ_section_title
;
Structure prediction by ZEFSAII (Michael W. Deem and Ramdas Pophale) SiO2 
 PCOD8006851
Probable space group: P -1
;
_chemical_formula_sum "Si O2"
_cell_formula_units_Z 16
_cell_length_a 9.275986
_cell_length_b 5.184219
_cell_length_c 15.815424
_cell_angle_alpha 71.880445
_cell_angle_beta 100.795287
_cell_angle_gamma 94.427577
_cell_volume 709.889821
_symmetry_space_group_name_H-M "P -1"
_symmetry_group_IT_number 2
_symmetry_cell_setting 'triclinic'
loop_
_space_group_symop_operation_xyz
x,y,z
-x,-y,-z
loop_
_atom_site_type_symbol
_atom_site_label
_atom_site_fract_x
_atom_site_fract_y
_atom_site_fract_z
Si Si1 0.120647 0.632561 0.059731
Si Si2 0.274312 0.331569 0.811282
Si Si3 0.338986 0.062893 0.004316
Si Si4 0.384707 0.934494 0.735628
Si Si5 0.150382 0.221989 0.583205
Si Si6 0.022264 0.324186 0.388495
Si Si7 0.050328 0.742344 0.218477
Si Si8 0.294359 0.157057 0.187114
O O1 0.224159 0.819550 0.993556
O O2 0.033821 0.774740 0.111453
O O3 0.225819 0.451958 0.149181
O O4 0.000000 0.500000 0.000000
O O5 0.295136 0.648533 0.759075
O O6 0.116526 0.212868 0.773112
O O7 0.385687 0.120126 0.801943
O O8 0.292159 0.319799 0.916361
O O9 0.326734 0.110250 0.096867
O O10 0.500000 0.000000 0.000000
O O11 0.554232 0.863513 0.741947
O O12 0.313493 0.123272 0.636170
O O13 0.105730 0.486064 0.605595
O O14 0.149577 0.296501 0.476083
O O15 0.035808 0.973980 0.613404
O O16 0.092743 0.457778 0.297415
O O17 0.173963 0.959830 0.238016
#
# Coordination Sequence:
#
# PCOD8006851 Si02
#       8
#     2   2   2   2   2   2   2   2
#     4  11  25  41  63  89 131 175 220 269 317 383
#     4  12  25  39  69  93 122 173 220 267 314 385
#     4  11  23  40  58  89 123 166 220 265 318 373
#     4  12  24  42  65  98 130 164 216 267 327 381
#     4  10  20  40  65 102 124 162 210 275 316 380
#     4  10  21  38  69  96 130 159 216 264 322 380
#     4  11  24  41  62  96 127 172 214 267 323 389
#     4  11  26  40  61  91 135 173 211 272 330 381
#
# _framework density 22.538709000000001
#
# number of rings (size 3 to 8) (size 9 to 14) (size 15 to 20)
#    0.000    1.000    3.750    2.250    8.750    3.000 
#    0.000    0.625    0.000    0.750    0.000    0.000 
#    0.000    0.000    0.000    0.000    0.000    0.000 
#
# Total GULP energy -198217.332617 kJ/mol
# GULP energy per Si atom -12388.583289 kJ/mol
# Density = 2.248741 g / cm^3
# Si number density = 22.538709 Si / 1000 Ang^3
#
#
#
# Elastic Constant Matrix: (Units=GPa)
#
#
# Indices 1 2 3 4 5 6 
#
# 1 94.6952 9.6895 13.7264 -9.9587 25.5218 15.4708
# 2 9.6895 74.4989 -4.7248 -10.4178 -1.3320 3.7283
# 3 13.7264 -4.7248 93.3873 -13.4360 20.5136 12.5790
# 4 -9.9587 -10.4178 -13.4360 30.5126 0.2055 5.2493
# 5 25.5218 -1.3320 20.5136 0.2055 41.9716 -3.2745
# 6 15.4708 3.7283 12.5790 5.2493 -3.2745 23.5217
#
#
#
# Elastic Compliance Matrix: (Units=1/GPa)
#
#
# Indices 1 2 3 4 5 6 
#
# 1 0.018286 0.000269 0.004937 0.011676 -0.015096 -0.019417
# 2 0.000269 0.014904 0.002976 0.007538 -0.001654 -0.006044
# 3 0.004937 0.002976 0.017247 0.013354 -0.012784 -0.017702
# 4 0.011676 0.007538 0.013354 0.050210 -0.015930 -0.029439
# 5 -0.015096 -0.001654 -0.012784 -0.015930 0.041333 0.026336
# 6 -0.019417 -0.006044 -0.017702 -0.029439 0.026336 0.075946
#
#
# Mechanical properties :
#
#
# Convention : Reuss Voigt Hill
#
# Bulk Modulus (GPa) = 14.96956 33.32929 24.14942
# Shear Modulus (GPa) = 22.33877 35.46054 28.89965
#
# Velocity S-wave (km/s) = 3.15164 3.97081 3.58470
# Velocity P-wave (km/s) = 4.46093 5.98688 5.27933
#
# Compressibility (1/GPa) = 0.06680224
#
# Stress axis : x y z
#
# Youngs Moduli (GPa) = 54.68754 67.09739 57.98217
#
# Poissons Ratio (x) = -0.01808 -0.28627
# Poissons Ratio (y) = -0.01474 -0.17257
# Poissons Ratio (z) = -0.27001 -0.19970
#
# Static dielectric constant tensor:
#      x y z
#    x 3.888710 0.133300 0.125470 
#    y 0.133300 3.861500 -0.105130 
#    z 0.125470 -0.105130 4.482070 
# 
# 
# High freq. dielectric constant tensor:
#      x y z
#    x 1.871330 0.001170 0.020290 
#    y 0.001170 1.883140 -0.009330 
#    z 0.020290 -0.009330 1.897020 
# 
# From -- ./inp_files/43262.got.cif
#   From: 2010.06.25/outbox.cif.g09.slc.cpg/sg2_22_cif.got.tgz:43262.got - 2010.06.27 13:26:56.
