data_PCOD8006177
_publ_section_title
;
Structure prediction by ZEFSAII (Michael W. Deem and Ramdas Pophale) SiO2 
 PCOD8006177
Probable space group: P -1
;
_chemical_formula_sum "Si O2"
_cell_formula_units_Z 16
_cell_length_a 18.323284
_cell_length_b 15.331886
_cell_length_c 24.146680
_cell_angle_alpha 160.315553
_cell_angle_beta 19.373994
_cell_angle_gamma 150.763287
_cell_volume 750.541306
_symmetry_space_group_name_H-M "P -1"
_symmetry_group_IT_number 2
_symmetry_cell_setting 'triclinic'
loop_
_space_group_symop_operation_xyz
x,y,z
-x,-y,-z
loop_
_atom_site_type_symbol
_atom_site_label
_atom_site_fract_x
_atom_site_fract_y
_atom_site_fract_z
Si Si1 0.679250 0.310873 0.032222
Si Si2 0.414234 0.709606 0.107479
Si Si3 0.879205 0.258382 0.213534
Si Si4 0.364362 0.281702 0.599158
Si Si5 0.249483 0.741142 0.368913
Si Si6 0.186086 0.262538 0.371633
Si Si7 0.649417 0.721953 0.513994
Si Si8 0.083814 0.562839 0.166975
O O1 0.705327 0.463106 0.161709
O O2 0.421039 0.295455 0.196023
O O3 0.768735 0.476357 0.017518
O O4 0.808236 0.017251 0.768690
O O5 0.317630 0.690384 0.226177
O O6 0.218661 0.698397 0.197079
O O7 0.498350 0.991038 0.206810
O O8 0.619330 0.476379 0.814309
O O9 0.625375 0.229700 0.366327
O O10 0.892682 0.510426 0.392581
O O11 0.016836 0.293244 0.079193
O O12 0.000000 0.000000 0.000000
O O13 0.240884 0.327834 0.655757
O O14 0.298472 0.025911 0.524099
O O15 0.986334 0.723488 0.548022
O O16 0.500000 0.500000 0.500000
O O17 0.846058 0.730228 0.422506
#
# Coordination Sequence:
#
# PCOD8006177 Si02
#       8
#     2   2   2   2   2   2   2   2
#     4  10  24  41  64  95 130 173 212 257 318 387
#     4  10  22  36  61  94 124 156 212 266 319 373
#     4  11  23  39  66  94 126 166 213 266 320 378
#     4  10  22  42  60  93 132 165 211 258 320 383
#     4  10  20  39  66  89 121 169 213 260 318 374
#     4  10  22  41  65  91 124 176 214 254 318 384
#     4  11  23  36  62  97 128 157 210 275 317 363
#     4  12  23  40  65  95 127 166 213 268 318 374
#
# _framework density 21.317948000000001
#
# number of rings (size 3 to 8) (size 9 to 14) (size 15 to 20)
#    0.000    1.500    2.500    2.625    5.250    3.000 
#    0.000    6.250    0.000    0.000    0.000    0.000 
#    0.000    0.000    0.000    0.000    0.000    0.000 
#
# Total GULP energy -198336.752840 kJ/mol
# GULP energy per Si atom -12396.047053 kJ/mol
# Density = 2.126943 g / cm^3
# Si number density = 21.317948 Si / 1000 Ang^3
#
#
#
# Elastic Constant Matrix: (Units=GPa)
#
#
# Indices 1 2 3 4 5 6 
#
# 1 92.0096 54.7775 49.4758 15.3295 -18.1958 6.5066
# 2 54.7775 121.9396 60.1310 15.7451 -18.1686 1.8333
# 3 49.4758 60.1310 108.5932 25.2995 -15.3204 -0.7371
# 4 15.3295 15.7451 25.2995 35.8405 -0.4990 -0.4014
# 5 -18.1958 -18.1686 -15.3204 -0.4990 25.4399 -1.9166
# 6 6.5066 1.8333 -0.7371 -0.4014 -1.9166 43.9249
#
#
#
# Elastic Compliance Matrix: (Units=1/GPa)
#
#
# Indices 1 2 3 4 5 6 
#
# 1 0.017669 -0.004611 -0.003933 -0.002686 0.006756 -0.002221
# 2 -0.004611 0.013071 -0.004551 -0.000509 0.003301 0.000200
# 3 -0.003933 -0.004551 0.015712 -0.007350 0.003338 0.001115
# 4 -0.002686 -0.000509 -0.007350 0.034383 -0.006011 0.000348
# 5 0.006756 0.003301 0.003338 -0.006011 0.048464 0.000977
# 6 -0.002221 0.000200 0.001115 0.000348 0.000977 0.023151
#
#
# Mechanical properties :
#
#
# Convention : Reuss Voigt Hill
#
# Bulk Modulus (GPa) = 49.35518 72.36790 60.86154
# Shear Modulus (GPa) = 26.96952 31.58493 29.27723
#
# Velocity S-wave (km/s) = 3.56070 3.85335 3.70991
# Velocity P-wave (km/s) = 6.33300 7.33610 6.85293
#
# Compressibility (1/GPa) = 0.02026130
#
# Stress axis : x y z
#
# Youngs Moduli (GPa) = 56.59593 76.50501 63.64688
#
# Poissons Ratio (x) = 0.35276 0.25033
# Poissons Ratio (y) = 0.26096 0.28968
# Poissons Ratio (z) = 0.22259 0.34820
#
# Static dielectric constant tensor:
#      x y z
#    x 3.907270 0.145420 -0.288810 
#    y 0.145420 4.106490 -0.005050 
#    z -0.288810 -0.005050 3.771090 
# 
# 
# High freq. dielectric constant tensor:
#      x y z
#    x 1.828390 0.019120 -0.020430 
#    y 0.019120 1.848610 0.005990 
#    z -0.020430 0.005990 1.816780 
# 
# From -- ./inp_files/383360.got.cif
#   From: 2010.06.25/outbox.cif.g09.slc.cpg/sg2_192_cif.got.tgz:383360.got - 2010.06.27 13:26:56.
