data_PCOD8006513
_publ_section_title
;
Structure prediction by ZEFSAII (Michael W. Deem and Ramdas Pophale) SiO2 
 PCOD8006513
Probable space group: P -1
;
_chemical_formula_sum "Si O2"
_cell_formula_units_Z 16
_cell_length_a 8.886546
_cell_length_b 9.471195
_cell_length_c 11.871998
_cell_angle_alpha 68.615388
_cell_angle_beta 98.023092
_cell_angle_gamma 130.509143
_cell_volume 700.696986
_symmetry_space_group_name_H-M "P -1"
_symmetry_group_IT_number 2
_symmetry_cell_setting 'triclinic'
loop_
_space_group_symop_operation_xyz
x,y,z
-x,-y,-z
loop_
_atom_site_type_symbol
_atom_site_label
_atom_site_fract_x
_atom_site_fract_y
_atom_site_fract_z
Si Si1 0.947273 0.836670 0.707983
Si Si2 0.264292 0.061851 0.191545
Si Si3 0.927403 0.375479 0.736324
Si Si4 0.696904 0.740429 0.326836
Si Si5 0.641341 0.698326 0.081292
Si Si6 0.798234 0.453768 0.909692
Si Si7 0.753900 0.549011 0.571350
Si Si8 0.299126 0.608275 0.843233
O O1 0.805209 0.869870 0.738875
O O2 0.954400 0.686337 0.824371
O O3 0.861410 0.745829 0.601770
O O4 0.173590 0.043804 0.663498
O O5 0.495084 0.165008 0.211037
O O6 0.130271 0.825771 0.257046
O O7 0.239270 0.119940 0.048050
O O8 0.811616 0.326862 0.857212
O O9 0.875369 0.469885 0.610972
O O10 0.165764 0.538838 0.738145
O O11 0.756328 0.773241 0.191617
O O12 0.746924 0.608844 0.426447
O O13 0.465837 0.628668 0.352749
O O14 0.421868 0.618836 0.101102
O O15 0.634134 0.521721 0.086395
O O16 0.830971 0.419318 0.052737
#
# Coordination Sequence:
#
# PCOD8006513 Si02
#       8
#     2   2   2   2   2   2   2   2
#     4  11  20  39  67  92 116 163 216 251 295 374
#     4  11  23  38  64  96 131 156 205 251 310 387
#     4  11  24  38  59  95 129 159 205 257 316 362
#     4  11  22  39  72  85 118 169 215 258 300 353
#     4  11  20  40  65  94 124 168 205 249 308 370
#     4  10  20  40  59  90 132 159 205 252 299 375
#     4  10  24  46  59  93 124 159 219 262 296 364
#     4  11  21  38  61  89 134 168 188 255 316 362
#
# _framework density 22.834403999999999
#
# number of rings (size 3 to 8) (size 9 to 14) (size 15 to 20)
#    0.000    1.250    5.000    2.250    1.750    5.000 
#    0.000    2.500    0.000    4.500    0.000    0.000 
#    0.000    0.000    0.000    0.000    0.000    0.000 
#
# Total GULP energy -198433.372870 kJ/mol
# GULP energy per Si atom -12402.085804 kJ/mol
# Density = 2.278243 g / cm^3
# Si number density = 22.834404 Si / 1000 Ang^3
#
#
#
# Elastic Constant Matrix: (Units=GPa)
#
#
# Indices 1 2 3 4 5 6 
#
# 1 43.8496 11.2690 15.3638 5.9256 19.4665 -0.9924
# 2 11.2690 100.8420 21.6800 4.5394 3.1614 10.4175
# 3 15.3638 21.6800 76.0896 8.9665 21.9543 -2.4973
# 4 5.9256 4.5394 8.9665 16.9929 -2.5795 5.5330
# 5 19.4665 3.1614 21.9543 -2.5795 38.4199 4.3898
# 6 -0.9924 10.4175 -2.4973 5.5330 4.3898 35.9403
#
#
#
# Elastic Compliance Matrix: (Units=1/GPa)
#
#
# Indices 1 2 3 4 5 6 
#
# 1 0.034711 -0.003708 0.002384 -0.017954 -0.020705 0.007492
# 2 -0.003708 0.011449 -0.004103 0.002492 0.003971 -0.004575
# 3 0.002384 -0.004103 0.019739 -0.014382 -0.013862 0.006534
# 4 -0.017954 0.002492 -0.014382 0.081558 0.024618 -0.017780
# 5 -0.020705 0.003971 -0.013862 0.024618 0.047164 -0.012237
# 6 0.007492 -0.004575 0.006534 -0.017780 -0.012237 0.034043
#
#
# Mechanical properties :
#
#
# Convention : Reuss Voigt Hill
#
# Bulk Modulus (GPa) = 18.16737 35.26743 26.71740
# Shear Modulus (GPa) = 19.38985 29.76850 24.57917
#
# Velocity S-wave (km/s) = 2.91718 3.61455 3.28443
# Velocity P-wave (km/s) = 4.39545 5.73571 5.10972
#
# Compressibility (1/GPa) = 0.05504373
#
# Stress axis : x y z
#
# Youngs Moduli (GPa) = 28.80957 87.34470 50.66102
#
# Poissons Ratio (x) = 0.32387 -0.12075
# Poissons Ratio (y) = 0.10682 0.20787
# Poissons Ratio (z) = -0.06867 0.35838
#
# Static dielectric constant tensor:
#      x y z
#    x 4.088360 0.092150 0.079340 
#    y 0.092150 4.057950 0.145990 
#    z 0.079340 0.145990 4.157190 
# 
# 
# High freq. dielectric constant tensor:
#      x y z
#    x 1.908250 0.011500 0.004230 
#    y 0.011500 1.895220 0.011650 
#    z 0.004230 0.011650 1.890360 
# 
# From -- ./inp_files/382002.got.cif
#   From: 2010.06.25/outbox.cif.g09.slc.cpg/sg2_192_cif.got.tgz:382002.got - 2010.06.27 13:26:56.
