data_PCOD8006584
_publ_section_title
;
Structure prediction by ZEFSAII (Michael W. Deem and Ramdas Pophale) SiO2 
 PCOD8006584
Probable space group: P -1
;
_chemical_formula_sum "Si O2"
_cell_formula_units_Z 16
_cell_length_a 14.614367
_cell_length_b 7.561738
_cell_length_c 15.927763
_cell_angle_alpha 83.764884
_cell_angle_beta 33.602965
_cell_angle_gamma 104.640281
_cell_volume 756.844675
_symmetry_space_group_name_H-M "P -1"
_symmetry_group_IT_number 2
_symmetry_cell_setting 'triclinic'
loop_
_space_group_symop_operation_xyz
x,y,z
-x,-y,-z
loop_
_atom_site_type_symbol
_atom_site_label
_atom_site_fract_x
_atom_site_fract_y
_atom_site_fract_z
Si Si1 0.241351 0.440964 0.535311
Si Si2 0.839902 0.963088 0.883845
Si Si3 0.875727 0.353525 0.521055
Si Si4 0.466257 0.930745 0.933570
Si Si5 0.188655 0.419863 0.146084
Si Si6 0.114121 0.805021 0.906314
Si Si7 0.047974 0.545875 0.818058
Si Si8 0.720750 0.752208 0.166123
O O1 0.207769 0.531847 0.471691
O O2 0.201970 0.533672 0.642913
O O3 0.479833 0.526930 0.351321
O O4 0.086802 0.167177 0.665729
O O5 0.753356 0.750641 0.898117
O O6 0.818977 0.888295 0.998288
O O7 0.720285 0.068948 0.957523
O O8 0.000000 0.500000 0.500000
O O9 0.028699 0.334901 0.349729
O O10 0.678328 0.099163 0.710190
O O11 0.396765 0.678581 0.989958
O O12 0.500000 0.000000 0.000000
O O13 0.082531 0.402718 0.140427
O O14 0.122473 0.690099 0.989662
O O15 0.864798 0.688860 0.092650
O O16 0.186587 0.746813 0.770708
O O17 0.266370 0.076484 0.785969
#
# Coordination Sequence:
#
# PCOD8006584 Si02
#       8
#     2   2   2   2   2   2   2   2
#     4  11  23  40  66  92 131 173 209 270 326 377
#     4  12  23  44  65  97 134 167 219 265 322 392
#     4  11  22  44  67  97 129 167 214 264 324 388
#     4  12  23  44  72  93 131 172 207 269 329 383
#     4  11  24  42  69  96 130 173 214 267 322 386
#     4  10  21  39  63  89 129 169 220 270 312 388
#     4  10  20  40  61  91 128 169 214 267 320 372
#     4  11  22  39  64  91 125 176 215 265 327 373
#
# _framework density 21.140398999999999
#
# number of rings (size 3 to 8) (size 9 to 14) (size 15 to 20)
#    0.000    1.000    7.500    0.000    0.000    2.500 
#    0.000    2.500    0.000    0.000    0.000    0.000 
#    0.000    0.000    0.000    0.000    0.000    0.000 
#
# Total GULP energy -198425.049555 kJ/mol
# GULP energy per Si atom -12401.565597 kJ/mol
# Density = 2.109228 g / cm^3
# Si number density = 21.140399 Si / 1000 Ang^3
#
#
#
# Elastic Constant Matrix: (Units=GPa)
#
#
# Indices 1 2 3 4 5 6 
#
# 1 56.6010 21.6472 27.7012 4.2021 11.5253 19.8326
# 2 21.6472 134.1733 42.3803 -17.9300 4.7581 4.3766
# 3 27.7012 42.3803 131.2573 -31.4580 6.5965 9.7899
# 4 4.2021 -17.9300 -31.4580 30.9445 6.2290 3.3202
# 5 11.5253 4.7581 6.5965 6.2290 31.3828 4.1754
# 6 19.8326 4.3766 9.7899 3.3202 4.1754 27.9788
#
#
#
# Elastic Compliance Matrix: (Units=1/GPa)
#
#
# Indices 1 2 3 4 5 6 
#
# 1 0.029197 -0.003385 -0.005758 -0.009014 -0.005037 -0.016331
# 2 -0.003385 0.008965 -0.001098 0.004621 -0.000932 0.000972
# 3 -0.005758 -0.001098 0.012769 0.013876 -0.002968 -0.001418
# 4 -0.009014 0.004621 0.013876 0.052811 -0.010267 -0.003924
# 5 -0.005037 -0.000932 -0.002968 -0.010267 0.036446 0.000534
# 6 -0.016331 0.000972 -0.001418 -0.003924 0.000534 0.048047
#
#
# Mechanical properties :
#
#
# Convention : Reuss Voigt Hill
#
# Bulk Modulus (GPa) = 32.84262 56.16543 44.50403
# Shear Modulus (GPa) = 22.84470 33.41474 28.12972
#
# Velocity S-wave (km/s) = 3.29084 3.98000 3.65172
# Velocity P-wave (km/s) = 5.47802 6.90985 6.23517
#
# Compressibility (1/GPa) = 0.03044824
#
# Stress axis : x y z
#
# Youngs Moduli (GPa) = 34.24973 111.54543 78.31406
#
# Poissons Ratio (x) = 0.37759 0.45094
# Poissons Ratio (y) = 0.11594 0.08602
# Poissons Ratio (z) = 0.19721 0.12253
#
# Static dielectric constant tensor:
#      x y z
#    x 3.712220 0.126360 0.177030 
#    y 0.126360 4.005130 -0.010210 
#    z 0.177030 -0.010210 3.736200 
# 
# 
# High freq. dielectric constant tensor:
#      x y z
#    x 1.830880 0.012080 0.015610 
#    y 0.012080 1.835960 -0.003380 
#    z 0.015610 -0.003380 1.814760 
# 
# From -- ./inp_files/294130.got.cif
#   From: 2010.06.25/outbox.cif.g09.slc.cpg/sg2_148_cif.got.tgz:294130.got - 2010.06.27 13:26:56.
