data_PCOD8006196
_publ_section_title
;
Structure prediction by ZEFSAII (Michael W. Deem and Ramdas Pophale) SiO2 
 PCOD8006196
Probable space group: P -1
;
_chemical_formula_sum "Si O2"
_cell_formula_units_Z 16
_cell_length_a 23.924434
_cell_length_b 8.896982
_cell_length_c 20.628388
_cell_angle_alpha 150.474299
_cell_angle_beta 20.303437
_cell_angle_gamma 139.355012
_cell_volume 707.422404
_symmetry_space_group_name_H-M "P -1"
_symmetry_group_IT_number 2
_symmetry_cell_setting 'triclinic'
loop_
_space_group_symop_operation_xyz
x,y,z
-x,-y,-z
loop_
_atom_site_type_symbol
_atom_site_label
_atom_site_fract_x
_atom_site_fract_y
_atom_site_fract_z
Si Si1 0.956281 0.906211 0.823884
Si Si2 0.651199 0.127855 0.151571
Si Si3 0.320708 0.995990 0.170372
Si Si4 0.823895 0.724405 0.701421
Si Si5 0.434344 0.168440 0.522826
Si Si6 0.735455 0.623799 0.035819
Si Si7 0.000596 0.235491 0.699278
Si Si8 0.065287 0.172040 0.934113
O O1 0.103998 0.668261 0.527776
O O2 0.884981 0.642692 0.833910
O O3 0.012276 0.095404 0.891486
O O4 0.810327 0.153572 0.031566
O O5 0.501242 0.095790 0.348402
O O6 0.597490 0.451613 0.287467
O O7 0.703441 0.818503 0.931109
O O8 0.286990 0.150505 0.194516
O O9 0.163609 0.192806 0.460937
O O10 0.342085 0.621897 0.005964
O O11 0.500000 0.000000 0.000000
O O12 0.969840 0.896355 0.617030
O O13 0.270825 0.056543 0.667842
O O14 0.582318 0.968399 0.337340
O O15 0.823505 0.491633 0.958705
O O16 0.019239 0.434436 0.817967
O O17 0.000000 0.000000 0.000000
#
# Coordination Sequence:
#
# PCOD8006196 Si02
#       8
#     2   2   2   2   2   2   2   2
#     4  11  22  41  68  93 133 172 222 272 318 395
#     4  10  23  46  65  91 129 187 225 260 319 391
#     4  11  23  39  66 102 137 161 216 286 333 384
#     4  11  20  44  69  93 128 181 224 260 329 404
#     4  10  24  43  62  94 140 164 226 273 315 384
#     4  10  20  39  66  90 133 176 208 269 339 379
#     4  11  21  43  65  99 134 173 214 269 336 402
#     4  12  24  41  67 103 133 167 217 277 341 381
#
# _framework density 22.617321
#
# number of rings (size 3 to 8) (size 9 to 14) (size 15 to 20)
#    0.000    1.250    5.000    1.125    3.500    1.000 
#    6.750    0.625    0.000    0.000    0.000    0.000 
#    0.000    0.000    0.000    0.000    0.000    0.000 
#
# Total GULP energy -198296.716695 kJ/mol
# GULP energy per Si atom -12393.544793 kJ/mol
# Density = 2.256584 g / cm^3
# Si number density = 22.617321 Si / 1000 Ang^3
#
#
#
# Elastic Constant Matrix: (Units=GPa)
#
#
# Indices 1 2 3 4 5 6 
#
# 1 80.8148 19.7509 68.1097 2.8760 25.4197 25.0104
# 2 19.7509 65.7978 38.4759 -9.0677 4.9566 17.9118
# 3 68.1097 38.4759 124.0890 0.2027 10.2559 10.5418
# 4 2.8760 -9.0677 0.2027 47.8960 -0.8970 6.7382
# 5 25.4197 4.9566 10.2559 -0.8970 39.9009 2.0907
# 6 25.0104 17.9118 10.5418 6.7382 2.0907 34.1320
#
#
#
# Elastic Compliance Matrix: (Units=1/GPa)
#
#
# Indices 1 2 3 4 5 6 
#
# 1 0.048938 0.011709 -0.025667 0.003619 -0.024207 -0.033308
# 2 0.011709 0.025399 -0.012168 0.006724 -0.006335 -0.019090
# 3 -0.025667 -0.012168 0.023511 -0.003177 0.010811 0.017896
# 4 0.003619 0.006724 -0.003177 0.023291 -0.001292 -0.009718
# 5 -0.024207 -0.006335 0.010811 -0.001292 0.037642 0.015673
# 6 -0.033308 -0.019090 0.017896 -0.009718 0.015673 0.059154
#
#
# Mechanical properties :
#
#
# Convention : Reuss Voigt Hill
#
# Bulk Modulus (GPa) = 21.93179 58.15273 40.04226
# Shear Modulus (GPa) = 17.52025 34.01013 25.76519
#
# Velocity S-wave (km/s) = 2.78625 3.88199 3.37884
# Velocity P-wave (km/s) = 4.47983 6.77204 5.74149
#
# Compressibility (1/GPa) = 0.04559591
#
# Stress axis : x y z
#
# Youngs Moduli (GPa) = 20.43418 39.37136 42.53375
#
# Poissons Ratio (x) = -0.46098 1.09170
# Poissons Ratio (y) = -0.23926 0.51754
# Poissons Ratio (z) = 0.52448 0.47906
#
# Static dielectric constant tensor:
#      x y z
#    x 4.084830 -0.007230 0.196530 
#    y -0.007230 3.986360 0.056520 
#    z 0.196530 0.056520 4.278580 
# 
# 
# High freq. dielectric constant tensor:
#      x y z
#    x 1.884180 -0.008510 0.016380 
#    y -0.008510 1.874270 0.005180 
#    z 0.016380 0.005180 1.905940 
# 
# From -- ./inp_files/312504.got.cif
#   From: 2010.06.25/outbox.cif.g09.slc.cpg/sg2_157_cif.got.tgz:312504.got - 2010.06.27 13:26:56.
