data_PCOD8006890
_publ_section_title
;
Structure prediction by ZEFSAII (Michael W. Deem and Ramdas Pophale) SiO2 
 PCOD8006890
Probable space group: P -1
;
_chemical_formula_sum "Si O2"
_cell_formula_units_Z 14
_cell_length_a 18.388303
_cell_length_b 12.695727
_cell_length_c 9.271013
_cell_angle_alpha 145.916921
_cell_angle_beta 147.649681
_cell_angle_gamma 39.010420
_cell_volume 627.043741
_symmetry_space_group_name_H-M "P -1"
_symmetry_group_IT_number 2
_symmetry_cell_setting 'triclinic'
loop_
_space_group_symop_operation_xyz
x,y,z
-x,-y,-z
loop_
_atom_site_type_symbol
_atom_site_label
_atom_site_fract_x
_atom_site_fract_y
_atom_site_fract_z
Si Si1 0.834920 0.098690 0.048305
Si Si2 0.805971 0.472008 0.894359
Si Si3 0.867526 0.838099 0.333650
Si Si4 0.942897 0.822222 0.145059
Si Si5 0.531802 0.549316 0.341440
Si Si6 0.744834 0.208308 0.712489
Si Si7 0.476239 0.785082 0.244850
O O1 0.964256 0.192239 0.402978
O O2 0.864438 0.885567 0.931970
O O3 0.826283 0.091434 0.852753
O O4 0.685904 0.217946 0.998561
O O5 0.663991 0.464380 0.567179
O O6 0.814579 0.374350 0.956032
O O7 0.934273 0.369395 0.890026
O O8 0.815155 0.691215 0.183111
O O9 0.839655 0.789221 0.063230
O O10 0.769340 0.051271 0.446405
O O11 0.000000 0.000000 0.500000
O O12 0.416259 0.691174 0.409431
O O13 0.564712 0.682490 0.415911
O O14 0.479110 0.362395 0.983211
O O15 0.500000 0.000000 0.500000
#
# Coordination Sequence:
#
# PCOD8006890 Si02
#       7
#     2   2   2   2   2   2   2
#     4  10  22  44  66  92 134 166 216 273 317 376
#     4  12  24  40  68  95 130 173 217 261 328 384
#     4  11  24  40  66 100 126 173 217 262 329 381
#     4  10  20  40  65  90 124 167 210 268 317 366
#     4  10  24  43  62  98 131 166 217 268 315 387
#     4  11  24  43  62  92 139 173 210 270 321 376
#     4  10  23  43  71  93 125 173 214 265 324 378
#
# _framework density 22.326989000000001
#
# number of rings (size 3 to 8) (size 9 to 14) (size 15 to 20)
#    0.000    1.429    2.857    3.000    2.000    3.429 
#    5.143    0.000    0.000    0.000    0.000    0.000 
#    0.000    0.000    0.000    0.000    0.000    0.000 
#
# Total GULP energy -173467.731264 kJ/mol
# GULP energy per Si atom -12390.552233 kJ/mol
# Density = 2.227617 g / cm^3
# Si number density = 22.326989 Si / 1000 Ang^3
#
#
#
# Elastic Constant Matrix: (Units=GPa)
#
#
# Indices 1 2 3 4 5 6 
#
# 1 128.7742 61.2332 36.4574 -1.5820 -13.6128 9.6398
# 2 61.2332 126.2482 36.1397 1.5149 -6.6991 14.3256
# 3 36.4574 36.1397 53.9279 3.9897 5.7012 7.7369
# 4 -1.5820 1.5149 3.9897 31.4823 13.3444 7.0011
# 5 -13.6128 -6.6991 5.7012 13.3444 19.4830 0.9110
# 6 9.6398 14.3256 7.7369 7.0011 0.9110 45.7057
#
#
#
# Elastic Compliance Matrix: (Units=1/GPa)
#
#
# Indices 1 2 3 4 5 6 
#
# 1 0.012703 -0.003351 -0.007368 -0.003430 0.012234 -0.000100
# 2 -0.003351 0.011610 -0.005605 -0.001462 0.004379 -0.001847
# 3 -0.007368 -0.005605 0.029195 0.004531 -0.018630 -0.001954
# 4 -0.003430 -0.001462 0.004531 0.048104 -0.036882 -0.006219
# 5 0.012234 0.004379 -0.018630 -0.036882 0.091952 0.003018
# 6 -0.000100 -0.001847 -0.001954 -0.006219 0.003018 0.023702
#
#
# Mechanical properties :
#
#
# Convention : Reuss Voigt Hill
#
# Bulk Modulus (GPa) = 47.93505 64.06787 56.00146
# Shear Modulus (GPa) = 19.46540 31.00887 25.23714
#
# Velocity S-wave (km/s) = 2.95588 3.73077 3.36570
# Velocity P-wave (km/s) = 5.75898 6.87865 6.34356
#
# Compressibility (1/GPa) = 0.02086156
#
# Stress axis : x y z
#
# Youngs Moduli (GPa) = 78.72017 86.13281 34.25246
#
# Poissons Ratio (x) = 0.28860 0.25236
# Poissons Ratio (y) = 0.26376 0.19199
# Poissons Ratio (z) = 0.57998 0.48278
#
# Static dielectric constant tensor:
#      x y z
#    x 4.488120 0.385230 -0.200950 
#    y 0.385230 4.378370 -0.139390 
#    z -0.200950 -0.139390 3.612900 
# 
# 
# High freq. dielectric constant tensor:
#      x y z
#    x 1.891330 0.008730 -0.008130 
#    y 0.008730 1.900590 -0.001350 
#    z -0.008130 -0.001350 1.834450 
# 
# From -- ./inp_files/333954.got.cif
#   From: 2010.06.25/outbox.cif.g09.slc.cpg/sg2_167_cif.got.tgz:333954.got - 2010.06.27 13:26:56.
