data_PCOD8006202
_publ_section_title
;
Structure prediction by ZEFSAII (Michael W. Deem and Ramdas Pophale) SiO2 
 PCOD8006202
Probable space group: P -1
;
_chemical_formula_sum "Si O2"
_cell_formula_units_Z 16
_cell_length_a 12.905395
_cell_length_b 11.275978
_cell_length_c 6.990260
_cell_angle_alpha 89.980745
_cell_angle_beta 130.861060
_cell_angle_gamma 83.591359
_cell_volume 760.870589
_symmetry_space_group_name_H-M "P -1"
_symmetry_group_IT_number 2
_symmetry_cell_setting 'triclinic'
loop_
_space_group_symop_operation_xyz
x,y,z
-x,-y,-z
loop_
_atom_site_type_symbol
_atom_site_label
_atom_site_fract_x
_atom_site_fract_y
_atom_site_fract_z
Si Si1 0.290828 0.305936 0.827063
Si Si2 0.641252 0.132828 0.053908
Si Si3 0.651157 0.921118 0.335362
Si Si4 0.075910 0.960795 0.786729
Si Si5 0.432861 0.625919 0.833055
Si Si6 0.093766 0.390536 0.926905
Si Si7 0.207456 0.498303 0.407948
Si Si8 0.906137 0.850600 0.876774
O O1 0.293632 0.167685 0.773476
O O2 0.166926 0.341794 0.822347
O O3 0.272725 0.382842 0.609471
O O4 0.437289 0.321504 0.107366
O O5 0.765988 0.096775 0.057419
O O6 0.631593 0.274555 0.088632
O O7 0.659544 0.055728 0.272837
O O8 0.501594 0.101585 0.785524
O O9 0.745937 0.896757 0.635771
O O10 0.001127 0.862902 0.806384
O O11 0.000000 0.000000 0.500000
O O12 0.056017 0.078419 0.892834
O O13 0.308605 0.600865 0.541923
O O14 0.500000 0.500000 0.000000
O O15 0.944042 0.458562 0.685226
O O16 0.188692 0.471774 0.159717
O O17 0.068604 0.288244 0.044875
#
# Coordination Sequence:
#
# PCOD8006202 Si02
#       8
#     2   2   2   2   2   2   2   2
#     4  10  20  41  64  88 123 166 204 258 320 358
#     4  10  21  39  67  92 121 169 205 253 321 369
#     4  10  20  39  66  92 122 158 211 257 306 383
#     4  11  24  41  63  93 128 168 200 253 323 372
#     4   9  21  40  64  89 123 163 208 257 305 369
#     4  11  23  37  62  93 121 166 210 259 310 361
#     4  10  22  40  59  89 126 162 216 258 299 376
#     4  11  24  40  62  93 130 160 212 260 306 377
#
# _framework density 21.028544
#
# number of rings (size 3 to 8) (size 9 to 14) (size 15 to 20)
#    0.000    1.750    2.500    1.125    1.750    1.000 
#    9.000    1.250    0.000    0.000    0.000    0.000 
#    0.000    0.000    0.000    0.000    0.000    0.000 
#
# Total GULP energy -198355.737953 kJ/mol
# GULP energy per Si atom -12397.233622 kJ/mol
# Density = 2.098068 g / cm^3
# Si number density = 21.028544 Si / 1000 Ang^3
#
#
#
# Elastic Constant Matrix: (Units=GPa)
#
#
# Indices 1 2 3 4 5 6 
#
# 1 101.6694 21.0975 33.9684 2.6896 8.9012 -17.5724
# 2 21.0975 86.7616 22.0778 4.2448 3.0356 -1.0655
# 3 33.9684 22.0778 96.8316 11.1390 14.5764 6.3735
# 4 2.6896 4.2448 11.1390 25.4847 1.8864 4.7834
# 5 8.9012 3.0356 14.5764 1.8864 30.5769 2.4199
# 6 -17.5724 -1.0655 6.3735 4.7834 2.4199 28.2366
#
#
#
# Elastic Compliance Matrix: (Units=1/GPa)
#
#
# Indices 1 2 3 4 5 6 
#
# 1 0.013680 -0.001925 -0.004561 -0.000797 -0.002344 0.009806
# 2 -0.001925 0.012568 -0.002132 -0.000967 0.000397 -0.000113
# 3 -0.004561 -0.002132 0.013864 -0.003957 -0.004430 -0.004998
# 4 -0.000797 -0.000967 -0.003957 0.042490 0.000135 -0.006849
# 5 -0.002344 0.000397 -0.004430 0.000135 0.035730 -0.003529
# 6 0.009806 -0.000113 -0.004998 -0.006849 -0.003529 0.044104
#
#
# Mechanical properties :
#
#
# Convention : Reuss Voigt Hill
#
# Bulk Modulus (GPa) = 43.70961 48.83889 46.27425
# Shear Modulus (GPa) = 26.69543 30.73423 28.71483
#
# Velocity S-wave (km/s) = 3.56685 3.82717 3.69930
# Velocity P-wave (km/s) = 6.14770 6.54256 6.34820
#
# Compressibility (1/GPa) = 0.02287826
#
# Stress axis : x y z
#
# Youngs Moduli (GPa) = 73.09772 79.56550 72.12702
#
# Poissons Ratio (x) = 0.15312 0.32899
# Poissons Ratio (y) = 0.14068 0.15375
# Poissons Ratio (z) = 0.33341 0.16961
#
# Static dielectric constant tensor:
#      x y z
#    x 3.827720 0.069690 0.458910 
#    y 0.069690 3.972430 0.156770 
#    z 0.458910 0.156770 3.838770 
# 
# 
# High freq. dielectric constant tensor:
#      x y z
#    x 1.816940 -0.005110 0.029790 
#    y -0.005110 1.832860 0.008030 
#    z 0.029790 0.008030 1.817130 
# 
# From -- ./inp_files/70285.got.cif
#   From: 2010.06.25/outbox.cif.g09.slc.cpg/sg2_36_cif.got.tgz:70285.got - 2010.06.27 13:26:56.
