data_PCOD8006557
_publ_section_title
;
Structure prediction by ZEFSAII (Michael W. Deem and Ramdas Pophale) SiO2 
 PCOD8006557
Probable space group: P -1
;
_chemical_formula_sum "Si O2"
_cell_formula_units_Z 16
_cell_length_a 8.321084
_cell_length_b 14.236425
_cell_length_c 7.846454
_cell_angle_alpha 111.709888
_cell_angle_beta 124.780288
_cell_angle_gamma 87.649434
_cell_volume 691.472913
_symmetry_space_group_name_H-M "P -1"
_symmetry_group_IT_number 2
_symmetry_cell_setting 'triclinic'
loop_
_space_group_symop_operation_xyz
x,y,z
-x,-y,-z
loop_
_atom_site_type_symbol
_atom_site_label
_atom_site_fract_x
_atom_site_fract_y
_atom_site_fract_z
Si Si1 0.967994 0.985202 0.669807
Si Si2 0.386148 0.511739 0.610961
Si Si3 0.003664 0.649953 0.811260
Si Si4 0.832234 0.793423 0.024382
Si Si5 0.216832 0.830080 0.831246
Si Si6 0.382569 0.177837 0.746150
Si Si7 0.393889 0.630279 0.189581
Si Si8 0.596453 0.281394 0.383046
O O1 0.131106 0.931688 0.822531
O O2 0.741396 0.916950 0.508954
O O3 0.006723 0.099812 0.854469
O O4 0.000000 0.000000 0.500000
O O5 0.500000 0.500000 0.500000
O O6 0.509240 0.470668 0.809244
O O7 0.388352 0.633773 0.708003
O O8 0.161029 0.443882 0.426550
O O9 0.196391 0.602126 0.934757
O O10 0.931162 0.696848 0.973348
O O11 0.051866 0.742084 0.765171
O O12 0.766238 0.792673 0.181299
O O13 0.632985 0.782002 0.779468
O O14 0.260260 0.792615 0.641332
O O15 0.425754 0.857060 0.080629
O O16 0.444051 0.275348 0.726064
O O17 0.327517 0.663606 0.357690
#
# Coordination Sequence:
#
# PCOD8006557 Si02
#       8
#     2   2   2   2   2   2   2   2
#     4  10  22  38  64  87 117 156 202 238 295 350
#     4  10  20  40  61  87 122 152 197 244 294 345
#     4  11  22  40  61  91 120 155 197 241 293 354
#     4  10  21  40  60  86 120 156 197 241 296 344
#     4  10  23  42  60  88 124 151 196 249 290 349
#     4   9  21  41  59  87 119 156 195 244 293 347
#     4  10  21  39  63  87 119 156 196 243 291 351
#     4  10  22  40  64  84 120 161 192 245 302 338
#
# _framework density 23.139009999999999
#
# number of rings (size 3 to 8) (size 9 to 14) (size 15 to 20)
#    0.000    2.000    2.500    0.750    3.500    7.500 
#    0.000    6.875    0.000    0.000    0.000    0.000 
#    0.000    0.000    0.000    0.000    0.000    0.000 
#
# Total GULP energy -198347.751265 kJ/mol
# GULP energy per Si atom -12396.734454 kJ/mol
# Density = 2.308634 g / cm^3
# Si number density = 23.139010 Si / 1000 Ang^3
#
#
#
# Elastic Constant Matrix: (Units=GPa)
#
#
# Indices 1 2 3 4 5 6 
#
# 1 53.6890 7.6500 15.0476 0.4607 20.2786 11.8949
# 2 7.6500 78.6960 13.2933 -17.2114 14.4428 8.3987
# 3 15.0476 13.2933 56.6913 -1.2571 20.6420 2.4680
# 4 0.4607 -17.2114 -1.2571 34.7149 3.0806 2.0536
# 5 20.2786 14.4428 20.6420 3.0806 34.5710 2.4961
# 6 11.8949 8.3987 2.4680 2.0536 2.4961 25.7768
#
#
#
# Elastic Compliance Matrix: (Units=1/GPa)
#
#
# Indices 1 2 3 4 5 6 
#
# 1 0.027135 0.002322 -0.001586 0.002796 -0.015333 -0.011864
# 2 0.002322 0.016909 -0.001135 0.009413 -0.008123 -0.006436
# 3 -0.001586 -0.001135 0.022861 0.001384 -0.012369 0.000000
# 4 0.002796 0.009413 0.001384 0.034664 -0.009027 -0.006377
# 5 -0.015333 -0.008123 -0.012369 -0.009027 0.049006 0.006880
# 6 -0.011864 -0.006436 0.000000 -0.006377 0.006880 0.046208
#
#
# Mechanical properties :
#
#
# Convention : Reuss Voigt Hill
#
# Bulk Modulus (GPa) = 15.12676 29.00644 22.06660
# Shear Modulus (GPa) = 22.76682 29.21822 25.99252
#
# Velocity S-wave (km/s) = 3.14015 3.55734 3.35523
# Velocity P-wave (km/s) = 4.43834 5.42548 4.95655
#
# Compressibility (1/GPa) = 0.06610801
#
# Stress axis : x y z
#
# Youngs Moduli (GPa) = 36.85250 59.13865 43.74306
#
# Poissons Ratio (x) = -0.13730 0.06936
# Poissons Ratio (y) = -0.08556 0.04964
# Poissons Ratio (z) = 0.05843 0.06711
#
# Static dielectric constant tensor:
#      x y z
#    x 4.093210 0.109410 0.165450 
#    y 0.109410 4.769250 0.298390 
#    z 0.165450 0.298390 4.286000 
# 
# 
# High freq. dielectric constant tensor:
#      x y z
#    x 1.907780 0.009390 0.010770 
#    y 0.009390 1.909510 0.004100 
#    z 0.010770 0.004100 1.912890 
# 
# From -- ./inp_files/203402.got.cif
#   From: 2010.06.25/outbox.cif.g09.slc.cpg/sg2_102_cif.got.tgz:203402.got - 2010.06.27 13:26:56.
