data_PCOD8006158
_publ_section_title
;
Structure prediction by ZEFSAII (Michael W. Deem and Ramdas Pophale) SiO2 
 PCOD8006158
Probable space group: P -1
;
_chemical_formula_sum "Si O2"
_cell_formula_units_Z 16
_cell_length_a 8.939133
_cell_length_b 8.957777
_cell_length_c 12.409713
_cell_angle_alpha 63.677606
_cell_angle_beta 114.091050
_cell_angle_gamma 122.095994
_cell_volume 734.792512
_symmetry_space_group_name_H-M "P -1"
_symmetry_group_IT_number 2
_symmetry_cell_setting 'triclinic'
loop_
_space_group_symop_operation_xyz
x,y,z
-x,-y,-z
loop_
_atom_site_type_symbol
_atom_site_label
_atom_site_fract_x
_atom_site_fract_y
_atom_site_fract_z
Si Si1 0.713489 0.578226 0.017152
Si Si2 0.696626 0.918081 0.818865
Si Si3 0.653344 0.708053 0.453926
Si Si4 0.425132 0.040360 0.822184
Si Si5 0.058366 0.686310 0.193641
Si Si6 0.737077 0.272670 0.980146
Si Si7 0.469572 0.179654 0.424038
Si Si8 0.835099 0.482867 0.528246
O O1 0.837555 0.587045 0.156423
O O2 0.500000 0.500000 0.000000
O O3 0.779503 0.790994 0.938458
O O4 0.763411 0.466816 0.975323
O O5 0.601823 0.808934 0.718156
O O6 0.544200 0.946271 0.833559
O O7 0.868452 0.114182 0.791230
O O8 0.500000 0.500000 0.500000
O O9 0.614796 0.830006 0.313979
O O10 0.683617 0.823504 0.536037
O O11 0.830262 0.681736 0.476953
O O12 0.532623 0.176898 0.906141
O O13 0.250460 0.868168 0.878305
O O14 0.121615 0.696471 0.084566
O O15 0.143772 0.576840 0.325181
O O16 0.657770 0.347845 0.455816
O O17 0.500000 0.000000 0.500000
O O18 0.000000 0.500000 0.500000
#
# Coordination Sequence:
#
# PCOD8006158 Si02
#       8
#     2   2   2   2   2   2   2   2
#     4  12  26  41  69 101 127 178 232 276 336 399
#     4  11  22  41  69 100 136 176 220 279 335 401
#     4  10  21  40  68 101 131 181 223 269 337 400
#     4  10  20  39  66 100 141 169 224 277 336 399
#     4  11  25  48  64  95 142 172 224 281 342 394
#     4  10  22  41  65  96 132 181 219 279 333 395
#     4  11  20  41  72  97 131 177 221 266 337 404
#     4  11  26  44  67  99 137 175 221 284 332 396
#
# _framework density 21.774854000000001
#
# number of rings (size 3 to 8) (size 9 to 14) (size 15 to 20)
#    0.000    1.250    3.750    3.000    7.000    0.000 
#    2.250    0.625    0.000    0.000    0.000    0.000 
#    0.000    0.000    0.000    0.000    0.000    0.000 
#
# Total GULP energy -198235.370170 kJ/mol
# GULP energy per Si atom -12389.710636 kJ/mol
# Density = 2.172529 g / cm^3
# Si number density = 21.774854 Si / 1000 Ang^3
#
#
#
# Elastic Constant Matrix: (Units=GPa)
#
#
# Indices 1 2 3 4 5 6 
#
# 1 103.9105 54.0581 33.9000 5.8330 0.9157 -14.2592
# 2 54.0581 106.5064 53.9316 8.4104 12.0618 -23.4399
# 3 33.9000 53.9316 119.8547 1.0868 2.9579 -12.8785
# 4 5.8330 8.4104 1.0868 46.3373 0.2145 10.0417
# 5 0.9157 12.0618 2.9579 0.2145 32.4735 -1.3569
# 6 -14.2592 -23.4399 -12.8785 10.0417 -1.3569 41.7666
#
#
#
# Elastic Compliance Matrix: (Units=1/GPa)
#
#
# Indices 1 2 3 4 5 6 
#
# 1 0.013340 -0.006279 -0.000884 -0.000746 0.002084 0.001005
# 2 -0.006279 0.017692 -0.005273 -0.003763 -0.005602 0.006882
# 3 -0.000884 -0.005273 0.010929 0.000820 0.000980 -0.000057
# 4 -0.000746 -0.003763 0.000820 0.024039 0.000856 -0.007865
# 5 0.002084 -0.005602 0.000980 0.000856 0.032668 -0.001275
# 6 0.001005 0.006882 -0.000057 -0.007865 -0.001275 0.029980
#
#
# Mechanical properties :
#
#
# Convention : Reuss Voigt Hill
#
# Bulk Modulus (GPa) = 58.52094 68.22789 63.37441
# Shear Modulus (GPa) = 31.40348 36.67428 34.03888
#
# Velocity S-wave (km/s) = 3.80174 4.10841 3.95805
# Velocity P-wave (km/s) = 6.79741 7.34212 7.07501
#
# Compressibility (1/GPa) = 0.01708790
#
# Stress axis : x y z
#
# Youngs Moduli (GPa) = 74.96155 56.52134 91.50179
#
# Poissons Ratio (x) = 0.35489 0.08093
# Poissons Ratio (y) = 0.47067 0.48252
# Poissons Ratio (z) = 0.06630 0.29806
#
# Static dielectric constant tensor:
#      x y z
#    x 3.932830 0.043470 0.063880 
#    y 0.043470 3.737380 -0.167390 
#    z 0.063880 -0.167390 3.974810 
# 
# 
# High freq. dielectric constant tensor:
#      x y z
#    x 1.843660 -0.021240 0.001340 
#    y -0.021240 1.863500 -0.000870 
#    z 0.001340 -0.000870 1.859690 
# 
# From -- ./inp_files/272215.got.cif
#   From: 2010.06.25/outbox.cif.g09.slc.cpg/sg2_137_cif.got.tgz:272215.got - 2010.06.27 13:26:56.
