data_PCOD8006379
_publ_section_title
;
Structure prediction by ZEFSAII (Michael W. Deem and Ramdas Pophale) SiO2 
 PCOD8006379
Probable space group: P -1
;
_chemical_formula_sum "Si O2"
_cell_formula_units_Z 16
_cell_length_a 9.454483
_cell_length_b 11.892956
_cell_length_c 17.849083
_cell_angle_alpha 133.380182
_cell_angle_beta 149.207576
_cell_angle_gamma 54.856811
_cell_volume 746.192234
_symmetry_space_group_name_H-M "P -1"
_symmetry_group_IT_number 2
_symmetry_cell_setting 'triclinic'
loop_
_space_group_symop_operation_xyz
x,y,z
-x,-y,-z
loop_
_atom_site_type_symbol
_atom_site_label
_atom_site_fract_x
_atom_site_fract_y
_atom_site_fract_z
Si Si1 0.460780 0.662784 0.513374
Si Si2 0.634887 0.813734 0.909070
Si Si3 0.092563 0.176808 0.117674
Si Si4 0.036795 0.138947 0.638795
Si Si5 0.910838 0.006785 0.250351
Si Si6 0.337373 0.564169 0.749967
Si Si7 0.441848 0.655403 0.003505
Si Si8 0.765965 0.696600 0.517849
O O1 0.500000 0.500000 0.500000
O O2 0.649109 0.797178 0.698380
O O3 0.147137 0.716879 0.402853
O O4 0.527579 0.667530 0.457572
O O5 0.820382 0.781202 0.907294
O O6 0.377775 0.920826 0.822208
O O7 0.509322 0.649209 0.801701
O O8 0.840902 0.886163 0.097794
O O9 0.862142 0.291730 0.092264
O O10 0.000000 0.000000 0.000000
O O11 0.351536 0.204457 0.813542
O O12 0.000000 0.000000 0.500000
O O13 0.955341 0.075723 0.655383
O O14 0.143947 0.126796 0.378609
O O15 0.334848 0.382638 0.643098
O O16 0.023779 0.613385 0.632941
O O17 0.480763 0.611842 0.914512
O O18 0.500000 0.500000 0.000000
#
# Coordination Sequence:
#
# PCOD8006379 Si02
#       8
#     2   2   2   2   2   2   2   2
#     4  12  25  45  69 101 137 178 232 279 333 406
#     4  10  20  39  68  97 129 180 221 277 330 409
#     4  12  24  43  72 100 130 175 233 274 332 406
#     4  12  27  44  67 103 141 179 220 286 350 394
#     4  10  21  40  66  96 138 171 224 275 343 400
#     4  10  21  42  67  94 131 178 227 264 338 399
#     4  12  26  46  67 100 139 179 222 282 339 404
#     4  10  22  39  69  96 127 179 226 275 323 404
#
# _framework density 21.442194000000001
#
# number of rings (size 3 to 8) (size 9 to 14) (size 15 to 20)
#    0.000    1.000    2.500    4.500    3.500    1.500 
#    2.250    1.250    0.000    0.000    0.000    0.000 
#    0.000    0.000    0.000    0.000    0.000    0.000 
#
# Total GULP energy -198409.833771 kJ/mol
# GULP energy per Si atom -12400.614611 kJ/mol
# Density = 2.139339 g / cm^3
# Si number density = 21.442194 Si / 1000 Ang^3
#
#
#
# Elastic Constant Matrix: (Units=GPa)
#
#
# Indices 1 2 3 4 5 6 
#
# 1 120.9335 25.2707 33.9783 -4.4711 -6.0539 2.8673
# 2 25.2707 83.7183 19.9882 -3.1971 -8.2967 6.9884
# 3 33.9783 19.9882 111.4674 9.0765 -17.9350 -8.4746
# 4 -4.4711 -3.1971 9.0765 31.4934 0.8828 -5.8660
# 5 -6.0539 -8.2967 -17.9350 0.8828 35.6251 3.1787
# 6 2.8673 6.9884 -8.4746 -5.8660 3.1787 15.5268
#
#
#
# Elastic Compliance Matrix: (Units=1/GPa)
#
#
# Indices 1 2 3 4 5 6 
#
# 1 0.009588 -0.002018 -0.002856 0.001656 -0.000162 -0.001762
# 2 -0.002018 0.013927 -0.002064 0.000266 0.002518 -0.007438
# 3 -0.002856 -0.002064 0.011609 -0.003015 0.004440 0.005744
# 4 0.001656 0.000266 -0.003015 0.035179 -0.003104 0.011855
# 5 -0.000162 0.002518 0.004440 -0.003104 0.031504 -0.006302
# 6 -0.001762 -0.007438 0.005744 0.011855 -0.006302 0.076982
#
#
# Mechanical properties :
#
#
# Convention : Reuss Voigt Hill
#
# Bulk Modulus (GPa) = 47.06325 52.73261 49.89793
# Shear Modulus (GPa) = 25.03168 32.32119 28.67644
#
# Velocity S-wave (km/s) = 3.42043 3.88669 3.66099
# Velocity P-wave (km/s) = 6.13153 6.69239 6.41809
#
# Compressibility (1/GPa) = 0.02124800
#
# Stress axis : x y z
#
# Youngs Moduli (GPa) = 104.29773 71.80066 86.14342
#
# Poissons Ratio (x) = 0.14490 0.24600
# Poissons Ratio (y) = 0.21048 0.17782
# Poissons Ratio (z) = 0.29784 0.14821
#
# Static dielectric constant tensor:
#      x y z
#    x 3.891360 -0.007920 -0.142640 
#    y -0.007920 3.815710 0.195220 
#    z -0.142640 0.195220 4.243030 
# 
# 
# High freq. dielectric constant tensor:
#      x y z
#    x 1.847810 0.005800 -0.005840 
#    y 0.005800 1.828570 0.016570 
#    z -0.005840 0.016570 1.856430 
# 
# From -- ./inp_files/559974.got.cif
#   From: 2010.06.25/outbox.cif.g09.slc.cpg/sg2_280_cif.got.tgz:559974.got - 2010.06.27 13:26:56.
