data_PCOD8006503
_publ_section_title
;
Structure prediction by ZEFSAII (Michael W. Deem and Ramdas Pophale) SiO2 
 PCOD8006503
Probable space group: P -1
;
_chemical_formula_sum "Si O2"
_cell_formula_units_Z 14
_cell_length_a 7.720635
_cell_length_b 19.895586
_cell_length_c 5.295134
_cell_angle_alpha 125.314391
_cell_angle_beta 74.888030
_cell_angle_gamma 130.199419
_cell_volume 498.624484
_symmetry_space_group_name_H-M "P -1"
_symmetry_group_IT_number 2
_symmetry_cell_setting 'triclinic'
loop_
_space_group_symop_operation_xyz
x,y,z
-x,-y,-z
loop_
_atom_site_type_symbol
_atom_site_label
_atom_site_fract_x
_atom_site_fract_y
_atom_site_fract_z
Si Si1 0.767958 0.703484 0.900620
Si Si2 0.414086 0.161734 0.559589
Si Si3 0.707983 0.736149 0.500297
Si Si4 0.991636 0.601056 0.435650
Si Si5 0.830719 0.054288 0.645281
Si Si6 0.244329 0.626606 0.890972
Si Si7 0.751181 0.110599 0.293676
O O1 0.586305 0.666039 0.651775
O O2 0.931173 0.675175 0.709108
O O3 0.644448 0.655688 0.116647
O O4 0.914796 0.831426 0.199364
O O5 0.348394 0.183462 0.359280
O O6 0.635906 0.166619 0.469756
O O7 0.191822 0.051584 0.530686
O O8 0.495814 0.262990 0.921391
O O9 0.971992 0.799968 0.635137
O O10 0.773110 0.476574 0.272510
O O11 0.182065 0.626858 0.624016
O O12 0.085787 0.625404 0.165607
O O13 0.699512 0.039829 0.405309
O O14 0.673807 0.042904 0.915345
#
# Coordination Sequence:
#
# PCOD8006503 Si02
#       7
#     2   2   2   2   2   2   2
#     4  10  20  40  59  84 121 163 198 241 297 352
#     4  12  24  40  62  92 124 152 202 252 290 358
#     4  10  24  38  60  89 120 161 200 240 299 350
#     4  10  20  41  64  87 121 158 199 245 294 361
#     4  10  22  37  62  89 119 160 199 241 300 351
#     4  10  22  36  63  94 117 157 200 243 303 348
#     4  10  22  40  58  85 122 165 196 238 299 352
#
# _framework density 28.077244
#
# number of rings (size 3 to 8) (size 9 to 14) (size 15 to 20)
#    0.000    1.714    0.000    5.143    0.000    9.143 
#    0.000    1.429    0.000    0.000    0.000    0.000 
#    0.000    0.000    0.000    0.000    0.000    0.000 
#
# Total GULP energy -173441.908024 kJ/mol
# GULP energy per Si atom -12388.707716 kJ/mol
# Density = 2.801334 g / cm^3
# Si number density = 28.077244 Si / 1000 Ang^3
#
#
#
# Elastic Constant Matrix: (Units=GPa)
#
#
# Indices 1 2 3 4 5 6 
#
# 1 71.2894 21.3822 20.6322 9.6663 20.9942 -12.0317
# 2 21.3822 115.7854 67.2854 -6.3866 11.1462 -11.6060
# 3 20.6322 67.2854 166.2874 -25.1411 3.2268 -6.7608
# 4 9.6663 -6.3866 -25.1411 80.2772 -3.7608 9.2554
# 5 20.9942 11.1462 3.2268 -3.7608 37.1256 -7.3053
# 6 -12.0317 -11.6060 -6.7608 9.2554 -7.3053 47.1970
#
#
#
# Elastic Compliance Matrix: (Units=1/GPa)
#
#
# Indices 1 2 3 4 5 6 
#
# 1 0.019053 -0.001182 -0.002145 -0.003928 -0.009944 0.003490
# 2 -0.001182 0.011917 -0.004663 -0.000676 -0.002229 0.001749
# 3 -0.002145 -0.004663 0.008512 0.002728 0.002012 -0.000698
# 4 -0.003928 -0.000676 0.002728 0.014229 0.003019 -0.003100
# 5 -0.009944 -0.002229 0.002012 0.003019 0.033719 0.001832
# 6 0.003490 0.001749 -0.000698 -0.003100 0.001832 0.023299
#
#
# Mechanical properties :
#
#
# Convention : Reuss Voigt Hill
#
# Bulk Modulus (GPa) = 42.54949 63.55132 53.05040
# Shear Modulus (GPa) = 37.16266 49.19081 43.17673
#
# Velocity S-wave (km/s) = 3.64206 4.19021 3.92571
# Velocity P-wave (km/s) = 5.73354 6.78926 6.28361
#
# Compressibility (1/GPa) = 0.02350204
#
# Stress axis : x y z
#
# Youngs Moduli (GPa) = 52.48616 83.91033 117.48402
#
# Poissons Ratio (x) = 0.09914 0.25199
# Poissons Ratio (y) = 0.06202 0.54788
# Poissons Ratio (z) = 0.11258 0.39131
#
# Static dielectric constant tensor:
#      x y z
#    x 4.985400 0.110080 -0.044360 
#    y 0.110080 5.787670 -0.468590 
#    z -0.044360 -0.468590 5.561650 
# 
# 
# High freq. dielectric constant tensor:
#      x y z
#    x 2.163770 0.007340 -0.011400 
#    y 0.007340 2.146280 -0.022360 
#    z -0.011400 -0.022360 2.146830 
# 
# From -- ./inp_files/45835.got.cif
#   From: 2010.06.25/outbox.cif.g09.slc.cpg/sg2_23_cif.got.tgz:45835.got - 2010.06.27 13:26:56.
