data_PCOD8006067
_publ_section_title
;
Structure prediction by ZEFSAII (Michael W. Deem and Ramdas Pophale) SiO2 
 PCOD8006067
Probable space group: P -1
;
_chemical_formula_sum "Si O2"
_cell_formula_units_Z 14
_cell_length_a 14.460956
_cell_length_b 14.400062
_cell_length_c 7.094143
_cell_angle_alpha 134.325360
_cell_angle_beta 38.587454
_cell_angle_gamma 147.542747
_cell_volume 491.083527
_symmetry_space_group_name_H-M "P -1"
_symmetry_group_IT_number 2
_symmetry_cell_setting 'triclinic'
loop_
_space_group_symop_operation_xyz
x,y,z
-x,-y,-z
loop_
_atom_site_type_symbol
_atom_site_label
_atom_site_fract_x
_atom_site_fract_y
_atom_site_fract_z
Si Si1 0.842986 0.418038 0.889088
Si Si2 0.669537 0.689211 0.904003
Si Si3 0.379330 0.075022 0.586299
Si Si4 0.776288 0.224877 0.341973
Si Si5 0.213651 0.069665 0.271680
Si Si6 0.486368 0.382583 0.513442
Si Si7 0.904292 0.196982 0.652603
O O1 0.754238 0.299436 0.673821
O O2 0.938902 0.370177 0.815979
O O3 0.006292 0.622110 0.870583
O O4 0.677498 0.402249 0.239753
O O5 0.653838 0.798437 0.925555
O O6 0.493868 0.479652 0.833377
O O7 0.888151 0.754787 0.660331
O O8 0.631893 0.776432 0.250813
O O9 0.608115 0.169932 0.382580
O O10 0.255601 0.947367 0.789947
O O11 0.278501 0.940633 0.387517
O O12 0.295570 0.182668 0.494811
O O13 0.180108 0.894736 0.133911
O O14 0.000000 0.000000 0.500000
O O15 0.500000 0.500000 0.500000
#
# Coordination Sequence:
#
# PCOD8006067 Si02
#       7
#     2   2   2   2   2   2   2
#     4  10  21  39  60  89 125 156 204 255 305 365
#     4  10  21  39  61  89 123 160 201 249 308 366
#     4  10  20  39  65  89 120 157 209 254 298 362
#     4   9  20  38  63  89 117 162 202 251 310 360
#     4   9  20  39  61  86 120 158 201 244 302 365
#     4  10  21  38  61  88 120 161 202 246 303 367
#     4  10  22  38  58  90 123 161 204 255 303 354
#
# _framework density 28.508391
#
# number of rings (size 3 to 8) (size 9 to 14) (size 15 to 20)
#    0.000    2.286    0.000    2.143    0.000    8.000 
#    0.000    8.571    0.000    0.000    0.000    0.000 
#    0.000    0.000    0.000    0.000    0.000    0.000 
#
# Total GULP energy -173489.671944 kJ/mol
# GULP energy per Si atom -12392.119425 kJ/mol
# Density = 2.844350 g / cm^3
# Si number density = 28.508391 Si / 1000 Ang^3
#
#
#
# Elastic Constant Matrix: (Units=GPa)
#
#
# Indices 1 2 3 4 5 6 
#
# 1 125.9754 48.7049 43.5845 13.1340 -17.7192 -6.6366
# 2 48.7049 169.3985 50.3767 43.2905 -15.1545 11.5243
# 3 43.5845 50.3767 130.1275 23.5378 -24.7517 2.7474
# 4 13.1340 43.2905 23.5378 56.0568 -7.5459 -10.9637
# 5 -17.7192 -15.1545 -24.7517 -7.5459 53.6350 1.8951
# 6 -6.6366 11.5243 2.7474 -10.9637 1.8951 53.9310
#
#
#
# Elastic Compliance Matrix: (Units=1/GPa)
#
#
# Indices 1 2 3 4 5 6 
#
# 1 0.009898 -0.002449 -0.002315 0.001158 0.001600 0.002038
# 2 -0.002449 0.008893 -0.001340 -0.006362 0.000312 -0.003438
# 3 -0.002315 -0.001340 0.010049 -0.002431 0.003192 -0.001117
# 4 0.001158 -0.006362 -0.002431 0.024903 0.000731 0.006663
# 5 0.001600 0.000312 0.003192 0.000731 0.020859 -0.000617
# 6 0.002038 -0.003438 -0.001117 0.006663 -0.000617 0.020961
#
#
# Mechanical properties :
#
#
# Convention : Reuss Voigt Hill
#
# Bulk Modulus (GPa) = 60.12396 78.98154 69.55275
# Shear Modulus (GPa) = 44.12469 51.58025 47.85247
#
# Velocity S-wave (km/s) = 3.93845 4.25820 4.10144
# Velocity P-wave (km/s) = 6.46665 7.20702 6.84685
#
# Compressibility (1/GPa) = 0.01663230
#
# Stress axis : x y z
#
# Youngs Moduli (GPa) = 101.03541 112.44272 99.50831
#
# Poissons Ratio (x) = 0.27534 0.23038
# Poissons Ratio (y) = 0.24741 0.13335
# Poissons Ratio (z) = 0.23392 0.15069
#
# Static dielectric constant tensor:
#      x y z
#    x 7.265770 -1.123300 0.720810 
#    y -1.123300 6.153420 0.627750 
#    z 0.720810 0.627750 5.296930 
# 
# 
# High freq. dielectric constant tensor:
#      x y z
#    x 2.202720 -0.029250 0.028750 
#    y -0.029250 2.199340 0.040920 
#    z 0.028750 0.040920 2.172240 
# 
# From -- ./inp_files/316053.got.cif
#   From: 2010.06.25/outbox.cif.g09.slc.cpg/sg2_159_cif.got.tgz:316053.got - 2010.06.27 13:26:56.
