data_PCOD8006210
_publ_section_title
;
Structure prediction by ZEFSAII (Michael W. Deem and Ramdas Pophale) SiO2 
 PCOD8006210
Probable space group: P -1
;
_chemical_formula_sum "Si O2"
_cell_formula_units_Z 16
_cell_length_a 5.143621
_cell_length_b 8.533290
_cell_length_c 19.302692
_cell_angle_alpha 77.081715
_cell_angle_beta 95.435083
_cell_angle_gamma 122.560601
_cell_volume 695.656797
_symmetry_space_group_name_H-M "P -1"
_symmetry_group_IT_number 2
_symmetry_cell_setting 'triclinic'
loop_
_space_group_symop_operation_xyz
x,y,z
-x,-y,-z
loop_
_atom_site_type_symbol
_atom_site_label
_atom_site_fract_x
_atom_site_fract_y
_atom_site_fract_z
Si Si1 0.845771 0.136383 0.340228
Si Si2 0.764203 0.389225 0.082617
Si Si3 0.860819 0.128314 0.490793
Si Si4 0.119828 0.877795 0.358973
Si Si5 0.830379 0.965550 0.891441
Si Si6 0.085467 0.784368 0.013507
Si Si7 0.134116 0.302823 0.769159
Si Si8 0.846369 0.527519 0.790444
O O1 0.934193 0.242151 0.408391
O O2 0.482184 0.977332 0.341149
O O3 0.040071 0.039403 0.342316
O O4 0.937822 0.293181 0.269469
O O5 0.455710 0.226536 0.129477
O O6 0.780828 0.590246 0.055633
O O7 0.053661 0.417938 0.132066
O O8 0.738855 0.302513 0.013321
O O9 0.500000 0.000000 0.500000
O O10 0.971828 0.236413 0.557450
O O11 0.000000 0.000000 0.500000
O O12 0.914208 0.720542 0.312163
O O13 0.728859 0.078688 0.930260
O O14 0.033110 0.099444 0.820212
O O15 0.030646 0.907075 0.945900
O O16 0.489527 0.456384 0.779804
O O17 0.911276 0.364875 0.788217
#
# Coordination Sequence:
#
# PCOD8006210 Si02
#       8
#     2   2   2   2   2   2   2   2
#     4  10  20  39  66  93 125 168 218 262 321 380
#     4  11  24  42  68  92 128 167 214 264 331 381
#     4   8  16  32  60  94 122 158 212 268 308 377
#     4  10  20  39  66  93 125 168 218 262 321 380
#     4  11  24  42  68  92 128 167 214 264 331 381
#     4  10  24  42  66  98 124 158 220 266 326 388
#     4  12  27  43  62  93 134 169 215 267 319 380
#     4  12  27  43  62  93 134 169 215 267 319 380
#
# _framework density 22.999849000000001
#
# number of rings (size 3 to 8) (size 9 to 14) (size 15 to 20)
#    0.000    1.500    1.250    3.000    5.250    4.000 
#    0.000    1.250    0.000    0.000    0.000    0.000 
#    0.000    0.000    0.000    0.000    0.000    0.000 
#
# Total GULP energy -198227.179435 kJ/mol
# GULP energy per Si atom -12389.198715 kJ/mol
# Density = 2.294750 g / cm^3
# Si number density = 22.999849 Si / 1000 Ang^3
#
#
#
# Elastic Constant Matrix: (Units=GPa)
#
#
# Indices 1 2 3 4 5 6 
#
# 1 71.4155 -0.9225 -1.0720 6.2875 1.9579 4.4649
# 2 -0.9225 66.6796 8.1359 6.4332 -2.1988 5.9199
# 3 -1.0720 8.1359 99.6391 16.7412 2.9882 2.2952
# 4 6.2875 6.4332 16.7412 34.8767 3.2885 7.7577
# 5 1.9579 -2.1988 2.9882 3.2885 21.3831 0.5709
# 6 4.4649 5.9199 2.2952 7.7577 0.5709 31.7753
#
#
#
# Elastic Compliance Matrix: (Units=1/GPa)
#
#
# Indices 1 2 3 4 5 6 
#
# 1 0.014362 0.000474 0.000606 -0.002544 -0.000919 -0.001512
# 2 0.000474 0.015609 -0.000909 -0.002189 0.002090 -0.002412
# 3 0.000606 -0.000909 0.011017 -0.005277 -0.000893 0.000593
# 4 -0.002544 -0.002189 -0.005277 0.034051 -0.004302 -0.007089
# 5 -0.000919 0.002090 -0.000893 -0.004302 0.047851 -0.000005
# 6 -0.001512 -0.002412 0.000593 -0.007089 -0.000005 0.033821
#
#
# Mechanical properties :
#
#
# Convention : Reuss Voigt Hill
#
# Bulk Modulus (GPa) = 24.19590 27.77968 25.98779
# Shear Modulus (GPa) = 29.38682 33.04653 31.21667
#
# Velocity S-wave (km/s) = 3.57837 3.79465 3.68809
# Velocity P-wave (km/s) = 5.25507 5.59496 5.42768
#
# Compressibility (1/GPa) = 0.04132932
#
# Stress axis : x y z
#
# Youngs Moduli (GPa) = 69.63043 64.06650 90.77079
#
# Poissons Ratio (x) = -0.03038 -0.05498
# Poissons Ratio (y) = -0.03302 0.08249
# Poissons Ratio (z) = -0.04217 0.05822
#
# Static dielectric constant tensor:
#      x y z
#    x 3.955680 -0.035480 0.052640 
#    y -0.035480 4.182650 0.167700 
#    z 0.052640 0.167700 4.900050 
# 
# 
# High freq. dielectric constant tensor:
#      x y z
#    x 1.902940 -0.000340 0.001960 
#    y -0.000340 1.886510 0.008080 
#    z 0.001960 0.008080 1.930280 
# 
# From -- ./inp_files/548041.got.cif
#   From: 2010.06.25/outbox.cif.g09.slc.cpg/sg2_275_cif.got.tgz:548041.got - 2010.06.27 13:26:56.
