data_PCOD8006027
_publ_section_title
;
Structure prediction by ZEFSAII (Michael W. Deem and Ramdas Pophale) SiO2 
 PCOD8006027
Probable space group: P -1
;
_chemical_formula_sum "Si O2"
_cell_formula_units_Z 16
_cell_length_a 18.337429
_cell_length_b 9.040761
_cell_length_c 5.273694
_cell_angle_alpha 103.862298
_cell_angle_beta 119.435633
_cell_angle_gamma 72.657843
_cell_volume 722.245817
_symmetry_space_group_name_H-M "P -1"
_symmetry_group_IT_number 2
_symmetry_cell_setting 'triclinic'
loop_
_space_group_symop_operation_xyz
x,y,z
-x,-y,-z
loop_
_atom_site_type_symbol
_atom_site_label
_atom_site_fract_x
_atom_site_fract_y
_atom_site_fract_z
Si Si1 0.613031 0.191397 0.524468
Si Si2 0.429766 0.653071 0.994726
Si Si3 0.846622 0.945407 0.450242
Si Si4 0.872974 0.274928 0.556581
Si Si5 0.743053 0.902667 0.749221
Si Si6 0.961963 0.651653 0.336684
Si Si7 0.269889 0.625035 0.984941
Si Si8 0.209508 0.426614 0.166684
O O1 0.570847 0.225351 0.189120
O O2 0.649108 0.009405 0.574753
O O3 0.547820 0.264827 0.671597
O O4 0.694705 0.274743 0.697018
O O5 0.337507 0.604389 0.855790
O O6 0.500000 0.500000 0.000000
O O7 0.803152 0.916102 0.623337
O O8 0.930631 0.806260 0.514919
O O9 0.880069 0.104230 0.613104
O O10 0.781711 0.952170 0.102146
O O11 0.825771 0.277690 0.205332
O O12 0.806624 0.412343 0.642717
O O13 0.966355 0.314198 0.719568
O O14 0.730143 0.724031 0.662593
O O15 0.000000 0.500000 0.500000
O O16 0.881236 0.621899 0.034475
O O17 0.257138 0.457795 0.000355
#
# Coordination Sequence:
#
# PCOD8006027 Si02
#       8
#     2   2   2   2   2   2   2   2
#     4  10  20  39  64  96 122 163 199 257 303 371
#     4  10  21  38  67 100 127 155 202 253 311 369
#     4  11  24  40  62  87 121 168 217 269 311 360
#     4  12  22  41  60  90 122 166 223 260 314 366
#     4  11  22  41  62  91 125 162 213 258 314 371
#     4  11  23  41  57  87 127 171 214 268 319 365
#     4  10  21  36  64  89 122 160 207 254 306 365
#     4  11  24  38  62  88 125 170 213 262 314 370
#
# _framework density 22.153123000000001
#
# number of rings (size 3 to 8) (size 9 to 14) (size 15 to 20)
#    0.750    0.500    2.500    4.875    1.750    1.000 
#    0.000    3.750    0.000    1.500    0.000    0.000 
#    0.000    0.000    0.000    0.000    0.000    0.000 
#
# Total GULP energy -198233.179367 kJ/mol
# GULP energy per Si atom -12389.573710 kJ/mol
# Density = 2.210270 g / cm^3
# Si number density = 22.153123 Si / 1000 Ang^3
#
#
#
# Elastic Constant Matrix: (Units=GPa)
#
#
# Indices 1 2 3 4 5 6 
#
# 1 54.1264 35.1347 12.2932 -4.1536 -23.2165 -8.8198
# 2 35.1347 201.3546 21.3757 -13.3141 -20.7805 -7.4902
# 3 12.2932 21.3757 63.7541 -11.3025 -23.2621 5.9579
# 4 -4.1536 -13.3141 -11.3025 37.8117 3.7837 -2.0251
# 5 -23.2165 -20.7805 -23.2621 3.7837 33.2344 -1.2881
# 6 -8.8198 -7.4902 5.9579 -2.0251 -1.2881 36.0651
#
#
#
# Elastic Compliance Matrix: (Units=1/GPa)
#
#
# Indices 1 2 3 4 5 6 
#
# 1 0.030152 -0.002999 0.002410 0.001258 0.021010 0.007174
# 2 -0.002999 0.005783 -0.000904 0.001400 0.000757 0.000723
# 3 0.002410 -0.000904 0.022558 0.004931 0.016250 -0.002468
# 4 0.001258 0.001400 0.004931 0.028427 0.002026 0.001452
# 5 0.021010 0.000757 0.016250 0.002026 0.056567 0.004745
# 6 0.007174 0.000723 -0.002468 0.001452 0.004745 0.030291
#
#
# Mechanical properties :
#
#
# Convention : Reuss Voigt Hill
#
# Bulk Modulus (GPa) = 18.01564 50.76026 34.38795
# Shear Modulus (GPa) = 25.60626 38.11768 31.86197
#
# Velocity S-wave (km/s) = 3.40351 4.15257 3.79656
# Velocity P-wave (km/s) = 4.85748 6.77900 5.89703
#
# Compressibility (1/GPa) = 0.05550732
#
# Stress axis : x y z
#
# Youngs Moduli (GPa) = 33.16574 172.91599 44.33067
#
# Poissons Ratio (x) = 0.51853 -0.10684
# Poissons Ratio (y) = 0.09945 0.04007
# Poissons Ratio (z) = -0.07993 0.15630
#
# Static dielectric constant tensor:
#      x y z
#    x 3.836820 -0.174070 -0.109440 
#    y -0.174070 4.564200 -0.127190 
#    z -0.109440 -0.127190 3.887860 
# 
# 
# High freq. dielectric constant tensor:
#      x y z
#    x 1.851370 -0.000920 -0.022280 
#    y -0.000920 1.886790 -0.009520 
#    z -0.022280 -0.009520 1.854660 
# 
# From -- ./inp_files/107236.got.cif
#   From: 2010.06.25/outbox.cif.g09.slc.cpg/sg2_54_cif.got.tgz:107236.got - 2010.06.27 13:26:56.
