data_PCOD8006756
_publ_section_title
;
Structure prediction by ZEFSAII (Michael W. Deem and Ramdas Pophale) SiO2 
 PCOD8006756
Probable space group: P -1
;
_chemical_formula_sum "Si O2"
_cell_formula_units_Z 16
_cell_length_a 27.307215
_cell_length_b 12.355084
_cell_length_c 9.027281
_cell_angle_alpha 147.414393
_cell_angle_beta 139.773997
_cell_angle_gamma 28.103608
_cell_volume 770.206972
_symmetry_space_group_name_H-M "P -1"
_symmetry_group_IT_number 2
_symmetry_cell_setting 'triclinic'
loop_
_space_group_symop_operation_xyz
x,y,z
-x,-y,-z
loop_
_atom_site_type_symbol
_atom_site_label
_atom_site_fract_x
_atom_site_fract_y
_atom_site_fract_z
Si Si1 0.532535 0.511073 0.251863
Si Si2 0.831585 0.813411 0.513086
Si Si3 0.713924 0.906261 0.074111
Si Si4 0.012288 0.196751 0.318217
Si Si5 0.392639 0.283711 0.517135
Si Si6 0.681135 0.223859 0.886547
Si Si7 0.994473 0.819475 0.382306
Si Si8 0.835519 0.780073 0.944670
O O1 0.581456 0.641652 0.489059
O O2 0.426605 0.690446 0.311306
O O3 0.612020 0.228009 0.197904
O O4 0.500000 0.500000 0.000000
O O5 0.754512 0.822901 0.240646
O O6 0.896540 0.854432 0.615771
O O7 0.906270 0.523075 0.439381
O O8 0.761697 0.075635 0.765394
O O9 0.809715 0.831504 0.118814
O O10 0.689133 0.734571 0.746977
O O11 0.046094 0.082619 0.432044
O O12 0.000000 0.000000 0.000000
O O13 0.500000 0.000000 0.500000
O O14 0.338865 0.516819 0.791528
O O15 0.726643 0.000076 0.863160
O O16 0.915425 0.807992 0.108243
O O17 0.112352 0.526453 0.325746
O O18 0.000000 0.000000 0.500000
#
# Coordination Sequence:
#
# PCOD8006756 Si02
#       8
#     2   2   2   2   2   2   2   2
#     4  10  20  40  63  97 134 164 222 285 326 383
#     4  11  27  46  66  97 143 183 216 276 350 402
#     4  12  23  41  70  98 133 178 223 277 339 401
#     4  11  26  46  67  94 141 180 221 276 342 405
#     4  11  21  40  70  98 128 176 229 280 329 391
#     4  11  22  44  68  95 136 178 223 278 337 398
#     4  11  26  41  66 101 127 164 231 282 325 389
#     4  11  23  41  66  95 129 172 226 275 326 398
#
# _framework density 20.773636
#
# number of rings (size 3 to 8) (size 9 to 14) (size 15 to 20)
#    0.000    1.000    7.500    0.000    5.250    1.500 
#    2.250    0.625    0.000    0.000    0.000    0.000 
#    0.000    0.000    0.000    0.000    0.000    0.000 
#
# Total GULP energy -198290.907446 kJ/mol
# GULP energy per Si atom -12393.181715 kJ/mol
# Density = 2.072635 g / cm^3
# Si number density = 20.773636 Si / 1000 Ang^3
#
#
#
# Elastic Constant Matrix: (Units=GPa)
#
#
# Indices 1 2 3 4 5 6 
#
# 1 127.1600 56.0513 55.0750 11.8419 0.4268 1.0685
# 2 56.0513 86.2722 52.3806 12.6234 2.1044 -6.5250
# 3 55.0750 52.3806 110.8194 12.4976 4.2740 -2.8939
# 4 11.8419 12.6234 12.4976 34.3550 -0.2506 -4.7788
# 5 0.4268 2.1044 4.2740 -0.2506 37.9007 4.5486
# 6 1.0685 -6.5250 -2.8939 -4.7788 4.5486 36.5073
#
#
#
# Elastic Compliance Matrix: (Units=1/GPa)
#
#
# Indices 1 2 3 4 5 6 
#
# 1 0.011901 -0.005849 -0.003107 -0.001078 0.000759 -0.001876
# 2 -0.005849 0.019646 -0.005979 -0.002622 -0.000723 0.002955
# 3 -0.003107 -0.005979 0.013631 -0.001696 -0.001185 0.000029
# 4 -0.001078 -0.002622 -0.001696 0.031554 0.000132 0.003542
# 5 0.000759 -0.000723 -0.001185 0.000132 0.026982 -0.003590
# 6 -0.001876 0.002955 0.000029 0.003542 -0.003590 0.028888
#
#
# Mechanical properties :
#
#
# Convention : Reuss Voigt Hill
#
# Bulk Modulus (GPa) = 65.31520 72.36284 68.83902
# Shear Modulus (GPa) = 29.83766 32.46891 31.15329
#
# Velocity S-wave (km/s) = 3.79400 3.95775 3.87674
# Velocity P-wave (km/s) = 7.12055 7.46958 7.29715
#
# Compressibility (1/GPa) = 0.01531037
#
# Stress axis : x y z
#
# Youngs Moduli (GPa) = 84.02335 50.90159 73.36040
#
# Poissons Ratio (x) = 0.29770 0.22793
# Poissons Ratio (y) = 0.49142 0.43859
# Poissons Ratio (z) = 0.26106 0.30432
#
# Static dielectric constant tensor:
#      x y z
#    x 4.313450 -0.301260 -0.126290 
#    y -0.301260 4.058810 0.189070 
#    z -0.126290 0.189070 3.907030 
# 
# 
# High freq. dielectric constant tensor:
#      x y z
#    x 1.814370 -0.010360 0.007460 
#    y -0.010360 1.827780 0.005740 
#    z 0.007460 0.005740 1.794920 
# 
# From -- ./inp_files/357121.got.cif
#   From: 2010.06.25/outbox.cif.g09.slc.cpg/sg2_179_cif.got.tgz:357121.got - 2010.06.27 13:26:56.
