data_PCOD8006310
_publ_section_title
;
Structure prediction by ZEFSAII (Michael W. Deem and Ramdas Pophale) SiO2 
 PCOD8006310
Probable space group: P -1
;
_chemical_formula_sum "Si O2"
_cell_formula_units_Z 12
_cell_length_a 9.368581
_cell_length_b 9.830190
_cell_length_c 9.758018
_cell_angle_alpha 115.534236
_cell_angle_beta 134.616377
_cell_angle_gamma 64.198757
_cell_volume 564.796508
_symmetry_space_group_name_H-M "P -1"
_symmetry_group_IT_number 2
_symmetry_cell_setting 'triclinic'
loop_
_space_group_symop_operation_xyz
x,y,z
-x,-y,-z
loop_
_atom_site_type_symbol
_atom_site_label
_atom_site_fract_x
_atom_site_fract_y
_atom_site_fract_z
Si Si1 0.450619 0.618366 0.139003
Si Si2 0.611134 0.878024 0.222515
Si Si3 0.024766 0.885062 0.592826
Si Si4 0.000112 0.389001 0.076352
Si Si5 0.160373 0.530474 0.509418
Si Si6 0.253850 0.107877 0.975013
O O1 0.464161 0.779777 0.149713
O O2 0.611584 0.561439 0.343648
O O3 0.500000 0.500000 0.000000
O O4 0.225169 0.633229 0.050852
O O5 0.718276 0.812225 0.119946
O O6 0.786625 0.878595 0.457298
O O7 0.478007 0.045854 0.166530
O O8 0.155181 0.713580 0.575350
O O9 0.136831 0.963868 0.820674
O O10 0.000000 0.000000 0.500000
O O11 0.102644 0.462327 0.300026
O O12 0.132197 0.224174 0.052692
O O13 0.000000 0.500000 0.000000
O O14 0.000000 0.500000 0.500000
#
# Coordination Sequence:
#
# PCOD8006310 Si02
#       6
#     2   2   2   2   2   2
#     4  12  23  41  70  97 134 183 225 274 342 405
#     4  10  21  41  67  95 130 182 226 265 344 409
#     4  10  20  39  67  95 128 174 222 267 330 405
#     4  12  27  45  66 103 140 172 229 290 335 396
#     4  12  24  44  72 101 134 180 230 277 339 409
#     4  10  23  41  67  96 135 177 223 280 333 401
#
# _framework density 21.246590999999999
#
# number of rings (size 3 to 8) (size 9 to 14) (size 15 to 20)
#    0.000    1.000    3.333    4.000    0.000    5.333 
#    0.000    1.667    0.000    0.000    0.000    0.000 
#    0.000    0.000    0.000    0.000    0.000    0.000 
#
# Total GULP energy -148739.106029 kJ/mol
# GULP energy per Si atom -12394.925502 kJ/mol
# Density = 2.119823 g / cm^3
# Si number density = 21.246591 Si / 1000 Ang^3
#
#
#
# Elastic Constant Matrix: (Units=GPa)
#
#
# Indices 1 2 3 4 5 6 
#
# 1 120.2739 42.4600 35.9755 8.0999 -5.2363 -0.8244
# 2 42.4600 119.6450 43.5558 7.8191 -11.9441 -1.2861
# 3 35.9755 43.5558 129.3603 0.4313 -9.9044 -10.6758
# 4 8.0999 7.8191 0.4313 40.3397 -5.8090 0.7150
# 5 -5.2363 -11.9441 -9.9044 -5.8090 28.4905 3.2189
# 6 -0.8244 -1.2861 -10.6758 0.7150 3.2189 43.9294
#
#
#
# Elastic Compliance Matrix: (Units=1/GPa)
#
#
# Indices 1 2 3 4 5 6 
#
# 1 0.009940 -0.002780 -0.001868 -0.001468 -0.000253 -0.000306
# 2 -0.002780 0.010656 -0.002637 -0.001053 0.002890 -0.000576
# 3 -0.001868 -0.002637 0.009441 0.001010 0.001809 0.002033
# 4 -0.001468 -0.001053 0.001010 0.026010 0.005011 -0.000603
# 5 -0.000253 0.002890 0.001809 0.005011 0.038182 -0.002360
# 6 -0.000306 -0.000576 0.002033 -0.000603 -0.002360 0.023418
#
#
# Mechanical properties :
#
#
# Convention : Reuss Voigt Hill
#
# Bulk Modulus (GPa) = 64.65919 68.14018 66.39969
# Shear Modulus (GPa) = 36.39712 39.03778 37.71745
#
# Velocity S-wave (km/s) = 4.14343 4.29110 4.21791
# Velocity P-wave (km/s) = 7.30681 7.52942 7.41895
#
# Compressibility (1/GPa) = 0.01546571
#
# Stress axis : x y z
#
# Youngs Moduli (GPa) = 100.59983 93.84436 105.92287
#
# Poissons Ratio (x) = 0.26090 0.19787
# Poissons Ratio (y) = 0.27969 0.27936
# Poissons Ratio (z) = 0.18793 0.24751
#
# Static dielectric constant tensor:
#      x y z
#    x 4.130320 0.083300 0.607570 
#    y 0.083300 4.123820 0.306450 
#    z 0.607570 0.306450 4.936190 
# 
# 
# High freq. dielectric constant tensor:
#      x y z
#    x 1.819570 0.008910 0.022970 
#    y 0.008910 1.845500 -0.011420 
#    z 0.022970 -0.011420 1.843680 
# 
# From -- ./inp_files/149063.got.cif
#   From: 2010.06.25/outbox.cif.g09.slc.cpg/sg2_75_cif.got.tgz:149063.got - 2010.06.27 13:26:56.
