data_PCOD8006474
_publ_section_title
;
Structure prediction by ZEFSAII (Michael W. Deem and Ramdas Pophale) SiO2 
 PCOD8006474
Probable space group: P -1
;
_chemical_formula_sum "Si O2"
_cell_formula_units_Z 12
_cell_length_a 8.994159
_cell_length_b 14.073670
_cell_length_c 15.089234
_cell_angle_alpha 152.132321
_cell_angle_beta 42.978368
_cell_angle_gamma 118.816379
_cell_volume 520.968971
_symmetry_space_group_name_H-M "P -1"
_symmetry_group_IT_number 2
_symmetry_cell_setting 'triclinic'
loop_
_space_group_symop_operation_xyz
x,y,z
-x,-y,-z
loop_
_atom_site_type_symbol
_atom_site_label
_atom_site_fract_x
_atom_site_fract_y
_atom_site_fract_z
Si Si1 0.763453 0.204915 0.010310
Si Si2 0.474297 0.104041 0.787640
Si Si3 0.925842 0.021450 0.152280
Si Si4 0.903021 0.582899 0.209604
Si Si5 0.106969 0.851550 0.420999
Si Si6 0.277259 0.453671 0.322926
O O1 0.845903 0.398230 0.127605
O O2 0.462897 0.326216 0.221180
O O3 0.817851 0.100446 0.000319
O O4 0.931707 0.985020 0.690771
O O5 0.614911 0.175151 0.709779
O O6 0.221239 0.115992 0.871778
O O7 0.648888 0.840538 0.533119
O O8 0.406026 0.291315 0.049223
O O9 0.744102 0.297359 0.483202
O O10 0.000000 0.000000 0.000000
O O11 0.112232 0.605181 0.197133
O O12 0.000000 0.500000 0.000000
O O13 0.000000 0.000000 0.500000
O O14 0.000000 0.500000 0.500000
#
# Coordination Sequence:
#
# PCOD8006474 Si02
#       6
#     2   2   2   2   2   2
#     4  12  25  45  77 105 141 198 233 292 383 416
#     4  11  22  44  72 105 151 178 234 305 353 421
#     4  12  29  49  67 105 146 193 253 297 340 430
#     4  11  19  40  76 105 145 185 228 296 366 432
#     4  10  20  39  73 110 140 182 230 296 368 429
#     4  12  25  48  72 101 145 190 242 304 347 428
#
# _framework density 23.034002999999998
#
# number of rings (size 3 to 8) (size 9 to 14) (size 15 to 20)
#    0.000    0.667   10.000    0.000    0.000    3.333 
#    0.000    1.667    0.000    0.000    0.000    0.000 
#    0.000    0.000    0.000    0.000    0.000    0.000 
#
# Total GULP energy -148758.050223 kJ/mol
# GULP energy per Si atom -12396.504185 kJ/mol
# Density = 2.298158 g / cm^3
# Si number density = 23.034003 Si / 1000 Ang^3
#
#
#
# Elastic Constant Matrix: (Units=GPa)
#
#
# Indices 1 2 3 4 5 6 
#
# 1 154.2743 65.6683 59.3719 3.7516 -10.7732 12.6797
# 2 65.6683 74.2588 42.5658 -12.3524 3.8065 9.6737
# 3 59.3719 42.5658 134.5779 8.2675 14.8358 -1.9409
# 4 3.7516 -12.3524 8.2675 28.5471 14.4894 -2.1952
# 5 -10.7732 3.8065 14.8358 14.4894 46.0741 5.7640
# 6 12.6797 9.6737 -1.9409 -2.1952 5.7640 51.7464
#
#
#
# Elastic Compliance Matrix: (Units=1/GPa)
#
#
# Indices 1 2 3 4 5 6 
#
# 1 0.014206 -0.013287 -0.002395 -0.011809 0.009232 -0.002616
# 2 -0.013287 0.032244 -0.004488 0.022721 -0.011382 -0.000709
# 3 -0.002395 -0.004488 0.010436 -0.003054 -0.002840 0.002004
# 4 -0.011809 0.022721 -0.003054 0.059084 -0.022682 0.003565
# 5 0.009232 -0.011382 -0.002840 -0.022682 0.033467 -0.004931
# 6 -0.002616 -0.000709 0.002004 0.003565 -0.004931 0.020874
#
#
# Mechanical properties :
#
#
# Convention : Reuss Voigt Hill
#
# Bulk Modulus (GPa) = 60.43333 77.59144 69.01239
# Shear Modulus (GPa) = 23.13030 38.30717 30.71873
#
# Velocity S-wave (km/s) = 3.17232 4.08250 3.65585
# Velocity P-wave (km/s) = 6.30172 7.48206 6.91711
#
# Compressibility (1/GPa) = 0.01654716
#
# Stress axis : x y z
#
# Youngs Moduli (GPa) = 70.39219 31.01361 95.82005
#
# Poissons Ratio (x) = 0.41207 0.22947
# Poissons Ratio (y) = 0.93529 0.43003
# Poissons Ratio (z) = 0.16857 0.13919
#
# Static dielectric constant tensor:
#      x y z
#    x 4.860040 0.865070 0.256590 
#    y 0.865070 4.538520 0.451840 
#    z 0.256590 0.451840 4.681190 
# 
# 
# High freq. dielectric constant tensor:
#      x y z
#    x 1.918370 0.028040 0.012330 
#    y 0.028040 1.891330 0.007040 
#    z 0.012330 0.007040 1.918570 
# 
# From -- ./inp_files/383296.got.cif
#   From: 2010.06.25/outbox.cif.g09.slc.cpg/sg2_192_cif.got.tgz:383296.got - 2010.06.27 13:26:56.
