data_PCOD8006453
_publ_section_title
;
Structure prediction by ZEFSAII (Michael W. Deem and Ramdas Pophale) SiO2 
 PCOD8006453
Probable space group: P -1
;
_chemical_formula_sum "Si O2"
_cell_formula_units_Z 14
_cell_length_a 7.641757
_cell_length_b 17.529175
_cell_length_c 19.750820
_cell_angle_alpha 160.648562
_cell_angle_beta 40.129823
_cell_angle_gamma 131.217014
_cell_volume 540.322305
_symmetry_space_group_name_H-M "P -1"
_symmetry_group_IT_number 2
_symmetry_cell_setting 'triclinic'
loop_
_space_group_symop_operation_xyz
x,y,z
-x,-y,-z
loop_
_atom_site_type_symbol
_atom_site_label
_atom_site_fract_x
_atom_site_fract_y
_atom_site_fract_z
Si Si1 0.328589 0.800607 0.073191
Si Si2 0.312976 0.577353 0.432237
Si Si3 0.470434 0.837578 0.490442
Si Si4 0.307070 0.272380 0.292663
Si Si5 0.089991 0.731551 0.221243
Si Si6 0.859294 0.644885 0.999735
Si Si7 0.948468 0.691456 0.460532
O O1 0.316378 0.703407 0.071039
O O2 0.265555 0.086623 0.330769
O O3 0.635396 0.651652 0.827640
O O4 0.106855 0.734202 0.032893
O O5 0.469557 0.762093 0.507607
O O6 0.433552 0.466239 0.377585
O O7 0.981843 0.718711 0.654458
O O8 0.789878 0.700541 0.254194
O O9 0.233965 0.754034 0.450306
O O10 0.415557 0.124988 0.739456
O O11 0.232286 0.356064 0.461775
O O12 0.500000 0.000000 0.000000
O O13 0.227930 0.542735 0.081741
O O14 0.000000 0.000000 0.500000
O O15 0.967889 0.535404 0.803036
#
# Coordination Sequence:
#
# PCOD8006453 Si02
#       7
#     2   2   2   2   2   2   2
#     4  11  22  43  67  94 138 176 220 278 327 393
#     4  10  21  40  69  97 131 175 220 271 339 393
#     4  10  25  44  67  96 142 176 223 273 335 390
#     4  10  20  39  71 101 126 173 225 273 337 397
#     4  12  25  44  68 100 134 182 226 270 332 399
#     4  11  24  45  64  96 138 176 227 272 325 399
#     4  10  22  44  69  99 135 178 222 279 334 392
#
# _framework density 25.910461000000002
#
# number of rings (size 3 to 8) (size 9 to 14) (size 15 to 20)
#    0.000    1.429    4.286    0.429    0.000    5.143 
#    2.571    1.429    0.000    0.000    0.000    0.000 
#    0.000    0.000    0.000    0.000    0.000    0.000 
#
# Total GULP energy -173530.015151 kJ/mol
# GULP energy per Si atom -12395.001082 kJ/mol
# Density = 2.585149 g / cm^3
# Si number density = 25.910461 Si / 1000 Ang^3
#
#
#
# Elastic Constant Matrix: (Units=GPa)
#
#
# Indices 1 2 3 4 5 6 
#
# 1 50.0844 24.8085 28.6478 -4.8762 -5.4375 -29.5990
# 2 24.8085 139.0126 38.5167 -2.3455 -16.9227 -47.5307
# 3 28.6478 38.5167 130.9637 2.7989 -33.6920 -27.2589
# 4 -4.8762 -2.3455 2.7989 55.9674 -10.1917 -1.3390
# 5 -5.4375 -16.9227 -33.6920 -10.1917 46.0708 -2.9316
# 6 -29.5990 -47.5307 -27.2589 -1.3390 -2.9316 38.0548
#
#
#
# Elastic Compliance Matrix: (Units=1/GPa)
#
#
# Indices 1 2 3 4 5 6 
#
# 1 0.048847 0.012215 0.001543 0.009118 0.016959 0.055981
# 2 0.012215 0.017959 0.002654 0.004945 0.013302 0.035031
# 3 0.001543 0.002654 0.012474 0.002090 0.011660 0.014423
# 4 0.009118 0.004945 0.002090 0.020994 0.010101 0.016282
# 5 0.016959 0.013302 0.011660 0.010101 0.042012 0.041750
# 6 0.055981 0.035031 0.014423 0.016282 0.041750 0.127695
#
#
# Mechanical properties :
#
#
# Convention : Reuss Voigt Hill
#
# Bulk Modulus (GPa) = 8.92034 56.00075 32.46055
# Shear Modulus (GPa) = 18.21332 43.22443 30.71888
#
# Velocity S-wave (km/s) = 2.65417 4.08882 3.44696
# Velocity P-wave (km/s) = 3.58372 6.62958 5.32890
#
# Compressibility (1/GPa) = 0.11210333
#
# Stress axis : x y z
#
# Youngs Moduli (GPa) = 20.47229 55.68281 80.16358
#
# Poissons Ratio (x) = -0.68014 -0.12368
# Poissons Ratio (y) = -0.25006 -0.21278
# Poissons Ratio (z) = -0.03158 -0.14780
#
# Static dielectric constant tensor:
#      x y z
#    x 4.578030 -0.270120 -0.433910 
#    y -0.270120 5.132080 0.100370 
#    z -0.433910 0.100370 5.150590 
# 
# 
# High freq. dielectric constant tensor:
#      x y z
#    x 2.012890 -0.021290 -0.024050 
#    y -0.021290 2.042870 0.001490 
#    z -0.024050 0.001490 2.056370 
# 
# From -- ./inp_files/504756.got.cif
#   From: 2010.06.25/outbox.cif.g09.slc.cpg/sg2_253_cif.got.tgz:504756.got - 2010.06.27 13:26:56.
