data_PCOD8006108
_publ_section_title
;
Structure prediction by ZEFSAII (Michael W. Deem and Ramdas Pophale) SiO2 
 PCOD8006108
Probable space group: P -1
;
_chemical_formula_sum "Si O2"
_cell_formula_units_Z 16
_cell_length_a 12.216054
_cell_length_b 19.297128
_cell_length_c 8.469140
_cell_angle_alpha 52.768031
_cell_angle_beta 32.453911
_cell_angle_gamma 41.540973
_cell_volume 708.491323
_symmetry_space_group_name_H-M "P -1"
_symmetry_group_IT_number 2
_symmetry_cell_setting 'triclinic'
loop_
_space_group_symop_operation_xyz
x,y,z
-x,-y,-z
loop_
_atom_site_type_symbol
_atom_site_label
_atom_site_fract_x
_atom_site_fract_y
_atom_site_fract_z
Si Si1 0.118253 0.383546 0.204106
Si Si2 0.364690 0.251132 0.372578
Si Si3 0.201469 0.930500 0.097629
Si Si4 0.555100 0.288974 0.386708
Si Si5 0.904544 0.856146 0.057939
Si Si6 0.550156 0.816944 0.094441
Si Si7 0.794051 0.913861 0.759588
Si Si8 0.681861 0.515238 0.359168
O O1 0.146475 0.348354 0.400768
O O2 0.861995 0.414193 0.391884
O O3 0.364324 0.286043 0.964765
O O4 0.150497 0.478001 0.989754
O O5 0.396579 0.314258 0.385851
O O6 0.290329 0.172286 0.628069
O O7 0.625401 0.172563 0.076684
O O8 0.329612 0.917835 0.130432
O O9 0.940899 0.944923 0.424791
O O10 0.160517 0.036126 0.924316
O O11 0.553975 0.193289 0.599506
O O12 0.454693 0.388592 0.484145
O O13 0.835208 0.242707 0.063630
O O14 0.923651 0.873747 0.825343
O O15 0.794871 0.817913 0.812140
O O16 0.500000 0.000000 0.000000
O O17 0.500000 0.500000 0.500000
#
# Coordination Sequence:
#
# PCOD8006108 Si02
#       8
#     2   2   2   2   2   2   2   2
#     4   9  23  43  68  97 128 166 218 268 333 399
#     4  11  26  44  63  96 143 178 211 269 337 394
#     4  11  24  41  63  96 134 178 235 269 312 380
#     4  11  24  41  64  99 133 174 218 271 335 397
#     4  12  24  39  63  96 136 179 224 270 326 380
#     4  10  20  39  65  93 127 174 225 275 317 377
#     4  12  22  37  68  94 126 181 234 276 309 372
#     4  10  23  44  74  99 123 164 221 277 331 398
#
# _framework density 22.583196999999998
#
# number of rings (size 3 to 8) (size 9 to 14) (size 15 to 20)
#    0.000    1.250    3.750    1.500    1.750    5.000 
#    0.000    1.250    0.000    0.000    0.000    0.000 
#    0.000    0.000    0.000    0.000    0.000    0.000 
#
# Total GULP energy -198232.897872 kJ/mol
# GULP energy per Si atom -12389.556117 kJ/mol
# Density = 2.253180 g / cm^3
# Si number density = 22.583197 Si / 1000 Ang^3
#
#
#
# Elastic Constant Matrix: (Units=GPa)
#
#
# Indices 1 2 3 4 5 6 
#
# 1 138.4202 46.9735 48.4460 -1.0344 -13.1653 -5.6361
# 2 46.9735 93.1382 35.1383 4.2467 -2.0676 -12.3350
# 3 48.4460 35.1383 105.9379 -0.7019 -18.7174 0.5581
# 4 -1.0344 4.2467 -0.7019 27.8151 -3.0975 -6.3037
# 5 -13.1653 -2.0676 -18.7174 -3.0975 34.2215 -1.5748
# 6 -5.6361 -12.3350 0.5581 -6.3037 -1.5748 34.5198
#
#
#
# Elastic Compliance Matrix: (Units=1/GPa)
#
#
# Indices 1 2 3 4 5 6 
#
# 1 0.009725 -0.003771 -0.002819 0.001239 0.002112 0.000609
# 2 -0.003771 0.014574 -0.003585 -0.001780 -0.002498 0.004211
# 3 -0.002819 -0.003585 0.012960 0.001080 0.005817 -0.001488
# 4 0.001239 -0.001780 0.001080 0.038359 0.004744 0.006770
# 5 0.002112 -0.002498 0.005817 0.004744 0.033575 0.001756
# 6 0.000609 0.004211 -0.001488 0.006770 0.001756 0.031914
#
#
# Mechanical properties :
#
#
# Convention : Reuss Voigt Hill
#
# Bulk Modulus (GPa) = 59.13181 66.51244 62.82212
# Shear Modulus (GPa) = 29.92331 33.10718 31.51524
#
# Velocity S-wave (km/s) = 3.64404 3.83300 3.73972
# Velocity P-wave (km/s) = 6.62919 7.00752 6.82098
#
# Compressibility (1/GPa) = 0.01691137
#
# Stress axis : x y z
#
# Youngs Moduli (GPa) = 102.82394 68.61351 77.15799
#
# Poissons Ratio (x) = 0.25871 0.21748
# Poissons Ratio (y) = 0.38770 0.27663
# Poissons Ratio (z) = 0.28982 0.24600
#
# Static dielectric constant tensor:
#      x y z
#    x 4.296760 -0.017930 -0.139220 
#    y -0.017930 4.298210 -0.268910 
#    z -0.139220 -0.268910 3.972390 
# 
# 
# High freq. dielectric constant tensor:
#      x y z
#    x 1.889920 -0.005990 -0.012470 
#    y -0.005990 1.890440 -0.000160 
#    z -0.012470 -0.000160 1.879090 
# 
# From -- ./inp_files/38961.got.cif
#   From: 2010.06.25/outbox.cif.g09.slc.cpg/sg2_20_cif.got.tgz:38961.got - 2010.06.27 13:26:56.
