data_PCOD8006536
_publ_section_title
;
Structure prediction by ZEFSAII (Michael W. Deem and Ramdas Pophale) SiO2 
 PCOD8006536
Probable space group: P -1
;
_chemical_formula_sum "Si O2"
_cell_formula_units_Z 14
_cell_length_a 7.983523
_cell_length_b 9.699799
_cell_length_c 20.845239
_cell_angle_alpha 140.497467
_cell_angle_beta 44.298462
_cell_angle_gamma 133.711288
_cell_volume 681.242126
_symmetry_space_group_name_H-M "P -1"
_symmetry_group_IT_number 2
_symmetry_cell_setting 'triclinic'
loop_
_space_group_symop_operation_xyz
x,y,z
-x,-y,-z
loop_
_atom_site_type_symbol
_atom_site_label
_atom_site_fract_x
_atom_site_fract_y
_atom_site_fract_z
Si Si1 0.699168 0.471166 0.986242
Si Si2 0.082923 0.035785 0.917742
Si Si3 0.650111 0.050219 0.777019
Si Si4 0.415286 0.227699 0.099792
Si Si5 0.727087 0.398743 0.472804
Si Si6 0.744153 0.647032 0.682323
Si Si7 0.769264 0.859771 0.554597
O O1 0.798328 0.278274 0.857597
O O2 0.500000 0.500000 0.000000
O O3 0.581756 0.395599 0.061121
O O4 0.916542 0.714189 0.018897
O O5 0.880452 0.848503 0.864518
O O6 0.355246 0.005412 0.828510
O O7 0.000000 0.000000 0.000000
O O8 0.688514 0.853605 0.737949
O O9 0.766299 0.051506 0.675922
O O10 0.425725 0.379769 0.215878
O O11 0.500000 0.000000 0.000000
O O12 0.665570 0.433235 0.577351
O O13 0.805531 0.637302 0.498212
O O14 0.483795 0.212999 0.444167
O O15 0.958066 0.296911 0.365321
O O16 0.000000 0.000000 0.500000
#
# Coordination Sequence:
#
# PCOD8006536 Si02
#       7
#     2   2   2   2   2   2   2
#     4  10  21  39  59  91 122 159 213 245 302 377
#     4  11  21  39  63  86 125 169 204 251 306 370
#     4  10  20  40  60  90 126 161 208 256 304 376
#     4  12  22  39  61  93 129 163 206 257 315 371
#     4   9  21  41  64  89 121 164 206 258 313 367
#     4  10  20  40  63  88 130 165 201 261 318 365
#     4  10  21  41  64  91 118 157 217 258 307 370
#
# _framework density 20.550695999999999
#
# number of rings (size 3 to 8) (size 9 to 14) (size 15 to 20)
#    0.000    1.714    4.286    0.857    0.000    2.857 
#   10.286    7.857    0.000    0.000    0.000    0.000 
#    0.000    0.000    0.000    0.000    0.000    0.000 
#
# Total GULP energy -173476.002192 kJ/mol
# GULP energy per Si atom -12391.143014 kJ/mol
# Density = 2.050392 g / cm^3
# Si number density = 20.550696 Si / 1000 Ang^3
#
#
#
# Elastic Constant Matrix: (Units=GPa)
#
#
# Indices 1 2 3 4 5 6 
#
# 1 70.8797 29.1552 26.5091 -6.9908 13.5559 -6.3902
# 2 29.1552 124.3942 53.4604 -22.7690 17.2606 -3.5014
# 3 26.5091 53.4604 144.5095 -20.2845 28.4329 -14.2702
# 4 -6.9908 -22.7690 -20.2845 27.7442 -11.2094 8.9185
# 5 13.5559 17.2606 28.4329 -11.2094 38.4302 -3.1865
# 6 -6.3902 -3.5014 -14.2702 8.9185 -3.1865 23.5148
#
#
#
# Elastic Compliance Matrix: (Units=1/GPa)
#
#
# Indices 1 2 3 4 5 6 
#
# 1 0.016691 -0.003172 -0.001018 -0.001912 -0.003967 0.003634
# 2 -0.003172 0.011315 -0.002935 0.007618 0.000113 -0.003833
# 3 -0.001018 -0.002935 0.009710 0.001172 -0.004826 0.004080
# 4 -0.001912 0.007618 0.001172 0.052306 0.010222 -0.017127
# 5 -0.003967 0.000113 -0.004826 0.010222 0.033648 -0.003307
# 6 0.003634 -0.003833 0.004080 -0.017127 -0.003307 0.051467
#
#
# Mechanical properties :
#
#
# Convention : Reuss Voigt Hill
#
# Bulk Modulus (GPa) = 42.61512 62.00364 52.30938
# Shear Modulus (GPa) = 25.35383 33.31507 29.33445
#
# Velocity S-wave (km/s) = 3.51625 4.03068 3.78222
# Velocity P-wave (km/s) = 6.10466 7.20405 6.67702
#
# Compressibility (1/GPa) = 0.02346585
#
# Stress axis : x y z
#
# Youngs Moduli (GPa) = 59.91105 88.38003 102.99163
#
# Poissons Ratio (x) = 0.28035 0.10480
# Poissons Ratio (y) = 0.19004 0.30231
# Poissons Ratio (z) = 0.06096 0.25942
#
# Static dielectric constant tensor:
#      x y z
#    x 4.052070 -0.010140 0.488760 
#    y -0.010140 3.903060 0.384670 
#    z 0.488760 0.384670 4.300950 
# 
# 
# High freq. dielectric constant tensor:
#      x y z
#    x 1.814840 -0.013700 0.007130 
#    y -0.013700 1.782140 -0.002200 
#    z 0.007130 -0.002200 1.817750 
# 
# From -- ./inp_files/178549.got.cif
#   From: 2010.06.25/outbox.cif.g09.slc.cpg/sg2_90_cif.got.tgz:178549.got - 2010.06.27 13:26:56.
