data_PCOD8006808
_publ_section_title
;
Structure prediction by ZEFSAII (Michael W. Deem and Ramdas Pophale) SiO2 
 PCOD8006808
Probable space group: P -1
;
_chemical_formula_sum "Si O2"
_cell_formula_units_Z 16
_cell_length_a 8.703143
_cell_length_b 20.863357
_cell_length_c 12.663551
_cell_angle_alpha 31.509228
_cell_angle_beta 40.278202
_cell_angle_gamma 50.481093
_cell_volume 776.256250
_symmetry_space_group_name_H-M "P -1"
_symmetry_group_IT_number 2
_symmetry_cell_setting 'triclinic'
loop_
_space_group_symop_operation_xyz
x,y,z
-x,-y,-z
loop_
_atom_site_type_symbol
_atom_site_label
_atom_site_fract_x
_atom_site_fract_y
_atom_site_fract_z
Si Si1 0.109696 0.706280 0.311945
Si Si2 0.253879 0.295138 0.307966
Si Si3 0.885106 0.452332 0.020234
Si Si4 0.780422 0.229120 0.070539
Si Si5 0.517187 0.747225 0.205956
Si Si6 0.838599 0.210637 0.491499
Si Si7 0.109894 0.434179 0.712630
Si Si8 0.913884 0.953135 0.720139
O O1 0.350460 0.732007 0.213902
O O2 0.096574 0.565108 0.479749
O O3 0.876247 0.737133 0.463911
O O4 0.146131 0.779841 0.079689
O O5 0.501840 0.231365 0.245821
O O6 0.084228 0.246312 0.371214
O O7 0.299840 0.444211 0.064552
O O8 0.785557 0.311608 0.285498
O O9 0.000000 0.500000 0.000000
O O10 0.084277 0.451160 0.827871
O O11 0.875072 0.103905 0.243669
O O12 0.902863 0.347733 0.893725
O O13 0.381712 0.789991 0.317055
O O14 0.630987 0.619889 0.359446
O O15 0.716972 0.851010 0.934170
O O16 0.820885 0.071232 0.660578
O O17 0.000000 0.000000 0.500000
#
# Coordination Sequence:
#
# PCOD8006808 Si02
#       8
#     2   2   2   2   2   2   2   2
#     4  10  22  40  64  94 131 162 208 260 315 379
#     4   9  22  40  62 100 128 162 209 252 322 376
#     4   9  19  35  64  93 124 160 203 253 304 374
#     4  11  24  41  65  92 129 170 204 264 318 368
#     4  10  22  39  64  93 120 167 212 262 307 372
#     4  10  20  40  64  92 125 165 211 260 307 370
#     4  10  21  39  59  98 131 163 208 248 320 377
#     4  11  25  45  62  89 122 165 220 257 313 379
#
# _framework density 20.611749
#
# number of rings (size 3 to 8) (size 9 to 14) (size 15 to 20)
#    0.000    2.000    0.000    3.375    7.000    2.500 
#   11.250    1.250    0.000    0.000    0.000    0.000 
#    0.000    0.000    0.000    0.000    0.000    0.000 
#
# Total GULP energy -198233.145921 kJ/mol
# GULP energy per Si atom -12389.571620 kJ/mol
# Density = 2.056484 g / cm^3
# Si number density = 20.611749 Si / 1000 Ang^3
#
#
#
# Elastic Constant Matrix: (Units=GPa)
#
#
# Indices 1 2 3 4 5 6 
#
# 1 12.4108 -83.7406 -29.2077 32.8251 -12.3874 13.6927
# 2 -83.7406 -194.6616 -127.7049 37.1810 -56.3519 52.1690
# 3 -29.2077 -127.7049 2.2500 22.4370 -19.4615 10.4798
# 4 32.8251 37.1810 22.4370 35.5729 7.4084 -6.8917
# 5 -12.3874 -56.3519 -19.4615 7.4084 15.2917 11.5881
# 6 13.6927 52.1690 10.4798 -6.8917 11.5881 14.2725
#
#
#
# Elastic Compliance Matrix: (Units=1/GPa)
#
#
# Indices 1 2 3 4 5 6 
#
# 1 0.032282 -0.008178 -0.006790 -0.014112 -0.009327 0.004666
# 2 -0.008178 0.003737 -0.003650 0.007100 -0.003012 0.002739
# 3 -0.006790 -0.003650 0.018325 0.002158 -0.006006 0.012317
# 4 -0.014112 0.007100 0.002158 0.029985 0.006727 -0.004981
# 5 -0.009327 -0.003012 -0.006006 0.006727 0.038752 -0.003848
# 6 0.004666 0.002739 0.012317 -0.004981 -0.003848 0.047253
#
#
# Mechanical properties :
#
#
# Convention : Reuss Voigt Hill
#
# Bulk Modulus (GPa) = 58.44437 -73.47859 -7.51711
# Shear Modulus (GPa) = 23.44404 17.07091 20.25747
#
# Velocity S-wave (km/s) = 3.37621 2.88099 3.13838
# Velocity P-wave (km/s) = 6.60415 4.96583 3.07859
#
# Compressibility (1/GPa) = 0.01711029
#
# Stress axis : x y z
#
# Youngs Moduli (GPa) = 30.97666 267.56760 54.56891
#
# Poissons Ratio (x) = 2.18822 0.37050
# Poissons Ratio (y) = 0.25333 0.19915
# Poissons Ratio (z) = 0.21032 0.97651
#
# Static dielectric constant tensor:
#      x y z
#    x 3.155540 -0.120520 0.332710 
#    y -0.120520 3.849410 -0.000570 
#    z 0.332710 -0.000570 3.860400 
# 
# 
# High freq. dielectric constant tensor:
#      x y z
#    x 1.795570 0.009040 0.005930 
#    y 0.009040 1.818800 0.003820 
#    z 0.005930 0.003820 1.807680 
# 
# From -- ./inp_files/181577.got.cif
#   From: 2010.06.25/outbox.cif.g09.slc.cpg/sg2_91_cif.got.tgz:181577.got - 2010.06.27 13:26:56.
