data_PCOD8006746
_publ_section_title
;
Structure prediction by ZEFSAII (Michael W. Deem and Ramdas Pophale) SiO2 
 PCOD8006746
Probable space group: P -1
;
_chemical_formula_sum "Si O2"
_cell_formula_units_Z 14
_cell_length_a 14.548120
_cell_length_b 10.905368
_cell_length_c 9.990680
_cell_angle_alpha 45.932390
_cell_angle_beta 76.106318
_cell_angle_gamma 42.643327
_cell_volume 640.368687
_symmetry_space_group_name_H-M "P -1"
_symmetry_group_IT_number 2
_symmetry_cell_setting 'triclinic'
loop_
_space_group_symop_operation_xyz
x,y,z
-x,-y,-z
loop_
_atom_site_type_symbol
_atom_site_label
_atom_site_fract_x
_atom_site_fract_y
_atom_site_fract_z
Si Si1 0.886047 0.662160 0.784646
Si Si2 0.694156 0.705398 0.269177
Si Si3 0.633448 0.169475 0.046958
Si Si4 0.720352 0.194121 0.275400
Si Si5 0.370955 0.032138 0.173331
Si Si6 0.830428 0.957421 0.904167
Si Si7 0.018413 0.949869 0.373146
O O1 0.825546 0.932764 0.545552
O O2 0.724109 0.792052 0.786549
O O3 0.000000 0.500000 0.000000
O O4 0.007098 0.390548 0.844609
O O5 0.567036 0.751834 0.339978
O O6 0.876828 0.367429 0.470779
O O7 0.674219 0.913564 0.194482
O O8 0.664889 0.766474 0.073808
O O9 0.675926 0.138450 0.209538
O O10 0.443545 0.489383 0.841816
O O11 0.741705 0.135063 0.939967
O O12 0.836643 0.181756 0.201848
O O13 0.305906 0.945456 0.207969
O O14 0.893795 0.019079 0.747258
O O15 0.000000 0.000000 0.500000
#
# Coordination Sequence:
#
# PCOD8006746 Si02
#       7
#     2   2   2   2   2   2   2
#     4  10  20  40  63  95 127 167 210 271 328 379
#     4  10  22  39  65  94 133 173 219 263 327 391
#     4  10  25  47  65  96 125 187 220 263 329 387
#     4  11  25  45  70  89 137 171 225 273 321 396
#     4   9  19  37  61  94 131 164 212 271 320 392
#     4  10  22  38  65  96 133 169 220 264 331 391
#     4  12  25  38  66 105 130 171 215 277 331 385
#
# _framework density 21.862404000000002
#
# number of rings (size 3 to 8) (size 9 to 14) (size 15 to 20)
#    0.000    1.714    0.000    5.143   10.000    3.429 
#    0.000    0.714    0.000    0.000    0.000    0.000 
#    0.000    0.000    0.000    0.000    0.000    0.000 
#
# Total GULP energy -173446.110273 kJ/mol
# GULP energy per Si atom -12389.007877 kJ/mol
# Density = 2.181264 g / cm^3
# Si number density = 21.862404 Si / 1000 Ang^3
#
#
#
# Elastic Constant Matrix: (Units=GPa)
#
#
# Indices 1 2 3 4 5 6 
#
# 1 99.1599 61.3937 39.6948 -8.1307 -9.0729 -27.3266
# 2 61.3937 158.8402 49.8939 -26.7025 -5.6869 -32.2993
# 3 39.6948 49.8939 100.0142 -18.6648 -6.1188 -5.7132
# 4 -8.1307 -26.7025 -18.6648 36.7559 -4.2959 -4.4428
# 5 -9.0729 -5.6869 -6.1188 -4.2959 29.1911 -1.0482
# 6 -27.3266 -32.2993 -5.7132 -4.4428 -1.0482 45.3936
#
#
#
# Elastic Compliance Matrix: (Units=1/GPa)
#
#
# Indices 1 2 3 4 5 6 
#
# 1 0.016032 -0.003340 -0.004003 0.000364 0.003794 0.006894
# 2 -0.003340 0.010762 -0.002307 0.006852 0.001801 0.006068
# 3 -0.004003 -0.002307 0.013534 0.004282 0.001705 -0.001890
# 4 0.000364 0.006852 0.004282 0.036516 0.008057 0.009393
# 5 0.003794 0.001801 0.001705 0.008057 0.037525 0.005435
# 6 0.006894 0.006068 -0.001890 0.009393 0.005435 0.031304
#
#
# Mechanical properties :
#
#
# Convention : Reuss Voigt Hill
#
# Bulk Modulus (GPa) = 47.55939 73.33102 60.44521
# Shear Modulus (GPa) = 29.07261 36.07025 32.57143
#
# Velocity S-wave (km/s) = 3.65060 4.06627 3.86403
# Velocity P-wave (km/s) = 6.29050 7.46063 6.90041
#
# Compressibility (1/GPa) = 0.02102634
#
# Stress axis : x y z
#
# Youngs Moduli (GPa) = 62.37510 92.92122 73.88917
#
# Poissons Ratio (x) = 0.31040 0.29576
# Poissons Ratio (y) = 0.20836 0.17050
# Poissons Ratio (z) = 0.24967 0.21441
#
# Static dielectric constant tensor:
#      x y z
#    x 3.850450 -0.473820 -0.002670 
#    y -0.473820 4.849750 -0.437040 
#    z -0.002670 -0.437040 3.869780 
# 
# 
# High freq. dielectric constant tensor:
#      x y z
#    x 1.841170 -0.034600 -0.006810 
#    y -0.034600 1.882420 -0.022770 
#    z -0.006810 -0.022770 1.835190 
# 
# From -- ./inp_files/450987.got.cif
#   From: 2010.06.25/outbox.cif.g09.slc.cpg/sg2_226_cif.got.tgz:450987.got - 2010.06.27 13:26:56.
