data_PCOD8006369
_publ_section_title
;
Structure prediction by ZEFSAII (Michael W. Deem and Ramdas Pophale) SiO2 
 PCOD8006369
Probable space group: P -1
;
_chemical_formula_sum "Si O2"
_cell_formula_units_Z 16
_cell_length_a 6.394388
_cell_length_b 11.153369
_cell_length_c 15.079904
_cell_angle_alpha 59.360332
_cell_angle_beta 82.349314
_cell_angle_gamma 119.999729
_cell_volume 684.180179
_symmetry_space_group_name_H-M "P -1"
_symmetry_group_IT_number 2
_symmetry_cell_setting 'triclinic'
loop_
_space_group_symop_operation_xyz
x,y,z
-x,-y,-z
loop_
_atom_site_type_symbol
_atom_site_label
_atom_site_fract_x
_atom_site_fract_y
_atom_site_fract_z
Si Si1 0.832040 0.499935 0.820209
Si Si2 0.134044 0.012295 0.654540
Si Si3 0.744850 0.452455 0.348864
Si Si4 0.124401 0.210008 0.411485
Si Si5 0.998740 0.183880 0.718317
Si Si6 0.802867 0.869628 0.978998
Si Si7 0.741082 0.201945 0.566303
Si Si8 0.823199 0.673019 0.910351
O O1 0.806857 0.629592 0.715701
O O2 0.942502 0.588744 0.881721
O O3 0.063956 0.499669 0.765434
O O4 0.524705 0.291058 0.914083
O O5 0.029157 0.978220 0.570825
O O6 0.868139 0.825173 0.787765
O O7 0.405231 0.030950 0.638435
O O8 0.193045 0.184359 0.636565
O O9 0.415736 0.282406 0.411545
O O10 0.824541 0.391287 0.452386
O O11 0.792337 0.634968 0.300061
O O12 0.903575 0.155769 0.520246
O O13 0.803680 0.207135 0.665377
O O14 0.811281 0.999518 0.858883
O O15 0.921767 0.773946 0.964479
O O16 0.000000 0.000000 0.000000
O O17 0.500000 0.500000 0.000000
#
# Coordination Sequence:
#
# PCOD8006369 Si02
#       8
#     2   2   2   2   2   2   2   2
#     4   9  20  40  64  92 126 166 205 250 314 377
#     4  10  22  40  65  95 125 162 209 261 316 370
#     4  11  24  41  63  92 128 171 212 255 310 375
#     4  10  22  42  67  93 126 164 210 262 312 370
#     4  11  25  41  61  93 130 165 207 259 316 374
#     4  10  20  39  68  95 124 162 208 264 316 367
#     4  11  24  40  63  91 127 169 213 257 310 375
#     4   8  17  37  63  88 120 160 198 245 307 367
#
# _framework density 23.385653000000001
#
# number of rings (size 3 to 8) (size 9 to 14) (size 15 to 20)
#    0.000    2.000    0.000    2.250    0.000   11.500 
#    0.000    5.000    0.000   18.750    0.000    0.000 
#    0.000    0.000    0.000    0.000    0.000    0.000 
#
# Total GULP energy -198214.596792 kJ/mol
# GULP energy per Si atom -12388.412299 kJ/mol
# Density = 2.333243 g / cm^3
# Si number density = 23.385653 Si / 1000 Ang^3
#
#
#
# Elastic Constant Matrix: (Units=GPa)
#
#
# Indices 1 2 3 4 5 6 
#
# 1 118.8291 72.6486 52.6712 5.3578 -19.4917 1.2360
# 2 72.6486 204.3882 65.9437 6.3627 -21.6592 -11.7068
# 3 52.6712 65.9437 125.1093 -4.6657 -21.1312 1.2380
# 4 5.3578 6.3627 -4.6657 43.8678 -0.3426 1.0355
# 5 -19.4917 -21.6592 -21.1312 -0.3426 22.9634 5.0142
# 6 1.2360 -11.7068 1.2380 1.0355 5.0142 33.3885
#
#
#
# Elastic Compliance Matrix: (Units=1/GPa)
#
#
# Indices 1 2 3 4 5 6 
#
# 1 0.012502 -0.003052 -0.002716 -0.001276 0.005706 -0.002249
# 2 -0.003052 0.007019 -0.002234 -0.000930 0.001421 0.002472
# 3 -0.002716 -0.002234 0.011544 0.001988 0.006716 -0.002181
# 4 -0.001276 -0.000930 0.001988 0.023329 0.000467 -0.001146
# 5 0.005706 0.001421 0.006716 0.000467 0.057809 -0.008658
# 6 -0.002249 0.002472 -0.002181 -0.001146 -0.008658 0.032317
#
#
# Mechanical properties :
#
#
# Convention : Reuss Voigt Hill
#
# Bulk Modulus (GPa) = 66.39696 92.31707 79.35702
# Shear Modulus (GPa) = 30.20314 37.18147 33.69230
#
# Velocity S-wave (km/s) = 3.59768 3.99171 3.79981
# Velocity P-wave (km/s) = 6.76103 7.79786 7.29788
#
# Compressibility (1/GPa) = 0.01506093
#
# Stress axis : x y z
#
# Youngs Moduli (GPa) = 79.98597 142.46264 86.62284
#
# Poissons Ratio (x) = 0.43478 0.23530
# Poissons Ratio (y) = 0.24411 0.19353
# Poissons Ratio (z) = 0.21727 0.31829
#
# Static dielectric constant tensor:
#      x y z
#    x 4.038760 -0.289890 -0.242680 
#    y -0.289890 4.683670 0.172960 
#    z -0.242680 0.172960 4.789170 
# 
# 
# High freq. dielectric constant tensor:
#      x y z
#    x 1.891530 -0.018480 -0.005220 
#    y -0.018480 1.943080 -0.003870 
#    z -0.005220 -0.003870 1.961470 
# 
# From -- ./inp_files/482741.got.cif
#   From: 2010.06.25/outbox.cif.g09.slc.cpg/sg2_242_cif.got.tgz:482741.got - 2010.06.27 13:26:56.
