data_PCOD8006115
_publ_section_title
;
Structure prediction by ZEFSAII (Michael W. Deem and Ramdas Pophale) SiO2 
 PCOD8006115
Probable space group: P -1
;
_chemical_formula_sum "Si O2"
_cell_formula_units_Z 16
_cell_length_a 8.920375
_cell_length_b 14.163181
_cell_length_c 7.063568
_cell_angle_alpha 73.992234
_cell_angle_beta 68.722159
_cell_angle_gamma 64.319942
_cell_volume 741.945679
_symmetry_space_group_name_H-M "P -1"
_symmetry_group_IT_number 2
_symmetry_cell_setting 'triclinic'
loop_
_space_group_symop_operation_xyz
x,y,z
-x,-y,-z
loop_
_atom_site_type_symbol
_atom_site_label
_atom_site_fract_x
_atom_site_fract_y
_atom_site_fract_z
Si Si1 0.514348 0.756980 0.140042
Si Si2 0.263799 0.674745 0.757744
Si Si3 0.156787 0.820336 0.392339
Si Si4 0.879437 0.336142 0.779431
Si Si5 0.120296 0.029058 0.780479
Si Si6 0.476195 0.536629 0.207782
Si Si7 0.445813 0.822792 0.723611
Si Si8 0.750580 0.787452 0.319192
O O1 0.348804 0.824101 0.313029
O O2 0.529692 0.636623 0.168631
O O3 0.681036 0.759276 0.171105
O O4 0.500041 0.820292 0.918064
O O5 0.136573 0.748526 0.615512
O O6 0.396087 0.562066 0.671045
O O7 0.395313 0.723323 0.757710
O O8 0.144246 0.655634 0.986739
O O9 0.156284 0.767104 0.216337
O O10 0.992282 0.930174 0.385943
O O11 0.732289 0.433646 0.681588
O O12 0.078428 0.317533 0.647343
O O13 0.189822 0.113879 0.794847
O O14 0.281927 0.928209 0.693001
O O15 0.000000 0.000000 0.000000
O O16 0.500000 0.500000 0.000000
O O17 0.613627 0.816337 0.533744
#
# Coordination Sequence:
#
# PCOD8006115 Si02
#       8
#     2   2   2   2   2   2   2   2
#     4  11  21  40  65  95 133 168 207 268 319 370
#     4  11  20  39  70  93 123 168 222 258 307 380
#     4  10  20  39  65  94 120 163 218 260 314 376
#     4   9  20  40  61  89 129 166 206 264 302 376
#     4  11  23  45  69  90 125 172 216 267 320 379
#     4   9  18  39  71  93 123 176 217 254 313 377
#     4  12  22  40  65  94 133 169 206 271 317 375
#     4  11  25  41  61  97 133 163 213 262 330 380
#
# _framework density 21.564920000000001
#
# number of rings (size 3 to 8) (size 9 to 14) (size 15 to 20)
#    0.000    1.500    6.250    1.125    0.000    5.000 
#    0.000    3.125    2.750    0.000    0.000    0.000 
#    0.000    0.000    0.000    0.000    0.000    0.000 
#
# Total GULP energy -198242.465743 kJ/mol
# GULP energy per Si atom -12390.154109 kJ/mol
# Density = 2.151584 g / cm^3
# Si number density = 21.564920 Si / 1000 Ang^3
#
#
#
# Elastic Constant Matrix: (Units=GPa)
#
#
# Indices 1 2 3 4 5 6 
#
# 1 115.3806 56.7884 35.1714 -3.0889 -9.4970 -23.4275
# 2 56.7884 106.0994 40.4105 -0.8347 -6.8770 -32.9198
# 3 35.1714 40.4105 91.6892 -1.0467 3.6057 -26.9953
# 4 -3.0889 -0.8347 -1.0467 29.6222 -13.8529 -0.4026
# 5 -9.4970 -6.8770 3.6057 -13.8529 30.3875 -2.7817
# 6 -23.4275 -32.9198 -26.9953 -0.4026 -2.7817 52.1669
#
#
#
# Elastic Compliance Matrix: (Units=1/GPa)
#
#
# Indices 1 2 3 4 5 6 
#
# 1 0.012670 -0.005082 -0.002307 0.003339 0.004749 0.001568
# 2 -0.005082 0.015484 -0.003224 0.001534 0.003549 0.006021
# 3 -0.002307 -0.003224 0.014594 -0.001350 -0.003405 0.004289
# 4 0.003339 0.001534 -0.001350 0.044500 0.022139 0.003293
# 5 0.004749 0.003549 -0.003405 0.022139 0.046172 0.005243
# 6 0.001568 0.006021 0.004289 0.003293 0.005243 0.026198
#
#
# Mechanical properties :
#
#
# Convention : Reuss Voigt Hill
#
# Bulk Modulus (GPa) = 46.46688 64.21220 55.33954
# Shear Modulus (GPa) = 26.59321 34.48858 30.54089
#
# Velocity S-wave (km/s) = 3.51546 4.00345 3.76737
# Velocity P-wave (km/s) = 6.17027 7.15619 6.68144
#
# Compressibility (1/GPa) = 0.02152071
#
# Stress axis : x y z
#
# Youngs Moduli (GPa) = 78.92427 64.58461 68.52255
#
# Poissons Ratio (x) = 0.32824 0.15811
# Poissons Ratio (y) = 0.40112 0.22091
# Poissons Ratio (z) = 0.18211 0.20821
#
# Static dielectric constant tensor:
#      x y z
#    x 4.020880 -0.435550 0.135730 
#    y -0.435550 4.402700 0.064030 
#    z 0.135730 0.064030 3.736770 
# 
# 
# High freq. dielectric constant tensor:
#      x y z
#    x 1.845610 -0.022050 0.017040 
#    y -0.022050 1.853780 0.013280 
#    z 0.017040 0.013280 1.826940 
# 
# From -- ./inp_files/205809.got.cif
#   From: 2010.06.25/outbox.cif.g09.slc.cpg/sg2_103_cif.got.tgz:205809.got - 2010.06.27 13:26:56.
