data_PCOD8006754
_publ_section_title
;
Structure prediction by ZEFSAII (Michael W. Deem and Ramdas Pophale) SiO2 
 PCOD8006754
Probable space group: P -1
;
_chemical_formula_sum "Si O2"
_cell_formula_units_Z 16
_cell_length_a 13.678054
_cell_length_b 9.327114
_cell_length_c 11.503247
_cell_angle_alpha 108.683646
_cell_angle_beta 151.659112
_cell_angle_gamma 69.698694
_cell_volume 653.022804
_symmetry_space_group_name_H-M "P -1"
_symmetry_group_IT_number 2
_symmetry_cell_setting 'triclinic'
loop_
_space_group_symop_operation_xyz
x,y,z
-x,-y,-z
loop_
_atom_site_type_symbol
_atom_site_label
_atom_site_fract_x
_atom_site_fract_y
_atom_site_fract_z
Si Si1 0.696578 0.632734 0.827511
Si Si2 0.311300 0.197748 0.458209
Si Si3 0.842284 0.957987 0.536192
Si Si4 0.796885 0.676150 0.286530
Si Si5 0.641054 0.310804 0.699664
Si Si6 0.582105 0.240414 0.233151
Si Si7 0.038465 0.161415 0.951710
Si Si8 0.849457 0.495134 0.518955
O O1 0.744181 0.460248 0.884388
O O2 0.569371 0.630391 0.574747
O O3 0.562805 0.749162 0.803316
O O4 0.912191 0.695035 0.037413
O O5 0.550648 0.223951 0.691591
O O6 0.159098 0.356694 0.369066
O O7 0.323150 0.086396 0.552763
O O8 0.208815 0.119603 0.220789
O O9 0.739065 0.083960 0.368775
O O10 0.032060 0.017023 0.820862
O O11 0.924624 0.805451 0.508177
O O12 0.772607 0.545386 0.321502
O O13 0.916925 0.599277 0.277327
O O14 0.566285 0.759356 0.034348
O O15 0.807214 0.198083 0.771532
O O16 0.702194 0.385833 0.392692
#
# Coordination Sequence:
#
# PCOD8006754 Si02
#       8
#     2   2   2   2   2   2   2   2
#     4  10  22  37  63  98 131 164 222 266 324 381
#     4  10  23  43  68  96 134 171 219 264 328 385
#     4  11  25  46  61  99 138 174 215 267 319 397
#     4  10  25  46  69  94 128 172 221 268 327 378
#     4  10  20  40  63  96 131 172 213 272 318 381
#     4  12  23  42  69  96 129 172 215 274 327 374
#     4  11  23  40  64  97 136 175 211 263 326 393
#     4  10  23  46  71  97 125 165 223 278 317 387
#
# _framework density 24.501441
#
# number of rings (size 3 to 8) (size 9 to 14) (size 15 to 20)
#    0.000    1.500    2.500    1.500    3.500    1.000 
#    4.500    0.000    0.000    0.000    0.000    0.000 
#    0.000    0.000    0.000    0.000    0.000    0.000 
#
# Total GULP energy -198370.337062 kJ/mol
# GULP energy per Si atom -12398.146066 kJ/mol
# Density = 2.444567 g / cm^3
# Si number density = 24.501441 Si / 1000 Ang^3
#
#
#
# Elastic Constant Matrix: (Units=GPa)
#
#
# Indices 1 2 3 4 5 6 
#
# 1 87.4721 20.9783 16.1618 4.4848 15.4840 11.7253
# 2 20.9783 104.0875 25.0843 13.4490 0.7485 12.9406
# 3 16.1618 25.0843 52.8980 4.8058 -2.2729 10.4527
# 4 4.4848 13.4490 4.8058 31.6095 0.6330 0.7088
# 5 15.4840 0.7485 -2.2729 0.6330 24.9733 7.7553
# 6 11.7253 12.9406 10.4527 0.7088 7.7553 39.1396
#
#
#
# Elastic Compliance Matrix: (Units=1/GPa)
#
#
# Indices 1 2 3 4 5 6 
#
# 1 0.014239 -0.001735 -0.003668 -0.000527 -0.008799 -0.000959
# 2 -0.001735 0.011781 -0.004152 -0.004105 0.001204 -0.002431
# 3 -0.003668 -0.004152 0.023349 -0.001274 0.006093 -0.004948
# 4 -0.000527 -0.004105 -0.001274 0.033638 -0.000965 0.001437
# 5 -0.008799 0.001204 0.006093 -0.000965 0.048852 -0.009052
# 6 -0.000959 -0.002431 -0.004948 0.001437 -0.009052 0.029730
#
#
# Mechanical properties :
#
#
# Convention : Reuss Voigt Hill
#
# Bulk Modulus (GPa) = 33.04742 40.98960 37.01851
# Shear Modulus (GPa) = 26.20722 31.29336 28.75029
#
# Velocity S-wave (km/s) = 3.27405 3.57768 3.42923
# Velocity P-wave (km/s) = 5.27350 5.81654 5.55166
#
# Compressibility (1/GPa) = 0.03025955
#
# Stress axis : x y z
#
# Youngs Moduli (GPa) = 70.22781 84.87887 42.82818
#
# Poissons Ratio (x) = 0.14729 0.15711
# Poissons Ratio (y) = 0.12186 0.17781
# Poissons Ratio (z) = 0.25762 0.35238
#
# Static dielectric constant tensor:
#      x y z
#    x 4.443440 0.266520 -0.021900 
#    y 0.266520 4.443420 0.218010 
#    z -0.021900 0.218010 4.169940 
# 
# 
# High freq. dielectric constant tensor:
#      x y z
#    x 1.973790 0.015460 -0.007280 
#    y 0.015460 1.975360 0.014010 
#    z -0.007280 0.014010 1.954770 
# 
# From -- ./inp_files/447937.got.cif
#   From: 2010.06.25/outbox.cif.g09.slc.cpg/sg2_224_cif.got.tgz:447937.got - 2010.06.27 13:26:56.
