data_PCOD8006392
_publ_section_title
;
Structure prediction by ZEFSAII (Michael W. Deem and Ramdas Pophale) SiO2 
 PCOD8006392
Probable space group: P -1
;
_chemical_formula_sum "Si O2"
_cell_formula_units_Z 12
_cell_length_a 12.858198
_cell_length_b 8.348015
_cell_length_c 11.667788
_cell_angle_alpha 125.368915
_cell_angle_beta 124.902566
_cell_angle_gamma 99.749745
_cell_volume 555.461828
_symmetry_space_group_name_H-M "P -1"
_symmetry_group_IT_number 2
_symmetry_cell_setting 'triclinic'
loop_
_space_group_symop_operation_xyz
x,y,z
-x,-y,-z
loop_
_atom_site_type_symbol
_atom_site_label
_atom_site_fract_x
_atom_site_fract_y
_atom_site_fract_z
Si Si1 0.794283 0.766868 0.523740
Si Si2 0.779904 0.792661 0.266953
Si Si3 0.554775 0.157846 0.771203
Si Si4 0.210585 0.817421 0.239581
Si Si5 0.489657 0.128714 0.153790
Si Si6 0.880124 0.160625 0.285595
O O1 0.707358 0.726921 0.326174
O O2 0.653899 0.477113 0.391382
O O3 0.993073 0.880461 0.683678
O O4 0.820098 0.985622 0.710439
O O5 0.774524 0.989662 0.271084
O O6 0.655845 0.482623 0.996539
O O7 0.000000 0.000000 0.500000
O O8 0.714340 0.200304 0.834601
O O9 0.366537 0.960888 0.495302
O O10 0.476712 0.964439 0.754167
O O11 0.000000 0.500000 0.000000
O O12 0.500000 0.000000 0.000000
O O13 0.285619 0.002867 0.980066
O O14 0.000000 0.500000 0.500000
#
# Coordination Sequence:
#
# PCOD8006392 Si02
#       6
#     2   2   2   2   2   2
#     4  11  24  41  68 100 130 180 225 276 341 396
#     4  10  20  39  68  99 132 173 225 279 332 397
#     4  11  25  46  69 100 138 180 227 282 334 413
#     4  11  26  47  70  95 135 185 235 275 337 402
#     4  12  23  41  67 101 139 171 220 281 346 398
#     4  11  22  37  61  98 139 166 217 276 332 400
#
# _framework density 21.603645
#
# number of rings (size 3 to 8) (size 9 to 14) (size 15 to 20)
#    0.000    1.000    3.333    4.000    2.333    4.667 
#    0.000    1.667    0.000    0.000    0.000    0.000 
#    0.000    0.000    0.000    0.000    0.000    0.000 
#
# Total GULP energy -148721.743237 kJ/mol
# GULP energy per Si atom -12393.478603 kJ/mol
# Density = 2.155447 g / cm^3
# Si number density = 21.603645 Si / 1000 Ang^3
#
#
#
# Elastic Constant Matrix: (Units=GPa)
#
#
# Indices 1 2 3 4 5 6 
#
# 1 110.8992 22.7142 29.8973 15.3579 1.1033 -9.9749
# 2 22.7142 138.9873 31.4049 35.7020 -2.1666 7.4240
# 3 29.8973 31.4049 107.6512 27.5570 11.1491 4.2741
# 4 15.3579 35.7020 27.5570 41.6966 -6.0570 1.3830
# 5 1.1033 -2.1666 11.1491 -6.0570 37.2473 1.5409
# 6 -9.9749 7.4240 4.2741 1.3830 1.5409 35.0445
#
#
#
# Elastic Compliance Matrix: (Units=1/GPa)
#
#
# Indices 1 2 3 4 5 6 
#
# 1 0.010376 -0.000947 -0.002328 -0.001599 -0.000071 0.003504
# 2 -0.000947 0.009462 -0.000476 -0.007435 -0.000409 -0.001905
# 3 -0.002328 -0.000476 0.012632 -0.007747 -0.004934 -0.001580
# 4 -0.001599 -0.007435 -0.007747 0.037208 0.007974 0.000246
# 5 -0.000071 -0.000409 -0.004934 0.007974 0.029639 -0.000950
# 6 0.003504 -0.001905 -0.001580 0.000246 -0.000950 0.030161
#
#
# Mechanical properties :
#
#
# Convention : Reuss Voigt Hill
#
# Bulk Modulus (GPa) = 40.05259 58.39673 49.22466
# Shear Modulus (GPa) = 34.41086 41.03242 37.72164
#
# Velocity S-wave (km/s) = 3.99535 4.36286 4.18314
# Velocity P-wave (km/s) = 6.31378 7.24355 6.79459
#
# Compressibility (1/GPa) = 0.02496718
#
# Stress axis : x y z
#
# Youngs Moduli (GPa) = 96.37541 105.68092 79.16621
#
# Poissons Ratio (x) = 0.10012 0.18429
# Poissons Ratio (y) = 0.09130 0.03770
# Poissons Ratio (z) = 0.22436 0.05033
#
# Static dielectric constant tensor:
#      x y z
#    x 4.269530 0.542750 -0.101890 
#    y 0.542750 6.553630 -0.935990 
#    z -0.101890 -0.935990 4.635190 
# 
# 
# High freq. dielectric constant tensor:
#      x y z
#    x 1.851150 -0.009040 0.020660 
#    y -0.009040 1.860150 0.012880 
#    z 0.020660 0.012880 1.852450 
# 
# From -- ./inp_files/255620.got.cif
#   From: 2010.06.25/outbox.cif.g09.slc.cpg/sg2_128_cif.got.tgz:255620.got - 2010.06.27 13:26:56.
