data_PCOD8006558
_publ_section_title
;
Structure prediction by ZEFSAII (Michael W. Deem and Ramdas Pophale) SiO2 
 PCOD8006558
Probable space group: P -1
;
_chemical_formula_sum "Si O2"
_cell_formula_units_Z 16
_cell_length_a 8.939133
_cell_length_b 23.306889
_cell_length_c 22.711652
_cell_angle_alpha 163.540350
_cell_angle_beta 150.367027
_cell_angle_gamma 31.065505
_cell_volume 653.920587
_symmetry_space_group_name_H-M "P -1"
_symmetry_group_IT_number 2
_symmetry_cell_setting 'triclinic'
loop_
_space_group_symop_operation_xyz
x,y,z
-x,-y,-z
loop_
_atom_site_type_symbol
_atom_site_label
_atom_site_fract_x
_atom_site_fract_y
_atom_site_fract_z
Si Si1 0.221282 0.609541 0.937735
Si Si2 0.806744 0.740007 0.029769
Si Si3 0.441825 0.117520 0.222789
Si Si4 0.895075 0.835983 0.517950
Si Si5 0.470744 0.390620 0.606729
Si Si6 0.322882 0.132576 0.652294
Si Si7 0.878407 0.252497 0.086672
Si Si8 0.702348 0.974133 0.334392
O O1 0.221454 0.373933 0.716386
O O2 0.043769 0.679988 0.885914
O O3 0.581724 0.639379 0.086627
O O4 0.065728 0.740246 0.068944
O O5 0.501742 0.892627 0.052346
O O6 0.912776 0.836294 0.221776
O O7 0.732169 0.512283 0.790046
O O8 0.324027 0.286865 0.399385
O O9 0.752795 0.166840 0.346281
O O10 0.184938 0.121131 0.088946
O O11 0.882877 0.891574 0.498515
O O12 0.663824 0.998181 0.635741
O O13 0.217944 0.542797 0.705867
O O14 0.642679 0.215658 0.536631
O O15 0.151756 0.070468 0.592407
O O16 0.619217 0.110135 0.856712
#
# Coordination Sequence:
#
# PCOD8006558 Si02
#       8
#     2   2   2   2   2   2   2   2
#     4  11  21  41  63  91 120 154 201 249 296 354
#     4  10  21  38  61  87 126 155 196 244 297 353
#     4  11  22  38  60  90 124 158 195 245 299 351
#     4  11  22  39  65  89 119 157 198 247 304 349
#     4  10  20  40  61  87 123 160 197 241 296 358
#     4  10  22  42  65  88 116 156 203 250 295 352
#     4  10  23  37  62  92 120 157 200 243 294 356
#     4   9  21  41  62  87 121 159 198 244 296 354
#
# _framework density 24.467801000000001
#
# number of rings (size 3 to 8) (size 9 to 14) (size 15 to 20)
#    0.000    1.750    2.500    1.500    0.000    6.500 
#    0.000    3.125    2.750    0.000    0.000    0.000 
#    0.000    0.000    0.000    0.000    0.000    0.000 
#
# Total GULP energy -198457.007704 kJ/mol
# GULP energy per Si atom -12403.562981 kJ/mol
# Density = 2.441211 g / cm^3
# Si number density = 24.467801 Si / 1000 Ang^3
#
#
#
# Elastic Constant Matrix: (Units=GPa)
#
#
# Indices 1 2 3 4 5 6 
#
# 1 151.4292 40.8294 42.8372 1.5676 23.0903 25.8368
# 2 40.8294 93.0456 26.1400 -17.2273 4.7972 10.0067
# 3 42.8372 26.1400 103.2556 14.2934 16.2002 8.5731
# 4 1.5676 -17.2273 14.2934 36.3980 8.2441 1.1917
# 5 23.0903 4.7972 16.2002 8.2441 25.4065 1.3897
# 6 25.8368 10.0067 8.5731 1.1917 1.3897 37.3418
#
#
#
# Elastic Compliance Matrix: (Units=1/GPa)
#
#
# Indices 1 2 3 4 5 6 
#
# 1 0.009903 -0.002666 -0.001971 0.000903 -0.007235 -0.005444
# 2 -0.002666 0.014749 -0.003580 0.008740 -0.000831 -0.001534
# 3 -0.001971 -0.003580 0.012833 -0.005773 -0.003826 -0.000296
# 4 0.000903 0.008740 -0.005773 0.036280 -0.010430 -0.002411
# 5 -0.007235 -0.000831 -0.003826 -0.010430 0.051669 0.004517
# 6 -0.005444 -0.001534 -0.000296 -0.002411 0.004517 0.030935
#
#
# Mechanical properties :
#
#
# Convention : Reuss Voigt Hill
#
# Bulk Modulus (GPa) = 47.50501 63.03818 55.27160
# Shear Modulus (GPa) = 27.80560 35.69085 31.74822
#
# Velocity S-wave (km/s) = 3.37473 3.82342 3.60606
# Velocity P-wave (km/s) = 5.88579 6.73135 6.32272
#
# Compressibility (1/GPa) = 0.02105041
#
# Stress axis : x y z
#
# Youngs Moduli (GPa) = 100.97913 67.80104 77.92579
#
# Poissons Ratio (x) = 0.18076 0.15361
# Poissons Ratio (y) = 0.26922 0.27896
# Poissons Ratio (z) = 0.19906 0.24272
#
# Static dielectric constant tensor:
#      x y z
#    x 4.724610 0.276580 -0.032350 
#    y 0.276580 4.202510 0.112720 
#    z -0.032350 0.112720 4.599770 
# 
# 
# High freq. dielectric constant tensor:
#      x y z
#    x 1.991100 0.010810 0.013080 
#    y 0.010810 1.955800 0.006050 
#    z 0.013080 0.006050 1.995740 
# 
# From -- ./inp_files/591807.got.cif
#   From: 2010.06.25/outbox.cif.g09.slc.cpg/sg2_296_cif.got.tgz:591807.got - 2010.06.27 13:26:56.
