data_PCOD8006247
_publ_section_title
;
Structure prediction by ZEFSAII (Michael W. Deem and Ramdas Pophale) SiO2 
 PCOD8006247
Probable space group: P -1
;
_chemical_formula_sum "Si O2"
_cell_formula_units_Z 14
_cell_length_a 22.751532
_cell_length_b 4.990383
_cell_length_c 6.029012
_cell_angle_alpha 85.069147
_cell_angle_beta 113.259075
_cell_angle_gamma 73.533436
_cell_volume 587.691588
_symmetry_space_group_name_H-M "P -1"
_symmetry_group_IT_number 2
_symmetry_cell_setting 'triclinic'
loop_
_space_group_symop_operation_xyz
x,y,z
-x,-y,-z
loop_
_atom_site_type_symbol
_atom_site_label
_atom_site_fract_x
_atom_site_fract_y
_atom_site_fract_z
Si Si1 0.985412 0.301438 0.172784
Si Si2 0.109349 0.837352 0.287709
Si Si3 0.584905 0.928501 0.880423
Si Si4 0.136178 0.432112 0.739476
Si Si5 0.545107 0.622615 0.217841
Si Si6 0.640706 0.356992 0.741565
Si Si7 0.200794 0.824317 0.056822
O O1 0.943350 0.472148 0.309130
O O2 0.938250 0.147300 0.997470
O O3 0.060885 0.077298 0.370722
O O4 0.000000 0.500000 0.000000
O O5 0.136884 0.534879 0.479141
O O6 0.172297 0.904590 0.261896
O O7 0.506311 0.136701 0.714819
O O8 0.631453 0.130599 0.922518
O O9 0.611611 0.684352 0.754345
O O10 0.590432 0.772577 0.137893
O O11 0.181203 0.560350 0.953061
O O12 0.170496 0.089774 0.823902
O O13 0.595979 0.360248 0.454306
O O14 0.500000 0.500000 0.000000
O O15 0.718830 0.269141 0.800132
#
# Coordination Sequence:
#
# PCOD8006247 Si02
#       7
#     2   2   2   2   2   2   2
#     4  10  20  39  66  98 128 164 225 277 333 384
#     4  10  23  41  64  95 132 170 218 282 325 385
#     4  11  25  44  69 102 131 171 220 274 337 398
#     4  11  24  43  67  93 131 178 220 274 330 386
#     4  11  25  44  73 106 132 168 226 280 335 394
#     4  12  26  43  69  95 140 180 216 278 334 395
#     4  11  26  44  61  95 132 177 227 259 323 406
#
# _framework density 23.822019999999998
#
# number of rings (size 3 to 8) (size 9 to 14) (size 15 to 20)
#    0.000    1.143    2.857    2.143    6.000    2.857 
#    0.000    0.000    0.000    0.000    0.000    0.000 
#    0.000    0.000    0.000    0.000    0.000    0.000 
#
# Total GULP energy -173548.631783 kJ/mol
# GULP energy per Si atom -12396.330842 kJ/mol
# Density = 2.376780 g / cm^3
# Si number density = 23.822020 Si / 1000 Ang^3
#
#
#
# Elastic Constant Matrix: (Units=GPa)
#
#
# Indices 1 2 3 4 5 6 
#
# 1 187.9447 43.4933 56.1756 -17.8496 -2.3507 -11.8832
# 2 43.4933 89.8568 16.5134 -21.5812 3.1503 -5.5907
# 3 56.1756 16.5134 80.9850 -25.2768 -3.6099 -12.0565
# 4 -17.8496 -21.5812 -25.2768 30.9131 8.8282 -5.6672
# 5 -2.3507 3.1503 -3.6099 8.8282 30.9658 -9.8821
# 6 -11.8832 -5.5907 -12.0565 -5.6672 -9.8821 38.0656
#
#
#
# Elastic Compliance Matrix: (Units=1/GPa)
#
#
# Indices 1 2 3 4 5 6 
#
# 1 0.007412 -0.003275 -0.005213 -0.002553 0.001039 0.000071
# 2 -0.003275 0.015766 0.003769 0.014066 -0.004319 0.003460
# 3 -0.005213 0.003769 0.022759 0.020153 -0.001043 0.008864
# 4 -0.002553 0.014066 0.020153 0.063393 -0.012969 0.013723
# 5 0.001039 -0.004319 -0.001043 -0.012969 0.038780 0.007496
# 6 0.000071 0.003460 0.008864 0.013723 0.007496 0.033598
#
#
# Mechanical properties :
#
#
# Convention : Reuss Voigt Hill
#
# Bulk Modulus (GPa) = 27.39754 65.68346 46.54050
# Shear Modulus (GPa) = 24.59289 36.16252 30.37770
#
# Velocity S-wave (km/s) = 3.21652 3.90042 3.57486
# Velocity P-wave (km/s) = 5.03196 6.92219 6.05134
#
# Compressibility (1/GPa) = 0.03649962
#
# Stress axis : x y z
#
# Youngs Moduli (GPa) = 134.92022 63.42779 43.93852
#
# Poissons Ratio (x) = 0.20769 0.22907
# Poissons Ratio (y) = 0.44180 -0.16562
# Poissons Ratio (z) = 0.70339 -0.23908
#
# Static dielectric constant tensor:
#      x y z
#    x 4.726880 -0.077620 0.013530 
#    y -0.077620 4.366630 -0.156720 
#    z 0.013530 -0.156720 4.211660 
# 
# 
# High freq. dielectric constant tensor:
#      x y z
#    x 1.951540 0.001710 -0.017130 
#    y 0.001710 1.945860 -0.014240 
#    z -0.017130 -0.014240 1.922800 
# 
# From -- ./inp_files/13998.got.cif
#   From: 2010.06.25/outbox.cif.g09.slc.cpg/sg2_7_cif.got.tgz:13998.got - 2010.06.27 13:26:56.
