data_PCOD8006050
_publ_section_title
;
Structure prediction by ZEFSAII (Michael W. Deem and Ramdas Pophale) SiO2 
 PCOD8006050
Probable space group: P -1
;
_chemical_formula_sum "Si O2"
_cell_formula_units_Z 12
_cell_length_a 9.198586
_cell_length_b 4.930654
_cell_length_c 18.097734
_cell_angle_alpha 115.469943
_cell_angle_beta 44.831852
_cell_angle_gamma 129.838620
_cell_volume 443.911772
_symmetry_space_group_name_H-M "P -1"
_symmetry_group_IT_number 2
_symmetry_cell_setting 'triclinic'
loop_
_space_group_symop_operation_xyz
x,y,z
-x,-y,-z
loop_
_atom_site_type_symbol
_atom_site_label
_atom_site_fract_x
_atom_site_fract_y
_atom_site_fract_z
Si Si1 0.586475 0.109020 0.584718
Si Si2 0.202525 0.879071 0.110997
Si Si3 0.614508 0.038925 0.793687
Si Si4 0.759379 0.757729 0.010308
Si Si5 0.664487 0.507421 0.295259
Si Si6 0.984080 0.330884 0.577268
O O1 0.358503 0.153469 0.663293
O O2 0.758022 0.281783 0.469866
O O3 0.783425 0.362345 0.605846
O O4 0.475045 0.704853 0.603640
O O5 0.362394 0.094905 0.149704
O O6 0.306960 0.645987 0.013160
O O7 0.937532 0.609289 0.207367
O O8 0.196294 0.120375 0.077167
O O9 0.887170 0.274776 0.689349
O O10 0.459178 0.708059 0.759095
O O11 0.472593 0.247433 0.874310
O O12 0.000000 0.000000 0.000000
O O13 0.000000 0.000000 0.500000
#
# Coordination Sequence:
#
# PCOD8006050 Si02
#       6
#     2   2   2   2   2   2
#     4  10  20  39  65 100 134 180 225 278 324 420
#     4  12  27  47  68 107 139 178 235 281 341 415
#     4  11  25  44  73 102 139 183 228 290 339 402
#     4  12  26  48  73 100 140 184 226 285 348 409
#     4  11  23  41  71  95 141 179 224 275 350 394
#     4  10  20  40  68 103 133 180 233 271 345 403
#
# _framework density 27.032402000000001
#
# number of rings (size 3 to 8) (size 9 to 14) (size 15 to 20)
#    0.000    1.000    5.000    2.500    2.333    2.667 
#    0.000    1.667    0.000    0.000    0.000    0.000 
#    0.000    0.000    0.000    0.000    0.000    0.000 
#
# Total GULP energy -148683.045518 kJ/mol
# GULP energy per Si atom -12390.253793 kJ/mol
# Density = 2.697088 g / cm^3
# Si number density = 27.032402 Si / 1000 Ang^3
#
#
#
# Elastic Constant Matrix: (Units=GPa)
#
#
# Indices 1 2 3 4 5 6 
#
# 1 120.8799 25.4562 65.4359 2.0873 11.6751 -23.9770
# 2 25.4562 68.4029 26.8882 -14.4125 7.5392 -19.7980
# 3 65.4359 26.8882 156.3699 -26.5996 -13.6637 3.5271
# 4 2.0873 -14.4125 -26.5996 39.4792 9.2339 -3.2289
# 5 11.6751 7.5392 -13.6637 9.2339 37.8702 7.2304
# 6 -23.9770 -19.7980 3.5271 -3.2289 7.2304 32.3265
#
#
#
# Elastic Compliance Matrix: (Units=1/GPa)
#
#
# Indices 1 2 3 4 5 6 
#
# 1 0.018330 0.004314 -0.010322 -0.001473 -0.013749 0.020292
# 2 0.004314 0.027177 -0.006602 0.011235 -0.016716 0.025426
# 3 -0.010322 -0.006602 0.013799 0.003461 0.011581 -0.015450
# 4 -0.001473 0.011235 0.003461 0.035440 -0.011369 0.011493
# 5 -0.013749 -0.016716 0.011581 -0.011369 0.047303 -0.033415
# 6 0.020292 0.025426 -0.015450 0.011493 -0.033415 0.071865
#
#
# Mechanical properties :
#
#
# Convention : Reuss Voigt Hill
#
# Bulk Modulus (GPa) = 29.33663 64.57926 46.95794
# Shear Modulus (GPa) = 19.96037 37.12668 28.54352
#
# Velocity S-wave (km/s) = 2.72028 3.70998 3.25299
# Velocity P-wave (km/s) = 4.55439 6.50334 5.61408
#
# Compressibility (1/GPa) = 0.03408708
#
# Stress axis : x y z
#
# Youngs Moduli (GPa) = 54.55398 36.79549 72.46924
#
# Poissons Ratio (x) = -0.15874 0.74805
# Poissons Ratio (y) = -0.23535 0.47841
# Poissons Ratio (z) = 0.56313 0.24291
#
# Static dielectric constant tensor:
#      x y z
#    x 5.156280 -0.011500 -0.112270 
#    y -0.011500 4.596260 -0.425700 
#    z -0.112270 -0.425700 5.462580 
# 
# 
# High freq. dielectric constant tensor:
#      x y z
#    x 2.103630 -0.005460 -0.009260 
#    y -0.005460 2.070740 -0.029690 
#    z -0.009260 -0.029690 2.100240 
# 
# From -- ./inp_files/552166.got.cif
#   From: 2010.06.25/outbox.cif.g09.slc.cpg/sg2_277_cif.got.tgz:552166.got - 2010.06.27 13:26:56.
