data_PCOD8006234
_publ_section_title
;
Structure prediction by ZEFSAII (Michael W. Deem and Ramdas Pophale) SiO2 
 PCOD8006234
Probable space group: P -1
;
_chemical_formula_sum "Si O2"
_cell_formula_units_Z 16
_cell_length_a 23.785174
_cell_length_b 8.293046
_cell_length_c 12.694697
_cell_angle_alpha 124.375671
_cell_angle_beta 22.125968
_cell_angle_gamma 131.870476
_cell_volume 689.327614
_symmetry_space_group_name_H-M "P -1"
_symmetry_group_IT_number 2
_symmetry_cell_setting 'triclinic'
loop_
_space_group_symop_operation_xyz
x,y,z
-x,-y,-z
loop_
_atom_site_type_symbol
_atom_site_label
_atom_site_fract_x
_atom_site_fract_y
_atom_site_fract_z
Si Si1 0.068805 0.545849 0.718929
Si Si2 0.768076 0.687515 0.073175
Si Si3 0.684772 0.017095 0.448682
Si Si4 0.596520 0.325014 0.061858
Si Si5 0.084836 0.679505 0.506430
Si Si6 0.564727 0.886939 0.210372
Si Si7 0.295147 0.656604 0.761222
Si Si8 0.349139 0.435413 0.157775
O O1 0.057409 0.551491 0.615769
O O2 0.183236 0.423303 0.499560
O O3 0.144911 0.787352 0.728648
O O4 0.872809 0.415122 0.047167
O O5 0.719731 0.884529 0.244938
O O6 0.672006 0.543322 0.085275
O O7 0.714988 0.532524 0.211935
O O8 0.974152 0.811441 0.748675
O O9 0.591231 0.846987 0.642946
O O10 0.567975 0.118363 0.647044
O O11 0.714468 0.198420 0.820545
O O12 0.590259 0.382285 0.972409
O O13 0.000000 0.500000 0.500000
O O14 0.457037 0.721810 0.430494
O O15 0.684357 0.133006 0.130583
O O16 0.688774 0.800337 0.913217
O O17 0.500000 0.500000 0.000000
#
# Coordination Sequence:
#
# PCOD8006234 Si02
#       8
#     2   2   2   2   2   2   2   2
#     4  10  23  43  64  91 133 163 212 263 316 373
#     4  10  20  39  66  95 127 163 207 263 313 374
#     4  12  23  38  64 100 127 166 210 259 318 379
#     4  10  21  38  67  91 127 167 212 259 311 374
#     4   8  18  37  59  88 122 161 201 252 310 363
#     4  11  24  41  67  93 126 170 217 253 317 379
#     4  10  23  43  67  93 128 166 208 267 311 379
#     4  11  23  44  63  93 129 171 209 263 315 373
#
# _framework density 23.211024999999999
#
# number of rings (size 3 to 8) (size 9 to 14) (size 15 to 20)
#    0.000    1.750    2.500    1.125    3.500    5.000 
#    0.000    2.500    0.000    0.000    0.000    0.000 
#    0.000    0.000    0.000    0.000    0.000    0.000 
#
# Total GULP energy -198280.028721 kJ/mol
# GULP energy per Si atom -12392.501795 kJ/mol
# Density = 2.315820 g / cm^3
# Si number density = 23.211025 Si / 1000 Ang^3
#
#
#
# Elastic Constant Matrix: (Units=GPa)
#
#
# Indices 1 2 3 4 5 6 
#
# 1 84.7177 9.2764 4.8276 -9.0919 -12.9373 4.4129
# 2 9.2764 91.4387 33.6769 4.8285 -3.7902 16.9254
# 3 4.8276 33.6769 78.4248 5.7104 -15.2974 9.6989
# 4 -9.0919 4.8285 5.7104 33.7226 8.5737 -9.6556
# 5 -12.9373 -3.7902 -15.2974 8.5737 30.3672 2.6416
# 6 4.4129 16.9254 9.6989 -9.6556 2.6416 20.3155
#
#
#
# Elastic Compliance Matrix: (Units=1/GPa)
#
#
# Indices 1 2 3 4 5 6 
#
# 1 0.013015 -0.001038 0.000999 0.001279 0.005782 -0.002583
# 2 -0.001038 0.015599 -0.003820 -0.006712 0.002736 -0.014492
# 3 0.000999 -0.003820 0.019127 -0.009332 0.013291 -0.012330
# 4 0.001279 -0.006712 -0.009332 0.048224 -0.021698 0.035511
# 5 0.005782 0.002736 0.013291 -0.021698 0.050889 -0.026811
# 6 -0.002583 -0.014492 -0.012330 0.035511 -0.026811 0.088109
#
#
# Mechanical properties :
#
#
# Convention : Reuss Voigt Hill
#
# Bulk Modulus (GPa) = 24.98555 38.90476 31.94515
# Shear Modulus (GPa) = 19.52958 30.66775 25.09867
#
# Velocity S-wave (km/s) = 2.90382 3.63885 3.29192
# Velocity P-wave (km/s) = 4.69370 5.86964 5.31430
#
# Compressibility (1/GPa) = 0.04002314
#
# Stress axis : x y z
#
# Youngs Moduli (GPa) = 76.83169 64.10746 52.28286
#
# Poissons Ratio (x) = 0.06654 -0.05222
# Poissons Ratio (y) = 0.07975 0.19971
# Poissons Ratio (z) = -0.07674 0.24488
#
# Static dielectric constant tensor:
#      x y z
#    x 4.186840 0.063950 -0.145540 
#    y 0.063950 4.015750 0.404710 
#    z -0.145540 0.404710 4.979470 
# 
# 
# High freq. dielectric constant tensor:
#      x y z
#    x 1.920630 0.011440 -0.009460 
#    y 0.011440 1.892000 0.022680 
#    z -0.009460 0.022680 1.924080 
# 
# From -- ./inp_files/543859.got.cif
#   From: 2010.06.25/outbox.cif.g09.slc.cpg/sg2_272_cif.got.tgz:543859.got - 2010.06.27 13:26:56.
