data_PCOD8007474
_publ_section_title
;
Structure prediction by ZEFSAII (Michael W. Deem and Ramdas Pophale) SiO2 
 PCOD8007474
Probable space group: P -1
;
_chemical_formula_sum "Si O2"
_cell_formula_units_Z 16
_cell_length_a 16.156332
_cell_length_b 9.119149
_cell_length_c 13.649433
_cell_angle_alpha 47.626458
_cell_angle_beta 146.867368
_cell_angle_gamma 118.448593
_cell_volume 792.506964
_symmetry_space_group_name_H-M "P -1"
_symmetry_group_IT_number 2
_symmetry_cell_setting 'triclinic'
loop_
_space_group_symop_operation_xyz
x,y,z
-x,-y,-z
loop_
_atom_site_type_symbol
_atom_site_label
_atom_site_fract_x
_atom_site_fract_y
_atom_site_fract_z
Si Si1 0.902823 0.189413 0.870828
Si Si2 0.523832 0.994333 0.689894
Si Si3 0.876780 0.925876 0.126984
Si Si4 0.052458 0.858822 0.524399
Si Si5 0.381493 0.318822 0.750421
Si Si6 0.555007 0.281946 0.429369
Si Si7 0.956890 0.465597 0.651441
Si Si8 0.368707 0.971455 0.746072
O O1 0.736714 0.197565 0.655446
O O2 0.964311 0.389210 0.807918
O O3 0.909548 0.136036 0.017048
O O4 0.000000 0.000000 0.000000
O O5 0.509511 0.807452 0.690438
O O6 0.401016 0.023122 0.643135
O O7 0.483160 0.205582 0.491756
O O8 0.695634 0.934914 0.931511
O O9 0.982671 0.722898 0.276042
O O10 0.917556 0.927877 0.279919
O O11 0.065050 0.625669 0.673842
O O12 0.217487 0.877116 0.638217
O O13 0.000000 0.000000 0.500000
O O14 0.475938 0.473422 0.723061
O O15 0.223573 0.433495 0.596574
O O16 0.337256 0.176541 0.685874
O O17 0.487204 0.191944 0.995223
#
# Coordination Sequence:
#
# PCOD8007474 Si02
#       8
#     2   2   2   2   2   2   2   2
#     4   8  17  35  64  87 119 151 192 248 305 349
#     4  10  22  40  64  95 121 154 200 249 307 360
#     4  10  22  40  64  91 120 158 196 254 306 354
#     4  12  25  41  59  88 124 164 205 246 297 357
#     4  10  22  42  62  86 122 164 201 251 297 353
#     4   9  20  39  65  91 120 153 201 251 299 360
#     4  10  20  41  64  88 119 156 202 250 305 352
#     4  11  25  39  61  86 123 165 203 245 298 360
#
# _framework density 20.189097
#
# number of rings (size 3 to 8) (size 9 to 14) (size 15 to 20)
#    0.000    2.000    1.250    1.125    8.750    1.000 
#    0.000    0.625    0.000    0.000    0.000    0.000 
#    0.000    0.000    0.000    0.000    0.000    0.000 
#
# Total GULP energy -198299.148265 kJ/mol
# GULP energy per Si atom -12393.696767 kJ/mol
# Density = 2.014315 g / cm^3
# Si number density = 20.189097 Si / 1000 Ang^3
#
#
#
# Elastic Constant Matrix: (Units=GPa)
#
#
# Indices 1 2 3 4 5 6 
#
# 1 128.8182 44.8100 37.6452 7.7765 -18.3937 14.3234
# 2 44.8100 95.1387 38.0380 6.2423 -25.8445 19.2589
# 3 37.6452 38.0380 60.9023 3.0744 -17.0683 -2.9180
# 4 7.7765 6.2423 3.0744 23.4293 0.9423 -6.5510
# 5 -18.3937 -25.8445 -17.0683 0.9423 34.4332 -6.6023
# 6 14.3234 19.2589 -2.9180 -6.5510 -6.6023 35.5051
#
#
#
# Elastic Compliance Matrix: (Units=1/GPa)
#
#
# Indices 1 2 3 4 5 6 
#
# 1 0.010744 -0.001383 -0.005455 -0.003790 0.001238 -0.004501
# 2 -0.001383 0.019571 -0.009468 -0.006807 0.007389 -0.010718
# 3 -0.005455 -0.009468 0.027685 0.003644 0.005782 0.011359
# 4 -0.003790 -0.006807 0.003644 0.049316 -0.004017 0.013873
# 5 0.001238 0.007389 0.005782 -0.004017 0.038689 0.002421
# 6 -0.004501 -0.010718 0.011359 0.013873 0.002421 0.039738
#
#
# Mechanical properties :
#
#
# Convention : Reuss Voigt Hill
#
# Bulk Modulus (GPa) = 39.38687 58.42728 48.90708
# Shear Modulus (GPa) = 22.04408 29.63124 25.83766
#
# Velocity S-wave (km/s) = 3.30795 3.83519 3.58129
# Velocity P-wave (km/s) = 5.84306 6.97241 6.43257
#
# Compressibility (1/GPa) = 0.02538917
#
# Stress axis : x y z
#
# Youngs Moduli (GPa) = 93.07325 51.09507 36.12017
#
# Poissons Ratio (x) = 0.07069 0.19702
# Poissons Ratio (y) = 0.12877 0.34198
# Poissons Ratio (z) = 0.50768 0.48376
#
# Static dielectric constant tensor:
#      x y z
#    x 6.370720 0.392750 -4.124170 
#    y 0.392750 3.693340 -0.084150 
#    z -4.124170 -0.084150 10.151790 
# 
# 
# High freq. dielectric constant tensor:
#      x y z
#    x 1.798180 0.024170 -0.009830 
#    y 0.024170 1.771470 -0.008420 
#    z -0.009830 -0.008420 1.794560 
# 
# From -- ./inp_files/354395.got.cif
#   From: 2010.06.25/outbox.cif.g09.slc.cpg/sg2_178_cif.got.tgz:354395.got - 2010.06.27 13:26:56.
