data_PCOD8007460
_publ_section_title
;
Structure prediction by ZEFSAII (Michael W. Deem and Ramdas Pophale) SiO2 
 PCOD8007460
Probable space group: P -1
;
_chemical_formula_sum "Si O2"
_cell_formula_units_Z 14
_cell_length_a 20.262669
_cell_length_b 9.460878
_cell_length_c 13.114843
_cell_angle_alpha 35.929533
_cell_angle_beta 148.549266
_cell_angle_gamma 141.437057
_cell_volume 734.849117
_symmetry_space_group_name_H-M "P -1"
_symmetry_group_IT_number 2
_symmetry_cell_setting 'triclinic'
loop_
_space_group_symop_operation_xyz
x,y,z
-x,-y,-z
loop_
_atom_site_type_symbol
_atom_site_label
_atom_site_fract_x
_atom_site_fract_y
_atom_site_fract_z
Si Si1 0.347178 0.972058 0.312789
Si Si2 0.100890 0.537275 0.922352
Si Si3 0.020540 0.056416 0.212480
Si Si4 0.793554 0.973585 0.111139
Si Si5 0.184739 0.522086 0.492091
Si Si6 0.851051 0.325152 0.425501
Si Si7 0.199431 0.307178 0.998373
O O1 0.264803 0.694495 0.405816
O O2 0.500000 0.000000 0.500000
O O3 0.320464 0.185874 0.226949
O O4 0.305940 0.017554 0.116678
O O5 0.970252 0.586161 0.675633
O O6 0.201831 0.803547 0.933576
O O7 0.064748 0.355385 0.079077
O O8 0.173967 0.397272 0.023518
O O9 0.149488 0.954089 0.448726
O O10 0.939938 0.002189 0.243025
O O11 0.929316 0.914366 0.080813
O O12 0.751991 0.706895 0.271849
O O13 0.196855 0.686824 0.514489
O O14 0.000000 0.500000 0.500000
O O15 0.759889 0.446439 0.165659
#
# Coordination Sequence:
#
# PCOD8007460 Si02
#       7
#     2   2   2   2   2   2   2
#     4  11  25  43  62  80 108 160 213 239 268 330
#     4  12  20  32  60  94 123 149 173 236 315 354
#     4  10  17  31  53  82 125 149 179 223 279 360
#     4  11  23  37  53  92 124 147 187 236 293 357
#     4  12  20  36  62  88 121 152 182 238 299 342
#     4  10  16  30  56  87 118 145 187 230 282 355
#     4  10  18  36  56  83 119 146 195 237 277 343
#
# _framework density 19.051528999999999
#
# number of rings (size 3 to 8) (size 9 to 14) (size 15 to 20)
#    0.000    1.143   10.000    2.143    0.000    0.571 
#    0.000    0.714    0.000    0.857    0.000    0.000 
#    0.000    0.000    0.000    0.000    0.000    0.000 
#
# Total GULP energy -173549.201396 kJ/mol
# GULP energy per Si atom -12396.371528 kJ/mol
# Density = 1.900817 g / cm^3
# Si number density = 19.051529 Si / 1000 Ang^3
#
#
#
# Elastic Constant Matrix: (Units=GPa)
#
#
# Indices 1 2 3 4 5 6 
#
# 1 63.0816 33.8725 37.2651 -0.6815 11.5717 -10.9549
# 2 33.8725 59.7874 45.2551 -17.2715 10.2934 -17.3829
# 3 37.2651 45.2551 118.5278 -26.6828 7.2178 9.0516
# 4 -0.6815 -17.2715 -26.6828 28.7534 2.1596 -1.6712
# 5 11.5717 10.2934 7.2178 2.1596 28.7927 -5.9718
# 6 -10.9549 -17.3829 9.0516 -1.6712 -5.9718 24.0314
#
#
#
# Elastic Compliance Matrix: (Units=1/GPa)
#
#
# Indices 1 2 3 4 5 6 
#
# 1 0.027891 -0.011922 -0.007291 -0.012733 -0.003089 0.005184
# 2 -0.011922 0.051441 -0.014001 0.020091 -0.003819 0.037496
# 3 -0.007291 -0.014001 0.019732 0.008670 -0.001969 -0.020770
# 4 -0.012733 0.020091 0.008670 0.055546 -0.006822 0.007630
# 5 -0.003089 -0.003819 -0.001969 -0.006822 0.039573 0.005930
# 6 0.005184 0.037496 -0.020770 0.007630 0.005930 0.080925
#
#
# Mechanical properties :
#
#
# Convention : Reuss Voigt Hill
#
# Bulk Modulus (GPa) = 30.64006 52.68691 41.66348
# Shear Modulus (GPa) = 14.18786 24.64912 19.41849
#
# Velocity S-wave (km/s) = 2.73190 3.60086 3.19605
# Velocity P-wave (km/s) = 5.10575 6.70845 5.96121
#
# Compressibility (1/GPa) = 0.03263701
#
# Stress axis : x y z
#
# Youngs Moduli (GPa) = 35.85439 19.43972 50.67807
#
# Poissons Ratio (x) = 0.23176 0.36950
# Poissons Ratio (y) = 0.42745 0.70952
# Poissons Ratio (z) = 0.26142 0.27217
#
# Static dielectric constant tensor:
#      x y z
#    x 3.376230 -0.233280 -0.058910 
#    y -0.233280 3.345290 -0.647480 
#    z -0.058910 -0.647480 3.816160 
# 
# 
# High freq. dielectric constant tensor:
#      x y z
#    x 1.725160 -0.024040 -0.019290 
#    y -0.024040 1.703020 -0.052690 
#    z -0.019290 -0.052690 1.736530 
# 
# From -- ./inp_files/195609.got.cif
#   From: 2010.06.25/outbox.cif.g09.slc.cpg/sg2_98_cif.got.tgz:195609.got - 2010.06.27 13:26:56.
