data_PCOD8007472
_publ_section_title
;
Structure prediction by ZEFSAII (Michael W. Deem and Ramdas Pophale) SiO2 
 PCOD8007472
Probable space group: P -1
;
_chemical_formula_sum "Si O2"
_cell_formula_units_Z 16
_cell_length_a 15.837783
_cell_length_b 8.430007
_cell_length_c 10.788585
_cell_angle_alpha 136.459272
_cell_angle_beta 127.770528
_cell_angle_gamma 75.443197
_cell_volume 733.619923
_symmetry_space_group_name_H-M "P -1"
_symmetry_group_IT_number 2
_symmetry_cell_setting 'triclinic'
loop_
_space_group_symop_operation_xyz
x,y,z
-x,-y,-z
loop_
_atom_site_type_symbol
_atom_site_label
_atom_site_fract_x
_atom_site_fract_y
_atom_site_fract_z
Si Si1 0.129854 0.670032 0.025440
Si Si2 0.916725 0.748556 0.839204
Si Si3 0.401085 0.818715 0.654706
Si Si4 0.711814 0.341324 0.055025
Si Si5 0.344543 0.005528 0.955615
Si Si6 0.222398 0.358124 0.110676
Si Si7 0.759511 0.778499 0.515298
Si Si8 0.468567 0.245035 0.759560
O O1 0.158873 0.474836 0.023690
O O2 0.163755 0.935108 0.274346
O O3 0.193744 0.704386 0.970767
O O4 0.992605 0.572765 0.821333
O O5 0.869419 0.788865 0.952693
O O6 0.810100 0.646435 0.590998
O O7 0.000000 0.000000 0.000000
O O8 0.523769 0.818187 0.808762
O O9 0.330762 0.557393 0.385182
O O10 0.413487 0.026375 0.682224
O O11 0.330147 0.859926 0.731363
O O12 0.750562 0.628759 0.293571
O O13 0.590126 0.247719 0.815535
O O14 0.695785 0.183587 0.075284
O O15 0.265619 0.169903 0.968599
O O16 0.631421 0.767783 0.436406
O O17 0.500000 0.500000 0.000000
#
# Coordination Sequence:
#
# PCOD8007472 Si02
#       8
#     2   2   2   2   2   2   2   2
#     4  11  24  40  63  93 125 164 213 263 310 363
#     4  10  23  43  65  88 121 168 215 263 308 363
#     4  10  21  40  60  94 130 165 204 249 313 371
#     4  10  22  40  63  95 125 166 206 252 313 379
#     4  10  22  38  63  93 130 166 203 252 305 379
#     4  12  23  40  64  91 126 163 207 262 313 370
#     4  10  20  41  64  87 124 166 207 259 304 366
#     4   9  19  36  62  94 127 159 200 250 308 372
#
# _framework density 21.809659
#
# number of rings (size 3 to 8) (size 9 to 14) (size 15 to 20)
#    0.000    1.750    1.250    3.000    3.500    2.000 
#    2.250    2.500    0.000    6.000    0.000    0.000 
#    0.000    0.000    0.000    0.000    0.000    0.000 
#
# Total GULP energy -198319.993542 kJ/mol
# GULP energy per Si atom -12394.999596 kJ/mol
# Density = 2.176002 g / cm^3
# Si number density = 21.809659 Si / 1000 Ang^3
#
#
#
# Elastic Constant Matrix: (Units=GPa)
#
#
# Indices 1 2 3 4 5 6 
#
# 1 122.2984 43.2528 23.5591 -6.0143 5.5186 -5.5089
# 2 43.2528 103.1307 36.7659 -16.8304 13.7631 -26.0888
# 3 23.5591 36.7659 53.3129 -9.6868 2.6664 -7.8912
# 4 -6.0143 -16.8304 -9.6868 44.4847 -7.3302 11.3604
# 5 5.5186 13.7631 2.6664 -7.3302 18.7092 -4.3721
# 6 -5.5089 -26.0888 -7.8912 11.3604 -4.3721 40.2986
#
#
#
# Elastic Compliance Matrix: (Units=1/GPa)
#
#
# Indices 1 2 3 4 5 6 
#
# 1 0.009833 -0.003791 -0.001972 -0.000201 -0.000252 -0.001467
# 2 -0.003791 0.017725 -0.008779 0.000823 -0.008457 0.008088
# 3 -0.001972 -0.008779 0.025835 0.003071 0.004257 -0.001297
# 4 -0.000201 0.000823 0.003071 0.026126 0.007993 -0.005391
# 5 -0.000252 -0.008457 0.004257 0.007993 0.062229 -0.000178
# 6 -0.001467 0.008088 -0.001297 -0.005391 -0.000178 0.031097
#
#
# Mechanical properties :
#
#
# Convention : Reuss Voigt Hill
#
# Bulk Modulus (GPa) = 41.13511 53.98863 47.56187
# Shear Modulus (GPa) = 23.80599 32.37613 28.09106
#
# Velocity S-wave (km/s) = 3.30742 3.85708 3.59278
# Velocity P-wave (km/s) = 5.78682 6.68164 6.25026
#
# Compressibility (1/GPa) = 0.02431014
#
# Stress axis : x y z
#
# Youngs Moduli (GPa) = 101.70072 56.41766 38.70665
#
# Poissons Ratio (x) = 0.21389 0.07632
# Poissons Ratio (y) = 0.38557 0.33979
# Poissons Ratio (z) = 0.20052 0.49526
#
# Static dielectric constant tensor:
#      x y z
#    x 4.113370 -0.461390 0.381290 
#    y -0.461390 4.280560 -0.411790 
#    z 0.381290 -0.411790 4.092560 
# 
# 
# High freq. dielectric constant tensor:
#      x y z
#    x 1.849870 -0.015060 0.012840 
#    y -0.015060 1.867470 -0.006740 
#    z 0.012840 -0.006740 1.845330 
# 
# From -- ./inp_files/448426.got.cif
#   From: 2010.06.25/outbox.cif.g09.slc.cpg/sg2_225_cif.got.tgz:448426.got - 2010.06.27 13:26:56.
