data_PCOD8007501
_publ_section_title
;
Structure prediction by ZEFSAII (Michael W. Deem and Ramdas Pophale) SiO2 
 PCOD8007501
Probable space group: P -1
;
_chemical_formula_sum "Si O2"
_cell_formula_units_Z 16
_cell_length_a 9.223214
_cell_length_b 10.333105
_cell_length_c 12.157692
_cell_angle_alpha 53.354513
_cell_angle_beta 124.042178
_cell_angle_gamma 112.466483
_cell_volume 768.329542
_symmetry_space_group_name_H-M "P -1"
_symmetry_group_IT_number 2
_symmetry_cell_setting 'triclinic'
loop_
_space_group_symop_operation_xyz
x,y,z
-x,-y,-z
loop_
_atom_site_type_symbol
_atom_site_label
_atom_site_fract_x
_atom_site_fract_y
_atom_site_fract_z
Si Si1 0.763468 0.946441 0.707054
Si Si2 0.225207 0.719544 0.810480
Si Si3 0.595374 0.990642 0.380477
Si Si4 0.223700 0.511970 0.703113
Si Si5 0.590789 0.406099 0.833690
Si Si6 0.102045 0.356649 0.166007
Si Si7 0.899478 0.285536 0.649173
Si Si8 0.570024 0.325595 0.632159
O O1 0.711759 0.981103 0.542699
O O2 0.867562 0.784076 0.839122
O O3 0.587027 0.927962 0.714467
O O4 0.894904 0.091877 0.734305
O O5 0.262722 0.589533 0.799270
O O6 0.015098 0.717037 0.744719
O O7 0.294383 0.899545 0.715706
O O8 0.325521 0.677131 0.985181
O O9 0.559885 0.810819 0.409875
O O10 0.401522 0.460726 0.753409
O O11 0.143069 0.643763 0.524213
O O12 0.090552 0.352866 0.737435
O O13 0.706174 0.566382 0.757799
O O14 0.580014 0.283499 0.787862
O O15 0.000000 0.500000 0.000000
O O16 0.761857 0.333846 0.656854
O O17 0.500000 0.500000 0.500000
#
# Coordination Sequence:
#
# PCOD8007501 Si02
#       8
#     2   2   2   2   2   2   2   2
#     4  10  20  41  64  92 129 165 217 261 324 375
#     4  11  23  41  61  95 128 164 220 263 319 385
#     4  10  22  37  66  95 125 168 213 268 317 378
#     4  11  21  39  62  95 128 165 215 259 324 374
#     4  11  23  40  65  87 128 177 209 260 323 389
#     4  10  23  40  63  90 127 172 211 261 317 384
#     4  10  22  38  64  95 128 161 213 274 310 378
#     4  11  21  39  62  93 127 170 211 260 325 378
#
# _framework density 20.824397000000001
#
# number of rings (size 3 to 8) (size 9 to 14) (size 15 to 20)
#    0.000    1.500    2.500    2.625    1.750    3.000 
#    0.000    1.250    0.000   10.500    0.000    0.000 
#    0.000    0.000    0.000    0.000    0.000    0.000 
#
# Total GULP energy -198410.947635 kJ/mol
# GULP energy per Si atom -12400.684227 kJ/mol
# Density = 2.077700 g / cm^3
# Si number density = 20.824397 Si / 1000 Ang^3
#
#
#
# Elastic Constant Matrix: (Units=GPa)
#
#
# Indices 1 2 3 4 5 6 
#
# 1 144.2232 77.5305 27.2184 -10.7196 -3.5860 14.9224
# 2 77.5305 136.3753 36.9421 -10.2174 5.1843 -4.1795
# 3 27.2184 36.9421 64.8009 -0.1717 -9.1404 -1.2072
# 4 -10.7196 -10.2174 -0.1717 36.6293 -7.1762 -2.9290
# 5 -3.5860 5.1843 -9.1404 -7.1762 33.0921 0.4396
# 6 14.9224 -4.1795 -1.2072 -2.9290 0.4396 46.8530
#
#
#
# Elastic Compliance Matrix: (Units=1/GPa)
#
#
# Indices 1 2 3 4 5 6 
#
# 1 0.010957 -0.006077 -0.000883 0.001641 0.002304 -0.003974
# 2 -0.006077 0.012476 -0.005035 0.001178 -0.003789 0.003028
# 3 -0.000883 -0.005035 0.019523 -0.000375 0.006001 0.000255
# 4 0.001641 0.001178 -0.000375 0.029442 0.006256 0.001355
# 5 0.002304 -0.003789 0.006001 0.006256 0.034087 -0.000846
# 6 -0.003974 0.003028 0.000255 0.001355 -0.000846 0.022978
#
#
# Mechanical properties :
#
#
# Convention : Reuss Voigt Hill
#
# Bulk Modulus (GPa) = 52.72073 69.86460 61.29267
# Shear Modulus (GPa) = 31.29380 36.89545 34.09463
#
# Velocity S-wave (km/s) = 3.88073 4.21377 4.05068
# Velocity P-wave (km/s) = 6.74180 7.56946 7.16759
#
# Compressibility (1/GPa) = 0.01896787
#
# Stress axis : x y z
#
# Youngs Moduli (GPa) = 91.26289 80.15199 51.22071
#
# Poissons Ratio (x) = 0.48705 0.04522
# Poissons Ratio (y) = 0.55457 0.25790
# Poissons Ratio (z) = 0.08058 0.40357
#
# Static dielectric constant tensor:
#      x y z
#    x 4.233050 0.082490 -0.095750 
#    y 0.082490 4.124260 0.139000 
#    z -0.095750 0.139000 3.566300 
# 
# 
# High freq. dielectric constant tensor:
#      x y z
#    x 1.831940 0.003900 -0.005550 
#    y 0.003900 1.825330 0.004380 
#    z -0.005550 0.004380 1.790200 
# 
# From -- ./inp_files/184946.got.cif
#   From: 2010.06.25/outbox.cif.g09.slc.cpg/sg2_93_cif.got.tgz:184946.got - 2010.06.27 13:26:56.
