data_PCOD8007799
_publ_section_title
;
Structure prediction by ZEFSAII (Michael W. Deem and Ramdas Pophale) SiO2 
 PCOD8007799
Probable space group: P -1
;
_chemical_formula_sum "Si O2"
_cell_formula_units_Z 16
_cell_length_a 10.554628
_cell_length_b 9.533443
_cell_length_c 15.227364
_cell_angle_alpha 68.671224
_cell_angle_beta 148.033917
_cell_angle_gamma 97.986151
_cell_volume 709.510478
_symmetry_space_group_name_H-M "P -1"
_symmetry_group_IT_number 2
_symmetry_cell_setting 'triclinic'
loop_
_space_group_symop_operation_xyz
x,y,z
-x,-y,-z
loop_
_atom_site_type_symbol
_atom_site_label
_atom_site_fract_x
_atom_site_fract_y
_atom_site_fract_z
Si Si1 0.930765 0.680610 0.445073
Si Si2 0.753903 0.657440 0.521550
Si Si3 0.271733 0.279718 0.193429
Si Si4 0.247649 0.671165 0.475173
Si Si5 0.894987 0.420271 0.087230
Si Si6 0.435710 0.791984 0.028147
Si Si7 0.760062 0.893546 0.070293
Si Si8 0.704475 0.020943 0.822450
O O1 0.942338 0.705828 0.552055
O O2 0.635847 0.769903 0.229364
O O3 0.000000 0.500000 0.500000
O O4 0.123134 0.734423 0.484461
O O5 0.686400 0.515882 0.465492
O O6 0.487698 0.800202 0.351410
O O7 0.899978 0.598274 0.711538
O O8 0.489873 0.296384 0.381611
O O9 0.017412 0.326148 0.092023
O O10 0.347196 0.095335 0.253570
O O11 0.232067 0.392855 0.057435
O O12 0.052397 0.773603 0.262761
O O13 0.682086 0.349175 0.011924
O O14 0.582976 0.793986 0.023241
O O15 0.230476 0.967349 0.887426
O O16 0.642838 0.964881 0.893082
O O17 0.000000 0.000000 0.000000
#
# Coordination Sequence:
#
# PCOD8007799 Si02
#       8
#     2   2   2   2   2   2   2   2
#     4   9  18  38  66  95 127 174 215 265 328 387
#     4  11  24  42  68  98 133 179 220 271 338 397
#     4  11  27  44  66  99 134 176 226 277 330 394
#     4  10  23  43  69  97 134 174 224 271 329 402
#     4  11  25  43  68  95 136 176 228 272 335 391
#     4  10  20  41  68  98 133 177 218 277 328 394
#     4  10  22  41  70  98 134 175 224 269 337 388
#     4  12  27  44  67 100 140 174 222 276 334 395
#
# _framework density 22.55076
#
# number of rings (size 3 to 8) (size 9 to 14) (size 15 to 20)
#    0.000    1.500    1.250    3.000    7.000    2.000 
#    0.000    8.125    0.000    0.000    0.000    0.000 
#    0.000    0.000    0.000    0.000    0.000    0.000 
#
# Total GULP energy -198323.799230 kJ/mol
# GULP energy per Si atom -12395.237452 kJ/mol
# Density = 2.249943 g / cm^3
# Si number density = 22.550760 Si / 1000 Ang^3
#
#
#
# Elastic Constant Matrix: (Units=GPa)
#
#
# Indices 1 2 3 4 5 6 
#
# 1 70.7193 26.7495 33.4490 7.0127 0.1695 5.1056
# 2 26.7495 110.3937 38.8273 -6.6006 12.0798 -6.1431
# 3 33.4490 38.8273 93.9744 -9.3713 2.0629 -0.9025
# 4 7.0127 -6.6006 -9.3713 35.2827 -4.1537 6.7446
# 5 0.1695 12.0798 2.0629 -4.1537 32.2070 0.2429
# 6 5.1056 -6.1431 -0.9025 6.7446 0.2429 32.7161
#
#
#
# Elastic Compliance Matrix: (Units=1/GPa)
#
#
# Indices 1 2 3 4 5 6 
#
# 1 0.018841 -0.002981 -0.006047 -0.005330 0.000738 -0.002574
# 2 -0.002981 0.011660 -0.003555 0.000896 -0.004032 0.002402
# 3 -0.006047 -0.003555 0.014697 0.004614 0.001021 -0.000277
# 4 -0.005330 0.000896 0.004614 0.032281 0.003602 -0.005554
# 5 0.000738 -0.004032 0.001021 0.003602 0.032971 -0.001832
# 6 -0.002574 0.002402 -0.000277 -0.005554 -0.001832 0.032570
#
#
# Mechanical properties :
#
#
# Convention : Reuss Voigt Hill
#
# Bulk Modulus (GPa) = 49.92241 52.57101 51.24671
# Shear Modulus (GPa) = 28.59392 31.77860 30.18626
#
# Velocity S-wave (km/s) = 3.56473 3.75801 3.66265
# Velocity P-wave (km/s) = 6.25531 6.49562 6.37660
#
# Compressibility (1/GPa) = 0.02003109
#
# Stress axis : x y z
#
# Youngs Moduli (GPa) = 53.07703 85.76460 68.03902
#
# Poissons Ratio (x) = 0.25568 0.41141
# Poissons Ratio (y) = 0.15823 0.24191
# Poissons Ratio (z) = 0.32094 0.30493
#
# Static dielectric constant tensor:
#      x y z
#    x 4.442420 -0.033600 -0.066310 
#    y -0.033600 3.783340 -0.301620 
#    z -0.066310 -0.301620 3.948230 
# 
# 
# High freq. dielectric constant tensor:
#      x y z
#    x 1.898320 -0.003450 -0.003620 
#    y -0.003450 1.872790 -0.027670 
#    z -0.003620 -0.027670 1.883240 
# 
# From -- ./inp_files/515566.got.cif
#   From: 2010.06.25/outbox.cif.g09.slc.cpg/sg2_258_cif.got.tgz:515566.got - 2010.06.27 13:26:56.
