data_PCOD8007315
_publ_section_title
;
Structure prediction by ZEFSAII (Michael W. Deem and Ramdas Pophale) SiO2 
 PCOD8007315
Probable space group: P -1
;
_chemical_formula_sum "Si O2"
_cell_formula_units_Z 14
_cell_length_a 9.396892
_cell_length_b 12.188426
_cell_length_c 7.831602
_cell_angle_alpha 88.095034
_cell_angle_beta 57.166549
_cell_angle_gamma 52.600495
_cell_volume 536.624875
_symmetry_space_group_name_H-M "P -1"
_symmetry_group_IT_number 2
_symmetry_cell_setting 'triclinic'
loop_
_space_group_symop_operation_xyz
x,y,z
-x,-y,-z
loop_
_atom_site_type_symbol
_atom_site_label
_atom_site_fract_x
_atom_site_fract_y
_atom_site_fract_z
Si Si1 0.457753 0.164409 0.186555
Si Si2 0.838523 0.194089 0.235248
Si Si3 0.232807 0.603287 0.221526
Si Si4 0.205132 0.197790 0.025772
Si Si5 0.848879 0.652502 0.286061
Si Si6 0.338309 0.478498 0.524794
Si Si7 0.874257 0.124655 0.848318
O O1 0.313021 0.242570 0.451157
O O2 0.643295 0.980793 0.088795
O O3 0.269869 0.230956 0.153729
O O4 0.602000 0.207563 0.034985
O O5 0.563968 0.290826 0.377574
O O6 0.969567 0.123684 0.970706
O O7 0.947832 0.056894 0.308007
O O8 0.921710 0.284055 0.230916
O O9 0.222769 0.556964 0.415492
O O10 0.105512 0.781815 0.298776
O O11 0.111741 0.577651 0.163256
O O12 0.500000 0.500000 0.000000
O O13 0.249613 0.249776 0.827518
O O14 0.853931 0.516116 0.256928
O O15 0.500000 0.500000 0.500000
#
# Coordination Sequence:
#
# PCOD8007315 Si02
#       7
#     2   2   2   2   2   2   2
#     4  10  22  40  68 105 140 175 226 284 340 411
#     4  10  20  44  66  98 135 179 222 283 340 409
#     4  12  24  46  69 100 133 181 227 281 351 414
#     4  10  22  40  68 105 139 176 226 281 344 409
#     4  12  24  44  69  96 138 186 228 282 344 408
#     4  12  28  45  65 100 140 176 236 287 339 410
#     4  10  20  40  73  95 133 180 225 275 347 408
#
# _framework density 26.088989999999999
#
# number of rings (size 3 to 8) (size 9 to 14) (size 15 to 20)
#    0.000    1.143    4.286    0.857    4.000    1.143 
#    0.000    2.143    0.000    0.000    0.000    0.000 
#    0.000    0.000    0.000    0.000    0.000    0.000 
#
# Total GULP energy -173490.712656 kJ/mol
# GULP energy per Si atom -12392.193761 kJ/mol
# Density = 2.602961 g / cm^3
# Si number density = 26.088990 Si / 1000 Ang^3
#
#
#
# Elastic Constant Matrix: (Units=GPa)
#
#
# Indices 1 2 3 4 5 6 
#
# 1 183.8655 65.5674 41.5395 -22.5163 -16.0772 2.4621
# 2 65.5674 138.9890 27.9760 -46.6025 -22.3605 -4.1324
# 3 41.5395 27.9760 65.6349 -12.2541 -11.8955 -10.9110
# 4 -22.5163 -46.6025 -12.2541 42.6283 4.0504 -3.2306
# 5 -16.0772 -22.3605 -11.8955 4.0504 39.1647 -6.6287
# 6 2.4621 -4.1324 -10.9110 -3.2306 -6.6287 47.2863
#
#
#
# Elastic Compliance Matrix: (Units=1/GPa)
#
#
# Indices 1 2 3 4 5 6 
#
# 1 0.007269 -0.002900 -0.003715 -0.000513 -0.000005 -0.001525
# 2 -0.002900 0.014220 -0.000056 0.013664 0.006033 0.003160
# 3 -0.003715 -0.000056 0.020219 0.003738 0.005185 0.005836
# 4 -0.000513 0.013664 0.003738 0.039086 0.005622 0.005542
# 5 -0.000005 0.006033 0.005185 0.005622 0.031063 0.006462
# 6 -0.001525 0.003160 0.005836 0.005542 0.006462 0.024135
#
#
# Mechanical properties :
#
#
# Convention : Reuss Voigt Hill
#
# Bulk Modulus (GPa) = 35.25256 73.18394 54.21825
# Shear Modulus (GPa) = 31.48839 42.70962 37.09901
#
# Velocity S-wave (km/s) = 3.47790 4.05047 3.77506
# Velocity P-wave (km/s) = 5.44697 7.07019 6.31099
#
# Compressibility (1/GPa) = 0.02836673
#
# Stress axis : x y z
#
# Youngs Moduli (GPa) = 137.56644 70.32229 49.45936
#
# Poissons Ratio (x) = 0.20392 0.18373
# Poissons Ratio (y) = 0.39891 0.00277
# Poissons Ratio (z) = 0.51104 0.00394
#
# Static dielectric constant tensor:
#      x y z
#    x 5.053320 0.607000 0.089630 
#    y 0.607000 3.384600 -1.285160 
#    z 0.089630 -1.285160 3.737450 
# 
# 
# High freq. dielectric constant tensor:
#      x y z
#    x 2.076860 0.007570 -0.013900 
#    y 0.007570 2.076640 0.013980 
#    z -0.013900 0.013980 2.023240 
# 
# From -- ./inp_files/176885.got.cif
#   From: 2010.06.25/outbox.cif.g09.slc.cpg/sg2_89_cif.got.tgz:176885.got - 2010.06.27 13:26:56.
