data_PCOD8007607
_publ_section_title
;
Structure prediction by ZEFSAII (Michael W. Deem and Ramdas Pophale) SiO2 
 PCOD8007607
Probable space group: P -1
;
_chemical_formula_sum "Si O2"
_cell_formula_units_Z 16
_cell_length_a 9.116377
_cell_length_b 17.315461
_cell_length_c 7.139603
_cell_angle_alpha 104.888748
_cell_angle_beta 89.433550
_cell_angle_gamma 134.172918
_cell_volume 757.583369
_symmetry_space_group_name_H-M "P -1"
_symmetry_group_IT_number 2
_symmetry_cell_setting 'triclinic'
loop_
_space_group_symop_operation_xyz
x,y,z
-x,-y,-z
loop_
_atom_site_type_symbol
_atom_site_label
_atom_site_fract_x
_atom_site_fract_y
_atom_site_fract_z
Si Si1 0.758354 0.925514 0.466828
Si Si2 0.096726 0.666824 0.047998
Si Si3 0.895727 0.744704 0.973040
Si Si4 0.320010 0.007293 0.149815
Si Si5 0.536167 0.606426 0.594481
Si Si6 0.588040 0.692908 0.235711
Si Si7 0.491628 0.077051 0.795626
Si Si8 0.224878 0.548833 0.857275
O O1 0.622587 0.800980 0.305618
O O2 0.703367 0.981689 0.377050
O O3 0.705486 0.923783 0.681879
O O4 0.000000 0.000000 0.500000
O O5 0.153309 0.613219 0.882000
O O6 0.304203 0.794044 0.195816
O O7 0.955426 0.674307 0.936141
O O8 0.975558 0.586831 0.184442
O O9 0.784566 0.724591 0.157578
O O10 0.098836 0.879285 0.023034
O O11 0.743989 0.702775 0.774768
O O12 0.468085 0.002065 0.254657
O O13 0.432937 0.082401 0.008780
O O14 0.500000 0.500000 0.500000
O O15 0.566310 0.656730 0.424794
O O16 0.334274 0.566842 0.673586
O O17 0.377339 0.593714 0.060834
#
# Coordination Sequence:
#
# PCOD8007607 Si02
#       8
#     2   2   2   2   2   2   2   2
#     4  12  24  39  63  94 125 161 206 253 304 364
#     4  10  20  41  66  85 121 166 200 250 315 355
#     4  10  22  41  63  89 125 163 200 253 308 363
#     4  10  23  41  65  90 123 166 206 247 305 365
#     4  11  24  41  64  93 122 161 208 253 302 371
#     4  11  23  41  62  94 125 163 202 253 307 363
#     4  10  23  43  63  89 125 165 204 253 303 362
#     4  10  22  42  64  89 124 160 202 258 308 359
#
# _framework density 21.119786999999999
#
# number of rings (size 3 to 8) (size 9 to 14) (size 15 to 20)
#    0.000    1.500    2.500    1.875    3.500    2.500 
#    0.000   11.875    0.000    0.000    0.000    0.000 
#    0.000    0.000    0.000    0.000    0.000    0.000 
#
# Total GULP energy -198450.264013 kJ/mol
# GULP energy per Si atom -12403.141501 kJ/mol
# Density = 2.107172 g / cm^3
# Si number density = 21.119787 Si / 1000 Ang^3
#
#
#
# Elastic Constant Matrix: (Units=GPa)
#
#
# Indices 1 2 3 4 5 6 
#
# 1 114.9143 26.6472 48.3258 -9.8686 -17.1428 10.3555
# 2 26.6472 76.6087 27.4835 -7.1109 0.0810 8.7224
# 3 48.3258 27.4835 99.7331 -13.4358 -9.6000 3.2866
# 4 -9.8686 -7.1109 -13.4358 26.9787 -3.8446 -4.2662
# 5 -17.1428 0.0810 -9.6000 -3.8446 33.2640 1.6165
# 6 10.3555 8.7224 3.2866 -4.2662 1.6165 27.2526
#
#
#
# Elastic Compliance Matrix: (Units=1/GPa)
#
#
# Indices 1 2 3 4 5 6 
#
# 1 0.012394 -0.002116 -0.004515 0.001954 0.005486 -0.003507
# 2 -0.002116 0.015405 -0.003151 0.000913 -0.001762 -0.003499
# 3 -0.004515 -0.003151 0.013916 0.005030 0.002195 0.001703
# 4 0.001954 0.000913 0.005030 0.042261 0.007120 0.004552
# 5 0.005486 -0.001762 0.002195 0.007120 0.034482 -0.002716
# 6 -0.003507 -0.003499 0.001703 0.004552 -0.002716 0.039815
#
#
# Mechanical properties :
#
#
# Convention : Reuss Voigt Hill
#
# Bulk Modulus (GPa) = 45.14833 55.12990 50.13911
# Shear Modulus (GPa) = 26.99469 30.08569 28.54019
#
# Velocity S-wave (km/s) = 3.57903 3.77838 3.68006
# Velocity P-wave (km/s) = 6.20507 6.72272 6.46908
#
# Compressibility (1/GPa) = 0.02214922
#
# Stress axis : x y z
#
# Youngs Moduli (GPa) = 80.68413 64.91463 71.86002
#
# Poissons Ratio (x) = 0.13737 0.32448
# Poissons Ratio (y) = 0.17075 0.22644
# Poissons Ratio (z) = 0.36433 0.20455
#
# Static dielectric constant tensor:
#      x y z
#    x 4.089530 0.150730 -0.165740 
#    y 0.150730 3.675440 0.044040 
#    z -0.165740 0.044040 3.675700 
# 
# 
# High freq. dielectric constant tensor:
#      x y z
#    x 1.849800 0.003490 -0.007540 
#    y 0.003490 1.828350 -0.001920 
#    z -0.007540 -0.001920 1.813770 
# 
# From -- ./inp_files/48300.got.cif
#   From: 2010.06.25/outbox.cif.g09.slc.cpg/sg2_25_cif.got.tgz:48300.got - 2010.06.27 13:26:56.
