data_PCOD8007623
_publ_section_title
;
Structure prediction by ZEFSAII (Michael W. Deem and Ramdas Pophale) SiO2 
 PCOD8007623
Probable space group: P -1
;
_chemical_formula_sum "Si O2"
_cell_formula_units_Z 14
_cell_length_a 9.063248
_cell_length_b 8.071506
_cell_length_c 17.839028
_cell_angle_alpha 33.196575
_cell_angle_beta 112.900284
_cell_angle_gamma 108.914280
_cell_volume 658.185818
_symmetry_space_group_name_H-M "P -1"
_symmetry_group_IT_number 2
_symmetry_cell_setting 'triclinic'
loop_
_space_group_symop_operation_xyz
x,y,z
-x,-y,-z
loop_
_atom_site_type_symbol
_atom_site_label
_atom_site_fract_x
_atom_site_fract_y
_atom_site_fract_z
Si Si1 0.699651 0.136118 0.802070
Si Si2 0.849619 0.022536 0.359832
Si Si3 0.539947 0.406834 0.457348
Si Si4 0.207896 0.202641 0.714651
Si Si5 0.007761 0.499546 0.314625
Si Si6 0.487080 0.837686 0.982216
Si Si7 0.485299 0.141163 0.261124
O O1 0.595606 0.443340 0.678975
O O2 0.884960 0.233652 0.801321
O O3 0.654362 0.894957 0.949291
O O4 0.654302 0.978509 0.775003
O O5 0.660139 0.058449 0.295592
O O6 0.920560 0.328578 0.293470
O O7 0.910146 0.954376 0.311807
O O8 0.884448 0.738763 0.528168
O O9 0.500000 0.500000 0.500000
O O10 0.711518 0.516390 0.419921
O O11 0.535986 0.037472 0.595640
O O12 0.117899 0.337258 0.717514
O O13 0.337104 0.953524 0.860556
O O14 0.463184 0.493921 0.130951
O O15 0.500000 0.000000 0.000000
#
# Coordination Sequence:
#
# PCOD8007623 Si02
#       7
#     2   2   2   2   2   2   2
#     4  10  20  41  66  90 126 165 215 265 316 373
#     4  11  21  39  67  95 133 165 209 263 333 372
#     4   9  16  35  68  94 117 160 216 259 308 377
#     4  11  22  43  66  93 135 169 208 267 325 380
#     4  11  24  40  64 103 129 164 211 272 321 382
#     4  11  24  42  65  95 126 170 222 264 309 385
#     4  11  19  40  70  91 122 172 216 256 323 382
#
# _framework density 21.270588
#
# number of rings (size 3 to 8) (size 9 to 14) (size 15 to 20)
#    0.000    1.429    5.714    2.571    0.000    0.000 
#    7.714    5.714    0.000    0.000    0.000    0.000 
#    0.000    0.000    0.000    0.000    0.000    0.000 
#
# Total GULP energy -173476.045787 kJ/mol
# GULP energy per Si atom -12391.146128 kJ/mol
# Density = 2.122217 g / cm^3
# Si number density = 21.270588 Si / 1000 Ang^3
#
#
#
# Elastic Constant Matrix: (Units=GPa)
#
#
# Indices 1 2 3 4 5 6 
#
# 1 97.8502 49.1333 26.5913 -19.3397 -9.1155 4.4000
# 2 49.1333 118.4621 40.7366 -14.2275 -15.1743 -3.6917
# 3 26.5913 40.7366 127.9256 -31.1168 -11.1438 -3.5865
# 4 -19.3397 -14.2275 -31.1168 34.9114 3.2650 -2.2271
# 5 -9.1155 -15.1743 -11.1438 3.2650 20.4228 -2.9235
# 6 4.4000 -3.6917 -3.5865 -2.2271 -2.9235 25.6013
#
#
#
# Elastic Compliance Matrix: (Units=1/GPa)
#
#
# Indices 1 2 3 4 5 6 
#
# 1 0.014094 -0.005127 0.000085 0.005513 0.001285 -0.002523
# 2 -0.005127 0.012177 -0.002273 -0.000274 0.005989 0.002979
# 3 0.000085 -0.002273 0.011010 0.008776 0.003288 0.002339
# 4 0.005513 -0.000274 0.008776 0.039533 0.001273 0.003827
# 5 0.001285 0.005989 0.003288 0.001273 0.056679 0.007687
# 6 -0.002523 0.002979 0.002339 0.003827 0.007687 0.041462
#
#
# Mechanical properties :
#
#
# Convention : Reuss Voigt Hill
#
# Bulk Modulus (GPa) = 44.14914 64.12891 54.13902
# Shear Modulus (GPa) = 25.36342 31.37220 28.36781
#
# Velocity S-wave (km/s) = 3.45689 3.84462 3.65590
# Velocity P-wave (km/s) = 6.06089 7.06560 6.58244
#
# Compressibility (1/GPa) = 0.02265050
#
# Stress axis : x y z
#
# Youngs Moduli (GPa) = 70.95435 82.12455 90.82764
#
# Poissons Ratio (x) = 0.42102 -0.00773
# Poissons Ratio (y) = 0.36375 0.20648
# Poissons Ratio (z) = -0.00604 0.18669
#
# Static dielectric constant tensor:
#      x y z
#    x 3.597960 0.032950 -0.070790 
#    y 0.032950 3.665270 0.415600 
#    z -0.070790 0.415600 2.426680 
# 
# 
# High freq. dielectric constant tensor:
#      x y z
#    x 1.810160 0.002670 -0.007970 
#    y 0.002670 1.827940 -0.002990 
#    z -0.007970 -0.002990 1.838470 
# 
# From -- ./inp_files/587103.got.cif
#   From: 2010.06.25/outbox.cif.g09.slc.cpg/sg2_294_cif.got.tgz:587103.got - 2010.06.27 13:26:56.
