data_PCOD8007959
_publ_section_title
;
Structure prediction by ZEFSAII (Michael W. Deem and Ramdas Pophale) SiO2 
 PCOD8007959
Probable space group: P -1
;
_chemical_formula_sum "Si O2"
_cell_formula_units_Z 14
_cell_length_a 4.917631
_cell_length_b 21.250676
_cell_length_c 8.419141
_cell_angle_alpha 139.797244
_cell_angle_beta 86.488754
_cell_angle_gamma 81.170328
_cell_volume 538.773997
_symmetry_space_group_name_H-M "P -1"
_symmetry_group_IT_number 2
_symmetry_cell_setting 'triclinic'
loop_
_space_group_symop_operation_xyz
x,y,z
-x,-y,-z
loop_
_atom_site_type_symbol
_atom_site_label
_atom_site_fract_x
_atom_site_fract_y
_atom_site_fract_z
Si Si1 0.290019 0.980438 0.249357
Si Si2 0.451325 0.669551 0.038796
Si Si3 0.020762 0.304580 0.656930
Si Si4 0.083178 0.517194 0.226114
Si Si5 0.396490 0.784430 0.679107
Si Si6 0.501128 0.392557 0.437888
Si Si7 0.311270 0.897395 0.433119
O O1 0.276259 0.916081 0.283034
O O2 0.550657 0.025911 0.336340
O O3 0.327075 0.904010 0.952162
O O4 0.002334 0.076563 0.426215
O O5 0.130887 0.685893 0.147849
O O6 0.495642 0.779785 0.226326
O O7 0.703712 0.601610 0.018622
O O8 0.489418 0.608563 0.754659
O O9 0.951959 0.424391 0.831851
O O10 0.883712 0.238766 0.419095
O O11 0.361863 0.244566 0.524560
O O12 0.220093 0.582461 0.463258
O O13 0.780447 0.519653 0.318982
O O14 0.511683 0.715784 0.699589
#
# Coordination Sequence:
#
# PCOD8007959 Si02
#       7
#     2   2   2   2   2   2   2
#     4  10  20  42  60  88 119 156 199 249 306 353
#     4  12  23  42  60  97 123 156 204 261 286 357
#     4  10  24  38  63  90 126 163 198 236 313 359
#     4  10  23  41  62  88 126 164 197 241 308 362
#     4  10  20  43  62  86 121 169 197 243 300 370
#     4  10  22  39  64  91 116 162 207 246 298 355
#     4  10  23  35  64  92 115 153 203 253 301 344
#
# _framework density 25.984919000000001
#
# number of rings (size 3 to 8) (size 9 to 14) (size 15 to 20)
#    0.000    1.714    1.429    2.143    0.000    5.714 
#    0.000    8.571    0.000    0.000    0.000    0.000 
#    0.000    0.000    0.000    0.000    0.000    0.000 
#
# Total GULP energy -173695.288321 kJ/mol
# GULP energy per Si atom -12406.806309 kJ/mol
# Density = 2.592578 g / cm^3
# Si number density = 25.984919 Si / 1000 Ang^3
#
#
#
# Elastic Constant Matrix: (Units=GPa)
#
#
# Indices 1 2 3 4 5 6 
#
# 1 69.6091 -7.2890 3.6489 -1.5459 -12.0302 1.1496
# 2 -7.2890 74.1762 20.5716 -6.7447 -14.6491 2.5243
# 3 3.6489 20.5716 144.8562 12.1952 4.1348 6.1839
# 4 -1.5459 -6.7447 12.1952 40.2406 3.4503 -11.6894
# 5 -12.0302 -14.6491 4.1348 3.4503 30.3676 -0.9357
# 6 1.1496 2.5243 6.1839 -11.6894 -0.9357 29.7863
#
#
#
# Elastic Compliance Matrix: (Units=1/GPa)
#
#
# Indices 1 2 3 4 5 6 
#
# 1 0.016264 0.003658 -0.001236 0.000881 0.008274 -0.000075
# 2 0.003658 0.016872 -0.003066 0.003258 0.009655 0.000647
# 3 -0.001236 -0.003066 0.007863 -0.003522 -0.002725 -0.002793
# 4 0.000881 0.003258 -0.003522 0.030101 -0.000643 0.012214
# 5 0.008274 0.009655 -0.002725 -0.000643 0.041324 0.000474
# 6 -0.000075 0.000647 -0.002793 0.012214 0.000474 0.038908
#
#
# Mechanical properties :
#
#
# Convention : Reuss Voigt Hill
#
# Bulk Modulus (GPa) = 25.18162 35.83383 30.50773
# Shear Modulus (GPa) = 30.14616 38.19291 34.16953
#
# Velocity S-wave (km/s) = 3.40978 3.83797 3.63019
# Velocity P-wave (km/s) = 5.02136 5.78448 5.41637
#
# Compressibility (1/GPa) = 0.03971150
#
# Stress axis : x y z
#
# Youngs Moduli (GPa) = 61.48378 59.26959 127.17098
#
# Poissons Ratio (x) = -0.21679 0.15722
# Poissons Ratio (y) = -0.22489 0.38987
# Poissons Ratio (z) = 0.07601 0.18170
#
# Static dielectric constant tensor:
#      x y z
#    x 4.676130 -0.012290 0.067530 
#    y -0.012290 4.734510 0.062820 
#    z 0.067530 0.062820 4.533530 
# 
# 
# High freq. dielectric constant tensor:
#      x y z
#    x 2.051710 0.000430 0.017120 
#    y 0.000430 2.037890 0.002370 
#    z 0.017120 0.002370 2.055480 
# 
# From -- ./inp_files/43088.got.cif
#   From: 2010.06.25/outbox.cif.g09.slc.cpg/sg2_22_cif.got.tgz:43088.got - 2010.06.27 13:26:56.
