data_PCOD8007369
_publ_section_title
;
Structure prediction by ZEFSAII (Michael W. Deem and Ramdas Pophale) SiO2 
 PCOD8007369
Probable space group: P -1
;
_chemical_formula_sum "Si O2"
_cell_formula_units_Z 16
_cell_length_a 9.466740
_cell_length_b 12.242653
_cell_length_c 13.136280
_cell_angle_alpha 135.027657
_cell_angle_beta 136.103635
_cell_angle_gamma 57.915106
_cell_volume 745.359543
_symmetry_space_group_name_H-M "P -1"
_symmetry_group_IT_number 2
_symmetry_cell_setting 'triclinic'
loop_
_space_group_symop_operation_xyz
x,y,z
-x,-y,-z
loop_
_atom_site_type_symbol
_atom_site_label
_atom_site_fract_x
_atom_site_fract_y
_atom_site_fract_z
Si Si1 0.608482 0.676331 0.080319
Si Si2 0.029607 0.628081 0.370728
Si Si3 0.388651 0.158853 0.013212
Si Si4 0.046565 0.870452 0.146565
Si Si5 0.870301 0.727421 0.773787
Si Si6 0.467108 0.677988 0.617387
Si Si7 0.847608 0.782953 0.570679
Si Si8 0.561080 0.326195 0.792240
O O1 0.562463 0.805291 0.055387
O O2 0.471192 0.719732 0.136112
O O3 0.846501 0.675968 0.232325
O O4 0.550723 0.510844 0.897106
O O5 0.066902 0.443450 0.265186
O O6 0.228517 0.719618 0.497925
O O7 0.981807 0.678313 0.494323
O O8 0.145447 0.155682 0.897832
O O9 0.479980 0.291458 0.217263
O O10 0.500000 0.000000 0.000000
O O11 0.224075 0.743405 0.182739
O O12 0.131137 0.037228 0.322250
O O13 0.985054 0.850909 0.983295
O O14 0.625224 0.764720 0.684083
O O15 0.934638 0.744479 0.702244
O O16 0.500000 0.500000 0.500000
O O17 0.612098 0.742806 0.413529
#
# Coordination Sequence:
#
# PCOD8007369 Si02
#       8
#     2   2   2   2   2   2   2   2
#     4  10  23  43  68  91 130 166 211 267 308 382
#     4  10  20  41  61  92 123 163 215 255 314 373
#     4  11  25  44  66  94 126 170 211 257 322 375
#     4  11  23  43  60  95 132 163 213 256 320 377
#     4  10  21  38  60  92 128 165 208 257 313 372
#     4   9  21  38  60  91 128 158 211 257 306 373
#     4  11  23  37  64  94 128 166 210 261 310 376
#     4  10  23  42  64  99 124 167 215 257 322 367
#
# _framework density 21.466152000000001
#
# number of rings (size 3 to 8) (size 9 to 14) (size 15 to 20)
#    0.000    1.750    1.250    1.875    3.500    5.500 
#    0.000    5.625    0.000    0.000    0.000    0.000 
#    0.000    0.000    0.000    0.000    0.000    0.000 
#
# Total GULP energy -198400.612864 kJ/mol
# GULP energy per Si atom -12400.038304 kJ/mol
# Density = 2.141729 g / cm^3
# Si number density = 21.466152 Si / 1000 Ang^3
#
#
#
# Elastic Constant Matrix: (Units=GPa)
#
#
# Indices 1 2 3 4 5 6 
#
# 1 85.1898 36.4873 24.4879 -8.9053 6.6837 -14.8890
# 2 36.4873 75.3489 10.9642 -7.8469 -1.0777 5.7689
# 3 24.4879 10.9642 101.4241 8.4298 8.7634 1.4330
# 4 -8.9053 -7.8469 8.4298 18.5338 0.4832 -3.7649
# 5 6.6837 -1.0777 8.7634 0.4832 41.9074 -12.1616
# 6 -14.8890 5.7689 1.4330 -3.7649 -12.1616 34.6994
#
#
#
# Elastic Compliance Matrix: (Units=1/GPa)
#
#
# Indices 1 2 3 4 5 6 
#
# 1 0.019995 -0.008740 -0.005002 0.010535 0.000906 0.011700
# 2 -0.008740 0.018222 0.000062 0.002153 -0.000084 -0.006578
# 3 -0.005002 0.000062 0.012111 -0.008753 -0.002982 -0.004652
# 4 0.010535 0.002153 -0.008753 0.066436 0.003166 0.012842
# 5 0.000906 -0.000084 -0.002982 0.003166 0.027335 0.010450
# 6 0.011700 -0.006578 -0.004652 0.012842 0.010450 0.040181
#
#
# Mechanical properties :
#
#
# Convention : Reuss Voigt Hill
#
# Bulk Modulus (GPa) = 43.54051 45.09351 44.31701
# Shear Modulus (GPa) = 22.80018 31.69633 27.24826
#
# Velocity S-wave (km/s) = 3.26259 3.84679 3.56667
# Velocity P-wave (km/s) = 5.87538 6.38614 6.13607
#
# Compressibility (1/GPa) = 0.02296712
#
# Stress axis : x y z
#
# Youngs Moduli (GPa) = 50.01322 54.87967 82.56628
#
# Poissons Ratio (x) = 0.47966 0.41299
# Poissons Ratio (y) = 0.43712 -0.00509
# Poissons Ratio (z) = 0.25016 -0.00338
#
# Static dielectric constant tensor:
#      x y z
#    x 4.233980 -0.327920 0.345780 
#    y -0.327920 3.446950 0.049890 
#    z 0.345780 0.049890 4.271440 
# 
# 
# High freq. dielectric constant tensor:
#      x y z
#    x 1.848400 -0.018330 0.008460 
#    y -0.018330 1.812130 0.008480 
#    z 0.008460 0.008480 1.862700 
# 
# From -- ./inp_files/393226.got.cif
#   From: 2010.06.25/outbox.cif.g09.slc.cpg/sg2_197_cif.got.tgz:393226.got - 2010.06.27 13:26:56.
