data_PCOD8007695
_publ_section_title
;
Structure prediction by ZEFSAII (Michael W. Deem and Ramdas Pophale) SiO2 
 PCOD8007695
Probable space group: P -1
;
_chemical_formula_sum "Si O2"
_cell_formula_units_Z 16
_cell_length_a 13.067689
_cell_length_b 15.308829
_cell_length_c 8.651343
_cell_angle_alpha 90.493244
_cell_angle_beta 96.616396
_cell_angle_gamma 152.796484
_cell_volume 762.051005
_symmetry_space_group_name_H-M "P -1"
_symmetry_group_IT_number 2
_symmetry_cell_setting 'triclinic'
loop_
_space_group_symop_operation_xyz
x,y,z
-x,-y,-z
loop_
_atom_site_type_symbol
_atom_site_label
_atom_site_fract_x
_atom_site_fract_y
_atom_site_fract_z
Si Si1 0.047621 0.191403 0.746874
Si Si2 0.656362 0.946541 0.999845
Si Si3 0.847094 0.642481 0.913167
Si Si4 0.700240 0.065072 0.678446
Si Si5 0.496869 0.503946 0.317873
Si Si6 0.784137 0.318946 0.575065
Si Si7 0.206449 0.598411 0.101838
Si Si8 0.229133 0.140405 0.126272
O O1 0.233628 0.286833 0.673137
O O2 0.910506 0.167719 0.643516
O O3 0.161711 0.306623 0.931877
O O4 0.851487 0.969095 0.734353
O O5 0.448503 0.817623 0.073982
O O6 0.628808 0.822443 0.951677
O O7 0.907193 0.151773 0.128966
O O8 0.669809 0.020540 0.853849
O O9 0.637673 0.511700 0.761650
O O10 0.827746 0.527144 0.955028
O O11 0.786107 0.228171 0.663383
O O12 0.454529 0.853708 0.559906
O O13 0.500000 0.500000 0.500000
O O14 0.397236 0.345152 0.207847
O O15 0.789840 0.395696 0.711457
O O16 0.000000 0.500000 0.500000
O O17 0.000000 0.500000 0.000000
O O18 0.000000 0.000000 0.000000
#
# Coordination Sequence:
#
# PCOD8007695 Si02
#       8
#     2   2   2   2   2   2   2   2
#     4  10  22  40  67  87 127 166 213 256 317 387
#     4  10  22  41  68  90 123 161 217 263 309 384
#     4  10  23  40  62  92 122 167 213 257 321 378
#     4   9  22  43  62  92 119 169 212 256 322 384
#     4  12  25  38  61  97 131 165 212 269 314 377
#     4  11  24  41  65  87 129 170 210 258 325 386
#     4  12  25  39  64  96 123 161 213 272 316 372
#     4  10  20  41  67  88 119 173 206 250 320 379
#
# _framework density 20.995971999999998
#
# number of rings (size 3 to 8) (size 9 to 14) (size 15 to 20)
#    0.000    1.750    2.500    3.375    1.750   10.500 
#    0.000    0.000    0.000    0.000    0.000    0.000 
#    0.000    0.000    0.000    0.000    0.000    0.000 
#
# Total GULP energy -198325.339589 kJ/mol
# GULP energy per Si atom -12395.333724 kJ/mol
# Density = 2.094818 g / cm^3
# Si number density = 20.995972 Si / 1000 Ang^3
#
#
#
# Elastic Constant Matrix: (Units=GPa)
#
#
# Indices 1 2 3 4 5 6 
#
# 1 98.2269 48.6974 34.0329 -8.3200 24.4338 18.6180
# 2 48.6974 106.0191 27.1082 -9.8807 -6.1319 30.8209
# 3 34.0329 27.1082 65.5592 -10.4355 10.6590 16.4630
# 4 -8.3200 -9.8807 -10.4355 28.6560 7.4411 -3.0500
# 5 24.4338 -6.1319 10.6590 7.4411 32.0577 0.5840
# 6 18.6180 30.8209 16.4630 -3.0500 0.5840 49.9294
#
#
#
# Elastic Compliance Matrix: (Units=1/GPa)
#
#
# Indices 1 2 3 4 5 6 
#
# 1 0.020923 -0.009136 -0.002936 0.006525 -0.018223 -0.000582
# 2 -0.009136 0.016646 -0.002700 -0.001548 0.011518 -0.006207
# 3 -0.002936 -0.002700 0.021105 0.007310 -0.006926 -0.003670
# 4 0.006525 -0.001548 0.007310 0.043422 -0.017760 -0.001028
# 5 -0.018223 0.011518 -0.006926 -0.017760 0.053706 0.000256
# 6 -0.000582 -0.006207 -0.003670 -0.001028 0.000256 0.025221
#
#
# Mechanical properties :
#
#
# Convention : Reuss Voigt Hill
#
# Bulk Modulus (GPa) = 34.33050 54.38691 44.35871
# Shear Modulus (GPa) = 22.69847 32.79306 27.74576
#
# Velocity S-wave (km/s) = 3.29156 3.95634 3.63916
# Velocity P-wave (km/s) = 5.55268 6.84324 6.23146
#
# Compressibility (1/GPa) = 0.02912862
#
# Stress axis : x y z
#
# Youngs Moduli (GPa) = 47.79371 60.07549 47.38144
#
# Poissons Ratio (x) = 0.54887 0.13912
# Poissons Ratio (y) = 0.43666 0.12794
# Poissons Ratio (z) = 0.14033 0.16222
#
# Static dielectric constant tensor:
#      x y z
#    x 4.043720 0.079370 0.207030 
#    y 0.079370 4.171340 0.154930 
#    z 0.207030 0.154930 3.679570 
# 
# 
# High freq. dielectric constant tensor:
#      x y z
#    x 1.832210 0.003650 0.017330 
#    y 0.003650 1.834190 0.004860 
#    z 0.017330 0.004860 1.802270 
# 
# From -- ./inp_files/273215.got.cif
#   From: 2010.06.25/outbox.cif.g09.slc.cpg/sg2_137_cif.got.tgz:273215.got - 2010.06.27 13:26:56.
