data_PCOD8007393
_publ_section_title
;
Structure prediction by ZEFSAII (Michael W. Deem and Ramdas Pophale) SiO2 
 PCOD8007393
Probable space group: P -1
;
_chemical_formula_sum "Si O2"
_cell_formula_units_Z 16
_cell_length_a 13.442068
_cell_length_b 9.767828
_cell_length_c 17.285605
_cell_angle_alpha 131.504985
_cell_angle_beta 144.256334
_cell_angle_gamma 73.706621
_cell_volume 802.999732
_symmetry_space_group_name_H-M "P -1"
_symmetry_group_IT_number 2
_symmetry_cell_setting 'triclinic'
loop_
_space_group_symop_operation_xyz
x,y,z
-x,-y,-z
loop_
_atom_site_type_symbol
_atom_site_label
_atom_site_fract_x
_atom_site_fract_y
_atom_site_fract_z
Si Si1 0.915807 0.651183 0.499297
Si Si2 0.838552 0.162943 0.979860
Si Si3 0.021847 0.805605 0.457735
Si Si4 0.453021 0.551773 0.692322
Si Si5 0.960392 0.356606 0.743397
Si Si6 0.585199 0.127159 0.319107
Si Si7 0.836922 0.868371 0.742255
Si Si8 0.080959 0.124928 0.849387
O O1 0.000000 0.500000 0.500000
O O2 0.889003 0.673997 0.400437
O O3 0.694881 0.510950 0.350762
O O4 0.063711 0.905157 0.723977
O O5 0.639338 0.098072 0.881870
O O6 0.770687 0.951281 0.803657
O O7 0.917295 0.380934 0.057364
O O8 0.029985 0.224268 0.180073
O O9 0.922142 0.633815 0.258026
O O10 0.274102 0.917232 0.663936
O O11 0.000000 0.000000 0.500000
O O12 0.462542 0.723764 0.703861
O O13 0.373077 0.328017 0.508421
O O14 0.679569 0.658910 0.912039
O O15 0.963370 0.198723 0.749377
O O16 0.716992 0.247978 0.526948
O O17 0.979633 0.075663 0.851577
#
# Coordination Sequence:
#
# PCOD8007393 Si02
#       8
#     2   2   2   2   2   2   2   2
#     4  11  21  39  62  91 127 162 211 260 303 368
#     4  11  22  41  67  95 118 168 215 258 316 372
#     4  10  20  41  62  88 128 165 196 259 308 361
#     4  11  22  40  64  94 125 166 210 260 309 373
#     4  10  23  41  63  89 132 162 203 262 310 370
#     4  10  21  39  65  89 124 162 211 252 306 379
#     4  10  23  40  66  94 127 158 213 269 308 370
#     4  11  24  41  62  95 129 164 205 262 319 370
#
# _framework density 19.925287999999998
#
# number of rings (size 3 to 8) (size 9 to 14) (size 15 to 20)
#    0.750    0.750    5.000    0.000    1.750    5.500 
#    2.250    2.500    0.000    0.000    0.000    0.000 
#    0.000    0.000    0.000    0.000    0.000    0.000 
#
# Total GULP energy -198282.515454 kJ/mol
# GULP energy per Si atom -12392.657216 kJ/mol
# Density = 1.987994 g / cm^3
# Si number density = 19.925288 Si / 1000 Ang^3
#
#
#
# Elastic Constant Matrix: (Units=GPa)
#
#
# Indices 1 2 3 4 5 6 
#
# 1 53.3159 17.5002 13.5871 -1.1984 -0.7236 11.6936
# 2 17.5002 120.2358 18.4975 -0.2621 2.0190 11.0314
# 3 13.5871 18.4975 76.8359 6.3338 7.7346 -0.3232
# 4 -1.1984 -0.2621 6.3338 28.6567 3.5558 -3.8672
# 5 -0.7236 2.0190 7.7346 3.5558 20.9333 1.2329
# 6 11.6936 11.0314 -0.3232 -3.8672 1.2329 30.0420
#
#
#
# Elastic Compliance Matrix: (Units=1/GPa)
#
#
# Indices 1 2 3 4 5 6 
#
# 1 0.022168 -0.001953 -0.003789 0.000320 0.002773 -0.008025
# 2 -0.001953 0.009127 -0.001857 0.000077 -0.000122 -0.002596
# 3 -0.003789 -0.001857 0.014867 -0.002526 -0.005146 0.002203
# 4 0.000320 0.000077 -0.002526 0.036809 -0.005598 0.004788
# 5 0.002773 -0.000122 -0.005146 -0.005598 0.050960 -0.003902
# 6 -0.008025 -0.002596 0.002203 0.004788 -0.003902 0.038164
#
#
# Mechanical properties :
#
#
# Convention : Reuss Voigt Hill
#
# Bulk Modulus (GPa) = 32.29545 38.83969 35.56757
# Shear Modulus (GPa) = 25.30171 29.31325 27.30748
#
# Velocity S-wave (km/s) = 3.56733 3.83973 3.70603
# Velocity P-wave (km/s) = 5.76292 6.26043 6.01682
#
# Compressibility (1/GPa) = 0.03096412
#
# Stress axis : x y z
#
# Youngs Moduli (GPa) = 45.11070 109.56048 67.26187
#
# Poissons Ratio (x) = 0.21399 0.25486
# Poissons Ratio (y) = 0.08811 0.12490
# Poissons Ratio (z) = 0.17092 0.20345
#
# Static dielectric constant tensor:
#      x y z
#    x 3.504340 0.044070 -0.009970 
#    y 0.044070 3.634530 0.076570 
#    z -0.009970 0.076570 3.521620 
# 
# 
# High freq. dielectric constant tensor:
#      x y z
#    x 1.773230 0.009300 -0.001150 
#    y 0.009300 1.785520 0.004460 
#    z -0.001150 0.004460 1.759120 
# 
# From -- ./inp_files/572749.got.cif
#   From: 2010.06.25/outbox.cif.g09.slc.cpg/sg2_287_cif.got.tgz:572749.got - 2010.06.27 13:26:56.
