data_PCOD8007926
_publ_section_title
;
Structure prediction by ZEFSAII (Michael W. Deem and Ramdas Pophale) SiO2 
 PCOD8007926
Probable space group: P -1
;
_chemical_formula_sum "Si O2"
_cell_formula_units_Z 16
_cell_length_a 9.011233
_cell_length_b 12.922309
_cell_length_c 10.970967
_cell_angle_alpha 116.933365
_cell_angle_beta 58.091537
_cell_angle_gamma 135.716238
_cell_volume 751.184048
_symmetry_space_group_name_H-M "P -1"
_symmetry_group_IT_number 2
_symmetry_cell_setting 'triclinic'
loop_
_space_group_symop_operation_xyz
x,y,z
-x,-y,-z
loop_
_atom_site_type_symbol
_atom_site_label
_atom_site_fract_x
_atom_site_fract_y
_atom_site_fract_z
Si Si1 0.326675 0.844965 0.118070
Si Si2 0.942439 0.369818 0.542666
Si Si3 0.898807 0.584432 0.104017
Si Si4 0.274008 0.336188 0.987130
Si Si5 0.904370 0.177527 0.255581
Si Si6 0.643340 0.453700 0.365811
Si Si7 0.548670 0.830733 0.231857
Si Si8 0.586509 0.173168 0.209441
O O1 0.485552 0.824336 0.113914
O O2 0.065364 0.723332 0.197807
O O3 0.375189 0.998291 0.214516
O O4 0.333501 0.808244 0.954451
O O5 0.983664 0.269784 0.395464
O O6 0.679476 0.257946 0.637128
O O7 0.000000 0.500000 0.500000
O O8 0.113151 0.448268 0.623239
O O9 0.667816 0.483263 0.225449
O O10 0.877015 0.641672 0.016764
O O11 0.000000 0.500000 0.000000
O O12 0.131904 0.237601 0.115573
O O13 0.500000 0.500000 0.000000
O O14 0.340996 0.248405 0.838708
O O15 0.775012 0.213155 0.244253
O O16 0.742776 0.004097 0.274130
O O17 0.500000 0.500000 0.500000
O O18 0.520014 0.276340 0.333389
#
# Coordination Sequence:
#
# PCOD8007926 Si02
#       8
#     2   2   2   2   2   2   2   2
#     4  10  20  41  72  95 123 174 217 269 328 397
#     4  12  25  44  68  90 135 182 219 264 332 402
#     4  12  23  44  69  94 130 173 225 271 328 396
#     4  12  26  40  67 105 134 167 220 287 329 382
#     4  11  23  44  68  95 135 176 222 269 332 400
#     4  12  27  43  64 100 133 175 220 277 330 393
#     4  11  25  43  68  99 131 175 221 274 337 391
#     4  10  21  41  69  97 129 168 220 271 331 392
#
# _framework density 21.299707999999999
#
# number of rings (size 3 to 8) (size 9 to 14) (size 15 to 20)
#    0.000    0.750    5.000    2.250    3.500    0.000 
#    2.250    0.625    0.000    0.000    0.000    0.000 
#    0.000    0.000    0.000    0.000    0.000    0.000 
#
# Total GULP energy -198241.089638 kJ/mol
# GULP energy per Si atom -12390.068102 kJ/mol
# Density = 2.125123 g / cm^3
# Si number density = 21.299708 Si / 1000 Ang^3
#
#
#
# Elastic Constant Matrix: (Units=GPa)
#
#
# Indices 1 2 3 4 5 6 
#
# 1 64.0402 48.1091 26.3253 15.2681 -9.4226 -6.4831
# 2 48.1091 157.2991 54.9053 6.6253 -12.4684 4.9828
# 3 26.3253 54.9053 116.6770 7.3472 -19.1032 -6.0575
# 4 15.2681 6.6253 7.3472 43.0797 2.2642 -0.4152
# 5 -9.4226 -12.4684 -19.1032 2.2642 38.1782 2.1990
# 6 -6.4831 4.9828 -6.0575 -0.4152 2.1990 35.8509
#
#
#
# Elastic Compliance Matrix: (Units=1/GPa)
#
#
# Indices 1 2 3 4 5 6 
#
# 1 0.023585 -0.006423 -0.001043 -0.007325 0.003366 0.004690
# 2 -0.006423 0.009499 -0.003266 0.001345 -0.000023 -0.003016
# 3 -0.001043 -0.003266 0.011216 -0.001246 0.004253 0.001885
# 4 -0.007325 0.001345 -0.001246 0.025985 -0.003464 -0.001209
# 5 0.003366 -0.000023 0.004253 -0.003464 0.029379 -0.000512
# 6 0.004690 -0.003016 0.001885 -0.001209 -0.000512 0.029497
#
#
# Mechanical properties :
#
#
# Convention : Reuss Voigt Hill
#
# Bulk Modulus (GPa) = 43.79016 66.29950 55.04483
# Shear Modulus (GPa) = 31.59845 37.33354 34.46599
#
# Velocity S-wave (km/s) = 3.85582 4.19115 4.02698
# Velocity P-wave (km/s) = 6.35821 7.39023 6.89356
#
# Compressibility (1/GPa) = 0.02283618
#
# Stress axis : x y z
#
# Youngs Moduli (GPa) = 42.39923 105.27844 89.16188
#
# Poissons Ratio (x) = 0.67615 0.09303
# Poissons Ratio (y) = 0.27231 0.29118
# Poissons Ratio (z) = 0.04424 0.34382
#
# Static dielectric constant tensor:
#      x y z
#    x 4.755240 -0.896450 1.024110 
#    y -0.896450 5.361420 -0.667510 
#    z 1.024110 -0.667510 3.979300 
# 
# 
# High freq. dielectric constant tensor:
#      x y z
#    x 1.822660 0.000650 0.013340 
#    y 0.000650 1.864400 0.004140 
#    z 0.013340 0.004140 1.824790 
# 
# From -- ./inp_files/390945.got.cif
#   From: 2010.06.25/outbox.cif.g09.slc.cpg/sg2_196_cif.got.tgz:390945.got - 2010.06.27 13:26:56.
