data_PCOD8007037
_publ_section_title
;
Structure prediction by ZEFSAII (Michael W. Deem and Ramdas Pophale) SiO2 
 PCOD8007037
Probable space group: P -1
;
_chemical_formula_sum "Si O2"
_cell_formula_units_Z 14
_cell_length_a 7.672216
_cell_length_b 16.807895
_cell_length_c 18.392296
_cell_angle_alpha 23.219014
_cell_angle_beta 43.466968
_cell_angle_gamma 51.451438
_cell_volume 634.812825
_symmetry_space_group_name_H-M "P -1"
_symmetry_group_IT_number 2
_symmetry_cell_setting 'triclinic'
loop_
_space_group_symop_operation_xyz
x,y,z
-x,-y,-z
loop_
_atom_site_type_symbol
_atom_site_label
_atom_site_fract_x
_atom_site_fract_y
_atom_site_fract_z
Si Si1 0.320083 0.286246 0.731651
Si Si2 0.909241 0.160289 0.056788
Si Si3 0.141657 0.562361 0.330479
Si Si4 0.732470 0.566904 0.820076
Si Si5 0.451322 0.952895 0.866617
Si Si6 0.839234 0.130845 0.487291
Si Si7 0.652361 0.791282 0.515366
O O1 0.500000 0.500000 0.500000
O O2 0.456221 0.132517 0.773079
O O3 0.048174 0.322472 0.753599
O O4 0.220414 0.195509 0.917802
O O5 0.764486 0.029848 0.143155
O O6 0.832860 0.015509 0.271318
O O7 0.803295 0.373029 0.918667
O O8 0.197697 0.356924 0.450959
O O9 0.000000 0.500000 0.500000
O O10 0.402171 0.734078 0.108350
O O11 0.632743 0.721866 0.663188
O O12 0.979497 0.670708 0.703069
O O13 0.500000 0.500000 0.000000
O O14 0.720188 0.991750 0.708588
O O15 0.627249 0.206797 0.435905
O O16 0.000000 0.000000 0.500000
#
# Coordination Sequence:
#
# PCOD8007037 Si02
#       7
#     2   2   2   2   2   2   2
#     4  11  21  38  65  97 140 174 222 286 338 407
#     4  10  21  42  65  97 138 176 223 286 341 403
#     4  11  21  40  66  99 135 179 231 275 347 415
#     4  12  25  46  71 101 138 180 234 289 341 412
#     4  10  20  40  66  94 137 179 219 287 341 399
#     4  11  26  46  71 100 138 182 235 285 346 410
#     4  11  24  46  71  99 139 183 231 280 353 406
#
# _framework density 22.053744999999999
#
# number of rings (size 3 to 8) (size 9 to 14) (size 15 to 20)
#    0.000    1.143    2.857    6.857    0.000    2.857 
#    5.143    1.429    0.000    0.000    0.000    0.000 
#    0.000    0.000    0.000    0.000    0.000    0.000 
#
# Total GULP energy -173511.953475 kJ/mol
# GULP energy per Si atom -12393.710962 kJ/mol
# Density = 2.200355 g / cm^3
# Si number density = 22.053745 Si / 1000 Ang^3
#
#
#
# Elastic Constant Matrix: (Units=GPa)
#
#
# Indices 1 2 3 4 5 6 
#
# 1 68.1686 22.1695 42.9570 10.9221 8.9785 5.2754
# 2 22.1695 120.0623 54.9935 27.4862 6.5989 7.1724
# 3 42.9570 54.9935 195.4931 33.1311 1.4824 11.9756
# 4 10.9221 27.4862 33.1311 52.2129 1.5518 0.4967
# 5 8.9785 6.5989 1.4824 1.5518 35.5510 -1.6723
# 6 5.2754 7.1724 11.9756 0.4967 -1.6723 22.9843
#
#
#
# Elastic Compliance Matrix: (Units=1/GPa)
#
#
# Indices 1 2 3 4 5 6 
#
# 1 0.018028 -0.001249 -0.003286 -0.000880 -0.004255 -0.002326
# 2 -0.001249 0.010545 -0.001870 -0.004039 -0.001484 -0.002050
# 3 -0.003286 -0.001870 0.006955 -0.002747 0.000905 -0.002160
# 4 -0.000880 -0.004039 -0.002747 0.023178 0.000188 0.002407
# 5 -0.004255 -0.001484 0.000905 0.000188 0.029579 0.003116
# 6 -0.002326 -0.002050 -0.002160 0.002407 0.003116 0.045982
#
#
# Mechanical properties :
#
#
# Convention : Reuss Voigt Hill
#
# Bulk Modulus (GPa) = 44.02222 69.32934 56.67578
# Shear Modulus (GPa) = 32.33090 39.72324 36.02707
#
# Velocity S-wave (km/s) = 3.83300 4.24866 4.04617
# Velocity P-wave (km/s) = 6.29236 7.45473 6.89807
#
# Compressibility (1/GPa) = 0.02271580
#
# Stress axis : x y z
#
# Youngs Moduli (GPa) = 55.46921 94.82929 143.78993
#
# Poissons Ratio (x) = 0.11849 0.47250
# Poissons Ratio (y) = 0.06931 0.26896
# Poissons Ratio (z) = 0.18228 0.17738
#
# Static dielectric constant tensor:
#      x y z
#    x 4.017450 0.128340 0.253970 
#    y 0.128340 4.270920 0.744020 
#    z 0.253970 0.744020 5.650230 
# 
# 
# High freq. dielectric constant tensor:
#      x y z
#    x 1.834800 0.008010 0.002510 
#    y 0.008010 1.877840 0.014060 
#    z 0.002510 0.014060 1.900560 
# 
# From -- ./inp_files/242111.got.cif
#   From: 2010.06.25/outbox.cif.g09.slc.cpg/sg2_122_cif.got.tgz:242111.got - 2010.06.27 13:26:56.
