data_PCOD8007688
_publ_section_title
;
Structure prediction by ZEFSAII (Michael W. Deem and Ramdas Pophale) SiO2 
 PCOD8007688
Probable space group: P -1
;
_chemical_formula_sum "Si O2"
_cell_formula_units_Z 14
_cell_length_a 21.434738
_cell_length_b 16.168665
_cell_length_c 12.244686
_cell_angle_alpha 146.328297
_cell_angle_beta 152.114711
_cell_angle_gamma 16.438639
_cell_volume 557.788000
_symmetry_space_group_name_H-M "P -1"
_symmetry_group_IT_number 2
_symmetry_cell_setting 'triclinic'
loop_
_space_group_symop_operation_xyz
x,y,z
-x,-y,-z
loop_
_atom_site_type_symbol
_atom_site_label
_atom_site_fract_x
_atom_site_fract_y
_atom_site_fract_z
Si Si1 0.796454 0.071622 0.725282
Si Si2 0.123051 0.391686 0.244994
Si Si3 0.838745 0.126859 0.221302
Si Si4 0.633619 0.330338 0.370399
Si Si5 0.325067 0.046629 0.975489
Si Si6 0.502439 0.710623 0.278905
Si Si7 0.134518 0.323101 0.625176
O O1 0.621010 0.317559 0.628787
O O2 0.626928 0.178108 0.681223
O O3 0.923909 0.796648 0.573144
O O4 0.000000 0.000000 0.000000
O O5 0.205718 0.176249 0.056352
O O6 0.385458 0.232714 0.501303
O O7 0.996628 0.458775 0.237566
O O8 0.911958 0.700319 0.196613
O O9 0.741989 0.245635 0.323839
O O10 0.737337 0.362139 0.247323
O O11 0.716354 0.097335 0.944018
O O12 0.156490 0.815212 0.374375
O O13 0.558313 0.230849 0.164126
O O14 0.554242 0.944643 0.193326
O O15 0.000000 0.500000 0.500000
#
# Coordination Sequence:
#
# PCOD8007688 Si02
#       7
#     2   2   2   2   2   2   2
#     4  11  25  44  67 100 145 186 232 300 357 421
#     4  11  25  45  76 101 145 193 237 294 357 426
#     4   9  20  35  68 102 134 177 235 290 348 420
#     4  10  21  41  69 103 141 180 235 290 357 426
#     4  11  24  47  73 105 145 190 237 290 360 431
#     4  10  20  41  67 102 137 184 237 290 352 418
#     4  12  28  47  71 104 144 186 246 300 359 428
#
# _framework density 25.099142000000001
#
# number of rings (size 3 to 8) (size 9 to 14) (size 15 to 20)
#    0.000    1.429    2.857    1.286    8.000    1.714 
#    0.000    4.286    0.000    0.000    0.000    0.000 
#    0.000    0.000    0.000    0.000    0.000    0.000 
#
# Total GULP energy -173612.808853 kJ/mol
# GULP energy per Si atom -12400.914918 kJ/mol
# Density = 2.504202 g / cm^3
# Si number density = 25.099142 Si / 1000 Ang^3
#
#
#
# Elastic Constant Matrix: (Units=GPa)
#
#
# Indices 1 2 3 4 5 6 
#
# 1 102.8178 18.3239 27.9473 0.0277 -13.8491 -9.2270
# 2 18.3239 82.5390 42.6455 0.8829 3.0191 12.8768
# 3 27.9473 42.6455 162.5572 -21.1444 -2.1429 8.3142
# 4 0.0277 0.8829 -21.1444 29.7486 -0.6208 1.2355
# 5 -13.8491 3.0191 -2.1429 -0.6208 39.7063 2.9170
# 6 -9.2270 12.8768 8.3142 1.2355 2.9170 31.6406
#
#
#
# Elastic Compliance Matrix: (Units=1/GPa)
#
#
# Indices 1 2 3 4 5 6 
#
# 1 0.011546 -0.002538 -0.001661 -0.001225 0.003778 0.004536
# 2 -0.002538 0.015639 -0.003777 -0.002944 -0.001896 -0.005823
# 3 -0.001661 -0.003777 0.008294 0.006074 0.000353 -0.001397
# 4 -0.001225 -0.002944 0.006074 0.038136 0.000891 -0.002327
# 5 0.003778 -0.001896 0.000353 0.000891 0.026733 -0.000719
# 6 0.004536 -0.005823 -0.001397 -0.002327 -0.000719 0.035821
#
#
# Mechanical properties :
#
#
# Convention : Reuss Voigt Hill
#
# Bulk Modulus (GPa) = 51.20623 58.41639 54.81131
# Shear Modulus (GPa) = 31.51990 37.48559 34.50274
#
# Velocity S-wave (km/s) = 3.54759 3.86878 3.71166
# Velocity P-wave (km/s) = 6.10135 6.57886 6.34460
#
# Compressibility (1/GPa) = 0.01952887
#
# Stress axis : x y z
#
# Youngs Moduli (GPa) = 86.61064 63.94091 120.56667
#
# Poissons Ratio (x) = 0.16227 0.20024
# Poissons Ratio (y) = 0.21980 0.45534
# Poissons Ratio (z) = 0.14384 0.24148
#
# Static dielectric constant tensor:
#      x y z
#    x 4.475890 0.017390 -0.096990 
#    y 0.017390 4.751590 -0.222680 
#    z -0.096990 -0.222680 4.644440 
# 
# 
# High freq. dielectric constant tensor:
#      x y z
#    x 1.995240 0.005270 -0.007340 
#    y 0.005270 1.996670 -0.008200 
#    z -0.007340 -0.008200 2.008510 
# 
# From -- ./inp_files/471964.got.cif
#   From: 2010.06.25/outbox.cif.g09.slc.cpg/sg2_236_cif.got.tgz:471964.got - 2010.06.27 13:26:56.
