data_PCOD8007279
_publ_section_title
;
Structure prediction by ZEFSAII (Michael W. Deem and Ramdas Pophale) SiO2 
 PCOD8007279
Probable space group: P -1
;
_chemical_formula_sum "Si O2"
_cell_formula_units_Z 16
_cell_length_a 14.879886
_cell_length_b 9.181343
_cell_length_c 9.379777
_cell_angle_alpha 135.785876
_cell_angle_beta 73.154216
_cell_angle_gamma 90.315184
_cell_volume 815.058817
_symmetry_space_group_name_H-M "P -1"
_symmetry_group_IT_number 2
_symmetry_cell_setting 'triclinic'
loop_
_space_group_symop_operation_xyz
x,y,z
-x,-y,-z
loop_
_atom_site_type_symbol
_atom_site_label
_atom_site_fract_x
_atom_site_fract_y
_atom_site_fract_z
Si Si1 0.547983 0.430760 0.275700
Si Si2 0.121041 0.874640 0.716826
Si Si3 0.410582 0.215691 0.678875
Si Si4 0.269971 0.960993 0.167455
Si Si5 0.277712 0.936116 0.481110
Si Si6 0.616264 0.544262 0.848808
Si Si7 0.781091 0.603110 0.637090
Si Si8 0.088598 0.125202 0.191574
O O1 0.500000 0.500000 0.500000
O O2 0.580325 0.639422 0.358638
O O3 0.470738 0.369341 0.163852
O O4 0.641804 0.212537 0.079991
O O5 0.174394 0.954911 0.617882
O O6 0.188882 0.649913 0.603660
O O7 0.020738 0.842987 0.676436
O O8 0.095148 0.056971 0.976402
O O9 0.500000 0.000000 0.500000
O O10 0.311073 0.146940 0.656834
O O11 0.414556 0.361484 0.915754
O O12 0.266928 0.910099 0.299036
O O13 0.276082 0.211734 0.322210
O O14 0.168232 0.950797 0.132753
O O15 0.359469 0.717931 0.344463
O O16 0.709105 0.625106 0.820663
O O17 0.883290 0.648165 0.665382
#
# Coordination Sequence:
#
# PCOD8007279 Si02
#       8
#     2   2   2   2   2   2   2   2
#     4  12  27  40  63  92 126 165 205 261 307 359
#     4  10  20  40  70  88 122 163 207 247 310 371
#     4  12  24  40  65  83 124 167 206 251 304 368
#     4  10  24  41  58  93 131 155 208 258 307 360
#     4  11  23  41  63  92 120 169 202 252 308 361
#     4  11  23  43  60  89 123 163 213 244 296 378
#     4   9  22  37  66  86 123 159 201 252 303 363
#     4   9  21  39  64  95 124 156 207 254 304 368
#
# _framework density 19.630483999999999
#
# number of rings (size 3 to 8) (size 9 to 14) (size 15 to 20)
#    0.750    0.750    2.500    2.250    7.000    1.000 
#    0.000    0.000    0.000    2.250    0.000    0.000 
#    0.000    0.000    0.000    0.000    0.000    0.000 
#
# Total GULP energy -198291.648030 kJ/mol
# GULP energy per Si atom -12393.228002 kJ/mol
# Density = 1.958580 g / cm^3
# Si number density = 19.630484 Si / 1000 Ang^3
#
#
#
# Elastic Constant Matrix: (Units=GPa)
#
#
# Indices 1 2 3 4 5 6 
#
# 1 106.3011 42.5940 33.0755 -9.0009 -3.6849 13.1333
# 2 42.5940 105.9386 37.1754 -7.7500 -7.2481 13.8866
# 3 33.0755 37.1754 86.1183 -15.5401 -7.0212 9.9690
# 4 -9.0009 -7.7500 -15.5401 29.8672 0.1424 -0.0102
# 5 -3.6849 -7.2481 -7.0212 0.1424 30.2153 1.8225
# 6 13.1333 13.8866 9.9690 -0.0102 1.8225 38.4548
#
#
#
# Elastic Compliance Matrix: (Units=1/GPa)
#
#
# Indices 1 2 3 4 5 6 
#
# 1 0.012013 -0.003531 -0.002582 0.001359 0.000142 -0.002165
# 2 -0.003531 0.012598 -0.003576 0.000334 0.001910 -0.002507
# 3 -0.002582 -0.003576 0.015763 0.006483 0.002582 -0.002034
# 4 0.001359 0.000334 0.006483 0.037342 0.001717 -0.002337
# 5 0.000142 0.001910 0.002582 0.001717 0.034346 -0.003035
# 6 -0.002165 -0.002507 -0.002034 -0.002337 -0.003035 0.028320
#
#
# Mechanical properties :
#
#
# Convention : Reuss Voigt Hill
#
# Bulk Modulus (GPa) = 47.62848 58.22753 52.92801
# Shear Modulus (GPa) = 29.98362 32.07499 31.02931
#
# Velocity S-wave (km/s) = 3.91244 4.04659 3.98008
# Velocity P-wave (km/s) = 6.68766 7.18048 6.93845
#
# Compressibility (1/GPa) = 0.02099584
#
# Stress axis : x y z
#
# Youngs Moduli (GPa) = 83.24354 79.38023 63.43961
#
# Poissons Ratio (x) = 0.28029 0.16381
# Poissons Ratio (y) = 0.29393 0.22684
# Poissons Ratio (z) = 0.21495 0.28384
#
# Static dielectric constant tensor:
#      x y z
#    x 3.662050 0.180690 -0.106300 
#    y 0.180690 3.583300 0.078200 
#    z -0.106300 0.078200 3.459110 
# 
# 
# High freq. dielectric constant tensor:
#      x y z
#    x 1.767350 0.012880 -0.006260 
#    y 0.012880 1.763220 0.003200 
#    z -0.006260 0.003200 1.761590 
# 
# From -- ./inp_files/296695.got.cif
#   From: 2010.06.25/outbox.cif.g09.slc.cpg/sg2_149_cif.got.tgz:296695.got - 2010.06.27 13:26:56.
