data_PCOD8007895
_publ_section_title
;
Structure prediction by ZEFSAII (Michael W. Deem and Ramdas Pophale) SiO2 
 PCOD8007895
Probable space group: P -1
;
_chemical_formula_sum "Si O2"
_cell_formula_units_Z 14
_cell_length_a 8.942068
_cell_length_b 19.981781
_cell_length_c 9.117367
_cell_angle_alpha 41.294282
_cell_angle_beta 100.831111
_cell_angle_gamma 132.545396
_cell_volume 596.145074
_symmetry_space_group_name_H-M "P -1"
_symmetry_group_IT_number 2
_symmetry_cell_setting 'triclinic'
loop_
_space_group_symop_operation_xyz
x,y,z
-x,-y,-z
loop_
_atom_site_type_symbol
_atom_site_label
_atom_site_fract_x
_atom_site_fract_y
_atom_site_fract_z
Si Si1 0.024431 0.618556 0.723929
Si Si2 0.667356 0.553146 0.307375
Si Si3 0.876071 0.333476 0.675821
Si Si4 0.125284 0.169026 0.809968
Si Si5 0.993421 0.014005 0.647322
Si Si6 0.735554 0.048783 0.724856
Si Si7 0.457993 0.388532 0.064272
O O1 0.125782 0.654137 0.519551
O O2 0.218284 0.805383 0.541800
O O3 0.000000 0.500000 0.000000
O O4 0.726476 0.499265 0.854652
O O5 0.500000 0.500000 0.500000
O O6 0.442003 0.352930 0.522387
O O7 0.943097 0.658905 0.243489
O O8 0.733869 0.675230 0.998023
O O9 0.000000 0.500000 0.500000
O O10 0.571877 0.144464 0.978623
O O11 0.933260 0.150604 0.738059
O O12 0.093673 0.136813 0.034726
O O13 0.000000 0.000000 0.000000
O O14 0.817882 0.016343 0.663180
O O15 0.304460 0.214258 0.409817
O O16 0.000000 0.000000 0.500000
O O17 0.500000 0.500000 0.000000
#
# Coordination Sequence:
#
# PCOD8007895 Si02
#       7
#     2   2   2   2   2   2   2
#     4  12  28  50  73 106 150 199 251 304 371 435
#     4  12  23  46  72 101 142 188 240 294 359 436
#     4  12  28  46  76 110 150 190 244 310 378 438
#     4  10  20  41  71 100 135 184 240 284 352 444
#     4  11  24  40  72 112 145 179 242 312 370 432
#     4  11  24  51  71 106 149 200 245 295 370 450
#     4  12  24  46  75 104 141 192 249 299 365 435
#
# _framework density 23.484217000000001
#
# number of rings (size 3 to 8) (size 9 to 14) (size 15 to 20)
#    0.000    0.571    4.286    3.857    6.000    0.000 
#    2.571    1.429    0.000    0.000    0.000    0.000 
#    0.000    0.000    0.000    0.000    0.000    0.000 
#
# Total GULP energy -173441.804643 kJ/mol
# GULP energy per Si atom -12388.700332 kJ/mol
# Density = 2.343077 g / cm^3
# Si number density = 23.484217 Si / 1000 Ang^3
#
#
#
# Elastic Constant Matrix: (Units=GPa)
#
#
# Indices 1 2 3 4 5 6 
#
# 1 108.1745 50.7952 59.0630 8.0684 -10.5806 -8.0807
# 2 50.7952 100.1491 33.5847 8.4002 -10.7820 4.7076
# 3 59.0630 33.5847 151.2624 -12.4980 -12.4468 11.3101
# 4 8.0684 8.4002 -12.4980 53.3078 5.5759 -7.0855
# 5 -10.5806 -10.7820 -12.4468 5.5759 47.5134 0.8357
# 6 -8.0807 4.7076 11.3101 -7.0855 0.8357 37.2398
#
#
#
# Elastic Compliance Matrix: (Units=1/GPa)
#
#
# Indices 1 2 3 4 5 6 
#
# 1 0.015626 -0.006165 -0.005228 -0.001996 0.000851 0.005359
# 2 -0.006165 0.013782 -0.000404 -0.001986 0.001941 -0.003379
# 3 -0.005228 -0.000404 0.009283 0.002473 0.000946 -0.003453
# 4 -0.001996 -0.001986 0.002473 0.020645 -0.002724 0.003056
# 5 0.000851 0.001941 0.000946 -0.002724 0.022268 -0.001366
# 6 0.005359 -0.003379 -0.003453 0.003056 -0.001366 0.030104
#
#
# Mechanical properties :
#
#
# Convention : Reuss Voigt Hill
#
# Bulk Modulus (GPa) = 66.24599 71.83019 69.03809
# Shear Modulus (GPa) = 35.62878 42.02173 38.82526
#
# Velocity S-wave (km/s) = 3.89927 4.23467 4.07043
# Velocity P-wave (km/s) = 6.96724 7.38667 7.18002
#
# Compressibility (1/GPa) = 0.01509525
#
# Stress axis : x y z
#
# Youngs Moduli (GPa) = 63.99408 72.55826 107.72666
#
# Poissons Ratio (x) = 0.44734 0.56323
# Poissons Ratio (y) = 0.39454 0.04357
# Poissons Ratio (z) = 0.33458 0.02934
#
# Static dielectric constant tensor:
#      x y z
#    x 4.646980 -0.172970 0.767930 
#    y -0.172970 4.800140 1.086530 
#    z 0.767930 1.086530 4.091140 
# 
# 
# High freq. dielectric constant tensor:
#      x y z
#    x 1.915110 -0.019690 0.006240 
#    y -0.019690 1.940290 -0.011810 
#    z 0.006240 -0.011810 1.961410 
# 
# From -- ./inp_files/189858.got.cif
#   From: 2010.06.25/outbox.cif.g09.slc.cpg/sg2_95_cif.got.tgz:189858.got - 2010.06.27 13:26:56.
