data_PCOD8007622
_publ_section_title
;
Structure prediction by ZEFSAII (Michael W. Deem and Ramdas Pophale) SiO2 
 PCOD8007622
Probable space group: P -1
;
_chemical_formula_sum "Si O2"
_cell_formula_units_Z 16
_cell_length_a 12.610168
_cell_length_b 28.764545
_cell_length_c 8.721404
_cell_angle_alpha 42.394221
_cell_angle_beta 146.074722
_cell_angle_gamma 154.792141
_cell_volume 750.968503
_symmetry_space_group_name_H-M "P -1"
_symmetry_group_IT_number 2
_symmetry_cell_setting 'triclinic'
loop_
_space_group_symop_operation_xyz
x,y,z
-x,-y,-z
loop_
_atom_site_type_symbol
_atom_site_label
_atom_site_fract_x
_atom_site_fract_y
_atom_site_fract_z
Si Si1 0.704734 0.379389 0.383155
Si Si2 0.432303 0.373400 0.338536
Si Si3 0.168007 0.728913 0.063316
Si Si4 0.298838 0.758133 0.802296
Si Si5 0.844745 0.823380 0.320994
Si Si6 0.559677 0.046048 0.122416
Si Si7 0.780069 0.108113 0.662994
Si Si8 0.954800 0.431826 0.244041
O O1 0.441599 0.345925 0.241449
O O2 0.695708 0.381535 0.180671
O O3 0.000000 0.500000 0.500000
O O4 0.687596 0.294757 0.619301
O O5 0.368870 0.294292 0.574697
O O6 0.742468 0.495590 0.470104
O O7 0.168222 0.355300 0.069515
O O8 0.139247 0.707255 0.900088
O O9 0.374759 0.854119 0.036845
O O10 0.263431 0.823274 0.530863
O O11 0.138956 0.664594 0.715238
O O12 0.654633 0.840583 0.049199
O O13 0.157011 0.917236 0.559122
O O14 0.911955 0.820762 0.231467
O O15 0.244431 0.939573 0.089850
O O16 0.500000 0.000000 0.000000
O O17 0.500000 0.000000 0.500000
O O18 0.000000 0.500000 0.000000
#
# Coordination Sequence:
#
# PCOD8007622 Si02
#       8
#     2   2   2   2   2   2   2   2
#     4  10  22  41  63  89 128 165 203 257 308 365
#     4  10  20  42  64  91 129 169 203 252 316 362
#     4  11  22  42  68  88 126 171 202 256 320 365
#     4  12  21  39  66  93 125 167 206 255 310 368
#     4  10  20  41  66  90 125 167 204 253 323 363
#     4  10  23  43  64  91 127 160 214 263 303 374
#     4  10  21  41  62  90 126 165 206 257 311 366
#     4  11  23  39  63  96 129 160 212 256 297 380
#
# _framework density 21.305821000000002
#
# number of rings (size 3 to 8) (size 9 to 14) (size 15 to 20)
#    0.000    1.500    6.250    0.750    1.750    4.500 
#    4.500    1.875    0.000    0.000    0.000    0.000 
#    0.000    0.000    0.000    0.000    0.000    0.000 
#
# Total GULP energy -198283.915950 kJ/mol
# GULP energy per Si atom -12392.744747 kJ/mol
# Density = 2.125733 g / cm^3
# Si number density = 21.305821 Si / 1000 Ang^3
#
#
#
# Elastic Constant Matrix: (Units=GPa)
#
#
# Indices 1 2 3 4 5 6 
#
# 1 200.3543 66.8512 42.8295 -3.4265 -11.3147 -3.8863
# 2 66.8512 85.2316 26.1172 -9.8852 -9.4636 -7.2849
# 3 42.8295 26.1172 56.2864 -6.1859 4.2772 -4.2041
# 4 -3.4265 -9.8852 -6.1859 27.1775 4.0374 -2.2719
# 5 -11.3147 -9.4636 4.2772 4.0374 43.8189 -0.4898
# 6 -3.8863 -7.2849 -4.2041 -2.2719 -0.4898 36.9602
#
#
#
# Elastic Compliance Matrix: (Units=1/GPa)
#
#
# Indices 1 2 3 4 5 6 
#
# 1 0.007439 -0.004793 -0.003811 -0.001943 0.001429 -0.000697
# 2 -0.004793 0.017836 -0.004083 0.004808 0.002602 0.002877
# 3 -0.003811 -0.004083 0.023489 0.004192 -0.004526 0.001664
# 4 -0.001943 0.004808 0.004192 0.040081 -0.003525 0.003637
# 5 0.001429 0.002602 -0.004526 -0.003525 0.024522 0.000257
# 6 -0.000697 0.002877 0.001664 0.003637 0.000257 0.027966
#
#
# Mechanical properties :
#
#
# Convention : Reuss Voigt Hill
#
# Bulk Modulus (GPa) = 42.75260 68.16311 55.45785
# Shear Modulus (GPa) = 28.65264 35.32963 31.99114
#
# Velocity S-wave (km/s) = 3.67117 4.07654 3.87915
# Velocity P-wave (km/s) = 6.17087 7.36340 6.79336
#
# Compressibility (1/GPa) = 0.02339039
#
# Stress axis : x y z
#
# Youngs Moduli (GPa) = 134.42500 56.06622 42.57246
#
# Poissons Ratio (x) = 0.26875 0.16222
# Poissons Ratio (y) = 0.64436 0.17382
# Poissons Ratio (z) = 0.51223 0.22892
#
# Static dielectric constant tensor:
#      x y z
#    x 4.726700 0.126720 -0.052140 
#    y 0.126720 3.722990 -0.110020 
#    z -0.052140 -0.110020 3.518260 
# 
# 
# High freq. dielectric constant tensor:
#      x y z
#    x 1.863060 0.009970 -0.004640 
#    y 0.009970 1.835180 -0.014910 
#    z -0.004640 -0.014910 1.802420 
# 
# From -- ./inp_files/285527.got.cif
#   From: 2010.06.25/outbox.cif.g09.slc.cpg/sg2_143_cif.got.tgz:285527.got - 2010.06.27 13:26:56.
