data_PCOD8007120
_publ_section_title
;
Structure prediction by ZEFSAII (Michael W. Deem and Ramdas Pophale) SiO2 
 PCOD8007120
Probable space group: P -1
;
_chemical_formula_sum "Si O2"
_cell_formula_units_Z 16
_cell_length_a 9.237934
_cell_length_b 12.200951
_cell_length_c 14.178498
_cell_angle_alpha 151.159087
_cell_angle_beta 76.638338
_cell_angle_gamma 113.593401
_cell_volume 680.139764
_symmetry_space_group_name_H-M "P -1"
_symmetry_group_IT_number 2
_symmetry_cell_setting 'triclinic'
loop_
_space_group_symop_operation_xyz
x,y,z
-x,-y,-z
loop_
_atom_site_type_symbol
_atom_site_label
_atom_site_fract_x
_atom_site_fract_y
_atom_site_fract_z
Si Si1 0.396393 0.287739 0.429918
Si Si2 0.911180 0.581358 0.995269
Si Si3 0.985615 0.880420 0.643193
Si Si4 0.905912 0.218516 0.267008
Si Si5 0.068106 0.438950 0.231349
Si Si6 0.544273 0.938374 0.162558
Si Si7 0.538279 0.271658 0.793106
Si Si8 0.443940 0.559291 0.276141
O O1 0.500000 0.500000 0.500000
O O2 0.210646 0.251783 0.436676
O O3 0.479710 0.351238 0.567275
O O4 0.407741 0.025144 0.206835
O O5 0.999923 0.615874 0.906280
O O6 0.731506 0.363160 0.848453
O O7 0.927021 0.858191 0.229762
O O8 0.000000 0.500000 0.000000
O O9 0.034960 0.946624 0.796841
O O10 0.065862 0.702069 0.458851
O O11 0.000000 0.500000 0.500000
O O12 0.950833 0.211290 0.145106
O O13 0.713246 0.134543 0.241583
O O14 0.247616 0.444780 0.221424
O O15 0.554217 0.955977 0.290903
O O16 0.499371 0.656976 0.925432
O O17 0.492086 0.219176 0.648050
O O18 0.500000 0.500000 0.000000
#
# Coordination Sequence:
#
# PCOD8007120 Si02
#       8
#     2   2   2   2   2   2   2   2
#     4  12  25  40  60  94 134 169 210 254 311 382
#     4  11  24  42  63  92 129 166 208 257 311 376
#     4  11  23  39  64  93 128 168 201 263 324 358
#     4  10  20  40  67  94 123 159 211 261 306 371
#     4  10  22  41  66  96 123 160 215 259 308 377
#     4  11  23  43  68  91 125 168 207 262 317 362
#     4   9  20  41  66  91 119 160 214 258 304 370
#     4  10  23  42  66  94 124 166 215 258 306 376
#
# _framework density 23.524576
#
# number of rings (size 3 to 8) (size 9 to 14) (size 15 to 20)
#    0.000    1.500    0.000    6.750    0.000    7.500 
#    0.000    6.250    0.000    0.000    0.000    0.000 
#    0.000    0.000    0.000    0.000    0.000    0.000 
#
# Total GULP energy -198316.350524 kJ/mol
# GULP energy per Si atom -12394.771908 kJ/mol
# Density = 2.347103 g / cm^3
# Si number density = 23.524576 Si / 1000 Ang^3
#
#
#
# Elastic Constant Matrix: (Units=GPa)
#
#
# Indices 1 2 3 4 5 6 
#
# 1 92.8657 32.8923 15.6335 -13.6408 -9.5831 -22.3383
# 2 32.8923 152.9263 25.1537 -11.8730 -9.0758 -16.5740
# 3 15.6335 25.1537 37.3736 2.4777 -10.8844 -16.2296
# 4 -13.6408 -11.8730 2.4777 38.6338 -7.6262 1.6601
# 5 -9.5831 -9.0758 -10.8844 -7.6262 40.4944 6.1045
# 6 -22.3383 -16.5740 -16.2296 1.6601 6.1045 42.5417
#
#
#
# Elastic Compliance Matrix: (Units=1/GPa)
#
#
# Indices 1 2 3 4 5 6 
#
# 1 0.013923 -0.001553 -0.002034 0.004831 0.002498 0.005383
# 2 -0.001553 0.007855 -0.004460 0.002246 0.000561 0.000375
# 3 -0.002034 -0.004460 0.037309 -0.003708 0.006239 0.010677
# 4 0.004831 0.002246 -0.003708 0.029757 0.006263 -0.000063
# 5 0.002498 0.000561 0.006239 0.006263 0.028328 -0.000399
# 6 0.005383 0.000375 0.010677 -0.000063 -0.000399 0.030612
#
#
# Mechanical properties :
#
#
# Convention : Reuss Voigt Hill
#
# Bulk Modulus (GPa) = 23.25946 47.83607 35.54776
# Shear Modulus (GPa) = 28.05700 38.29973 33.17837
#
# Velocity S-wave (km/s) = 3.45725 4.03932 3.75956
# Velocity P-wave (km/s) = 5.08385 6.49103 5.83005
#
# Compressibility (1/GPa) = 0.04299327
#
# Stress axis : x y z
#
# Youngs Moduli (GPa) = 71.82349 127.30639 26.80342
#
# Poissons Ratio (x) = 0.19776 0.05451
# Poissons Ratio (y) = 0.11157 0.11953
# Poissons Ratio (z) = 0.14606 0.56774
#
# Static dielectric constant tensor:
#      x y z
#    x 4.150740 -0.166400 -0.377700 
#    y -0.166400 4.984770 -0.162360 
#    z -0.377700 -0.162360 4.074930 
# 
# 
# High freq. dielectric constant tensor:
#      x y z
#    x 1.924740 -0.005700 -0.022400 
#    y -0.005700 1.954400 0.006940 
#    z -0.022400 0.006940 1.927610 
# 
# From -- ./inp_files/501156.got.cif
#   From: 2010.06.25/outbox.cif.g09.slc.cpg/sg2_251_cif.got.tgz:501156.got - 2010.06.27 13:26:56.
