data_PCOD8007394
_publ_section_title
;
Structure prediction by ZEFSAII (Michael W. Deem and Ramdas Pophale) SiO2 
 PCOD8007394
Probable space group: P -1
;
_chemical_formula_sum "Si O2"
_cell_formula_units_Z 16
_cell_length_a 22.732788
_cell_length_b 8.416448
_cell_length_c 7.805638
_cell_angle_alpha 53.992889
_cell_angle_beta 35.582913
_cell_angle_gamma 60.108620
_cell_volume 702.328264
_symmetry_space_group_name_H-M "P -1"
_symmetry_group_IT_number 2
_symmetry_cell_setting 'triclinic'
loop_
_space_group_symop_operation_xyz
x,y,z
-x,-y,-z
loop_
_atom_site_type_symbol
_atom_site_label
_atom_site_fract_x
_atom_site_fract_y
_atom_site_fract_z
Si Si1 0.640138 0.887317 0.610292
Si Si2 0.176192 0.777327 0.495637
Si Si3 0.814300 0.028103 0.310967
Si Si4 0.344874 0.737759 0.872318
Si Si5 0.033550 0.163062 0.189446
Si Si6 0.276623 0.563222 0.826868
Si Si7 0.787832 0.639569 0.186807
Si Si8 0.500120 0.439735 0.736888
O O1 0.699190 0.777378 0.386230
O O2 0.714010 0.908536 0.585160
O O3 0.607524 0.104332 0.472492
O O4 0.544468 0.770609 0.974519
O O5 0.164207 0.956647 0.546256
O O6 0.228997 0.582604 0.572677
O O7 0.068279 0.723317 0.706776
O O8 0.254531 0.848983 0.120622
O O9 0.798268 0.247130 0.138542
O O10 0.909293 0.923240 0.057795
O O11 0.297091 0.558118 0.986677
O O12 0.430601 0.625798 0.860610
O O13 0.101585 0.301875 0.054175
O O14 0.000000 0.000000 0.500000
O O15 0.222819 0.374842 0.988532
O O16 0.384632 0.572551 0.463012
O O17 0.500000 0.500000 0.500000
#
# Coordination Sequence:
#
# PCOD8007394 Si02
#       8
#     2   2   2   2   2   2   2   2
#     4  10  20  41  62  88 132 163 204 258 307 357
#     4  11  20  40  63  91 125 161 210 253 308 376
#     4   9  21  38  62  90 124 164 202 258 307 366
#     4  10  21  40  63  94 126 166 205 257 303 368
#     4  11  22  40  62  91 124 161 207 256 315 371
#     4   9  20  39  62  85 126 159 209 253 310 356
#     4  10  21  39  62  90 120 165 202 255 312 366
#     4  10  21  39  65  91 123 168 211 252 310 364
#
# _framework density 22.781372000000001
#
# number of rings (size 3 to 8) (size 9 to 14) (size 15 to 20)
#    0.000    2.000    1.250    3.000    0.000    5.000 
#    9.000    7.500    0.000    0.000    0.000    0.000 
#    0.000    0.000    0.000    0.000    0.000    0.000 
#
# Total GULP energy -198218.916164 kJ/mol
# GULP energy per Si atom -12388.682260 kJ/mol
# Density = 2.272952 g / cm^3
# Si number density = 22.781372 Si / 1000 Ang^3
#
#
#
# Elastic Constant Matrix: (Units=GPa)
#
#
# Indices 1 2 3 4 5 6 
#
# 1 57.5195 29.2645 17.1446 0.4315 -2.8904 15.5804
# 2 29.2645 69.5193 21.7321 2.6746 -6.4203 13.4789
# 3 17.1446 21.7321 96.9740 2.1626 0.0965 5.3873
# 4 0.4315 2.6746 2.1626 37.4574 -4.8708 -2.0813
# 5 -2.8904 -6.4203 0.0965 -4.8708 24.2831 4.9219
# 6 15.5804 13.4789 5.3873 -2.0813 4.9219 38.3350
#
#
#
# Elastic Compliance Matrix: (Units=1/GPa)
#
#
# Indices 1 2 3 4 5 6 
#
# 1 0.024035 -0.007916 -0.002098 0.000315 0.002251 -0.006962
# 2 -0.007916 0.019874 -0.002817 -0.000741 0.004997 -0.004056
# 3 -0.002098 -0.002817 0.011307 -0.000566 -0.001230 0.000381
# 4 0.000315 -0.000741 -0.000566 0.027507 0.005150 0.001044
# 5 0.002251 0.004997 -0.001230 0.005150 0.045440 -0.008053
# 6 -0.006962 -0.004056 0.000381 0.001044 -0.008053 0.031379
#
#
# Mechanical properties :
#
#
# Convention : Reuss Voigt Hill
#
# Bulk Modulus (GPa) = 33.83733 40.03281 36.93507
# Shear Modulus (GPa) = 25.63379 30.40654 28.02016
#
# Velocity S-wave (km/s) = 3.35805 3.65733 3.51088
# Velocity P-wave (km/s) = 5.46998 5.95361 5.71691
#
# Compressibility (1/GPa) = 0.02955316
#
# Stress axis : x y z
#
# Youngs Moduli (GPa) = 41.60640 50.31672 88.44119
#
# Poissons Ratio (x) = 0.39832 0.18552
# Poissons Ratio (y) = 0.32937 0.24917
# Poissons Ratio (z) = 0.08728 0.14176
#
# Static dielectric constant tensor:
#      x y z
#    x 4.823470 0.008660 -0.593990 
#    y 0.008660 4.404670 0.280020 
#    z -0.593990 0.280020 4.236840 
# 
# 
# High freq. dielectric constant tensor:
#      x y z
#    x 1.893030 0.000320 -0.008110 
#    y 0.000320 1.907730 0.014180 
#    z -0.008110 0.014180 1.877720 
# 
# From -- ./inp_files/218182.got.cif
#   From: 2010.06.25/outbox.cif.g09.slc.cpg/sg2_110_cif.got.tgz:218182.got - 2010.06.27 13:26:56.
