data_PCOD8007693
_publ_section_title
;
Structure prediction by ZEFSAII (Michael W. Deem and Ramdas Pophale) SiO2 
 PCOD8007693
Probable space group: P -1
;
_chemical_formula_sum "Si O2"
_cell_formula_units_Z 14
_cell_length_a 15.303708
_cell_length_b 13.836927
_cell_length_c 12.762356
_cell_angle_alpha 149.645061
_cell_angle_beta 138.642503
_cell_angle_gamma 27.999226
_cell_volume 640.424898
_symmetry_space_group_name_H-M "P -1"
_symmetry_group_IT_number 2
_symmetry_cell_setting 'triclinic'
loop_
_space_group_symop_operation_xyz
x,y,z
-x,-y,-z
loop_
_atom_site_type_symbol
_atom_site_label
_atom_site_fract_x
_atom_site_fract_y
_atom_site_fract_z
Si Si1 0.565154 0.326840 0.564723
Si Si2 0.753658 0.217332 0.428133
Si Si3 0.449786 0.824051 0.198518
Si Si4 0.884861 0.094577 0.089656
Si Si5 0.220017 0.588785 0.039225
Si Si6 0.085679 0.613393 0.148128
Si Si7 0.620706 0.683056 0.436585
O O1 0.683574 0.159709 0.410363
O O2 0.394277 0.635110 0.660783
O O3 0.689729 0.308107 0.743420
O O4 0.486578 0.224660 0.461793
O O5 0.788375 0.406332 0.669178
O O6 0.933010 0.928875 0.275730
O O7 0.494297 0.727940 0.269399
O O8 0.340318 0.135766 0.382299
O O9 0.312430 0.808345 0.013025
O O10 0.646809 0.638880 0.141358
O O11 0.819958 0.369745 0.330429
O O12 0.014041 0.846823 0.053440
O O13 0.000000 0.000000 0.000000
O O14 0.199679 0.463808 0.002904
O O15 0.000000 0.500000 0.000000
#
# Coordination Sequence:
#
# PCOD8007693 Si02
#       7
#     2   2   2   2   2   2   2
#     4  10  20  41  67  86 126 171 202 259 317 367
#     4   9  21  41  60  94 126 159 214 257 306 380
#     4  11  25  43  61 100 130 160 220 258 310 391
#     4  12  23  42  67  91 128 170 208 261 315 371
#     4  11  23  42  67  94 128 169 213 260 312 382
#     4  10  22  39  64  94 127 162 208 262 313 367
#     4  11  23  42  66  92 130 169 206 263 321 370
#
# _framework density 21.860486999999999
#
# number of rings (size 3 to 8) (size 9 to 14) (size 15 to 20)
#    0.000    1.429    2.857    2.143    2.000    1.714 
#    2.571    2.143    0.000    0.000    0.000    0.000 
#    0.000    0.000    0.000    0.000    0.000    0.000 
#
# Total GULP energy -173534.616204 kJ/mol
# GULP energy per Si atom -12395.329729 kJ/mol
# Density = 2.181073 g / cm^3
# Si number density = 21.860487 Si / 1000 Ang^3
#
#
#
# Elastic Constant Matrix: (Units=GPa)
#
#
# Indices 1 2 3 4 5 6 
#
# 1 136.3002 22.8702 28.4253 1.0711 -5.1106 8.7627
# 2 22.8702 82.7347 29.2115 2.9831 3.6287 -6.3964
# 3 28.4253 29.2115 55.5807 11.4525 0.6208 4.0723
# 4 1.0711 2.9831 11.4525 23.9406 1.9645 -7.2143
# 5 -5.1106 3.6287 0.6208 1.9645 26.8107 -2.2487
# 6 8.7627 -6.3964 4.0723 -7.2143 -2.2487 31.0446
#
#
#
# Elastic Compliance Matrix: (Units=1/GPa)
#
#
# Indices 1 2 3 4 5 6 
#
# 1 0.008506 -0.001277 -0.003742 0.000875 0.001662 -0.001849
# 2 -0.001277 0.016003 -0.009030 0.004263 -0.002036 0.005686
# 3 -0.003742 -0.009030 0.028237 -0.014613 0.000264 -0.007885
# 4 0.000875 0.004263 -0.014613 0.052821 -0.002715 0.014626
# 5 0.001662 -0.002036 0.000264 -0.002715 0.038185 0.001212
# 6 -0.001849 0.005686 -0.007885 0.014626 0.001212 0.038426
#
#
# Mechanical properties :
#
#
# Convention : Reuss Voigt Hill
#
# Bulk Modulus (GPa) = 40.57150 48.40327 44.48739
# Shear Modulus (GPa) = 22.88405 29.29976 26.09191
#
# Velocity S-wave (km/s) = 3.23897 3.66499 3.45855
# Velocity P-wave (km/s) = 5.70855 6.33242 6.02856
#
# Compressibility (1/GPa) = 0.02464784
#
# Stress axis : x y z
#
# Youngs Moduli (GPa) = 117.56649 62.48726 35.41432
#
# Poissons Ratio (x) = 0.07982 0.13252
# Poissons Ratio (y) = 0.15019 0.31978
# Poissons Ratio (z) = 0.43994 0.56424
#
# Static dielectric constant tensor:
#      x y z
#    x 4.155380 -0.099820 -0.219710 
#    y -0.099820 4.048240 -0.104340 
#    z -0.219710 -0.104340 3.681910 
# 
# 
# High freq. dielectric constant tensor:
#      x y z
#    x 1.874670 0.001950 -0.018060 
#    y 0.001950 1.861580 -0.002560 
#    z -0.018060 -0.002560 1.832300 
# 
# From -- ./inp_files/451938.got.cif
#   From: 2010.06.25/outbox.cif.g09.slc.cpg/sg2_226_cif.got.tgz:451938.got - 2010.06.27 13:26:56.
