data_PCOD8007285
_publ_section_title
;
Structure prediction by ZEFSAII (Michael W. Deem and Ramdas Pophale) SiO2 
 PCOD8007285
Probable space group: P -1
;
_chemical_formula_sum "Si O2"
_cell_formula_units_Z 16
_cell_length_a 12.246736
_cell_length_b 9.192709
_cell_length_c 12.301139
_cell_angle_alpha 128.753399
_cell_angle_beta 46.202359
_cell_angle_gamma 120.268379
_cell_volume 773.330441
_symmetry_space_group_name_H-M "P -1"
_symmetry_group_IT_number 2
_symmetry_cell_setting 'triclinic'
loop_
_space_group_symop_operation_xyz
x,y,z
-x,-y,-z
loop_
_atom_site_type_symbol
_atom_site_label
_atom_site_fract_x
_atom_site_fract_y
_atom_site_fract_z
Si Si1 0.694646 0.134924 0.717325
Si Si2 0.632481 0.566960 0.670176
Si Si3 0.855031 0.506142 0.303464
Si Si4 0.056165 0.069572 0.611595
Si Si5 0.810170 0.510038 0.930495
Si Si6 0.666868 0.326970 0.158062
Si Si7 0.270611 0.029895 0.152848
Si Si8 0.473036 0.337171 0.856091
O O1 0.774025 0.343496 0.789684
O O2 0.530354 0.149479 0.779630
O O3 0.799201 0.040342 0.512616
O O4 0.677169 0.007183 0.776846
O O5 0.779676 0.524650 0.481787
O O6 0.498672 0.603508 0.696079
O O7 0.674121 0.750802 0.804957
O O8 0.575748 0.392486 0.704633
O O9 0.893478 0.708298 0.314623
O O10 0.740722 0.371774 0.244910
O O11 0.011384 0.412474 0.165752
O O12 0.000000 0.000000 0.500000
O O13 0.911907 0.015164 0.764182
O O14 0.773624 0.425602 0.035658
O O15 0.707440 0.680114 0.058574
O O16 0.647412 0.101287 0.046592
O O17 0.500000 0.500000 0.000000
#
# Coordination Sequence:
#
# PCOD8007285 Si02
#       8
#     2   2   2   2   2   2   2   2
#     4   9  15  32  54  81 107 139 179 227 266 320
#     4  11  21  35  55  86 113 136 182 236 272 314
#     4  12  19  33  55  85 113 145 175 233 270 324
#     4  10  16  30  55  82 113 135 181 224 279 306
#     4   9  17  32  52  74 110 142 182 215 265 321
#     4  10  21  31  51  85 115 143 177 221 283 324
#     4  10  18  34  58  85 109 137 182 235 267 317
#     4   9  20  35  54  80 111 145 182 224 271 327
#
# _framework density 20.689730999999998
#
# number of rings (size 3 to 8) (size 9 to 14) (size 15 to 20)
#    0.000    2.000    6.250    1.875    0.000    0.000 
#    0.000    5.625    0.000    3.000    6.500    8.750 
#    0.000    0.000    0.000    0.000    0.000    0.000 
#
# Total GULP energy -198305.273073 kJ/mol
# GULP energy per Si atom -12394.079567 kJ/mol
# Density = 2.064264 g / cm^3
# Si number density = 20.689731 Si / 1000 Ang^3
#
#
#
# Elastic Constant Matrix: (Units=GPa)
#
#
# Indices 1 2 3 4 5 6 
#
# 1 77.6683 20.2878 37.3742 8.2182 -20.7962 -0.9779
# 2 20.2878 35.4218 19.1069 3.2567 -8.0514 0.7096
# 3 37.3742 19.1069 77.2206 1.0311 -26.9756 -4.9275
# 4 8.2182 3.2567 1.0311 19.6346 0.9733 -11.1992
# 5 -20.7962 -8.0514 -26.9756 0.9733 39.2838 6.5527
# 6 -0.9779 0.7096 -4.9275 -11.1992 6.5527 21.1374
#
#
#
# Elastic Compliance Matrix: (Units=1/GPa)
#
#
# Indices 1 2 3 4 5 6 
#
# 1 0.020653 -0.005182 -0.006611 -0.013360 0.007289 -0.009750
# 2 -0.005182 0.035779 -0.006065 -0.007887 0.001891 -0.007620
# 3 -0.006611 -0.006065 0.020933 0.004904 0.008731 0.004669
# 4 -0.013360 -0.007887 0.004904 0.088442 -0.016304 0.052703
# 5 0.007289 0.001891 0.008731 -0.016304 0.039183 -0.018476
# 6 -0.009750 -0.007620 0.004669 0.052703 -0.018476 0.081854
#
#
# Mechanical properties :
#
#
# Convention : Reuss Voigt Hill
#
# Bulk Modulus (GPa) = 24.01105 38.20540 31.10822
# Shear Modulus (GPa) = 14.86139 23.58061 19.22100
#
# Velocity S-wave (km/s) = 2.68302 3.37964 3.05128
# Velocity P-wave (km/s) = 4.60745 5.80821 5.24232
#
# Compressibility (1/GPa) = 0.04164749
#
# Stress axis : x y z
#
# Youngs Moduli (GPa) = 48.41987 27.94974 47.77210
#
# Poissons Ratio (x) = 0.14485 0.31582
# Poissons Ratio (y) = 0.25093 0.28973
# Poissons Ratio (z) = 0.32011 0.16951
#
# Static dielectric constant tensor:
#      x y z
#    x 4.022310 -0.195420 -0.677000 
#    y -0.195420 3.463790 0.156750 
#    z -0.677000 0.156750 4.170370 
# 
# 
# High freq. dielectric constant tensor:
#      x y z
#    x 1.787920 0.005740 -0.033870 
#    y 0.005740 1.762160 -0.000700 
#    z -0.033870 -0.000700 1.815410 
# 
# From -- ./inp_files/263107.got.cif
#   From: 2010.06.25/outbox.cif.g09.slc.cpg/sg2_132_cif.got.tgz:263107.got - 2010.06.27 13:26:56.
