data_PCOD8007461
_publ_section_title
;
Structure prediction by ZEFSAII (Michael W. Deem and Ramdas Pophale) SiO2 
 PCOD8007461
Probable space group: P -1
;
_chemical_formula_sum "Si O2"
_cell_formula_units_Z 16
_cell_length_a 8.990550
_cell_length_b 5.888823
_cell_length_c 15.809040
_cell_angle_alpha 119.705311
_cell_angle_beta 95.575285
_cell_angle_gamma 102.195206
_cell_volume 690.219193
_symmetry_space_group_name_H-M "P -1"
_symmetry_group_IT_number 2
_symmetry_cell_setting 'triclinic'
loop_
_space_group_symop_operation_xyz
x,y,z
-x,-y,-z
loop_
_atom_site_type_symbol
_atom_site_label
_atom_site_fract_x
_atom_site_fract_y
_atom_site_fract_z
Si Si1 0.089593 0.785434 0.504572
Si Si2 0.520542 0.699012 0.740090
Si Si3 0.241169 0.609895 0.318558
Si Si4 0.751807 0.634767 0.001557
Si Si5 0.426189 0.509664 0.875363
Si Si6 0.198853 0.815201 0.187045
Si Si7 0.037418 0.896218 0.808391
Si Si8 0.288085 0.920283 0.696057
O O1 0.183643 0.698095 0.418864
O O2 0.222571 0.964096 0.608340
O O3 0.000000 0.500000 0.500000
O O4 0.000000 0.000000 0.500000
O O5 0.595644 0.460289 0.673071
O O6 0.418906 0.657894 0.813715
O O7 0.396379 0.716366 0.663478
O O8 0.666089 0.965655 0.816255
O O9 0.270262 0.838254 0.290139
O O10 0.104173 0.365621 0.221182
O O11 0.594156 0.650370 0.951644
O O12 0.838567 0.473092 0.917040
O O13 0.710082 0.487212 0.064735
O O14 0.862113 0.948227 0.077212
O O15 0.404935 0.195129 0.792201
O O16 0.036687 0.884966 0.198815
O O17 0.140234 0.798480 0.726906
#
# Coordination Sequence:
#
# PCOD8007461 Si02
#       8
#     2   2   2   2   2   2   2   2
#     4  12  28  50  80 112 143 187 240 298 369 440
#     4  11  23  42  70  96 145 183 235 294 362 418
#     4  11  24  45  69 100 143 181 232 302 358 425
#     4  10  20  41  63  97 138 184 243 287 354 421
#     4  10  22  42  64  98 138 182 236 297 347 428
#     4  11  22  43  62 100 142 184 233 299 352 424
#     4  10  23  39  66  96 136 184 233 289 354 420
#     4  11  23  45  70 103 137 182 238 293 364 423
#
# _framework density 23.181042000000001
#
# number of rings (size 3 to 8) (size 9 to 14) (size 15 to 20)
#    0.000    1.250    3.750    1.125    3.500    3.500 
#    2.250    2.500    0.000    0.000    0.000    0.000 
#    0.000    0.000    0.000    0.000    0.000    0.000 
#
# Total GULP energy -198211.732016 kJ/mol
# GULP energy per Si atom -12388.233251 kJ/mol
# Density = 2.312828 g / cm^3
# Si number density = 23.181042 Si / 1000 Ang^3
#
#
#
# Elastic Constant Matrix: (Units=GPa)
#
#
# Indices 1 2 3 4 5 6 
#
# 1 111.8618 21.4886 37.3718 -10.9545 4.1488 -22.9451
# 2 21.4886 60.7202 19.2903 -19.2475 0.4502 -8.0291
# 3 37.3718 19.2903 101.6576 -19.3368 -8.7414 -13.7933
# 4 -10.9545 -19.2475 -19.3368 28.2890 1.6158 -0.5088
# 5 4.1488 0.4502 -8.7414 1.6158 43.6087 -7.8967
# 6 -22.9451 -8.0291 -13.7933 -0.5088 -7.8967 34.9811
#
#
#
# Elastic Compliance Matrix: (Units=1/GPa)
#
#
# Indices 1 2 3 4 5 6 
#
# 1 0.011662 -0.002001 -0.002912 0.001308 -0.000650 0.005914
# 2 -0.002001 0.022308 -0.000232 0.014311 0.000098 0.003947
# 3 -0.002912 -0.000232 0.013264 0.007662 0.003405 0.004147
# 4 0.001308 0.014311 0.007662 0.050927 0.000842 0.008094
# 5 -0.000650 0.000098 0.003405 0.000842 0.024831 0.006556
# 6 0.005914 0.003947 0.004147 0.008094 0.006556 0.036605
#
#
# Mechanical properties :
#
#
# Convention : Reuss Voigt Hill
#
# Bulk Modulus (GPa) = 27.06696 47.83788 37.45242
# Shear Modulus (GPa) = 27.44214 34.44836 30.94525
#
# Velocity S-wave (km/s) = 3.44440 3.85912 3.65764
# Velocity P-wave (km/s) = 5.24597 6.36699 5.83347
#
# Compressibility (1/GPa) = 0.03694541
#
# Stress axis : x y z
#
# Youngs Moduli (GPa) = 85.74703 44.82697 75.38994
#
# Poissons Ratio (x) = 0.08968 0.21957
# Poissons Ratio (y) = 0.17155 0.01746
# Poissons Ratio (z) = 0.24973 0.01038
#
# Static dielectric constant tensor:
#      x y z
#    x 4.244710 0.017030 0.006540 
#    y 0.017030 4.323950 -0.065500 
#    z 0.006540 -0.065500 4.127200 
# 
# 
# High freq. dielectric constant tensor:
#      x y z
#    x 1.925650 0.005420 0.000070 
#    y 0.005420 1.905580 -0.006430 
#    z 0.000070 -0.006430 1.906590 
# 
# From -- ./inp_files/37329.got.cif
#   From: 2010.06.25/outbox.cif.g09.slc.cpg/sg2_19_cif.got.tgz:37329.got - 2010.06.27 13:26:56.
