data_PCOD8007084
_publ_section_title
;
Structure prediction by ZEFSAII (Michael W. Deem and Ramdas Pophale) SiO2 
 PCOD8007084
Probable space group: P -1
;
_chemical_formula_sum "Si O2"
_cell_formula_units_Z 16
_cell_length_a 17.202386
_cell_length_b 8.433026
_cell_length_c 10.878540
_cell_angle_alpha 122.243692
_cell_angle_beta 30.808565
_cell_angle_gamma 123.122778
_cell_volume 669.305375
_symmetry_space_group_name_H-M "P -1"
_symmetry_group_IT_number 2
_symmetry_cell_setting 'triclinic'
loop_
_space_group_symop_operation_xyz
x,y,z
-x,-y,-z
loop_
_atom_site_type_symbol
_atom_site_label
_atom_site_fract_x
_atom_site_fract_y
_atom_site_fract_z
Si Si1 0.101288 0.362921 0.685498
Si Si2 0.869265 0.689063 0.815885
Si Si3 0.094664 0.701492 0.305290
Si Si4 0.461596 0.708416 0.117191
Si Si5 0.851399 0.224950 0.140919
Si Si6 0.182248 0.866279 0.587958
Si Si7 0.376996 0.070654 0.782823
Si Si8 0.300666 0.072813 0.278172
O O1 0.197183 0.577468 0.669949
O O2 0.214002 0.240280 0.424099
O O3 0.955814 0.357983 0.789379
O O4 0.030742 0.273978 0.875473
O O5 0.830507 0.464442 0.804428
O O6 0.939197 0.727694 0.599728
O O7 0.003567 0.799645 0.768694
O O8 0.709199 0.762747 0.080887
O O9 0.228181 0.891545 0.216500
O O10 0.275904 0.691487 0.368561
O O11 0.542948 0.860712 0.170595
O O12 0.500000 0.500000 0.000000
O O13 0.522060 0.824326 0.955528
O O14 0.819389 0.081067 0.243108
O O15 0.756919 0.122158 0.109156
O O16 0.274604 0.035835 0.444861
O O17 0.500000 0.000000 0.500000
#
# Coordination Sequence:
#
# PCOD8007084 Si02
#       8
#     2   2   2   2   2   2   2   2
#     4  11  22  40  66 106 137 189 235 292 343 428
#     4  10  23  40  75 101 140 183 238 298 352 414
#     4  10  20  40  67 108 140 176 242 299 352 405
#     4  12  27  47  75  99 144 188 239 295 354 419
#     4  11  23  43  66  96 147 185 233 281 354 432
#     4  11  23  46  68 105 140 184 236 290 352 417
#     4  12  26  46  69 104 142 193 233 284 365 430
#     4  11  24  39  71 103 140 181 243 295 351 409
#
# _framework density 23.905380999999998
#
# number of rings (size 3 to 8) (size 9 to 14) (size 15 to 20)
#    0.000    1.000    2.500    4.500    5.250    2.000 
#    0.000    0.000    0.000    3.000    0.000    0.000 
#    0.000    0.000    0.000    0.000    0.000    0.000 
#
# Total GULP energy -198222.438669 kJ/mol
# GULP energy per Si atom -12388.902417 kJ/mol
# Density = 2.385097 g / cm^3
# Si number density = 23.905381 Si / 1000 Ang^3
#
#
#
# Elastic Constant Matrix: (Units=GPa)
#
#
# Indices 1 2 3 4 5 6 
#
# 1 76.3120 17.2754 15.5621 -4.2255 12.5136 4.8730
# 2 17.2754 101.7781 11.3321 9.5133 17.3543 9.0746
# 3 15.5621 11.3321 97.5904 11.0608 -10.4755 -12.2837
# 4 -4.2255 9.5133 11.0608 35.0250 -8.9148 5.5974
# 5 12.5136 17.3543 -10.4755 -8.9148 38.5856 1.9064
# 6 4.8730 9.0746 -12.2837 5.5974 1.9064 30.9311
#
#
#
# Elastic Compliance Matrix: (Units=1/GPa)
#
#
# Indices 1 2 3 4 5 6 
#
# 1 0.015250 -0.001370 -0.003522 0.002766 -0.004467 -0.003624
# 2 -0.001370 0.011931 -0.001742 -0.003966 -0.006169 -0.002878
# 3 -0.003522 -0.001742 0.012734 -0.003972 0.004140 0.006587
# 4 0.002766 -0.003966 -0.003972 0.034506 0.008156 -0.007597
# 5 -0.004467 -0.006169 0.004140 0.008156 0.033116 0.000641
# 6 -0.003624 -0.002878 0.006587 -0.007597 0.000641 0.037696
#
#
# Mechanical properties :
#
#
# Convention : Reuss Voigt Hill
#
# Bulk Modulus (GPa) = 37.52712 40.44664 38.98688
# Shear Modulus (GPa) = 29.87141 36.34240 33.10691
#
# Velocity S-wave (km/s) = 3.53876 3.90328 3.72548
# Velocity P-wave (km/s) = 5.69468 6.10494 5.90338
#
# Compressibility (1/GPa) = 0.02664740
#
# Stress axis : x y z
#
# Youngs Moduli (GPa) = 65.57546 83.81556 78.52708
#
# Poissons Ratio (x) = 0.11482 0.27657
# Poissons Ratio (y) = 0.08983 0.13679
# Poissons Ratio (z) = 0.23095 0.14600
#
# Static dielectric constant tensor:
#      x y z
#    x 4.311530 0.019930 0.043260 
#    y 0.019930 4.486530 0.029700 
#    z 0.043260 0.029700 4.442220 
# 
# 
# High freq. dielectric constant tensor:
#      x y z
#    x 1.938020 -0.002490 0.007150 
#    y -0.002490 1.947230 0.003990 
#    z 0.007150 0.003990 1.950680 
# 
# From -- ./inp_files/462411.got.cif
#   From: 2010.06.25/outbox.cif.g09.slc.cpg/sg2_232_cif.got.tgz:462411.got - 2010.06.27 13:26:56.
