data_PCOD8007940
_publ_section_title
;
Structure prediction by ZEFSAII (Michael W. Deem and Ramdas Pophale) SiO2 
 PCOD8007940
Probable space group: P -1
;
_chemical_formula_sum "Si O2"
_cell_formula_units_Z 16
_cell_length_a 14.953834
_cell_length_b 24.377212
_cell_length_c 17.912275
_cell_angle_alpha 160.954492
_cell_angle_beta 150.314156
_cell_angle_gamma 20.225531
_cell_volume 726.959708
_symmetry_space_group_name_H-M "P -1"
_symmetry_group_IT_number 2
_symmetry_cell_setting 'triclinic'
loop_
_space_group_symop_operation_xyz
x,y,z
-x,-y,-z
loop_
_atom_site_type_symbol
_atom_site_label
_atom_site_fract_x
_atom_site_fract_y
_atom_site_fract_z
Si Si1 0.200825 0.838967 0.109057
Si Si2 0.652504 0.688948 0.150035
Si Si3 0.676157 0.989692 0.458349
Si Si4 0.186100 0.464968 0.648040
Si Si5 0.388474 0.839901 0.732520
Si Si6 0.080920 0.366904 0.170475
Si Si7 0.210573 0.585085 0.248961
Si Si8 0.387124 0.745511 0.769237
O O1 0.382940 0.793519 0.118892
O O2 0.255966 0.881815 0.285412
O O3 0.255711 0.604068 0.849864
O O4 0.900417 0.082014 0.181808
O O5 0.865013 0.567825 0.213022
O O6 0.584636 0.917156 0.360776
O O7 0.777039 0.481629 0.912582
O O8 0.451683 0.177046 0.475914
O O9 0.923328 0.746467 0.281108
O O10 0.000000 0.500000 0.500000
O O11 0.055126 0.559741 0.755066
O O12 0.691383 0.646221 0.677687
O O13 0.278021 0.735708 0.494470
O O14 0.373438 0.885068 0.869753
O O15 0.213190 0.100041 0.900003
O O16 0.415957 0.334570 0.124565
O O17 0.500000 0.500000 0.500000
#
# Coordination Sequence:
#
# PCOD8007940 Si02
#       8
#     2   2   2   2   2   2   2   2
#     4  12  25  48  73 101 141 193 230 284 356 423
#     4  12  29  42  71 111 142 183 233 301 346 414
#     4  12  25  49  74 102 144 190 236 279 358 423
#     4  12  29  47  73 102 140 187 238 295 349 420
#     4  10  22  41  71 100 136 192 230 291 343 422
#     4  11  24  43  67 100 146 178 241 283 357 413
#     4  11  25  44  72 105 141 186 237 290 347 414
#     4  10  20  41  73  98 131 183 236 274 348 409
#
# _framework density 22.009473
#
# number of rings (size 3 to 8) (size 9 to 14) (size 15 to 20)
#    0.000    0.750    5.000    1.875    7.000    3.000 
#    0.000    0.000    0.000    0.000    0.000    0.000 
#    0.000    0.000    0.000    0.000    0.000    0.000 
#
# Total GULP energy -198479.150042 kJ/mol
# GULP energy per Si atom -12404.946878 kJ/mol
# Density = 2.195938 g / cm^3
# Si number density = 22.009473 Si / 1000 Ang^3
#
#
#
# Elastic Constant Matrix: (Units=GPa)
#
#
# Indices 1 2 3 4 5 6 
#
# 1 96.3082 54.1083 36.8409 7.6392 4.5488 -19.5995
# 2 54.1083 167.2176 45.5418 22.6238 7.7416 -5.7140
# 3 36.8409 45.5418 78.5871 7.4739 8.5197 8.1280
# 4 7.6392 22.6238 7.4739 33.6835 4.1856 -4.0693
# 5 4.5488 7.7416 8.5197 4.1856 34.4484 0.7565
# 6 -19.5995 -5.7140 8.1280 -4.0693 0.7565 43.2312
#
#
#
# Elastic Compliance Matrix: (Units=1/GPa)
#
#
# Indices 1 2 3 4 5 6 
#
# 1 0.016469 -0.003342 -0.006742 0.001027 -0.000065 0.008390
# 2 -0.003342 0.008418 -0.002854 -0.004267 -0.000220 -0.000264
# 3 -0.006742 -0.002854 0.018681 -0.001199 -0.002789 -0.007010
# 4 0.001027 -0.004267 -0.001199 0.033362 -0.003007 0.003320
# 5 -0.000065 -0.000220 -0.002789 -0.003007 0.030150 -0.000345
# 6 0.008390 -0.000264 -0.007010 0.003320 -0.000345 0.028537
#
#
# Mechanical properties :
#
#
# Convention : Reuss Voigt Hill
#
# Bulk Modulus (GPa) = 56.52807 68.34387 62.43597
# Shear Modulus (GPa) = 29.87029 35.98073 32.92551
#
# Velocity S-wave (km/s) = 3.68796 4.04763 3.87197
# Velocity P-wave (km/s) = 6.62374 7.27763 6.95837
#
# Compressibility (1/GPa) = 0.01769033
#
# Stress axis : x y z
#
# Youngs Moduli (GPa) = 60.71934 118.79978 53.53046
#
# Poissons Ratio (x) = 0.39704 0.36092
# Poissons Ratio (y) = 0.20293 0.15279
# Poissons Ratio (z) = 0.40938 0.33909
#
# Static dielectric constant tensor:
#      x y z
#    x 5.175390 0.955870 -0.337020 
#    y 0.955870 5.161680 -0.266080 
#    z -0.337020 -0.266080 4.070330 
# 
# 
# High freq. dielectric constant tensor:
#      x y z
#    x 1.870090 -0.009850 0.007190 
#    y -0.009850 1.877710 0.009700 
#    z 0.007190 0.009700 1.862890 
# 
# From -- ./inp_files/335641.got.cif
#   From: 2010.06.25/outbox.cif.g09.slc.cpg/sg2_168_cif.got.tgz:335641.got - 2010.06.27 13:26:56.
