data_PCOD8007395
_publ_section_title
;
Structure prediction by ZEFSAII (Michael W. Deem and Ramdas Pophale) SiO2 
 PCOD8007395
Probable space group: P -1
;
_chemical_formula_sum "Si O2"
_cell_formula_units_Z 16
_cell_length_a 17.882261
_cell_length_b 9.573219
_cell_length_c 20.435127
_cell_angle_alpha 128.984936
_cell_angle_beta 160.073703
_cell_angle_gamma 41.209957
_cell_volume 736.378383
_symmetry_space_group_name_H-M "P -1"
_symmetry_group_IT_number 2
_symmetry_cell_setting 'triclinic'
loop_
_space_group_symop_operation_xyz
x,y,z
-x,-y,-z
loop_
_atom_site_type_symbol
_atom_site_label
_atom_site_fract_x
_atom_site_fract_y
_atom_site_fract_z
Si Si1 0.640892 0.238121 0.182312
Si Si2 0.339290 0.109379 0.820281
Si Si3 0.685084 0.877827 0.837324
Si Si4 0.900723 0.743010 0.470036
Si Si5 0.154312 0.317694 0.950717
Si Si6 0.569036 0.646212 0.563598
Si Si7 0.139065 0.926670 0.180206
Si Si8 0.269096 0.631578 0.083960
O O1 0.524127 0.464173 0.195642
O O2 0.872017 0.211488 0.316305
O O3 0.769821 0.006895 0.261665
O O4 0.376994 0.279072 0.940103
O O5 0.126674 0.242726 0.626617
O O6 0.647877 0.919966 0.992209
O O7 0.633065 0.765055 0.704104
O O8 0.383903 0.082156 0.675765
O O9 0.863999 0.709168 0.994562
O O10 0.859595 0.954159 0.973492
O O11 0.000000 0.500000 0.500000
O O12 0.859518 0.453027 0.711052
O O13 0.257983 0.467764 0.074046
O O14 0.500000 0.500000 0.500000
O O15 0.339971 0.831778 0.379692
O O16 0.309833 0.773497 0.211701
O O17 0.013735 0.186385 0.136376
#
# Coordination Sequence:
#
# PCOD8007395 Si02
#       8
#     2   2   2   2   2   2   2   2
#     4  10  21  43  63  87 118 161 204 241 298 355
#     4   9  22  41  64  88 119 158 200 252 293 354
#     4  11  23  41  62  88 124 154 199 248 292 356
#     4  11  24  39  62  92 122 158 198 246 301 357
#     4  10  20  41  62  89 121 152 200 249 298 347
#     4  12  23  36  64  92 114 160 201 241 298 357
#     4  11  23  41  60  89 123 157 196 243 302 353
#     4  10  22  42  61  85 127 157 188 255 299 342
#
# _framework density 21.727959999999999
#
# number of rings (size 3 to 8) (size 9 to 14) (size 15 to 20)
#    0.000    1.500    2.500    2.250    1.750    2.000 
#    6.750    0.000    0.000    0.000    0.000    0.000 
#    0.000    0.000    0.000    0.000    0.000    0.000 
#
# Total GULP energy -198240.753660 kJ/mol
# GULP energy per Si atom -12390.047104 kJ/mol
# Density = 2.167851 g / cm^3
# Si number density = 21.727960 Si / 1000 Ang^3
#
#
#
# Elastic Constant Matrix: (Units=GPa)
#
#
# Indices 1 2 3 4 5 6 
#
# 1 63.2162 26.6596 19.6940 -3.2918 1.6635 -0.8599
# 2 26.6596 87.4091 31.5322 -5.0291 2.1507 4.7830
# 3 19.6940 31.5322 85.4391 -4.3870 6.1864 -0.5037
# 4 -3.2918 -5.0291 -4.3870 31.8363 6.3943 -2.6563
# 5 1.6635 2.1507 6.1864 6.3943 35.0336 -9.6845
# 6 -0.8599 4.7830 -0.5037 -2.6563 -9.6845 26.5027
#
#
#
# Elastic Compliance Matrix: (Units=1/GPa)
#
#
# Indices 1 2 3 4 5 6 
#
# 1 0.018700 -0.004846 -0.002472 0.000936 0.000109 0.001568
# 2 -0.004846 0.014695 -0.004190 0.001185 -0.001017 -0.003142
# 3 -0.002472 -0.004190 0.014067 0.001507 -0.002316 0.000248
# 4 0.000936 0.001185 0.001507 0.033223 -0.006195 0.000911
# 5 0.000109 -0.001017 -0.002316 -0.006195 0.033381 0.011720
# 6 0.001568 -0.003142 0.000248 0.000911 0.011720 0.042729
#
#
# Mechanical properties :
#
#
# Convention : Reuss Voigt Hill
#
# Bulk Modulus (GPa) = 40.90924 43.53735 42.22329
# Shear Modulus (GPa) = 26.60135 29.21977 27.91056
#
# Velocity S-wave (km/s) = 3.50278 3.67113 3.58794
# Velocity P-wave (km/s) = 5.93533 6.16851 6.05304
#
# Compressibility (1/GPa) = 0.02444436
#
# Stress axis : x y z
#
# Youngs Moduli (GPa) = 53.47620 68.04894 71.08743
#
# Poissons Ratio (x) = 0.32977 0.17576
# Poissons Ratio (y) = 0.25915 0.29789
# Poissons Ratio (z) = 0.13222 0.28516
#
# Static dielectric constant tensor:
#      x y z
#    x 4.187970 -0.001400 0.112250 
#    y -0.001400 4.013570 -0.249670 
#    z 0.112250 -0.249670 4.066180 
# 
# 
# High freq. dielectric constant tensor:
#      x y z
#    x 1.859790 0.006680 0.004370 
#    y 0.006680 1.857150 -0.009960 
#    z 0.004370 -0.009960 1.843330 
# 
# From -- ./inp_files/599529.got.cif
#   From: 2010.06.25/outbox.cif.g09.slc.cpg/sg2_300_cif.got.tgz:599529.got - 2010.06.27 13:26:56.
