data_PCOD8007543
_publ_section_title
;
Structure prediction by ZEFSAII (Michael W. Deem and Ramdas Pophale) SiO2 
 PCOD8007543
Probable space group: P -1
;
_chemical_formula_sum "Si O2"
_cell_formula_units_Z 16
_cell_length_a 8.481675
_cell_length_b 8.247479
_cell_length_c 22.569803
_cell_angle_alpha 73.067804
_cell_angle_beta 51.074383
_cell_angle_gamma 112.869761
_cell_volume 752.437142
_symmetry_space_group_name_H-M "P -1"
_symmetry_group_IT_number 2
_symmetry_cell_setting 'triclinic'
loop_
_space_group_symop_operation_xyz
x,y,z
-x,-y,-z
loop_
_atom_site_type_symbol
_atom_site_label
_atom_site_fract_x
_atom_site_fract_y
_atom_site_fract_z
Si Si1 0.038895 0.080535 0.168935
Si Si2 0.453039 0.849160 0.366336
Si Si3 0.309852 0.552941 0.979552
Si Si4 0.631042 0.215671 0.746680
Si Si5 0.942867 0.271396 0.984717
Si Si6 0.331713 0.359234 0.790964
Si Si7 0.786959 0.952123 0.603417
Si Si8 0.188143 0.384878 0.556783
O O1 0.192553 0.302282 0.060886
O O2 0.316880 0.173666 0.130510
O O3 0.821776 0.043417 0.271524
O O4 0.823299 0.799861 0.217419
O O5 0.443051 0.862161 0.296336
O O6 0.250552 0.566222 0.471905
O O7 0.339078 0.955477 0.407512
O O8 0.244480 0.500772 0.930672
O O9 0.131545 0.600146 0.045732
O O10 0.604379 0.401890 0.743603
O O11 0.975306 0.346235 0.661710
O O12 0.366713 0.966782 0.877889
O O13 0.039647 0.186007 0.925098
O O14 0.484415 0.641779 0.720883
O O15 0.000000 0.000000 0.500000
O O16 0.987419 0.111183 0.599546
O O17 0.500000 0.500000 0.500000
#
# Coordination Sequence:
#
# PCOD8007543 Si02
#       8
#     2   2   2   2   2   2   2   2
#     4  10  21  40  61  89 126 162 205 251 302 364
#     4  10  20  41  65  87 118 164 206 242 310 376
#     4  10  22  37  61  88 125 162 211 243 298 365
#     4  10  21  41  61  90 123 169 201 247 308 376
#     4  11  22  37  63  91 124 164 209 249 303 365
#     4  11  22  37  65  93 127 162 206 251 309 361
#     4  11  22  41  67  92 121 166 208 251 309 371
#     4  11  25  42  69  91 119 157 211 262 305 359
#
# _framework density 21.264233999999998
#
# number of rings (size 3 to 8) (size 9 to 14) (size 15 to 20)
#    0.000    1.500    2.500    4.875    7.000    0.500 
#    0.000    3.750    0.000    0.000    0.000    0.000 
#    0.000    0.000    0.000    0.000    0.000    0.000 
#
# Total GULP energy -198254.701716 kJ/mol
# GULP energy per Si atom -12390.918857 kJ/mol
# Density = 2.121584 g / cm^3
# Si number density = 21.264234 Si / 1000 Ang^3
#
#
#
# Elastic Constant Matrix: (Units=GPa)
#
#
# Indices 1 2 3 4 5 6 
#
# 1 108.9288 51.0771 45.9271 -2.0345 -31.0973 -12.6532
# 2 51.0771 96.9984 47.2973 -1.8283 -20.2545 -20.0099
# 3 45.9271 47.2973 120.6154 10.3433 -23.2609 -6.0568
# 4 -2.0345 -1.8283 10.3433 47.0942 -10.1144 -8.6527
# 5 -31.0973 -20.2545 -23.2609 -10.1144 43.6250 -0.5133
# 6 -12.6532 -20.0099 -6.0568 -8.6527 -0.5133 26.5638
#
#
#
# Elastic Compliance Matrix: (Units=1/GPa)
#
#
# Indices 1 2 3 4 5 6 
#
# 1 0.015238 -0.003710 -0.002752 0.003948 0.008650 0.005289
# 2 -0.003710 0.018138 -0.004601 0.004839 0.004592 0.012511
# 3 -0.002752 -0.004601 0.011498 -0.003129 0.001270 -0.003149
# 4 0.003948 0.004839 -0.003129 0.026913 0.009795 0.013768
# 5 0.008650 0.004592 0.001270 0.009795 0.034307 0.011723
# 6 0.005289 0.012511 -0.003149 0.013768 0.011723 0.053582
#
#
# Mechanical properties :
#
#
# Convention : Reuss Voigt Hill
#
# Bulk Modulus (GPa) = 43.96116 68.34948 56.15532
# Shear Modulus (GPa) = 26.40134 35.60601 31.00367
#
# Velocity S-wave (km/s) = 3.52743 4.09645 3.82254
# Velocity P-wave (km/s) = 6.10811 7.38832 6.77851
#
# Compressibility (1/GPa) = 0.02274735
#
# Stress axis : x y z
#
# Youngs Moduli (GPa) = 65.62603 55.13382 86.97178
#
# Poissons Ratio (x) = 0.20456 0.23936
# Poissons Ratio (y) = 0.24349 0.40013
# Poissons Ratio (z) = 0.18061 0.25365
#
# Static dielectric constant tensor:
#      x y z
#    x 4.215390 -0.440810 -0.480700 
#    y -0.440810 3.798180 0.133720 
#    z -0.480700 0.133720 4.242650 
# 
# 
# High freq. dielectric constant tensor:
#      x y z
#    x 1.826170 -0.034310 -0.015670 
#    y -0.034310 1.813460 0.002310 
#    z -0.015670 0.002310 1.849920 
# 
# From -- ./inp_files/606725.got.cif
#   From: 2010.06.25/outbox.cif.g09.slc.cpg/sg2_304_cif.got.tgz:606725.got - 2010.06.27 13:26:56.
