data_PCOD8007470
_publ_section_title
;
Structure prediction by ZEFSAII (Michael W. Deem and Ramdas Pophale) SiO2 
 PCOD8007470
Probable space group: P -1
;
_chemical_formula_sum "Si O2"
_cell_formula_units_Z 14
_cell_length_a 8.594195
_cell_length_b 9.967180
_cell_length_c 9.466728
_cell_angle_alpha 103.030548
_cell_angle_beta 58.072841
_cell_angle_gamma 98.332416
_cell_volume 670.198267
_symmetry_space_group_name_H-M "P -1"
_symmetry_group_IT_number 2
_symmetry_cell_setting 'triclinic'
loop_
_space_group_symop_operation_xyz
x,y,z
-x,-y,-z
loop_
_atom_site_type_symbol
_atom_site_label
_atom_site_fract_x
_atom_site_fract_y
_atom_site_fract_z
Si Si1 0.176215 0.524349 0.518234
Si Si2 0.227550 0.246111 0.544678
Si Si3 0.159412 0.575391 0.854917
Si Si4 0.448961 0.348532 0.704080
Si Si5 0.703970 0.942805 0.777680
Si Si6 0.517693 0.808194 0.075219
Si Si7 0.147191 0.786859 0.132626
O O1 0.269661 0.378307 0.458701
O O2 0.115658 0.587410 0.712945
O O3 0.331307 0.625465 0.398067
O O4 0.000000 0.500000 0.500000
O O5 0.390168 0.242183 0.581247
O O6 0.211821 0.111881 0.421791
O O7 0.037934 0.273040 0.722858
O O8 0.345237 0.491684 0.771066
O O9 0.170987 0.731760 0.947864
O O10 0.000000 0.500000 0.000000
O O11 0.389699 0.270020 0.858525
O O12 0.651122 0.813741 0.875203
O O13 0.848279 0.045674 0.816334
O O14 0.525108 0.029264 0.837869
O O15 0.323517 0.728407 0.117186
#
# Coordination Sequence:
#
# PCOD8007470 Si02
#       7
#     2   2   2   2   2   2   2
#     4  11  25  41  62  97 127 161 205 253 320 372
#     4  11  21  41  63  89 129 161 205 257 306 368
#     4  11  22  41  65  91 130 159 202 263 307 372
#     4  11  24  38  64  95 124 163 205 254 322 359
#     4   9  22  40  65  85 121 168 213 249 307 358
#     4   9  22  40  61  90 119 164 212 252 304 368
#     4  10  20  41  64  86 124 167 202 253 307 362
#
# _framework density 20.889337999999999
#
# number of rings (size 3 to 8) (size 9 to 14) (size 15 to 20)
#    0.857    0.857    2.857    3.000    4.000    2.286 
#    0.000    0.714    0.000    0.000    0.000    0.000 
#    0.000    0.000    0.000    0.000    0.000    0.000 
#
# Total GULP energy -173443.049879 kJ/mol
# GULP energy per Si atom -12388.789277 kJ/mol
# Density = 2.084179 g / cm^3
# Si number density = 20.889338 Si / 1000 Ang^3
#
#
#
# Elastic Constant Matrix: (Units=GPa)
#
#
# Indices 1 2 3 4 5 6 
#
# 1 124.0809 38.4223 54.4742 -8.7533 22.1152 9.5211
# 2 38.4223 56.8217 41.9970 -5.4817 17.0345 9.0989
# 3 54.4742 41.9970 140.0300 10.4581 26.6773 9.5959
# 4 -8.7533 -5.4817 10.4581 41.4400 12.3887 10.1849
# 5 22.1152 17.0345 26.6773 12.3887 35.7531 -2.1348
# 6 9.5211 9.0989 9.5959 10.1849 -2.1348 29.8422
#
#
#
# Elastic Compliance Matrix: (Units=1/GPa)
#
#
# Indices 1 2 3 4 5 6 
#
# 1 0.012054 -0.002961 -0.002728 0.005834 -0.006301 -0.004508
# 2 -0.002961 0.030729 -0.005596 0.011695 -0.013377 -0.011574
# 3 -0.002728 -0.005596 0.010572 -0.003306 -0.002382 0.000135
# 4 0.005834 0.011695 -0.003306 0.038818 -0.021308 -0.019137
# 5 -0.006301 -0.013377 -0.002382 -0.021308 0.048451 0.017593
# 6 -0.004508 -0.011574 0.000135 -0.019137 0.017593 0.046223
#
#
# Mechanical properties :
#
#
# Convention : Reuss Voigt Hill
#
# Bulk Modulus (GPa) = 32.48263 65.63553 49.05908
# Shear Modulus (GPa) = 22.76035 33.80968 28.28501
#
# Velocity S-wave (km/s) = 3.30444 4.02744 3.68372
# Velocity P-wave (km/s) = 5.49024 7.28806 6.45208
#
# Compressibility (1/GPa) = 0.03078568
#
# Stress axis : x y z
#
# Youngs Moduli (GPa) = 82.95826 32.54235 94.58875
#
# Poissons Ratio (x) = 0.09637 0.25800
# Poissons Ratio (y) = 0.24567 0.52931
# Poissons Ratio (z) = 0.22628 0.18210
#
# Static dielectric constant tensor:
#      x y z
#    x 3.688080 0.242030 0.176620 
#    y 0.242030 3.460240 0.074130 
#    z 0.176620 0.074130 3.866940 
# 
# 
# High freq. dielectric constant tensor:
#      x y z
#    x 1.808060 0.023610 0.003760 
#    y 0.023610 1.788540 -0.002730 
#    z 0.003760 -0.002730 1.826890 
# 
# From -- ./inp_files/164594.got.cif
#   From: 2010.06.25/outbox.cif.g09.slc.cpg/sg2_83_cif.got.tgz:164594.got - 2010.06.27 13:26:56.
