data_PCOD8007896
_publ_section_title
;
Structure prediction by ZEFSAII (Michael W. Deem and Ramdas Pophale) SiO2 
 PCOD8007896
Probable space group: P -1
;
_chemical_formula_sum "Si O2"
_cell_formula_units_Z 16
_cell_length_a 21.030157
_cell_length_b 7.791836
_cell_length_c 10.721794
_cell_angle_alpha 33.948894
_cell_angle_beta 46.204321
_cell_angle_gamma 56.541917
_cell_volume 707.075791
_symmetry_space_group_name_H-M "P -1"
_symmetry_group_IT_number 2
_symmetry_cell_setting 'triclinic'
loop_
_space_group_symop_operation_xyz
x,y,z
-x,-y,-z
loop_
_atom_site_type_symbol
_atom_site_label
_atom_site_fract_x
_atom_site_fract_y
_atom_site_fract_z
Si Si1 0.682427 0.123460 0.464711
Si Si2 0.428571 0.774850 0.799044
Si Si3 0.326539 0.830411 0.274901
Si Si4 0.053444 0.935960 0.587763
Si Si5 0.496723 0.129672 0.094154
Si Si6 0.887312 0.724919 0.061042
Si Si7 0.717818 0.852182 0.334703
Si Si8 0.205715 0.281566 0.073706
O O1 0.715665 0.085303 0.584241
O O2 0.575444 0.147509 0.605743
O O3 0.702863 0.846484 0.508907
O O4 0.732617 0.419843 0.154739
O O5 0.438582 0.795870 0.921507
O O6 0.500000 0.000000 0.500000
O O7 0.332269 0.869517 0.828125
O O8 0.441912 0.423339 0.952357
O O9 0.321134 0.465750 0.479937
O O10 0.270566 0.000655 0.144861
O O11 0.431083 0.948308 0.063191
O O12 0.099146 0.614268 0.701246
O O13 0.131408 0.206645 0.328026
O O14 0.000000 0.000000 0.500000
O O15 0.982963 0.916307 0.809639
O O16 0.822621 0.896901 0.137731
O O17 0.842082 0.685059 0.012297
#
# Coordination Sequence:
#
# PCOD8007896 Si02
#       8
#     2   2   2   2   2   2   2   2
#     4  12  27  41  61 102 135 173 228 278 322 397
#     4  11  21  42  65  95 130 173 233 280 319 391
#     4  12  25  44  65  94 133 180 232 273 325 388
#     4   9  19  38  72 104 129 167 218 266 330 403
#     4  11  24  41  64  92 131 185 226 277 332 376
#     4  10  20  41  71 101 129 172 219 265 332 405
#     4  12  23  45  68  94 134 177 218 275 335 387
#     4  11  22  43  66  99 136 171 217 280 324 393
#
# _framework density 22.628409000000001
#
# number of rings (size 3 to 8) (size 9 to 14) (size 15 to 20)
#    0.000    1.000    5.000    1.875    1.750    0.500 
#    0.000    0.625    0.000   10.500    0.000    0.000 
#    0.000    0.000    0.000    0.000    0.000    0.000 
#
# Total GULP energy -198293.903397 kJ/mol
# GULP energy per Si atom -12393.368962 kJ/mol
# Density = 2.257691 g / cm^3
# Si number density = 22.628409 Si / 1000 Ang^3
#
#
#
# Elastic Constant Matrix: (Units=GPa)
#
#
# Indices 1 2 3 4 5 6 
#
# 1 79.6285 54.9539 42.5545 -7.4477 5.1717 -19.2998
# 2 54.9539 106.6743 50.1521 24.9835 2.2265 -18.6543
# 3 42.5545 50.1521 151.8122 25.2115 -30.9970 -16.0895
# 4 -7.4477 24.9835 25.2115 40.8659 -13.0689 1.1413
# 5 5.1717 2.2265 -30.9970 -13.0689 44.5952 0.5248
# 6 -19.2998 -18.6543 -16.0895 1.1413 0.5248 46.2759
#
#
#
# Elastic Compliance Matrix: (Units=1/GPa)
#
#
# Indices 1 2 3 4 5 6 
#
# 1 0.029370 -0.016020 -0.005908 0.018250 -0.001403 0.003303
# 2 -0.016020 0.022843 -0.000815 -0.018119 -0.005192 0.002749
# 3 -0.005908 -0.000815 0.010855 -0.005145 0.006751 0.001032
# 4 0.018250 -0.018119 -0.005145 0.044800 0.008373 -0.002681
# 5 -0.001403 -0.005192 0.006751 0.008373 0.030002 -0.000878
# 6 0.003303 0.002749 0.001032 -0.002681 -0.000878 0.024530
#
#
# Mechanical properties :
#
#
# Convention : Reuss Voigt Hill
#
# Bulk Modulus (GPa) = 56.87829 70.38180 63.63004
# Shear Modulus (GPa) = 23.39223 39.04437 31.21830
#
# Velocity S-wave (km/s) = 3.21869 4.15837 3.71834
# Velocity P-wave (km/s) = 6.24529 7.36389 6.82754
#
# Compressibility (1/GPa) = 0.01758140
#
# Stress axis : x y z
#
# Youngs Moduli (GPa) = 34.04840 43.77676 92.12767
#
# Poissons Ratio (x) = 0.70131 0.54425
# Poissons Ratio (y) = 0.54546 0.07512
# Poissons Ratio (z) = 0.20114 0.03570
#
# Static dielectric constant tensor:
#      x y z
#    x 4.104040 -0.321630 -0.151710 
#    y -0.321630 4.066930 0.440880 
#    z -0.151710 0.440880 4.787040 
# 
# 
# High freq. dielectric constant tensor:
#      x y z
#    x 1.885450 -0.021310 -0.000570 
#    y -0.021310 1.864500 0.019030 
#    z -0.000570 0.019030 1.914080 
# 
# From -- ./inp_files/474065.got.cif
#   From: 2010.06.25/outbox.cif.g09.slc.cpg/sg2_238_cif.got.tgz:474065.got - 2010.06.27 13:26:56.
