data_PCOD8007066
_publ_section_title
;
Structure prediction by ZEFSAII (Michael W. Deem and Ramdas Pophale) SiO2 
 PCOD8007066
Probable space group: P -1
;
_chemical_formula_sum "Si O2"
_cell_formula_units_Z 16
_cell_length_a 10.827472
_cell_length_b 16.397088
_cell_length_c 19.170757
_cell_angle_alpha 154.097023
_cell_angle_beta 148.800324
_cell_angle_gamma 43.818807
_cell_volume 752.763783
_symmetry_space_group_name_H-M "P -1"
_symmetry_group_IT_number 2
_symmetry_cell_setting 'triclinic'
loop_
_space_group_symop_operation_xyz
x,y,z
-x,-y,-z
loop_
_atom_site_type_symbol
_atom_site_label
_atom_site_fract_x
_atom_site_fract_y
_atom_site_fract_z
Si Si1 0.509578 0.480229 0.570731
Si Si2 0.933349 0.041562 0.380119
Si Si3 0.095049 0.346826 0.006688
Si Si4 0.666493 0.885885 0.266382
Si Si5 0.118482 0.334985 0.464440
Si Si6 0.643441 0.492635 0.880741
Si Si7 0.276728 0.819011 0.741138
Si Si8 0.738964 0.897822 0.769481
O O1 0.500000 0.500000 0.500000
O O2 0.784464 0.566755 0.796234
O O3 0.351720 0.617783 0.636101
O O4 0.406935 0.258025 0.367228
O O5 0.843313 0.196294 0.406688
O O6 0.212508 0.082506 0.573448
O O7 0.788726 0.026913 0.371966
O O8 0.883196 0.865534 0.166147
O O9 0.254111 0.478533 0.126139
O O10 0.809401 0.351967 0.882171
O O11 0.399377 0.929726 0.179179
O O12 0.690383 0.679171 0.094295
O O13 0.353232 0.422023 0.691902
O O14 0.231386 0.212599 0.370521
O O15 0.000000 0.500000 0.500000
O O16 0.927080 0.182214 0.299218
O O17 0.500000 0.000000 0.000000
O O18 0.000000 0.000000 0.000000
#
# Coordination Sequence:
#
# PCOD8007066 Si02
#       8
#     2   2   2   2   2   2   2   2
#     4  12  26  42  67 100 138 173 222 279 333 398
#     4  10  22  41  67  98 134 172 223 276 327 403
#     4  10  20  40  66  98 132 176 222 265 336 400
#     4  10  23  40  69 100 131 173 223 276 334 396
#     4  12  24  45  68  96 135 181 228 274 333 401
#     4  10  21  39  68  97 131 175 224 273 326 401
#     4  12  26  45  69 100 134 178 227 277 337 399
#     4  12  26  42  66  99 135 177 225 274 334 396
#
# _framework density 21.255008
#
# number of rings (size 3 to 8) (size 9 to 14) (size 15 to 20)
#    0.000    1.000    3.750    2.250   12.250    0.000 
#    0.000    4.375    0.000    0.000    0.000    0.000 
#    0.000    0.000    0.000    0.000    0.000    0.000 
#
# Total GULP energy -198260.091167 kJ/mol
# GULP energy per Si atom -12391.255698 kJ/mol
# Density = 2.120663 g / cm^3
# Si number density = 21.255008 Si / 1000 Ang^3
#
#
#
# Elastic Constant Matrix: (Units=GPa)
#
#
# Indices 1 2 3 4 5 6 
#
# 1 76.0337 21.5926 25.5333 -11.3326 0.6857 1.4147
# 2 21.5926 122.7562 35.8735 -26.2098 1.1647 -13.1751
# 3 25.5333 35.8735 98.1765 -28.5636 3.1887 6.1087
# 4 -11.3326 -26.2098 -28.5636 42.4000 -3.2883 -5.4928
# 5 0.6857 1.1647 3.1887 -3.2883 35.3375 -5.6755
# 6 1.4147 -13.1751 6.1087 -5.4928 -5.6755 38.1558
#
#
#
# Elastic Compliance Matrix: (Units=1/GPa)
#
#
# Indices 1 2 3 4 5 6 
#
# 1 0.014741 -0.001587 -0.002962 0.000904 0.000040 -0.000484
# 2 -0.001587 0.010803 -0.002305 0.005459 0.001214 0.005124
# 3 -0.002962 -0.002305 0.013945 0.006849 -0.000818 -0.002054
# 4 0.000904 0.005459 0.006849 0.032834 0.003197 0.005957
# 5 0.000040 0.001214 -0.000818 0.003197 0.029496 0.005396
# 6 -0.000484 0.005124 -0.002054 0.005957 0.005396 0.029985
#
#
# Mechanical properties :
#
#
# Convention : Reuss Voigt Hill
#
# Bulk Modulus (GPa) = 38.78671 51.44055 45.11363
# Shear Modulus (GPa) = 32.44552 37.44314 34.94433
#
# Velocity S-wave (km/s) = 3.91127 4.20171 4.05909
# Velocity P-wave (km/s) = 6.21975 6.91327 6.57566
#
# Compressibility (1/GPa) = 0.02578203
#
# Stress axis : x y z
#
# Youngs Moduli (GPa) = 67.83920 92.56795 71.70964
#
# Poissons Ratio (x) = 0.14686 0.21241
# Poissons Ratio (y) = 0.10763 0.16527
# Poissons Ratio (z) = 0.20095 0.21334
#
# Static dielectric constant tensor:
#      x y z
#    x 3.657150 -0.115200 -0.088890 
#    y -0.115200 4.155780 -0.049440 
#    z -0.088890 -0.049440 3.672500 
# 
# 
# High freq. dielectric constant tensor:
#      x y z
#    x 1.812920 -0.015060 -0.019600 
#    y -0.015060 1.850590 -0.011560 
#    z -0.019600 -0.011560 1.831900 
# 
# From -- ./inp_files/260126.got.cif
#   From: 2010.06.25/outbox.cif.g09.slc.cpg/sg2_131_cif.got.tgz:260126.got - 2010.06.27 13:26:56.
