data_PCOD8007104
_publ_section_title
;
Structure prediction by ZEFSAII (Michael W. Deem and Ramdas Pophale) SiO2 
 PCOD8007104
Probable space group: P -1
;
_chemical_formula_sum "Si O2"
_cell_formula_units_Z 16
_cell_length_a 11.442448
_cell_length_b 9.483448
_cell_length_c 9.784449
_cell_angle_alpha 73.185880
_cell_angle_beta 116.225181
_cell_angle_gamma 123.175358
_cell_volume 795.611750
_symmetry_space_group_name_H-M "P -1"
_symmetry_group_IT_number 2
_symmetry_cell_setting 'triclinic'
loop_
_space_group_symop_operation_xyz
x,y,z
-x,-y,-z
loop_
_atom_site_type_symbol
_atom_site_label
_atom_site_fract_x
_atom_site_fract_y
_atom_site_fract_z
Si Si1 0.393533 0.780829 0.090437
Si Si2 0.104721 0.923391 0.606858
Si Si3 0.128629 0.424376 0.001502
Si Si4 0.693426 0.950089 0.082872
Si Si5 0.170948 0.122453 0.080290
Si Si6 0.310963 0.043212 0.420090
Si Si7 0.062247 0.440077 0.261266
Si Si8 0.361721 0.766507 0.384942
O O1 0.273300 0.591690 0.066215
O O2 0.540943 0.789561 0.098695
O O3 0.415357 0.839307 0.241648
O O4 0.335711 0.892905 0.951879
O O5 0.016109 0.717594 0.630439
O O6 0.170342 0.012922 0.759736
O O7 0.235568 0.985391 0.545412
O O8 0.000000 0.000000 0.500000
O O9 0.188086 0.304268 0.005788
O O10 0.047611 0.357527 0.125616
O O11 0.023926 0.449814 0.828928
O O12 0.727733 0.919417 0.955700
O O13 0.219037 0.109486 0.263051
O O14 0.000000 0.000000 0.000000
O O15 0.483101 0.197483 0.471636
O O16 0.297698 0.874941 0.394427
O O17 0.231022 0.568625 0.367394
#
# Coordination Sequence:
#
# PCOD8007104 Si02
#       8
#     2   2   2   2   2   2   2   2
#     4  10  20  40  67  92 121 171 214 260 309 376
#     4  12  24  41  63  95 130 166 208 262 319 381
#     4  10  21  38  66  92 128 164 215 263 310 373
#     4  11  22  40  67  93 125 166 218 258 311 379
#     4  12  24  40  65  97 127 165 212 267 314 371
#     4  11  23  41  64  94 130 166 212 254 323 377
#     4  10  21  40  64  93 125 170 214 254 316 382
#     4  10  21  40  65  92 124 169 208 263 312 377
#
# _framework density 20.110310999999999
#
# number of rings (size 3 to 8) (size 9 to 14) (size 15 to 20)
#    0.000    1.250    3.750    3.000    1.750    1.000 
#    2.250    1.875    0.000    0.000    0.000    0.000 
#    0.000    0.000    0.000    0.000    0.000    0.000 
#
# Total GULP energy -198330.099806 kJ/mol
# GULP energy per Si atom -12395.631238 kJ/mol
# Density = 2.006454 g / cm^3
# Si number density = 20.110311 Si / 1000 Ang^3
#
#
#
# Elastic Constant Matrix: (Units=GPa)
#
#
# Indices 1 2 3 4 5 6 
#
# 1 93.2826 42.6819 25.9897 -5.3589 3.2463 6.1807
# 2 42.6819 62.2879 39.4555 -3.0991 6.3926 -5.7093
# 3 25.9897 39.4555 97.6159 -0.2297 17.5358 10.7635
# 4 -5.3589 -3.0991 -0.2297 28.0106 -0.1685 0.1242
# 5 3.2463 6.3926 17.5358 -0.1685 39.8597 -1.2756
# 6 6.1807 -5.7093 10.7635 0.1242 -1.2756 22.0846
#
#
#
# Elastic Compliance Matrix: (Units=1/GPa)
#
#
# Indices 1 2 3 4 5 6 
#
# 1 0.017235 -0.013921 0.002167 0.001815 -0.000421 -0.009513
# 2 -0.013921 0.035605 -0.013179 0.001092 0.001854 0.019625
# 3 0.002167 -0.013179 0.017528 -0.000880 -0.006191 -0.012909
# 4 0.001815 0.001092 -0.000880 0.036163 0.000217 0.000012
# 5 -0.000421 0.001854 -0.006191 0.000217 0.027716 0.005214
# 6 -0.009513 0.019625 -0.012909 0.000012 0.005214 0.059609
#
#
# Mechanical properties :
#
#
# Convention : Reuss Voigt Hill
#
# Bulk Modulus (GPa) = 48.77876 52.16006 50.46941
# Shear Modulus (GPa) = 19.95560 27.66161 23.80861
#
# Velocity S-wave (km/s) = 3.15351 3.71279 3.44452
# Velocity P-wave (km/s) = 6.12925 6.66131 6.40081
#
# Compressibility (1/GPa) = 0.02050072
#
# Stress axis : x y z
#
# Youngs Moduli (GPa) = 58.02012 28.08602 57.05305
#
# Poissons Ratio (x) = 0.39100 -0.12363
# Poissons Ratio (y) = 0.80772 0.75191
# Poissons Ratio (z) = -0.12573 0.37015
#
# Static dielectric constant tensor:
#      x y z
#    x 3.694080 0.302850 0.003890 
#    y 0.302850 3.525300 -0.051660 
#    z 0.003890 -0.051660 3.769190 
# 
# 
# High freq. dielectric constant tensor:
#      x y z
#    x 1.792210 0.011490 0.008060 
#    y 0.011490 1.777640 0.008410 
#    z 0.008060 0.008410 1.783570 
# 
# From -- ./inp_files/243183.got.cif
#   From: 2010.06.25/outbox.cif.g09.slc.cpg/sg2_122_cif.got.tgz:243183.got - 2010.06.27 13:26:56.
