data_PCOD8007253
_publ_section_title
;
Structure prediction by ZEFSAII (Michael W. Deem and Ramdas Pophale) SiO2 
 PCOD8007253
Probable space group: P -1
;
_chemical_formula_sum "Si O2"
_cell_formula_units_Z 16
_cell_length_a 10.061399
_cell_length_b 21.209932
_cell_length_c 10.691213
_cell_angle_alpha 31.058758
_cell_angle_beta 46.412445
_cell_angle_gamma 36.775332
_cell_volume 704.649859
_symmetry_space_group_name_H-M "P -1"
_symmetry_group_IT_number 2
_symmetry_cell_setting 'triclinic'
loop_
_space_group_symop_operation_xyz
x,y,z
-x,-y,-z
loop_
_atom_site_type_symbol
_atom_site_label
_atom_site_fract_x
_atom_site_fract_y
_atom_site_fract_z
Si Si1 0.117595 0.903815 0.207858
Si Si2 0.288694 0.551612 0.462159
Si Si3 0.847001 0.841954 0.849798
Si Si4 0.578653 0.838454 0.357303
Si Si5 0.995382 0.302815 0.263430
Si Si6 0.850247 0.611005 0.771397
Si Si7 0.417796 0.277747 0.704312
Si Si8 0.004840 0.835333 0.009717
O O1 0.106208 0.760507 0.468706
O O2 0.377252 0.838878 0.142120
O O3 0.000000 0.000000 0.000000
O O4 0.006909 0.016046 0.206195
O O5 0.500000 0.500000 0.500000
O O6 0.358855 0.440539 0.488700
O O7 0.096822 0.554965 0.659201
O O8 0.199294 0.706739 0.188060
O O9 0.924707 0.811527 0.708374
O O10 0.635091 0.007809 0.721320
O O11 0.793657 0.721667 0.120164
O O12 0.038151 0.810280 0.879980
O O13 0.656058 0.724657 0.613601
O O14 0.517621 0.769058 0.402524
O O15 0.767904 0.861887 0.151712
O O16 0.184557 0.305537 0.214519
O O17 0.825827 0.473011 0.039025
#
# Coordination Sequence:
#
# PCOD8007253 Si02
#       8
#     2   2   2   2   2   2   2   2
#     4  12  23  43  65  92 128 173 209 267 320 372
#     4  11  22  39  67  96 128 170 217 263 309 382
#     4  11  21  41  66  97 126 168 213 267 311 381
#     4  10  20  40  69  95 125 165 212 268 308 377
#     4  11  25  41  66  89 133 171 207 263 328 372
#     4  10  23  44  61  95 131 166 211 263 320 378
#     4  11  21  39  68  96 124 164 223 255 309 383
#     4  10  21  38  65  96 129 164 217 263 314 372
#
# _framework density 22.706313999999999
#
# number of rings (size 3 to 8) (size 9 to 14) (size 15 to 20)
#    0.000    1.250    3.750    3.750    1.750    2.500 
#    0.000    3.125    0.000    0.000    0.000    0.000 
#    0.000    0.000    0.000    0.000    0.000    0.000 
#
# Total GULP energy -198299.203626 kJ/mol
# GULP energy per Si atom -12393.700227 kJ/mol
# Density = 2.265463 g / cm^3
# Si number density = 22.706314 Si / 1000 Ang^3
#
#
#
# Elastic Constant Matrix: (Units=GPa)
#
#
# Indices 1 2 3 4 5 6 
#
# 1 127.3792 32.2504 41.2282 -14.1407 14.2883 11.3120
# 2 32.2504 44.8868 13.9643 -15.9862 1.1047 14.9292
# 3 41.2282 13.9643 130.4234 -21.1093 4.2427 5.2458
# 4 -14.1407 -15.9862 -21.1093 28.6148 9.1532 1.4422
# 5 14.2883 1.1047 4.2427 9.1532 43.8950 -11.3511
# 6 11.3120 14.9292 5.2458 1.4422 -11.3511 38.7790
#
#
#
# Elastic Compliance Matrix: (Units=1/GPa)
#
#
# Indices 1 2 3 4 5 6 
#
# 1 0.010875 -0.005673 -0.002313 0.001898 -0.004070 -0.001937
# 2 -0.005673 0.041205 0.002677 0.026209 -0.009666 -0.018374
# 3 -0.002313 0.002677 0.009693 0.008524 -0.002750 -0.002789
# 4 0.001898 0.026209 0.008524 0.064489 -0.020794 -0.020282
# 5 -0.004070 -0.009666 -0.002750 -0.020794 0.033016 0.015718
# 6 -0.001937 -0.018374 -0.002789 -0.020282 0.015718 0.039159
#
#
# Mechanical properties :
#
#
# Convention : Reuss Voigt Hill
#
# Bulk Modulus (GPa) = 19.54843 53.06394 36.30618
# Shear Modulus (GPa) = 22.11350 36.60753 29.36051
#
# Velocity S-wave (km/s) = 3.12411 4.01960 3.59981
# Velocity P-wave (km/s) = 4.65203 6.70547 5.77082
#
# Compressibility (1/GPa) = 0.05115501
#
# Stress axis : x y z
#
# Youngs Moduli (GPa) = 91.95516 24.26881 103.16763
#
# Poissons Ratio (x) = 0.13769 0.23859
# Poissons Ratio (y) = 0.52170 -0.27619
# Poissons Ratio (z) = 0.21266 -0.06497
#
# Static dielectric constant tensor:
#      x y z
#    x 4.395490 0.336870 0.005380 
#    y 0.336870 3.914500 -0.235650 
#    z 0.005380 -0.235650 4.071330 
# 
# 
# High freq. dielectric constant tensor:
#      x y z
#    x 1.912510 0.025240 0.001630 
#    y 0.025240 1.867680 -0.026760 
#    z 0.001630 -0.026760 1.895230 
# 
# From -- ./inp_files/346280.got.cif
#   From: 2010.06.25/outbox.cif.g09.slc.cpg/sg2_174_cif.got.tgz:346280.got - 2010.06.27 13:26:56.
