data_PCOD8007072
_publ_section_title
;
Structure prediction by ZEFSAII (Michael W. Deem and Ramdas Pophale) SiO2 
 PCOD8007072
Probable space group: P -1
;
_chemical_formula_sum "Si O2"
_cell_formula_units_Z 12
_cell_length_a 13.555787
_cell_length_b 20.777184
_cell_length_c 13.344581
_cell_angle_alpha 159.202114
_cell_angle_beta 147.631861
_cell_angle_gamma 20.498406
_cell_volume 452.555261
_symmetry_space_group_name_H-M "P -1"
_symmetry_group_IT_number 2
_symmetry_cell_setting 'triclinic'
loop_
_space_group_symop_operation_xyz
x,y,z
-x,-y,-z
loop_
_atom_site_type_symbol
_atom_site_label
_atom_site_fract_x
_atom_site_fract_y
_atom_site_fract_z
Si Si1 0.358062 0.098998 0.866932
Si Si2 0.668082 0.380569 0.170394
Si Si3 0.859844 0.727386 0.298309
Si Si4 0.259973 0.844036 0.295730
Si Si5 0.755295 0.017394 0.214151
Si Si6 0.263026 0.028276 0.247185
O O1 0.462149 0.828886 0.512364
O O2 0.187283 0.184198 0.948509
O O3 0.629303 0.023480 0.012807
O O4 0.120678 0.378262 0.994693
O O5 0.482288 0.672965 0.489713
O O6 0.611205 0.243736 0.985230
O O7 0.009137 0.174348 0.163234
O O8 0.575937 0.417457 0.025320
O O9 0.930168 0.875254 0.530342
O O10 0.533993 0.911921 0.251341
O O11 0.861753 0.739414 0.438121
O O12 0.048367 0.900105 0.271370
#
# Coordination Sequence:
#
# PCOD8007072 Si02
#       6
#     2   2   2   2   2   2
#     4  11  24  44  64 100 134 175 216 265 338 386
#     4  10  21  42  65  99 131 175 217 268 331 384
#     4  10  20  40  67 100 129 169 221 274 323 385
#     4  11  25  41  70 102 126 172 225 274 320 384
#     4  11  25  46  68  92 140 177 211 270 328 400
#     4   9  19  37  65  97 136 168 214 274 330 381
#
# _framework density 26.516099000000001
#
# number of rings (size 3 to 8) (size 9 to 14) (size 15 to 20)
#    0.000    1.667    1.667    2.000    2.333    1.333 
#    0.000    6.667    0.000    0.000    0.000    0.000 
#    0.000    0.000    0.000    0.000    0.000    0.000 
#
# Total GULP energy -148832.797893 kJ/mol
# GULP energy per Si atom -12402.733158 kJ/mol
# Density = 2.645575 g / cm^3
# Si number density = 26.516099 Si / 1000 Ang^3
#
#
#
# Elastic Constant Matrix: (Units=GPa)
#
#
# Indices 1 2 3 4 5 6 
#
# 1 93.3420 43.0599 29.9442 1.1576 -2.1143 -9.9025
# 2 43.0599 103.9888 50.6449 -24.2586 -5.2891 10.3061
# 3 29.9442 50.6449 179.6929 -16.4241 -14.3245 -3.9053
# 4 1.1576 -24.2586 -16.4241 44.4206 6.0403 -6.0295
# 5 -2.1143 -5.2891 -14.3245 6.0403 42.6634 -10.8032
# 6 -9.9025 10.3061 -3.9053 -6.0295 -10.8032 40.9573
#
#
#
# Elastic Compliance Matrix: (Units=1/GPa)
#
#
# Indices 1 2 3 4 5 6 
#
# 1 0.014886 -0.007273 -0.000568 -0.004075 0.001534 0.005179
# 2 -0.007273 0.016264 -0.002950 0.007476 -0.001787 -0.005503
# 3 -0.000568 -0.002950 0.006795 0.000877 0.002265 0.001979
# 4 -0.004075 0.007476 0.000877 0.027470 -0.002733 0.000540
# 5 0.001534 -0.001787 0.002265 -0.002733 0.026362 0.007588
# 6 0.005179 -0.005503 0.001979 0.000540 0.007588 0.029322
#
#
# Mechanical properties :
#
#
# Convention : Reuss Voigt Hill
#
# Bulk Modulus (GPa) = 61.12328 69.36906 65.24617
# Shear Modulus (GPa) = 33.75271 42.49991 38.12631
#
# Velocity S-wave (km/s) = 3.57166 4.00784 3.79602
# Velocity P-wave (km/s) = 6.33328 6.90181 6.62365
#
# Compressibility (1/GPa) = 0.01636038
#
# Stress axis : x y z
#
# Youngs Moduli (GPa) = 67.17923 61.48705 147.16732
#
# Poissons Ratio (x) = 0.44720 0.08364
# Poissons Ratio (y) = 0.48860 0.43421
# Poissons Ratio (z) = 0.03818 0.18141
#
# Static dielectric constant tensor:
#      x y z
#    x 5.204650 0.473000 -0.029030 
#    y 0.473000 4.571970 -0.202490 
#    z -0.029030 -0.202490 5.191660 
# 
# 
# High freq. dielectric constant tensor:
#      x y z
#    x 2.093780 0.032740 -0.004380 
#    y 0.032740 2.050020 -0.009110 
#    z -0.004380 -0.009110 2.096240 
# 
# From -- ./inp_files/392932.got.cif
#   From: 2010.06.25/outbox.cif.g09.slc.cpg/sg2_197_cif.got.tgz:392932.got - 2010.06.27 13:26:56.
