data_PCOD8007853
_publ_section_title
;
Structure prediction by ZEFSAII (Michael W. Deem and Ramdas Pophale) SiO2 
 PCOD8007853
Probable space group: P -1
;
_chemical_formula_sum "Si O2"
_cell_formula_units_Z 16
_cell_length_a 8.778437
_cell_length_b 17.547559
_cell_length_c 12.037304
_cell_angle_alpha 129.306048
_cell_angle_beta 82.901066
_cell_angle_gamma 138.237541
_cell_volume 703.275045
_symmetry_space_group_name_H-M "P -1"
_symmetry_group_IT_number 2
_symmetry_cell_setting 'triclinic'
loop_
_space_group_symop_operation_xyz
x,y,z
-x,-y,-z
loop_
_atom_site_type_symbol
_atom_site_label
_atom_site_fract_x
_atom_site_fract_y
_atom_site_fract_z
Si Si1 0.098188 0.920097 0.112650
Si Si2 0.634527 0.348621 0.693184
Si Si3 0.100951 0.127311 0.389696
Si Si4 0.196189 0.372548 0.958115
Si Si5 0.207098 0.618914 0.754431
Si Si6 0.143227 0.943319 0.873464
Si Si7 0.790706 0.248072 0.323974
Si Si8 0.284187 0.973815 0.487369
O O1 0.910011 0.723506 0.998311
O O2 0.978958 0.947423 0.219592
O O3 0.472555 0.118678 0.282641
O O4 0.016555 0.886397 0.957785
O O5 0.436898 0.306710 0.585223
O O6 0.955473 0.483334 0.747193
O O7 0.429283 0.146522 0.570981
O O8 0.749464 0.480633 0.905379
O O9 0.120532 0.179094 0.308161
O O10 0.864159 0.066506 0.422094
O O11 0.962046 0.212269 0.738979
O O12 0.500000 0.500000 0.000000
O O13 0.182405 0.703767 0.761150
O O14 0.106912 0.463799 0.553707
O O15 0.561530 0.817453 0.951370
O O16 0.246225 0.888840 0.793676
O O17 0.500000 0.000000 0.500000
#
# Coordination Sequence:
#
# PCOD8007853 Si02
#       8
#     2   2   2   2   2   2   2   2
#     4  11  22  46  73  99 149 190 224 288 352 413
#     4  12  24  47  73  99 138 187 230 287 354 417
#     4  12  25  45  71  99 145 189 225 287 358 409
#     4  12  24  45  77 103 134 184 240 283 351 421
#     4  10  21  39  71  97 131 184 239 276 335 413
#     4  11  25  43  68 108 144 182 234 286 344 411
#     4  10  20  41  69  98 137 187 235 277 341 409
#     4  12  29  50  72 102 141 181 237 300 350 406
#
# _framework density 22.750700999999999
#
# number of rings (size 3 to 8) (size 9 to 14) (size 15 to 20)
#    0.000    0.750    3.750    4.500    5.250    0.500 
#    4.500    1.250    0.000    0.000    0.000    0.000 
#    0.000    0.000    0.000    0.000    0.000    0.000 
#
# Total GULP energy -198223.388953 kJ/mol
# GULP energy per Si atom -12388.961810 kJ/mol
# Density = 2.269892 g / cm^3
# Si number density = 22.750701 Si / 1000 Ang^3
#
#
#
# Elastic Constant Matrix: (Units=GPa)
#
#
# Indices 1 2 3 4 5 6 
#
# 1 104.6545 -23.3487 57.1815 -19.3922 17.2882 23.2750
# 2 -23.3487 183.7608 46.5563 14.1990 -52.6390 -32.7802
# 3 57.1815 46.5563 149.5575 2.6001 -13.7804 -9.1358
# 4 -19.3922 14.1990 2.6001 36.7716 -10.2975 -13.1033
# 5 17.2882 -52.6390 -13.7804 -10.2975 76.9612 21.4363
# 6 23.2750 -32.7802 -9.1358 -13.1033 21.4363 41.1175
#
#
#
# Elastic Compliance Matrix: (Units=1/GPa)
#
#
# Indices 1 2 3 4 5 6 
#
# 1 0.017267 0.002137 -0.007914 0.005919 -0.000971 -0.007436
# 2 0.002137 0.007945 -0.002788 0.000243 0.003757 0.002624
# 3 -0.007914 -0.002788 0.010889 -0.002431 0.000478 0.003652
# 4 0.005919 0.000243 -0.002431 0.032916 0.001069 0.006236
# 5 -0.000971 0.003757 0.000478 0.001069 0.017429 -0.005095
# 6 -0.007436 0.002624 0.003652 0.006236 -0.005095 0.036077
#
#
# Mechanical properties :
#
#
# Convention : Reuss Voigt Hill
#
# Bulk Modulus (GPa) = 52.71006 66.52789 59.61897
# Shear Modulus (GPa) = 34.25221 54.80898 44.53059
#
# Velocity S-wave (km/s) = 3.88434 4.91360 4.42897
# Velocity P-wave (km/s) = 6.58304 7.84199 7.23993
#
# Compressibility (1/GPa) = 0.01897171
#
# Stress axis : x y z
#
# Youngs Moduli (GPa) = 57.91473 125.86331 91.83285
#
# Poissons Ratio (x) = -0.26895 0.72672
# Poissons Ratio (y) = -0.12375 0.25603
# Poissons Ratio (z) = 0.45831 0.35091
#
# Static dielectric constant tensor:
#      x y z
#    x 4.042150 0.098910 -0.147230 
#    y 0.098910 4.120930 -0.165150 
#    z -0.147230 -0.165150 4.216480 
# 
# 
# High freq. dielectric constant tensor:
#      x y z
#    x 1.887840 0.008790 -0.016850 
#    y 0.008790 1.891200 -0.005010 
#    z -0.016850 -0.005010 1.916690 
# 
# From -- ./inp_files/225886.got.cif
#   From: 2010.06.25/outbox.cif.g09.slc.cpg/sg2_113_cif.got.tgz:225886.got - 2010.06.27 13:26:56.
