data_PCOD8007018
_publ_section_title
;
Structure prediction by ZEFSAII (Michael W. Deem and Ramdas Pophale) SiO2 
 PCOD8007018
Probable space group: P -1
;
_chemical_formula_sum "Si O2"
_cell_formula_units_Z 16
_cell_length_a 20.681548
_cell_length_b 18.102423
_cell_length_c 11.701761
_cell_angle_alpha 139.826113
_cell_angle_beta 150.078085
_cell_angle_gamma 20.136890
_cell_volume 720.213294
_symmetry_space_group_name_H-M "P -1"
_symmetry_group_IT_number 2
_symmetry_cell_setting 'triclinic'
loop_
_space_group_symop_operation_xyz
x,y,z
-x,-y,-z
loop_
_atom_site_type_symbol
_atom_site_label
_atom_site_fract_x
_atom_site_fract_y
_atom_site_fract_z
Si Si1 0.793219 0.368335 0.478508
Si Si2 0.836681 0.596774 0.511265
Si Si3 0.291311 0.674562 0.159382
Si Si4 0.849255 0.157405 0.107076
Si Si5 0.652250 0.024659 0.153181
Si Si6 0.690985 0.923245 0.340998
Si Si7 0.763928 0.537194 0.099101
Si Si8 0.499413 0.782298 0.407375
O O1 0.593636 0.471783 0.388995
O O2 0.777655 0.297050 0.262101
O O3 0.715048 0.556177 0.545583
O O4 0.079727 0.156354 0.715047
O O5 0.698819 0.656201 0.255882
O O6 0.629362 0.765396 0.492601
O O7 0.960976 0.627489 0.718213
O O8 0.053007 0.343518 0.580626
O O9 0.196887 0.740769 0.961850
O O10 0.227336 0.604584 0.039768
O O11 0.139954 0.892123 0.247677
O O12 0.669689 0.183529 0.874246
O O13 0.696681 0.000325 0.329292
O O14 0.452907 0.271234 0.099378
O O15 0.555759 0.970512 0.912599
O O16 0.681903 0.006329 0.538813
#
# Coordination Sequence:
#
# PCOD8007018 Si02
#       8
#     2   2   2   2   2   2   2   2
#     4  11  22  37  62  91 123 163 213 254 306 367
#     4  10  20  40  66  93 123 163 208 265 307 361
#     4  10  21  38  60  88 118 163 204 257 308 357
#     4  10  22  37  64  94 118 155 217 270 297 351
#     4  10  23  41  60  93 134 169 195 256 315 376
#     4  10  22  42  65  93 127 161 214 257 305 368
#     4  10  21  40  63  89 134 166 199 253 325 369
#     4  11  21  37  71  97 115 161 221 264 300 361
#
# _framework density 22.215641999999999
#
# number of rings (size 3 to 8) (size 9 to 14) (size 15 to 20)
#    0.000    1.750    1.250    3.750    5.250    1.000 
#    0.000   13.125    0.000    0.000    0.000    0.000 
#    0.000    0.000    0.000    0.000    0.000    0.000 
#
# Total GULP energy -198432.155034 kJ/mol
# GULP energy per Si atom -12402.009690 kJ/mol
# Density = 2.216508 g / cm^3
# Si number density = 22.215642 Si / 1000 Ang^3
#
#
#
# Elastic Constant Matrix: (Units=GPa)
#
#
# Indices 1 2 3 4 5 6 
#
# 1 121.9223 36.6748 26.5484 -2.2629 25.3360 7.8763
# 2 36.6748 69.3244 13.6190 -5.5908 13.2758 -3.7081
# 3 26.5484 13.6190 50.8868 -13.3278 17.1536 2.8044
# 4 -2.2629 -5.5908 -13.3278 28.0800 2.7182 3.9398
# 5 25.3360 13.2758 17.1536 2.7182 35.4423 0.0822
# 6 7.8763 -3.7081 2.8044 3.9398 0.0822 34.0120
#
#
#
# Elastic Compliance Matrix: (Units=1/GPa)
#
#
# Indices 1 2 3 4 5 6 
#
# 1 0.011486 -0.004735 -0.003077 -0.000605 -0.004895 -0.002840
# 2 -0.004735 0.018068 -0.000676 0.002819 -0.003278 0.002804
# 3 -0.003077 -0.000676 0.030304 0.015813 -0.013418 -0.003659
# 4 -0.000605 0.002819 0.015813 0.045627 -0.011762 -0.006113
# 5 -0.004895 -0.003278 -0.013418 -0.011762 0.040331 0.003147
# 6 -0.002840 0.002804 -0.003659 -0.006113 0.003147 0.031367
#
#
# Mechanical properties :
#
#
# Convention : Reuss Voigt Hill
#
# Bulk Modulus (GPa) = 23.32047 43.97976 33.65011
# Shear Modulus (GPa) = 23.98618 30.52627 27.25623
#
# Velocity S-wave (km/s) = 3.28944 3.71089 3.50650
# Velocity P-wave (km/s) = 4.99473 6.18067 5.61908
#
# Compressibility (1/GPa) = 0.04288079
#
# Stress axis : x y z
#
# Youngs Moduli (GPa) = 87.06462 55.34666 32.99860
#
# Poissons Ratio (x) = 0.26208 0.10154
# Poissons Ratio (y) = 0.41227 0.02232
# Poissons Ratio (z) = 0.26790 0.03743
#
# Static dielectric constant tensor:
#      x y z
#    x 4.057290 -0.034040 0.294370 
#    y -0.034040 3.896000 -0.182110 
#    z 0.294370 -0.182110 3.998970 
# 
# 
# High freq. dielectric constant tensor:
#      x y z
#    x 1.865270 -0.000880 0.027320 
#    y -0.000880 1.868160 -0.008260 
#    z 0.027320 -0.008260 1.867860 
# 
# From -- ./inp_files/472423.got.cif
#   From: 2010.06.25/outbox.cif.g09.slc.cpg/sg2_237_cif.got.tgz:472423.got - 2010.06.27 13:26:56.
