data_PCOD8007402
_publ_section_title
;
Structure prediction by ZEFSAII (Michael W. Deem and Ramdas Pophale) SiO2 
 PCOD8007402
Probable space group: P -1
;
_chemical_formula_sum "Si O2"
_cell_formula_units_Z 16
_cell_length_a 8.635949
_cell_length_b 20.022103
_cell_length_c 21.701637
_cell_angle_alpha 160.365122
_cell_angle_beta 144.275689
_cell_angle_gamma 35.838475
_cell_volume 715.669235
_symmetry_space_group_name_H-M "P -1"
_symmetry_group_IT_number 2
_symmetry_cell_setting 'triclinic'
loop_
_space_group_symop_operation_xyz
x,y,z
-x,-y,-z
loop_
_atom_site_type_symbol
_atom_site_label
_atom_site_fract_x
_atom_site_fract_y
_atom_site_fract_z
Si Si1 0.238763 0.278156 0.552719
Si Si2 0.291078 0.057102 0.150679
Si Si3 0.855026 0.239676 0.742480
Si Si4 0.235675 0.357967 0.873696
Si Si5 0.720937 0.502692 0.520568
Si Si6 0.219491 0.142476 0.556634
Si Si7 0.323367 0.908923 0.909795
Si Si8 0.721417 0.073228 0.836389
O O1 0.538277 0.316505 0.688249
O O2 0.092071 0.259332 0.555387
O O3 0.279481 0.072395 0.348272
O O4 0.027447 0.462647 0.611865
O O5 0.311643 0.290755 0.349122
O O6 0.413623 0.997682 0.206578
O O7 0.458903 0.920788 0.031303
O O8 0.000000 0.000000 0.000000
O O9 0.041124 0.233865 0.737387
O O10 0.947844 0.012832 0.604253
O O11 0.895278 0.402374 0.949074
O O12 0.251438 0.307823 0.762483
O O13 0.538012 0.291640 0.944835
O O14 0.500000 0.500000 0.500000
O O15 0.702509 0.320766 0.309559
O O16 0.500000 0.000000 0.500000
O O17 0.031340 0.073859 0.953638
O O18 0.500000 0.000000 0.000000
#
# Coordination Sequence:
#
# PCOD8007402 Si02
#       8
#     2   2   2   2   2   2   2   2
#     4  10  23  41  64  92 121 167 206 256 321 368
#     4  10  23  41  64  93 126 172 204 263 317 374
#     4  10  23  39  63  88 128 161 209 259 313 374
#     4  11  22  41  61  95 123 165 211 258 308 385
#     4  11  23  42  66  95 129 164 214 265 313 384
#     4  10  20  41  62  90 123 164 201 260 314 369
#     4  10  21  41  62  89 126 162 212 260 315 372
#     4  10  22  40  63  89 125 165 208 257 318 377
#
# _framework density 22.356698999999999
#
# number of rings (size 3 to 8) (size 9 to 14) (size 15 to 20)
#    0.000    1.750    3.750    0.375    3.500    7.500 
#    0.000    1.250    0.000    0.000    0.000    0.000 
#    0.000    0.000    0.000    0.000    0.000    0.000 
#
# Total GULP energy -198223.056847 kJ/mol
# GULP energy per Si atom -12388.941053 kJ/mol
# Density = 2.230581 g / cm^3
# Si number density = 22.356699 Si / 1000 Ang^3
#
#
#
# Elastic Constant Matrix: (Units=GPa)
#
#
# Indices 1 2 3 4 5 6 
#
# 1 97.5574 15.3425 21.5112 -18.7742 -20.1144 10.3067
# 2 15.3425 51.6384 20.2953 -3.0922 -12.7842 15.4617
# 3 21.5112 20.2953 81.5210 -2.7927 -15.6591 15.9602
# 4 -18.7742 -3.0922 -2.7927 23.0473 5.5368 -4.9561
# 5 -20.1144 -12.7842 -15.6591 5.5368 47.7197 -8.8725
# 6 10.3067 15.4617 15.9602 -4.9561 -8.8725 35.3705
#
#
#
# Elastic Compliance Matrix: (Units=1/GPa)
#
#
# Indices 1 2 3 4 5 6 
#
# 1 0.013582 -0.001761 -0.002157 0.009747 0.003416 0.000008
# 2 -0.001761 0.024367 -0.003457 -0.001077 0.003308 -0.007900
# 3 -0.002157 -0.003457 0.014942 -0.001924 0.002502 -0.004245
# 4 0.009747 -0.001077 -0.001924 0.052568 -0.001909 0.005386
# 5 0.003416 0.003308 0.002502 -0.001909 0.024766 0.002375
# 6 0.000008 -0.007900 -0.004245 0.005386 0.002375 0.034989
#
#
# Mechanical properties :
#
#
# Convention : Reuss Voigt Hill
#
# Bulk Modulus (GPa) = 26.21736 38.33498 32.27617
# Shear Modulus (GPa) = 25.95009 32.79869 29.37439
#
# Velocity S-wave (km/s) = 3.41065 3.83438 3.62870
# Velocity P-wave (km/s) = 5.22133 6.06527 5.65906
#
# Compressibility (1/GPa) = 0.03814266
#
# Stress axis : x y z
#
# Youngs Moduli (GPa) = 73.62586 41.03923 66.92420
#
# Poissons Ratio (x) = 0.07225 0.14436
# Poissons Ratio (y) = 0.12963 0.23133
# Poissons Ratio (z) = 0.15882 0.14186
#
# Static dielectric constant tensor:
#      x y z
#    x 4.533250 0.330640 -0.158510 
#    y 0.330640 4.199650 -0.110510 
#    z -0.158510 -0.110510 4.053150 
# 
# 
# High freq. dielectric constant tensor:
#      x y z
#    x 1.896190 0.005780 -0.014100 
#    y 0.005780 1.853370 -0.001820 
#    z -0.014100 -0.001820 1.887040 
# 
# From -- ./inp_files/591737.got.cif
#   From: 2010.06.25/outbox.cif.g09.slc.cpg/sg2_296_cif.got.tgz:591737.got - 2010.06.27 13:26:56.
