data_PCOD8007978
_publ_section_title
;
Structure prediction by ZEFSAII (Michael W. Deem and Ramdas Pophale) SiO2 
 PCOD8007978
Probable space group: P -1
;
_chemical_formula_sum "Si O2"
_cell_formula_units_Z 16
_cell_length_a 8.970785
_cell_length_b 11.769105
_cell_length_c 14.147650
_cell_angle_alpha 99.880407
_cell_angle_beta 68.264185
_cell_angle_gamma 145.601844
_cell_volume 757.869485
_symmetry_space_group_name_H-M "P -1"
_symmetry_group_IT_number 2
_symmetry_cell_setting 'triclinic'
loop_
_space_group_symop_operation_xyz
x,y,z
-x,-y,-z
loop_
_atom_site_type_symbol
_atom_site_label
_atom_site_fract_x
_atom_site_fract_y
_atom_site_fract_z
Si Si1 0.878574 0.582486 0.748519
Si Si2 0.481469 0.001929 0.393109
Si Si3 0.157830 0.008130 0.532886
Si Si4 0.089995 0.977185 0.064621
Si Si5 0.684730 0.338339 0.589241
Si Si6 0.211703 0.221868 0.227882
Si Si7 0.144665 0.413083 0.905984
Si Si8 0.740919 0.353506 0.921788
O O1 0.715235 0.464577 0.670178
O O2 0.801939 0.666167 0.811084
O O3 0.748829 0.410370 0.824070
O O4 0.225281 0.774056 0.689349
O O5 0.223762 0.941346 0.435326
O O6 0.413846 0.832347 0.348616
O O7 0.500000 0.000000 0.500000
O O8 0.942592 0.847874 0.645924
O O9 0.459130 0.233111 0.542154
O O10 0.000000 0.000000 0.500000
O O11 0.901216 0.749579 0.087815
O O12 0.047635 0.026678 0.177122
O O13 0.417691 0.132180 0.997691
O O14 0.000000 0.000000 0.000000
O O15 0.000000 0.500000 0.500000
O O16 0.543648 0.383325 0.186940
O O17 0.911597 0.333588 0.880068
O O18 0.118398 0.465006 0.018433
#
# Coordination Sequence:
#
# PCOD8007978 Si02
#       8
#     2   2   2   2   2   2   2   2
#     4  12  22  39  68  95 125 167 228 261 320 386
#     4  10  20  42  62  90 128 169 213 267 313 380
#     4  11  24  43  64  92 136 172 209 274 327 375
#     4  11  23  42  67  96 127 166 216 261 323 388
#     4  11  21  40  67  90 123 174 221 266 313 387
#     4  11  24  40  64  95 129 168 210 268 317 383
#     4  10  23  44  63  90 137 164 209 264 327 390
#     4  10  24  41  65  94 125 171 206 270 324 381
#
# _framework density 21.111815
#
# number of rings (size 3 to 8) (size 9 to 14) (size 15 to 20)
#    0.000    1.250    5.000    1.875    5.250    3.000 
#    2.250    2.500    0.000    0.000    0.000    0.000 
#    0.000    0.000    0.000    0.000    0.000    0.000 
#
# Total GULP energy -198323.689701 kJ/mol
# GULP energy per Si atom -12395.230606 kJ/mol
# Density = 2.106376 g / cm^3
# Si number density = 21.111815 Si / 1000 Ang^3
#
#
#
# Elastic Constant Matrix: (Units=GPa)
#
#
# Indices 1 2 3 4 5 6 
#
# 1 134.3981 34.2122 16.7596 6.4439 -9.2435 8.3123
# 2 34.2122 99.5282 21.8208 1.3806 -5.1052 -4.9682
# 3 16.7596 21.8208 63.1096 -6.0945 -11.3586 4.5875
# 4 6.4439 1.3806 -6.0945 26.3085 -1.1838 -6.2445
# 5 -9.2435 -5.1052 -11.3586 -1.1838 33.7980 -1.3358
# 6 8.3123 -4.9682 4.5875 -6.2445 -1.3358 37.1576
#
#
#
# Elastic Compliance Matrix: (Units=1/GPa)
#
#
# Indices 1 2 3 4 5 6 
#
# 1 0.008675 -0.002740 -0.001196 -0.002810 0.001356 -0.002583
# 2 -0.002740 0.011910 -0.003609 -0.000171 -0.000066 0.002620
# 3 -0.001196 -0.003609 0.018995 0.004766 0.005617 -0.001557
# 4 -0.002810 -0.000171 0.004766 0.041612 0.002545 0.007102
# 5 0.001356 -0.000066 0.005617 0.002545 0.031948 0.000571
# 6 -0.002583 0.002620 -0.001557 0.007102 0.000571 0.029247
#
#
# Mechanical properties :
#
#
# Convention : Reuss Voigt Hill
#
# Bulk Modulus (GPa) = 40.83263 49.18011 45.00637
# Shear Modulus (GPa) = 30.18567 34.40238 32.29403
#
# Velocity S-wave (km/s) = 3.78537 4.04113 3.91534
# Velocity P-wave (km/s) = 6.20391 6.71713 6.46562
#
# Compressibility (1/GPa) = 0.02449022
#
# Stress axis : x y z
#
# Youngs Moduli (GPa) = 115.27379 83.96018 52.64445
#
# Poissons Ratio (x) = 0.23007 0.06295
# Poissons Ratio (y) = 0.31587 0.19001
# Poissons Ratio (z) = 0.13785 0.30303
#
# Static dielectric constant tensor:
#      x y z
#    x 9.734030 -3.337470 -4.527300 
#    y -3.337470 6.097470 2.473340 
#    z -4.527300 2.473340 7.053180 
# 
# 
# High freq. dielectric constant tensor:
#      x y z
#    x 1.826290 -0.002950 -0.025170 
#    y -0.002950 1.828370 -0.010390 
#    z -0.025170 -0.010390 1.821430 
# 
# From -- ./inp_files/500464.got.cif
#   From: 2010.06.25/outbox.cif.g09.slc.cpg/sg2_251_cif.got.tgz:500464.got - 2010.06.27 13:26:56.
