data_PCOD8007017
_publ_section_title
;
Structure prediction by ZEFSAII (Michael W. Deem and Ramdas Pophale) SiO2 
 PCOD8007017
Probable space group: P -1
;
_chemical_formula_sum "Si O2"
_cell_formula_units_Z 16
_cell_length_a 11.584675
_cell_length_b 14.776572
_cell_length_c 14.685926
_cell_angle_alpha 152.964710
_cell_angle_beta 137.365360
_cell_angle_gamma 41.681795
_cell_volume 738.956938
_symmetry_space_group_name_H-M "P -1"
_symmetry_group_IT_number 2
_symmetry_cell_setting 'triclinic'
loop_
_space_group_symop_operation_xyz
x,y,z
-x,-y,-z
loop_
_atom_site_type_symbol
_atom_site_label
_atom_site_fract_x
_atom_site_fract_y
_atom_site_fract_z
Si Si1 0.266673 0.105756 0.141312
Si Si2 0.985669 0.494588 0.379017
Si Si3 0.792660 0.084264 0.468013
Si Si4 0.568847 0.438767 0.765698
Si Si5 0.438978 0.136543 0.770317
Si Si6 0.423493 0.333223 0.758103
Si Si7 0.458766 0.823648 0.757627
Si Si8 0.715870 0.321079 0.319683
O O1 0.071668 0.251696 0.184603
O O2 0.368728 0.252881 0.278148
O O3 0.380441 0.012420 0.213925
O O4 0.241790 0.920855 0.899554
O O5 0.095114 0.634632 0.518563
O O6 0.000000 0.500000 0.500000
O O7 0.786640 0.568976 0.293155
O O8 0.731099 0.316880 0.684784
O O9 0.711335 0.073656 0.312078
O O10 0.730994 0.936971 0.370280
O O11 0.000000 0.000000 0.500000
O O12 0.525145 0.278683 0.670926
O O13 0.388986 0.523806 0.679511
O O14 0.614418 0.628690 0.011089
O O15 0.463057 0.137062 0.674730
O O16 0.500000 0.500000 0.000000
O O17 0.410252 0.648458 0.635255
O O18 0.500000 0.000000 0.000000
#
# Coordination Sequence:
#
# PCOD8007017 Si02
#       8
#     2   2   2   2   2   2   2   2
#     4   9  21  42  65  92 126 166 206 257 309 371
#     4  12  24  39  63  97 127 157 217 264 297 370
#     4  11  24  40  62  94 126 158 210 257 304 376
#     4  10  21  43  64  87 127 166 201 258 313 370
#     4   9  21  43  65  88 126 172 201 248 327 369
#     4  10  23  45  62  91 130 167 207 257 320 374
#     4   9  20  41  64  90 125 159 205 254 311 368
#     4  10  20  40  66  93 121 162 210 255 313 358
#
# _framework density 21.652142000000001
#
# number of rings (size 3 to 8) (size 9 to 14) (size 15 to 20)
#    0.000    2.000    1.250    2.250    1.750    3.500 
#    9.000    0.000    0.000    0.000    0.000    0.000 
#    0.000    0.000    0.000    0.000    0.000    0.000 
#
# Total GULP energy -198332.004376 kJ/mol
# GULP energy per Si atom -12395.750273 kJ/mol
# Density = 2.160286 g / cm^3
# Si number density = 21.652142 Si / 1000 Ang^3
#
#
#
# Elastic Constant Matrix: (Units=GPa)
#
#
# Indices 1 2 3 4 5 6 
#
# 1 108.8691 43.4538 33.6457 -5.4173 -1.0473 13.1795
# 2 43.4538 73.2098 23.4845 -10.8316 -0.7183 5.0761
# 3 33.6457 23.4845 56.0791 -11.1268 4.1542 -1.4418
# 4 -5.4173 -10.8316 -11.1268 32.8978 0.5444 3.6630
# 5 -1.0473 -0.7183 4.1542 0.5444 36.8753 2.7112
# 6 13.1795 5.0761 -1.4418 3.6630 2.7112 54.0194
#
#
#
# Elastic Compliance Matrix: (Units=1/GPa)
#
#
# Indices 1 2 3 4 5 6 
#
# 1 0.013887 -0.006279 -0.006177 -0.001565 0.001206 -0.002918
# 2 -0.006279 0.019176 -0.003498 0.004162 0.000577 -0.000675
# 3 -0.006177 -0.003498 0.024475 0.005912 -0.003254 0.002252
# 4 -0.001565 0.004162 0.005912 0.033759 -0.000974 -0.002092
# 5 0.001206 0.000577 -0.003254 -0.000974 0.027674 -0.001758
# 6 -0.002918 -0.000675 0.002252 -0.002092 -0.001758 0.019577
#
#
# Mechanical properties :
#
#
# Convention : Reuss Voigt Hill
#
# Bulk Modulus (GPa) = 39.01539 48.81401 43.91470
# Shear Modulus (GPa) = 27.93287 33.93010 30.93149
#
# Velocity S-wave (km/s) = 3.59566 3.96290 3.78374
# Velocity P-wave (km/s) = 5.94110 6.59796 6.27812
#
# Compressibility (1/GPa) = 0.02563091
#
# Stress axis : x y z
#
# Youngs Moduli (GPa) = 72.00736 52.14730 40.85803
#
# Poissons Ratio (x) = 0.32742 0.25240
# Poissons Ratio (y) = 0.45211 0.14291
# Poissons Ratio (z) = 0.44482 0.18240
#
# Static dielectric constant tensor:
#      x y z
#    x 4.370320 0.566350 -0.074950 
#    y 0.566350 2.828410 0.012880 
#    z -0.074950 0.012880 4.007900 
# 
# 
# High freq. dielectric constant tensor:
#      x y z
#    x 1.864140 0.018240 -0.004730 
#    y 0.018240 1.830310 0.004780 
#    z -0.004730 0.004780 1.862270 
# 
# From -- ./inp_files/521748.got.cif
#   From: 2010.06.25/outbox.cif.g09.slc.cpg/sg2_261_cif.got.tgz:521748.got - 2010.06.27 13:26:56.
