data_PCOD8007314
_publ_section_title
;
Structure prediction by ZEFSAII (Michael W. Deem and Ramdas Pophale) SiO2 
 PCOD8007314
Probable space group: P -1
;
_chemical_formula_sum "Si O2"
_cell_formula_units_Z 16
_cell_length_a 11.821879
_cell_length_b 11.534466
_cell_length_c 9.568683
_cell_angle_alpha 114.516914
_cell_angle_beta 133.331838
_cell_angle_gamma 51.004101
_cell_volume 737.291283
_symmetry_space_group_name_H-M "P -1"
_symmetry_group_IT_number 2
_symmetry_cell_setting 'triclinic'
loop_
_space_group_symop_operation_xyz
x,y,z
-x,-y,-z
loop_
_atom_site_type_symbol
_atom_site_label
_atom_site_fract_x
_atom_site_fract_y
_atom_site_fract_z
Si Si1 0.339129 0.103438 0.016565
Si Si2 0.073178 0.184569 0.321365
Si Si3 0.144307 0.553601 0.320607
Si Si4 0.031718 0.135075 0.576066
Si Si5 0.697335 0.463439 0.104957
Si Si6 0.687898 0.667450 0.422598
Si Si7 0.631138 0.028978 0.719398
Si Si8 0.219277 0.425637 0.029208
O O1 0.354296 0.036271 0.147696
O O2 0.162421 0.123088 0.804179
O O3 0.334887 0.258315 0.104762
O O4 0.500000 0.000000 0.000000
O O5 0.106605 0.124249 0.477941
O O6 0.176740 0.271800 0.428266
O O7 0.857466 0.287352 0.153581
O O8 0.171005 0.043784 0.225081
O O9 0.305406 0.408006 0.460982
O O10 0.141189 0.698022 0.457395
O O11 0.957489 0.554900 0.190300
O O12 0.173466 0.543196 0.173916
O O13 0.000000 0.000000 0.500000
O O14 0.766306 0.541776 0.308123
O O15 0.668293 0.537950 0.965977
O O16 0.500000 0.500000 0.000000
O O17 0.475290 0.790738 0.271186
O O18 0.500000 0.000000 0.500000
#
# Coordination Sequence:
#
# PCOD8007314 Si02
#       8
#     2   2   2   2   2   2   2   2
#     4  11  22  41  68  99 136 173 223 280 338 405
#     4  11  22  43  69  95 130 179 228 279 329 404
#     4  10  20  40  72  99 122 173 228 286 327 393
#     4  11  25  42  63  95 137 181 220 268 347 409
#     4  12  25  40  62  97 137 175 219 272 340 403
#     4  11  20  43  69  97 126 171 230 274 331 394
#     4  10  22  38  69 106 130 164 224 287 341 387
#     4  10  21  38  69 100 125 165 233 284 328 386
#
# _framework density 21.701058
#
# number of rings (size 3 to 8) (size 9 to 14) (size 15 to 20)
#    0.000    1.250    2.500    5.625    3.500    2.000 
#    2.250    1.875    0.000    0.000    0.000    0.000 
#    0.000    0.000    0.000    0.000    0.000    0.000 
#
# Total GULP energy -198322.410610 kJ/mol
# GULP energy per Si atom -12395.150663 kJ/mol
# Density = 2.165167 g / cm^3
# Si number density = 21.701058 Si / 1000 Ang^3
#
#
#
# Elastic Constant Matrix: (Units=GPa)
#
#
# Indices 1 2 3 4 5 6 
#
# 1 124.0881 68.0283 56.4070 -5.8032 -20.8258 -7.6676
# 2 68.0283 138.1588 39.0630 -19.8541 -15.7902 -5.7833
# 3 56.4070 39.0630 77.5471 -20.6316 -31.1405 5.6902
# 4 -5.8032 -19.8541 -20.6316 41.0125 -1.3841 -1.0564
# 5 -20.8258 -15.7902 -31.1405 -1.3841 40.7741 -5.8967
# 6 -7.6676 -5.7833 5.6902 -1.0564 -5.8967 40.1540
#
#
#
# Elastic Compliance Matrix: (Units=1/GPa)
#
#
# Indices 1 2 3 4 5 6 
#
# 1 0.015968 -0.005612 -0.011884 -0.006445 -0.002830 0.003340
# 2 -0.005612 0.010770 0.000780 0.004907 0.002185 0.000819
# 3 -0.011884 0.000780 0.033811 0.016291 0.020092 -0.003569
# 4 -0.006445 0.004907 0.016291 0.034450 0.012200 -0.000135
# 5 -0.002830 0.002185 0.020092 0.012200 0.040140 0.003143
# 6 0.003340 0.000819 -0.003569 -0.000135 0.003143 0.026624
#
#
# Mechanical properties :
#
#
# Convention : Reuss Voigt Hill
#
# Bulk Modulus (GPa) = 36.87784 74.08784 55.48284
# Shear Modulus (GPa) = 24.48186 36.14115 30.31150
#
# Velocity S-wave (km/s) = 3.36243 4.08537 3.74140
# Velocity P-wave (km/s) = 5.66613 7.51452 6.65481
#
# Compressibility (1/GPa) = 0.02711656
#
# Stress axis : x y z
#
# Youngs Moduli (GPa) = 62.62708 92.84995 29.57606
#
# Poissons Ratio (x) = 0.52108 0.35147
# Poissons Ratio (y) = 0.35147 -0.02306
# Poissons Ratio (z) = 0.74424 -0.07239
#
# Static dielectric constant tensor:
#      x y z
#    x 3.122150 0.163650 -0.198570 
#    y 0.163650 4.264650 -0.038090 
#    z -0.198570 -0.038090 3.759690 
# 
# 
# High freq. dielectric constant tensor:
#      x y z
#    x 1.834920 -0.013640 -0.030380 
#    y -0.013640 1.868480 -0.009920 
#    z -0.030380 -0.009920 1.845940 
# 
# From -- ./inp_files/262833.got.cif
#   From: 2010.06.25/outbox.cif.g09.slc.cpg/sg2_132_cif.got.tgz:262833.got - 2010.06.27 13:26:56.
