data_PCOD8007457
_publ_section_title
;
Structure prediction by ZEFSAII (Michael W. Deem and Ramdas Pophale) SiO2 
 PCOD8007457
Probable space group: P -1
;
_chemical_formula_sum "Si O2"
_cell_formula_units_Z 16
_cell_length_a 9.286469
_cell_length_b 14.151003
_cell_length_c 11.833054
_cell_angle_alpha 30.324606
_cell_angle_beta 96.564429
_cell_angle_gamma 105.992313
_cell_volume 729.900578
_symmetry_space_group_name_H-M "P -1"
_symmetry_group_IT_number 2
_symmetry_cell_setting 'triclinic'
loop_
_space_group_symop_operation_xyz
x,y,z
-x,-y,-z
loop_
_atom_site_type_symbol
_atom_site_label
_atom_site_fract_x
_atom_site_fract_y
_atom_site_fract_z
Si Si1 0.619568 0.779009 0.974343
Si Si2 0.637397 0.638823 0.652982
Si Si3 0.865428 0.940876 0.212852
Si Si4 0.086150 0.210624 0.128252
Si Si5 0.157890 0.657895 0.622686
Si Si6 0.475323 0.905633 0.472816
Si Si7 0.069878 0.346849 0.219801
Si Si8 0.167615 0.925557 0.153097
O O1 0.513292 0.546215 0.208264
O O2 0.751764 0.820333 0.847376
O O3 0.715141 0.855983 0.019573
O O4 0.517435 0.916362 0.797174
O O5 0.598524 0.804179 0.553405
O O6 0.751481 0.558772 0.820588
O O7 0.720998 0.744960 0.436281
O O8 0.936667 0.052215 0.219995
O O9 0.988481 0.881546 0.211843
O O10 0.809386 0.078400 0.976731
O O11 0.057070 0.187495 0.284099
O O12 0.091887 0.420312 0.858191
O O13 0.309976 0.727338 0.641759
O O14 0.034440 0.744780 0.583400
O O15 0.202825 0.748791 0.406633
O O16 0.500000 0.000000 0.500000
O O17 0.000000 0.500000 0.000000
#
# Coordination Sequence:
#
# PCOD8007457 Si02
#       8
#     2   2   2   2   2   2   2   2
#     4  10  23  42  64  91 135 173 210 268 326 380
#     4  12  24  42  66  99 128 172 220 259 325 386
#     4  10  22  39  66  93 126 170 221 268 316 381
#     4  10  21  39  64  94 130 172 214 261 326 385
#     4  10  20  41  63  95 130 174 209 268 325 383
#     4  11  25  38  64  95 136 174 212 258 326 387
#     4  10  23  37  64  95 132 161 215 261 313 388
#     4   9  20  44  64  91 128 170 216 270 324 374
#
# _framework density 21.920793
#
# number of rings (size 3 to 8) (size 9 to 14) (size 15 to 20)
#    0.000    1.750    2.500    0.750    5.250    3.500 
#    0.000    2.500    0.000    0.000    0.000    0.000 
#    0.000    0.000    0.000    0.000    0.000    0.000 
#
# Total GULP energy -198274.649798 kJ/mol
# GULP energy per Si atom -12392.165612 kJ/mol
# Density = 2.187090 g / cm^3
# Si number density = 21.920793 Si / 1000 Ang^3
#
#
#
# Elastic Constant Matrix: (Units=GPa)
#
#
# Indices 1 2 3 4 5 6 
#
# 1 100.6406 26.6649 25.4834 -2.3651 1.3559 8.6476
# 2 26.6649 42.4916 13.8547 0.5872 -4.9153 2.3742
# 3 25.4834 13.8547 88.9511 -10.0642 -4.3529 5.9587
# 4 -2.3651 0.5872 -10.0642 31.3337 6.8459 0.3862
# 5 1.3559 -4.9153 -4.3529 6.8459 29.2561 -4.0018
# 6 8.6476 2.3742 5.9587 0.3862 -4.0018 20.3457
#
#
#
# Elastic Compliance Matrix: (Units=1/GPa)
#
#
# Indices 1 2 3 4 5 6 
#
# 1 0.012963 -0.007514 -0.002259 0.001126 -0.003092 -0.004601
# 2 -0.007514 0.029762 -0.002682 -0.003311 0.005962 0.001742
# 3 -0.002259 -0.002682 0.012944 0.004004 0.000296 -0.002536
# 4 0.001126 -0.003311 0.004004 0.035310 -0.008776 -0.003661
# 5 -0.003092 0.005962 0.000296 -0.008776 0.038557 0.008282
# 6 -0.004601 0.001742 -0.002536 -0.003661 0.008282 0.053344
#
#
# Mechanical properties :
#
#
# Convention : Reuss Voigt Hill
#
# Bulk Modulus (GPa) = 32.51161 40.45435 36.48298
# Shear Modulus (GPa) = 22.93119 27.25911 25.09515
#
# Velocity S-wave (km/s) = 3.23784 3.53019 3.38718
# Velocity P-wave (km/s) = 5.37046 5.92547 5.65478
#
# Compressibility (1/GPa) = 0.03075824
#
# Stress axis : x y z
#
# Youngs Moduli (GPa) = 77.14466 33.59972 77.25290
#
# Poissons Ratio (x) = 0.25247 0.17451
# Poissons Ratio (y) = 0.57967 0.20723
# Poissons Ratio (z) = 0.17427 0.09013
#
# Static dielectric constant tensor:
#      x y z
#    x 4.106700 0.000470 0.017490 
#    y 0.000470 4.084540 0.208270 
#    z 0.017490 0.208270 4.037620 
# 
# 
# High freq. dielectric constant tensor:
#      x y z
#    x 1.859530 0.012340 0.003310 
#    y 0.012340 1.848690 0.003560 
#    z 0.003310 0.003560 1.863730 
# 
# From -- ./inp_files/224275.got.cif
#   From: 2010.06.25/outbox.cif.g09.slc.cpg/sg2_113_cif.got.tgz:224275.got - 2010.06.27 13:26:56.
