data_PCOD8007040
_publ_section_title
;
Structure prediction by ZEFSAII (Michael W. Deem and Ramdas Pophale) SiO2 
 PCOD8007040
Probable space group: P -1
;
_chemical_formula_sum "Si O2"
_cell_formula_units_Z 14
_cell_length_a 11.589442
_cell_length_b 12.150408
_cell_length_c 12.555662
_cell_angle_alpha 47.716526
_cell_angle_beta 90.776641
_cell_angle_gamma 130.208576
_cell_volume 666.646084
_symmetry_space_group_name_H-M "P -1"
_symmetry_group_IT_number 2
_symmetry_cell_setting 'triclinic'
loop_
_space_group_symop_operation_xyz
x,y,z
-x,-y,-z
loop_
_atom_site_type_symbol
_atom_site_label
_atom_site_fract_x
_atom_site_fract_y
_atom_site_fract_z
Si Si1 0.654267 0.783130 0.034442
Si Si2 0.680908 0.388594 0.986051
Si Si3 0.611750 0.681919 0.489264
Si Si4 0.944555 0.390053 0.191751
Si Si5 0.022866 0.314991 0.844739
Si Si6 0.899236 0.820753 0.882753
Si Si7 0.522635 0.908180 0.390612
O O1 0.533178 0.526402 0.274076
O O2 0.465556 0.682845 0.052098
O O3 0.782804 0.847455 0.895193
O O4 0.829972 0.078837 0.908761
O O5 0.559133 0.097067 0.199146
O O6 0.720491 0.525793 0.005183
O O7 0.924291 0.620847 0.781808
O O8 0.500000 0.500000 0.500000
O O9 0.616355 0.865902 0.358424
O O10 0.866605 0.898347 0.362218
O O11 0.038041 0.608669 0.136468
O O12 0.669270 0.074119 0.396150
O O13 0.000000 0.500000 0.000000
O O14 0.258731 0.601386 0.603392
O O15 0.036118 0.184674 0.002154
#
# Coordination Sequence:
#
# PCOD8007040 Si02
#       7
#     2   2   2   2   2   2   2
#     4  12  28  44  65 105 141 172 218 282 341 389
#     4  11  25  45  67  99 138 174 221 280 338 390
#     4  12  24  42  72  98 131 177 225 273 332 394
#     4  10  20  40  66  95 126 174 229 270 318 397
#     4  12  22  41  70  99 131 177 229 272 325 398
#     4  12  22  46  69  97 136 179 227 270 326 408
#     4  11  22  42  71  96 129 177 232 267 323 403
#
# _framework density 21.000648999999999
#
# number of rings (size 3 to 8) (size 9 to 14) (size 15 to 20)
#    0.000    0.571    7.143    3.000    0.000    1.714 
#    2.571    0.000    0.000    0.000    0.000    0.000 
#    0.000    0.000    0.000    0.000    0.000    0.000 
#
# Total GULP energy -173575.125726 kJ/mol
# GULP energy per Si atom -12398.223266 kJ/mol
# Density = 2.095285 g / cm^3
# Si number density = 21.000649 Si / 1000 Ang^3
#
#
#
# Elastic Constant Matrix: (Units=GPa)
#
#
# Indices 1 2 3 4 5 6 
#
# 1 127.8267 66.6263 20.6522 -0.0868 -0.7363 -0.4052
# 2 66.6263 125.6001 31.9170 -19.2907 4.7385 -3.7094
# 3 20.6522 31.9170 80.2272 -12.4216 -12.6870 0.6592
# 4 -0.0868 -19.2907 -12.4216 23.0569 -4.4510 -2.3351
# 5 -0.7363 4.7385 -12.6870 -4.4510 26.9553 -3.8643
# 6 -0.4052 -3.7094 0.6592 -2.3351 -3.8643 44.1768
#
#
#
# Elastic Compliance Matrix: (Units=1/GPa)
#
#
# Indices 1 2 3 4 5 6 
#
# 1 0.011584 -0.006824 -0.001316 -0.006514 -0.000296 -0.000817
# 2 -0.006824 0.013880 -0.002540 0.009992 -0.001957 0.001498
# 3 -0.001316 -0.002540 0.016745 0.008886 0.009883 0.000859
# 4 -0.006514 0.009992 0.008886 0.059456 0.012769 0.004906
# 5 -0.000296 -0.001957 0.009883 0.012769 0.044808 0.004280
# 6 -0.000817 0.001498 0.000859 0.004906 0.004280 0.023375
#
#
# Mechanical properties :
#
#
# Convention : Reuss Voigt Hill
#
# Bulk Modulus (GPa) = 47.96261 63.56056 55.76158
# Shear Modulus (GPa) = 25.23251 33.13505 29.18378
#
# Velocity S-wave (km/s) = 3.47004 3.97648 3.73186
# Velocity P-wave (km/s) = 6.24044 7.17041 6.72153
#
# Compressibility (1/GPa) = 0.02084958
#
# Stress axis : x y z
#
# Youngs Moduli (GPa) = 86.32802 72.04718 59.71794
#
# Poissons Ratio (x) = 0.49164 0.07858
# Poissons Ratio (y) = 0.58909 0.15168
# Poissons Ratio (z) = 0.11360 0.18299
#
# Static dielectric constant tensor:
#      x y z
#    x 4.079130 -0.014720 -0.388360 
#    y -0.014720 3.890190 -0.417450 
#    z -0.388360 -0.417450 4.012150 
# 
# 
# High freq. dielectric constant tensor:
#      x y z
#    x 1.829740 -0.015130 -0.022480 
#    y -0.015130 1.824780 -0.025450 
#    z -0.022480 -0.025450 1.810160 
# 
# From -- ./inp_files/425292.got.cif
#   From: 2010.06.25/outbox.cif.g09.slc.cpg/sg2_213_cif.got.tgz:425292.got - 2010.06.27 13:26:56.
