data_PCOD8007255
_publ_section_title
;
Structure prediction by ZEFSAII (Michael W. Deem and Ramdas Pophale) SiO2 
 PCOD8007255
Probable space group: P -1
;
_chemical_formula_sum "Si O2"
_cell_formula_units_Z 14
_cell_length_a 8.874087
_cell_length_b 10.028541
_cell_length_c 9.765354
_cell_angle_alpha 119.009290
_cell_angle_beta 104.023154
_cell_angle_gamma 40.828724
_cell_volume 484.957896
_symmetry_space_group_name_H-M "P -1"
_symmetry_group_IT_number 2
_symmetry_cell_setting 'triclinic'
loop_
_space_group_symop_operation_xyz
x,y,z
-x,-y,-z
loop_
_atom_site_type_symbol
_atom_site_label
_atom_site_fract_x
_atom_site_fract_y
_atom_site_fract_z
Si Si1 0.048140 0.848628 0.203672
Si Si2 0.774845 0.858848 0.619864
Si Si3 0.612743 0.224001 0.929917
Si Si4 0.133319 0.568025 0.320648
Si Si5 0.596542 0.685459 0.423129
Si Si6 0.100152 0.558376 0.881006
Si Si7 0.386603 0.662790 0.715488
O O1 0.068229 0.765358 0.317161
O O2 0.306859 0.717587 0.145249
O O3 0.856985 0.125103 0.312648
O O4 0.949699 0.802766 0.043094
O O5 0.021219 0.659623 0.493909
O O6 0.670777 0.766979 0.584754
O O7 0.780402 0.947082 0.809466
O O8 0.603551 0.090402 0.603390
O O9 0.340952 0.373073 0.933432
O O10 0.668770 0.270514 0.103816
O O11 0.045707 0.490905 0.171333
O O12 0.415453 0.361510 0.301075
O O13 0.828726 0.470009 0.276343
O O14 0.523454 0.576952 0.420456
#
# Coordination Sequence:
#
# PCOD8007255 Si02
#       7
#     2   2   2   2   2   2   2
#     4  12  24  40  67 101 132 172 218 276 324 384
#     4   9  21  41  70  91 132 176 215 264 340 378
#     4  11  22  42  69 103 121 173 225 273 316 391
#     4  11  24  44  66  98 136 177 211 272 331 402
#     4   9  19  40  66  96 123 175 224 265 313 400
#     4  10  20  40  69  96 129 170 221 271 326 376
#     4  12  25  41  71  99 132 168 228 270 323 386
#
# _framework density 28.868486999999998
#
# number of rings (size 3 to 8) (size 9 to 14) (size 15 to 20)
#    0.000    1.429    2.857    3.857    0.000    2.857 
#    0.000    3.571    0.000    0.000    0.000    0.000 
#    0.000    0.000    0.000    0.000    0.000    0.000 
#
# Total GULP energy -173561.925387 kJ/mol
# GULP energy per Si atom -12397.280385 kJ/mol
# Density = 2.880278 g / cm^3
# Si number density = 28.868487 Si / 1000 Ang^3
#
#
#
# Elastic Constant Matrix: (Units=GPa)
#
#
# Indices 1 2 3 4 5 6 
#
# 1 163.4176 29.9102 24.6502 11.6442 13.4183 -12.9823
# 2 29.9102 62.8150 15.5052 15.6816 3.7055 -8.8486
# 3 24.6502 15.5052 133.8531 -1.3526 23.2573 1.9179
# 4 11.6442 15.6816 -1.3526 47.4364 -1.3998 2.4364
# 5 13.4183 3.7055 23.2573 -1.3998 40.8446 2.5415
# 6 -12.9823 -8.8486 1.9179 2.4364 2.5415 28.9266
#
#
#
# Elastic Compliance Matrix: (Units=1/GPa)
#
#
# Indices 1 2 3 4 5 6 
#
# 1 0.007136 -0.002414 -0.000755 -0.001174 -0.001909 0.002781
# 2 -0.002414 0.019974 -0.001930 -0.006375 -0.000496 0.005735
# 3 -0.000755 -0.001930 0.008621 0.001001 -0.004377 -0.001200
# 4 -0.001174 -0.006375 0.001001 0.023790 0.001500 -0.004679
# 5 -0.001909 -0.000496 -0.004377 0.001500 0.027904 -0.003296
# 6 0.002781 0.005735 -0.001200 -0.004679 -0.003296 0.038336
#
#
# Mechanical properties :
#
#
# Convention : Reuss Voigt Hill
#
# Bulk Modulus (GPa) = 39.16230 55.57965 47.37097
# Shear Modulus (GPa) = 34.60932 42.77621 38.69276
#
# Velocity S-wave (km/s) = 3.46621 3.85354 3.66500
# Velocity P-wave (km/s) = 5.44194 6.25254 5.86127
#
# Compressibility (1/GPa) = 0.02553476
#
# Stress axis : x y z
#
# Youngs Moduli (GPa) = 140.12773 50.06466 115.99315
#
# Poissons Ratio (x) = 0.12087 0.08752
# Poissons Ratio (y) = 0.33831 0.22382
# Poissons Ratio (z) = 0.10574 0.09661
#
# Static dielectric constant tensor:
#      x y z
#    x 5.309770 -0.110430 0.335160 
#    y -0.110430 5.001370 0.211950 
#    z 0.335160 0.211950 6.100780 
# 
# 
# High freq. dielectric constant tensor:
#      x y z
#    x 2.170470 -0.004760 0.019060 
#    y -0.004760 2.171130 -0.001280 
#    z 0.019060 -0.001280 2.191060 
# 
# From -- ./inp_files/496918.got.cif
#   From: 2010.06.25/outbox.cif.g09.slc.cpg/sg2_249_cif.got.tgz:496918.got - 2010.06.27 13:26:56.
