data_PCOD8007024
_publ_section_title
;
Structure prediction by ZEFSAII (Michael W. Deem and Ramdas Pophale) SiO2 
 PCOD8007024
Probable space group: P -1
;
_chemical_formula_sum "Si O2"
_cell_formula_units_Z 16
_cell_length_a 12.052271
_cell_length_b 21.355183
_cell_length_c 5.680347
_cell_angle_alpha 125.477261
_cell_angle_beta 57.775011
_cell_angle_gamma 142.048456
_cell_volume 723.806382
_symmetry_space_group_name_H-M "P -1"
_symmetry_group_IT_number 2
_symmetry_cell_setting 'triclinic'
loop_
_space_group_symop_operation_xyz
x,y,z
-x,-y,-z
loop_
_atom_site_type_symbol
_atom_site_label
_atom_site_fract_x
_atom_site_fract_y
_atom_site_fract_z
Si Si1 0.011736 0.916108 0.343888
Si Si2 0.776757 0.550315 0.661528
Si Si3 0.340574 0.970352 0.859598
Si Si4 0.752911 0.705010 0.898697
Si Si5 0.937978 0.169967 0.518657
Si Si6 0.871027 0.387477 0.534261
Si Si7 0.304889 0.825259 0.927274
Si Si8 0.649571 0.428645 0.045929
O O1 0.989391 0.880383 0.560678
O O2 0.211142 0.968102 0.164886
O O3 0.000000 0.000000 0.500000
O O4 0.848066 0.813404 0.158485
O O5 0.726126 0.619347 0.906664
O O6 0.710243 0.487056 0.847846
O O7 0.991934 0.619555 0.522277
O O8 0.685269 0.486470 0.378369
O O9 0.249449 0.925653 0.611991
O O10 0.367659 0.895429 0.772052
O O11 0.532505 0.094507 0.892045
O O12 0.892791 0.728698 0.597848
O O13 0.568547 0.664894 0.915707
O O14 0.888058 0.216311 0.862358
O O15 0.730167 0.280248 0.299253
O O16 0.747750 0.384690 0.855597
O O17 0.000000 0.500000 0.500000
#
# Coordination Sequence:
#
# PCOD8007024 Si02
#       8
#     2   2   2   2   2   2   2   2
#     4  10  23  40  62  89 139 168 217 281 342 408
#     4  11  24  46  70  98 140 176 235 280 334 409
#     4   9  20  38  63  99 119 176 224 276 333 400
#     4  11  25  40  69  98 128 182 225 276 343 403
#     4  10  21  39  67  94 128 176 224 274 341 406
#     4  10  23  42  65  98 136 178 218 283 349 402
#     4  10  20  40  66  93 134 167 226 280 332 412
#     4  11  26  44  69 104 136 178 229 283 340 407
#
# _framework density 22.105360999999998
#
# number of rings (size 3 to 8) (size 9 to 14) (size 15 to 20)
#    0.000    1.750    0.000    3.750    8.750    2.000 
#    4.500    2.500    0.000    0.000    0.000    0.000 
#    0.000    0.000    0.000    0.000    0.000    0.000 
#
# Total GULP energy -198214.306379 kJ/mol
# GULP energy per Si atom -12388.394149 kJ/mol
# Density = 2.205505 g / cm^3
# Si number density = 22.105361 Si / 1000 Ang^3
#
#
#
# Elastic Constant Matrix: (Units=GPa)
#
#
# Indices 1 2 3 4 5 6 
#
# 1 72.3112 25.8077 11.7506 -7.7692 -12.2625 16.7835
# 2 25.8077 91.2762 47.5412 24.3226 6.1926 15.6439
# 3 11.7506 47.5412 76.8277 -5.7251 -13.1667 -5.4872
# 4 -7.7692 24.3226 -5.7251 6.6058 -31.0638 -0.0965
# 5 -12.2625 6.1926 -13.1667 -31.0638 19.4416 1.2815
# 6 16.7835 15.6439 -5.4872 -0.0965 1.2815 42.3832
#
#
#
# Elastic Compliance Matrix: (Units=1/GPa)
#
#
# Indices 1 2 3 4 5 6 
#
# 1 0.014505 0.001107 -0.004367 -0.005928 -0.003196 -0.006635
# 2 0.001107 0.010388 -0.004364 0.010038 0.010812 -0.005142
# 3 -0.004367 -0.004364 0.014831 -0.009671 -0.007132 0.005454
# 4 -0.005928 0.010038 -0.009671 -0.005561 -0.022243 -0.001950
# 5 -0.003196 0.010812 -0.007132 -0.022243 0.005861 -0.003876
# 6 -0.006635 -0.005142 0.005454 -0.001950 -0.003876 0.028938
#
#
# Mechanical properties :
#
#
# Convention : Reuss Voigt Hill
#
# Bulk Modulus (GPa) = 40.85525 45.62380 43.23953
# Shear Modulus (GPa) = 54.13073 24.04049 39.08561
#
# Velocity S-wave (km/s) = 4.95386 3.30137 4.20950
# Velocity P-wave (km/s) = 7.15844 5.93431 6.57493
#
# Compressibility (1/GPa) = 0.02447666
#
# Stress axis : x y z
#
# Youngs Moduli (GPa) = 68.94363 96.26038 67.42592
#
# Poissons Ratio (x) = -0.10656 0.29444
# Poissons Ratio (y) = -0.07632 0.29424
# Poissons Ratio (z) = 0.30106 0.42008
#
# Static dielectric constant tensor:
#      x y z
#    x 4.559870 0.028370 0.018250 
#    y 0.028370 3.994270 -0.119570 
#    z 0.018250 -0.119570 3.982570 
# 
# 
# High freq. dielectric constant tensor:
#      x y z
#    x 1.876680 0.016010 -0.000190 
#    y 0.016010 1.862380 0.001150 
#    z -0.000190 0.001150 1.864710 
# 
# From -- ./inp_files/70269.got.cif
#   From: 2010.06.25/outbox.cif.g09.slc.cpg/sg2_36_cif.got.tgz:70269.got - 2010.06.27 13:26:56.
