data_PCOD8007320
_publ_section_title
;
Structure prediction by ZEFSAII (Michael W. Deem and Ramdas Pophale) SiO2 
 PCOD8007320
Probable space group: P -1
;
_chemical_formula_sum "Si O2"
_cell_formula_units_Z 14
_cell_length_a 15.961919
_cell_length_b 9.349936
_cell_length_c 6.894344
_cell_angle_alpha 117.786521
_cell_angle_beta 106.328177
_cell_angle_gamma 118.491428
_cell_volume 609.631964
_symmetry_space_group_name_H-M "P -1"
_symmetry_group_IT_number 2
_symmetry_cell_setting 'triclinic'
loop_
_space_group_symop_operation_xyz
x,y,z
-x,-y,-z
loop_
_atom_site_type_symbol
_atom_site_label
_atom_site_fract_x
_atom_site_fract_y
_atom_site_fract_z
Si Si1 0.208530 0.631973 0.212985
Si Si2 0.699924 0.034057 0.847858
Si Si3 0.361339 0.378588 0.334939
Si Si4 0.116966 0.575082 0.518771
Si Si5 0.445240 0.823041 0.681717
Si Si6 0.946840 0.854717 0.677161
Si Si7 0.174507 0.223054 0.811302
O O1 0.212720 0.773976 0.139661
O O2 0.114628 0.573969 0.281833
O O3 0.351519 0.808871 0.490288
O O4 0.160007 0.396127 0.953190
O O5 0.714133 0.856206 0.738278
O O6 0.555643 0.902059 0.663695
O O7 0.755904 0.166462 0.173399
O O8 0.500000 0.500000 0.500000
O O9 0.364525 0.561955 0.548786
O O10 0.304917 0.325029 0.044527
O O11 0.126808 0.403939 0.483221
O O12 0.000000 0.500000 0.500000
O O13 0.500000 0.000000 0.000000
O O14 0.846603 0.829102 0.468146
O O15 0.066041 0.980412 0.697561
O O16 0.000000 0.000000 0.000000
#
# Coordination Sequence:
#
# PCOD8007320 Si02
#       7
#     2   2   2   2   2   2   2
#     4  11  22  41  69 100 128 180 228 270 338 404
#     4  11  22  43  65  98 138 169 220 277 338 398
#     4   9  21  41  68  97 138 175 213 280 337 399
#     4  12  25  41  65  95 138 175 223 285 339 394
#     4  10  20  40  74  96 129 174 221 277 331 400
#     4  11  22  41  69  98 128 176 230 282 328 398
#     4  10  21  41  69  98 129 177 233 271 334 407
#
# _framework density 22.964673999999999
#
# number of rings (size 3 to 8) (size 9 to 14) (size 15 to 20)
#    0.000    1.429    4.286    1.286    0.000    0.571 
#    0.000    5.000    3.143    0.000    0.000    0.000 
#    0.000    0.000    0.000    0.000    0.000    0.000 
#
# Total GULP energy -173452.155090 kJ/mol
# GULP energy per Si atom -12389.439649 kJ/mol
# Density = 2.291241 g / cm^3
# Si number density = 22.964674 Si / 1000 Ang^3
#
#
#
# Elastic Constant Matrix: (Units=GPa)
#
#
# Indices 1 2 3 4 5 6 
#
# 1 72.4976 23.7901 30.3588 -14.5146 4.9179 3.1498
# 2 23.7901 144.0828 36.0848 1.2863 -19.4349 -12.7494
# 3 30.3588 36.0848 136.5205 -6.1828 6.8863 -10.8035
# 4 -14.5146 1.2863 -6.1828 44.1066 -1.1481 -5.2121
# 5 4.9179 -19.4349 6.8863 -1.1481 34.9299 -1.3545
# 6 3.1498 -12.7494 -10.8035 -5.2121 -1.3545 30.2118
#
#
#
# Elastic Compliance Matrix: (Units=1/GPa)
#
#
# Indices 1 2 3 4 5 6 
#
# 1 0.017359 -0.002940 -0.002958 0.004889 -0.003469 -0.003420
# 2 -0.002940 0.008987 -0.001776 -0.000904 0.005873 0.003571
# 3 -0.002958 -0.001776 0.008803 0.000576 -0.002183 0.002708
# 4 0.004889 -0.000904 0.000576 0.024802 -0.000351 0.003578
# 5 -0.003469 0.005873 -0.002183 -0.000351 0.032939 0.003476
# 6 -0.003420 0.003571 0.002708 0.003578 0.003476 0.036705
#
#
# Mechanical properties :
#
#
# Convention : Reuss Voigt Hill
#
# Bulk Modulus (GPa) = 50.50000 59.28535 54.89267
# Shear Modulus (GPa) = 32.99410 39.37415 36.18413
#
# Velocity S-wave (km/s) = 3.79454 4.14521 3.97374
# Velocity P-wave (km/s) = 6.42153 6.98443 6.70889
#
# Compressibility (1/GPa) = 0.01980198
#
# Stress axis : x y z
#
# Youngs Moduli (GPa) = 57.60535 111.27187 113.60299
#
# Poissons Ratio (x) = 0.32711 0.33599
# Poissons Ratio (y) = 0.16934 0.20179
# Poissons Ratio (z) = 0.17037 0.19765
#
# Static dielectric constant tensor:
#      x y z
#    x 3.195240 0.127840 0.224750 
#    y 0.127840 4.467560 0.173140 
#    z 0.224750 0.173140 4.517130 
# 
# 
# High freq. dielectric constant tensor:
#      x y z
#    x 1.875320 -0.010840 0.019360 
#    y -0.010840 1.914370 0.016540 
#    z 0.019360 0.016540 1.920790 
# 
# From -- ./inp_files/106499.got.cif
#   From: 2010.06.25/outbox.cif.g09.slc.cpg/sg2_54_cif.got.tgz:106499.got - 2010.06.27 13:26:56.
