data_PCOD8007155
_publ_section_title
;
Structure prediction by ZEFSAII (Michael W. Deem and Ramdas Pophale) SiO2 
 PCOD8007155
Probable space group: P -1
;
_chemical_formula_sum "Si O2"
_cell_formula_units_Z 16
_cell_length_a 18.605810
_cell_length_b 14.840173
_cell_length_c 8.657886
_cell_angle_alpha 149.232322
_cell_angle_beta 38.097424
_cell_angle_gamma 140.913888
_cell_volume 715.663309
_symmetry_space_group_name_H-M "P -1"
_symmetry_group_IT_number 2
_symmetry_cell_setting 'triclinic'
loop_
_space_group_symop_operation_xyz
x,y,z
-x,-y,-z
loop_
_atom_site_type_symbol
_atom_site_label
_atom_site_fract_x
_atom_site_fract_y
_atom_site_fract_z
Si Si1 0.773593 0.521100 0.876682
Si Si2 0.863845 0.613795 0.196321
Si Si3 0.480124 0.714553 0.675568
Si Si4 0.740433 0.878201 0.967532
Si Si5 0.503071 0.681348 0.930928
Si Si6 0.766533 0.241051 0.962917
Si Si7 0.139722 0.747957 0.848600
Si Si8 0.261995 0.129605 0.680593
O O1 0.865637 0.443412 0.509381
O O2 0.793243 0.516386 0.018886
O O3 0.635770 0.389535 0.874960
O O4 0.799506 0.734719 0.101432
O O5 0.796430 0.747211 0.580565
O O6 0.861244 0.443269 0.061946
O O7 0.002970 0.736512 0.110849
O O8 0.510325 0.781701 0.900195
O O9 0.443953 0.492051 0.416689
O O10 0.594556 0.810274 0.513807
O O11 0.370397 0.773647 0.876876
O O12 0.594690 0.830787 0.109091
O O13 0.758527 0.850089 0.074791
O O14 0.809274 0.090297 0.123104
O O15 0.804972 0.080177 0.572543
O O16 0.771579 0.210802 0.092597
#
# Coordination Sequence:
#
# PCOD8007155 Si02
#       8
#     2   2   2   2   2   2   2   2
#     4  11  24  45  70 100 136 174 224 278 338 394
#     4  12  24  49  71  94 136 179 227 280 330 390
#     4  10  20  40  67  99 135 177 213 272 342 397
#     4  12  25  44  68 102 137 175 228 272 335 396
#     4  10  20  40  71  99 134 173 215 277 343 396
#     4  12  23  44  68  99 135 177 226 271 336 393
#     4  12  28  44  69 100 133 183 228 273 328 399
#     4  11  26  40  68 104 138 175 218 276 336 406
#
# _framework density 22.356881999999999
#
# number of rings (size 3 to 8) (size 9 to 14) (size 15 to 20)
#    0.000    0.750    2.500    6.000    1.750    1.500 
#    0.000    1.875    0.000    0.000    0.000    0.000 
#    0.000    0.000    0.000    0.000    0.000    0.000 
#
# Total GULP energy -198489.289357 kJ/mol
# GULP energy per Si atom -12405.580585 kJ/mol
# Density = 2.230600 g / cm^3
# Si number density = 22.356882 Si / 1000 Ang^3
#
#
#
# Elastic Constant Matrix: (Units=GPa)
#
#
# Indices 1 2 3 4 5 6 
#
# 1 75.2755 23.0767 40.7692 -7.3640 5.1980 -13.5033
# 2 23.0767 68.6003 8.6463 12.0869 -15.9405 -9.0744
# 3 40.7692 8.6463 88.7416 1.3480 4.5869 1.0156
# 4 -7.3640 12.0869 1.3480 27.3760 -5.2561 7.6727
# 5 5.1980 -15.9405 4.5869 -5.2561 30.9275 -3.2496
# 6 -13.5033 -9.0744 1.0156 7.6727 -3.2496 26.0832
#
#
#
# Elastic Compliance Matrix: (Units=1/GPa)
#
#
# Indices 1 2 3 4 5 6 
#
# 1 0.023463 -0.008144 -0.009939 0.007571 -0.004656 0.006893
# 2 -0.008144 0.023509 0.000914 -0.012871 0.012132 0.009225
# 3 -0.009939 0.000914 0.015904 -0.002746 -0.001187 -0.004787
# 4 0.007571 -0.012871 -0.002746 0.048366 -0.000833 -0.014783
# 5 -0.004656 0.012132 -0.001187 -0.000833 0.040150 0.007104
# 6 0.006893 0.009225 -0.004787 -0.014783 0.007104 0.050537
#
#
# Mechanical properties :
#
#
# Convention : Reuss Voigt Hill
#
# Bulk Modulus (GPa) = 35.04227 41.95575 38.49901
# Shear Modulus (GPa) = 20.34355 27.55237 23.94796
#
# Velocity S-wave (km/s) = 3.01980 3.51435 3.27642
# Velocity P-wave (km/s) = 5.27892 5.93925 5.61879
#
# Compressibility (1/GPa) = 0.02853696
#
# Stress axis : x y z
#
# Youngs Moduli (GPa) = 42.62073 42.53747 62.87896
#
# Poissons Ratio (x) = 0.34642 0.62495
# Poissons Ratio (y) = 0.34710 -0.05746
# Poissons Ratio (z) = 0.42360 -0.03887
#
# Static dielectric constant tensor:
#      x y z
#    x 3.973500 -0.103800 -0.076520 
#    y -0.103800 3.983090 0.113920 
#    z -0.076520 0.113920 3.983790 
# 
# 
# High freq. dielectric constant tensor:
#      x y z
#    x 1.883380 -0.009100 -0.002700 
#    y -0.009100 1.884460 0.004530 
#    z -0.002700 0.004530 1.879200 
# 
# From -- ./inp_files/271331.got.cif
#   From: 2010.06.25/outbox.cif.g09.slc.cpg/sg2_136_cif.got.tgz:271331.got - 2010.06.27 13:26:56.
