data_PCOD8007890
_publ_section_title
;
Structure prediction by ZEFSAII (Michael W. Deem and Ramdas Pophale) SiO2 
 PCOD8007890
Probable space group: P -1
;
_chemical_formula_sum "Si O2"
_cell_formula_units_Z 14
_cell_length_a 21.280794
_cell_length_b 6.843846
_cell_length_c 10.075081
_cell_angle_alpha 145.038812
_cell_angle_beta 128.491172
_cell_angle_gamma 50.577567
_cell_volume 632.062231
_symmetry_space_group_name_H-M "P -1"
_symmetry_group_IT_number 2
_symmetry_cell_setting 'triclinic'
loop_
_space_group_symop_operation_xyz
x,y,z
-x,-y,-z
loop_
_atom_site_type_symbol
_atom_site_label
_atom_site_fract_x
_atom_site_fract_y
_atom_site_fract_z
Si Si1 0.221405 0.358805 0.843754
Si Si2 0.314586 0.018841 0.539313
Si Si3 0.335928 0.205861 0.140425
Si Si4 0.937326 0.443758 0.777106
Si Si5 0.507431 0.103670 0.223531
Si Si6 0.039438 0.373393 0.622046
Si Si7 0.753357 0.904110 0.778313
O O1 0.242114 0.103514 0.602245
O O2 0.122686 0.498380 0.822006
O O3 0.270010 0.130345 0.905263
O O4 0.254466 0.686664 0.025937
O O5 0.275974 0.232838 0.474487
O O6 0.336915 0.599754 0.322685
O O7 0.398856 0.131904 0.747288
O O8 0.432364 0.971292 0.117605
O O9 0.310154 0.142393 0.218873
O O10 0.846271 0.694908 0.826079
O O11 0.969695 0.546726 0.735811
O O12 0.931808 0.046423 0.555207
O O13 0.000000 0.500000 0.000000
O O14 0.500000 0.500000 0.500000
O O15 0.500000 0.000000 0.000000
O O16 0.000000 0.500000 0.500000
#
# Coordination Sequence:
#
# PCOD8007890 Si02
#       7
#     2   2   2   2   2   2   2
#     4  11  22  39  61  89 125 165 213 266 326 395
#     4  10  22  40  64  89 131 166 218 270 328 394
#     4  10  22  40  64  90 126 172 214 265 336 386
#     4  11  24  42  62  91 127 162 215 267 326 393
#     4  10  20  41  70  98 134 180 228 277 339 404
#     4  11  24  40  64  91 121 166 211 264 328 389
#     4  11  24  39  60  95 125 166 217 270 325 399
#
# _framework density 22.149716999999999
#
# number of rings (size 3 to 8) (size 9 to 14) (size 15 to 20)
#    0.000    1.429    1.429    3.429    0.000    9.714 
#    0.000    0.714    0.000    0.000    0.000    0.000 
#    0.000    0.000    0.000    0.000    0.000    0.000 
#
# Total GULP energy -173448.172642 kJ/mol
# GULP energy per Si atom -12389.155189 kJ/mol
# Density = 2.209930 g / cm^3
# Si number density = 22.149717 Si / 1000 Ang^3
#
#
#
# Elastic Constant Matrix: (Units=GPa)
#
#
# Indices 1 2 3 4 5 6 
#
# 1 163.4057 39.8195 30.8762 -21.1668 0.7061 7.6443
# 2 39.8195 78.1827 25.1234 -31.3608 6.9230 11.2509
# 3 30.8762 25.1234 79.2775 -33.1258 -8.3770 4.2188
# 4 -21.1668 -31.3608 -33.1258 39.4353 -3.0119 -5.0533
# 5 0.7061 6.9230 -8.3770 -3.0119 37.5162 -11.3559
# 6 7.6443 11.2509 4.2188 -5.0533 -11.3559 39.1418
#
#
#
# Elastic Compliance Matrix: (Units=1/GPa)
#
#
# Indices 1 2 3 4 5 6 
#
# 1 0.007225 -0.003099 -0.001942 -0.000278 -0.000137 -0.000386
# 2 -0.003099 0.021124 0.000434 0.014577 -0.004025 -0.004799
# 3 -0.001942 0.000434 0.021399 0.018096 0.006877 0.002279
# 4 -0.000278 0.014577 0.018096 0.052820 0.006378 0.002583
# 5 -0.000137 -0.004025 0.006877 0.006378 0.032703 0.010754
# 6 -0.000386 -0.004799 0.002279 0.002583 0.010754 0.030211
#
#
# Mechanical properties :
#
#
# Convention : Reuss Voigt Hill
#
# Bulk Modulus (GPa) = 24.67068 56.94490 40.80779
# Shear Modulus (GPa) = 26.56641 38.22178 32.39410
#
# Velocity S-wave (km/s) = 3.46700 4.15855 3.82842
# Velocity P-wave (km/s) = 5.21431 6.98734 6.16490
#
# Compressibility (1/GPa) = 0.04053394
#
# Stress axis : x y z
#
# Youngs Moduli (GPa) = 138.41695 47.33936 46.73060
#
# Poissons Ratio (x) = 0.14672 0.09073
# Poissons Ratio (y) = 0.42901 -0.02028
# Poissons Ratio (z) = 0.26874 -0.02055
#
# Static dielectric constant tensor:
#      x y z
#    x 3.996700 0.078400 0.041650 
#    y 0.078400 3.795000 -0.380340 
#    z 0.041650 -0.380340 4.252190 
# 
# 
# High freq. dielectric constant tensor:
#      x y z
#    x 1.893220 -0.010080 -0.002190 
#    y -0.010080 1.862250 -0.021510 
#    z -0.002190 -0.021510 1.871090 
# 
# From -- ./inp_files/7385.got.cif
#   From: 2010.06.25/outbox.cif.g09.slc.cpg/sg2_4_cif.got.tgz:7385.got - 2010.06.27 13:26:56.
