data_PCOD8007751
_publ_section_title
;
Structure prediction by ZEFSAII (Michael W. Deem and Ramdas Pophale) SiO2 
 PCOD8007751
Probable space group: P -1
;
_chemical_formula_sum "Si O2"
_cell_formula_units_Z 14
_cell_length_a 9.258138
_cell_length_b 11.436559
_cell_length_c 8.635890
_cell_angle_alpha 133.099479
_cell_angle_beta 72.206095
_cell_angle_gamma 113.696006
_cell_volume 610.703868
_symmetry_space_group_name_H-M "P -1"
_symmetry_group_IT_number 2
_symmetry_cell_setting 'triclinic'
loop_
_space_group_symop_operation_xyz
x,y,z
-x,-y,-z
loop_
_atom_site_type_symbol
_atom_site_label
_atom_site_fract_x
_atom_site_fract_y
_atom_site_fract_z
Si Si1 0.856324 0.773051 0.684055
Si Si2 0.546168 0.843919 0.777154
Si Si3 0.260546 0.579840 0.764155
Si Si4 0.115586 0.950423 0.537588
Si Si5 0.261840 0.648368 0.174967
Si Si6 0.443807 0.149632 0.587980
Si Si7 0.034887 0.397529 0.251418
O O1 0.721504 0.866273 0.804187
O O2 0.798509 0.607027 0.449171
O O3 0.889252 0.740377 0.824471
O O4 0.021351 0.890068 0.671263
O O5 0.430139 0.672366 0.722472
O O6 0.539436 0.840140 0.592136
O O7 0.500000 0.000000 0.000000
O O8 0.132574 0.680165 0.850454
O O9 0.271480 0.566423 0.932322
O O10 0.192270 0.807319 0.320114
O O11 0.260179 0.118375 0.669451
O O12 0.000000 0.000000 0.500000
O O13 0.437847 0.688240 0.226629
O O14 0.151846 0.512634 0.197543
O O15 0.500000 0.000000 0.500000
O O16 0.000000 0.500000 0.500000
#
# Coordination Sequence:
#
# PCOD8007751 Si02
#       7
#     2   2   2   2   2   2   2
#     4  11  24  44  70 102 135 181 228 290 341 404
#     4  12  25  46  67  99 139 179 231 286 350 405
#     4  11  24  42  71 100 139 178 231 280 341 412
#     4  11  21  39  68  99 138 176 230 273 345 396
#     4  11  22  43  68 101 139 183 224 275 346 411
#     4  10  22  39  67  95 136 181 216 276 340 406
#     4  10  20  41  68 100 134 175 224 282 337 402
#
# _framework density 22.924368000000001
#
# number of rings (size 3 to 8) (size 9 to 14) (size 15 to 20)
#    0.000    1.143    4.286    4.286    2.000    0.000 
#    0.000    9.286    0.000    0.000    0.000    0.000 
#    0.000    0.000    0.000    0.000    0.000    0.000 
#
# Total GULP energy -173568.271352 kJ/mol
# GULP energy per Si atom -12397.733668 kJ/mol
# Density = 2.287219 g / cm^3
# Si number density = 22.924368 Si / 1000 Ang^3
#
#
#
# Elastic Constant Matrix: (Units=GPa)
#
#
# Indices 1 2 3 4 5 6 
#
# 1 154.4478 44.5648 41.8653 -15.0027 5.4377 6.9414
# 2 44.5648 139.5712 40.4610 -43.2023 -0.3919 13.6874
# 3 41.8653 40.4610 66.9059 -16.5588 6.7569 1.3974
# 4 -15.0027 -43.2023 -16.5588 29.6730 -9.7969 1.5816
# 5 5.4377 -0.3919 6.7569 -9.7969 27.5436 -3.7189
# 6 6.9414 13.6874 1.3974 1.5816 -3.7189 55.2735
#
#
#
# Elastic Compliance Matrix: (Units=1/GPa)
#
#
# Indices 1 2 3 4 5 6 
#
# 1 0.008036 -0.001554 -0.004184 -0.000817 -0.000949 -0.000559
# 2 -0.001554 0.017111 -0.004016 0.025411 0.010035 -0.003992
# 3 -0.004184 -0.004016 0.020958 0.002587 -0.003359 0.000690
# 4 -0.000817 0.025411 0.002587 0.081297 0.027899 -0.006704
# 5 -0.000949 0.010035 -0.003359 0.027899 0.047398 0.000110
# 6 -0.000559 -0.003992 0.000690 -0.006704 0.000110 0.019332
#
#
# Mechanical properties :
#
#
# Convention : Reuss Voigt Hill
#
# Bulk Modulus (GPa) = 37.59759 68.30081 52.94920
# Shear Modulus (GPa) = 22.47131 38.10027 30.28579
#
# Velocity S-wave (km/s) = 3.13427 4.08118 3.63866
# Velocity P-wave (km/s) = 5.43457 7.21573 6.38754
#
# Compressibility (1/GPa) = 0.02659745
#
# Stress axis : x y z
#
# Youngs Moduli (GPa) = 124.43661 58.44328 47.71440
#
# Poissons Ratio (x) = 0.09082 0.19962
# Poissons Ratio (y) = 0.19338 0.19163
# Poissons Ratio (z) = 0.52059 0.23471
#
# Static dielectric constant tensor:
#      x y z
#    x 4.049270 -0.377220 -1.155680 
#    y -0.377220 4.428900 -0.787890 
#    z -1.155680 -0.787890 2.112870 
# 
# 
# High freq. dielectric constant tensor:
#      x y z
#    x 1.929060 0.004320 0.010940 
#    y 0.004320 1.923410 -0.013840 
#    z 0.010940 -0.013840 1.872900 
# 
# From -- ./inp_files/184462.got.cif
#   From: 2010.06.25/outbox.cif.g09.slc.cpg/sg2_93_cif.got.tgz:184462.got - 2010.06.27 13:26:56.
