data_PCOD8007429
_publ_section_title
;
Structure prediction by ZEFSAII (Michael W. Deem and Ramdas Pophale) SiO2 
 PCOD8007429
Probable space group: P -1
;
_chemical_formula_sum "Si O2"
_cell_formula_units_Z 14
_cell_length_a 11.908591
_cell_length_b 12.383250
_cell_length_c 11.413412
_cell_angle_alpha 145.526769
_cell_angle_beta 139.194266
_cell_angle_gamma 58.629747
_cell_volume 597.728714
_symmetry_space_group_name_H-M "P -1"
_symmetry_group_IT_number 2
_symmetry_cell_setting 'triclinic'
loop_
_space_group_symop_operation_xyz
x,y,z
-x,-y,-z
loop_
_atom_site_type_symbol
_atom_site_label
_atom_site_fract_x
_atom_site_fract_y
_atom_site_fract_z
Si Si1 0.979246 0.781986 0.836605
Si Si2 0.362657 0.545039 0.345719
Si Si3 0.978058 0.686808 0.006259
Si Si4 0.231578 0.632379 0.764047
Si Si5 0.001393 0.711905 0.434899
Si Si6 0.234908 0.910230 0.593346
Si Si7 0.625923 0.699858 0.068462
O O1 0.927870 0.784173 0.934743
O O2 0.825753 0.608737 0.495235
O O3 0.164872 0.720159 0.907519
O O4 0.000000 0.000000 0.000000
O O5 0.500000 0.500000 0.500000
O O6 0.175987 0.386344 0.086043
O O7 0.366812 0.770607 0.579788
O O8 0.411270 0.510355 0.218094
O O9 0.043549 0.496044 0.854620
O O10 0.130265 0.853120 0.337842
O O11 0.127904 0.710456 0.645514
O O12 0.446846 0.707514 0.002661
O O13 0.108719 0.886739 0.587841
O O14 0.802078 0.738506 0.327101
O O15 0.346108 0.137811 0.869046
#
# Coordination Sequence:
#
# PCOD8007429 Si02
#       7
#     2   2   2   2   2   2   2
#     4  10  23  45  69  85 123 173 212 266 313 357
#     4  11  22  38  63  95 130 164 201 261 318 374
#     4  10  20  41  63  88 127 166 211 255 313 379
#     4  10  25  44  63  96 124 162 222 259 306 380
#     4  10  20  41  66  90 135 168 194 266 320 365
#     4  11  22  38  61  99 130 162 210 245 317 397
#     4  12  23  38  66  98 129 164 204 259 319 372
#
# _framework density 23.421997999999999
#
# number of rings (size 3 to 8) (size 9 to 14) (size 15 to 20)
#    0.000    1.429    2.857    3.857    2.000    4.571 
#    0.000    7.143    0.000    0.000    0.000    0.000 
#    0.000    0.000    0.000    0.000    0.000    0.000 
#
# Total GULP energy -173489.955002 kJ/mol
# GULP energy per Si atom -12392.139643 kJ/mol
# Density = 2.336869 g / cm^3
# Si number density = 23.421998 Si / 1000 Ang^3
#
#
#
# Elastic Constant Matrix: (Units=GPa)
#
#
# Indices 1 2 3 4 5 6 
#
# 1 72.9040 1.1563 0.8710 -3.0350 13.0129 -12.7593
# 2 1.1563 93.3560 25.3028 5.7804 15.7324 -8.8851
# 3 0.8710 25.3028 38.6949 0.2585 16.4507 -11.7617
# 4 -3.0350 5.7804 0.2585 36.5038 3.4576 14.1677
# 5 13.0129 15.7324 16.4507 3.4576 36.8811 -9.8869
# 6 -12.7593 -8.8851 -11.7617 14.1677 -9.8869 36.7714
#
#
#
# Elastic Compliance Matrix: (Units=1/GPa)
#
#
# Indices 1 2 3 4 5 6 
#
# 1 0.015591 0.000352 0.003440 -0.000224 -0.005791 0.005125
# 2 0.000352 0.013333 -0.007499 -0.002377 -0.001881 0.001355
# 3 0.003440 -0.007499 0.038803 -0.000952 -0.012904 0.008691
# 4 -0.000224 -0.002377 -0.000952 0.034472 -0.005961 -0.015841
# 5 -0.005791 -0.001881 -0.012904 -0.005961 0.037851 0.005883
# 6 0.005125 0.001355 0.008691 -0.015841 0.005883 0.039766
#
#
# Mechanical properties :
#
#
# Convention : Reuss Voigt Hill
#
# Bulk Modulus (GPa) = 16.58008 28.84613 22.71311
# Shear Modulus (GPa) = 24.11566 33.87290 28.99428
#
# Velocity S-wave (km/s) = 3.21224 3.80702 3.52221
# Velocity P-wave (km/s) = 4.56642 5.62735 5.12442
#
# Compressibility (1/GPa) = 0.06031333
#
# Stress axis : x y z
#
# Youngs Moduli (GPa) = 64.13884 75.00255 25.77099
#
# Poissons Ratio (x) = -0.02640 -0.08865
# Poissons Ratio (y) = -0.02258 0.19326
# Poissons Ratio (z) = -0.22064 0.56245
#
# Static dielectric constant tensor:
#      x y z
#    x 4.280820 0.074820 0.388650 
#    y 0.074820 4.166620 -0.576470 
#    z 0.388650 -0.576470 -0.145080 
# 
# 
# High freq. dielectric constant tensor:
#      x y z
#    x 1.922030 -0.007860 -0.003940 
#    y -0.007860 1.931130 0.008890 
#    z -0.003940 0.008890 1.906210 
# 
# From -- ./inp_files/256151.got.cif
#   From: 2010.06.25/outbox.cif.g09.slc.cpg/sg2_129_cif.got.tgz:256151.got - 2010.06.27 13:26:56.
