data_PCOD8007182
_publ_section_title
;
Structure prediction by ZEFSAII (Michael W. Deem and Ramdas Pophale) SiO2 
 PCOD8007182
Probable space group: P -1
;
_chemical_formula_sum "Si O2"
_cell_formula_units_Z 16
_cell_length_a 12.445109
_cell_length_b 14.235174
_cell_length_c 9.054690
_cell_angle_alpha 148.429815
_cell_angle_beta 95.063450
_cell_angle_gamma 97.849667
_cell_volume 764.465419
_symmetry_space_group_name_H-M "P -1"
_symmetry_group_IT_number 2
_symmetry_cell_setting 'triclinic'
loop_
_space_group_symop_operation_xyz
x,y,z
-x,-y,-z
loop_
_atom_site_type_symbol
_atom_site_label
_atom_site_fract_x
_atom_site_fract_y
_atom_site_fract_z
Si Si1 0.400676 0.319713 0.823510
Si Si2 0.604997 0.082901 0.735993
Si Si3 0.793016 0.757473 0.681680
Si Si4 0.850297 0.858211 0.507442
Si Si5 0.453061 0.579077 0.738104
Si Si6 0.022727 0.426530 0.561512
Si Si7 0.097952 0.874044 0.628097
Si Si8 0.841302 0.198810 0.768344
O O1 0.270504 0.324967 0.807521
O O2 0.386132 0.114670 0.463150
O O3 0.500000 0.500000 0.000000
O O4 0.439157 0.330711 0.013001
O O5 0.722303 0.207991 0.826280
O O6 0.500000 0.000000 0.500000
O O7 0.585524 0.237579 0.055464
O O8 0.826396 0.896255 0.726315
O O9 0.655623 0.610516 0.465451
O O10 0.867291 0.627463 0.521462
O O11 0.831227 0.897651 0.016997
O O12 0.967511 0.816164 0.463873
O O13 0.872361 0.038235 0.643444
O O14 0.500000 0.500000 0.500000
O O15 0.000000 0.500000 0.500000
O O16 0.911992 0.249617 0.387701
O O17 0.051571 0.596399 0.912943
O O18 0.173261 0.834169 0.453740
#
# Coordination Sequence:
#
# PCOD8007182 Si02
#       8
#     2   2   2   2   2   2   2   2
#     4  10  20  40  68  91 122 167 210 261 319 377
#     4   9  21  38  62  87 120 164 206 252 321 370
#     4  11  22  40  63  86 130 164 211 255 318 382
#     4  10  21  39  63  89 126 167 210 251 320 381
#     4  11  23  41  65  92 123 164 217 264 317 374
#     4  11  22  41  62  87 128 166 208 253 318 377
#     4  11  24  37  61  98 123 168 209 259 316 375
#     4  11  21  39  63  90 126 158 210 264 312 376
#
# _framework density 20.929658
#
# number of rings (size 3 to 8) (size 9 to 14) (size 15 to 20)
#    0.000    1.500    2.500    3.750    5.250    0.000 
#    0.000    0.625    0.000    0.000    0.000    0.000 
#    0.000    0.000    0.000    0.000    0.000    0.000 
#
# Total GULP energy -198208.778458 kJ/mol
# GULP energy per Si atom -12388.048654 kJ/mol
# Density = 2.088202 g / cm^3
# Si number density = 20.929658 Si / 1000 Ang^3
#
#
#
# Elastic Constant Matrix: (Units=GPa)
#
#
# Indices 1 2 3 4 5 6 
#
# 1 69.7157 21.6837 33.9932 -5.1706 0.9623 1.4466
# 2 21.6837 94.3055 41.3655 -3.8114 -14.9173 -1.7513
# 3 33.9932 41.3655 128.6610 -5.0553 -5.8819 13.2930
# 4 -5.1706 -3.8114 -5.0553 32.3734 8.3817 5.0358
# 5 0.9623 -14.9173 -5.8819 8.3817 35.9851 -9.3171
# 6 1.4466 -1.7513 13.2930 5.0358 -9.3171 26.3831
#
#
#
# Elastic Compliance Matrix: (Units=1/GPa)
#
#
# Indices 1 2 3 4 5 6 
#
# 1 0.017232 -0.002782 -0.003591 0.002816 -0.003104 -0.000954
# 2 -0.002782 0.014332 -0.004280 -0.002361 0.007514 0.006364
# 3 -0.003591 -0.004280 0.010778 0.002209 -0.002167 -0.006704
# 4 0.002816 -0.002361 0.002209 0.036658 -0.012560 -0.012857
# 5 -0.003104 0.007514 -0.002167 -0.012560 0.038120 0.017620
# 6 -0.000954 0.006364 -0.006704 -0.012857 0.017620 0.050432
#
#
# Mechanical properties :
#
#
# Convention : Reuss Voigt Hill
#
# Bulk Modulus (GPa) = 47.53731 54.08523 50.81127
# Shear Modulus (GPa) = 25.52727 31.99098 28.75913
#
# Velocity S-wave (km/s) = 3.49617 3.91384 3.71089
# Velocity P-wave (km/s) = 6.24978 6.80601 6.53382
#
# Compressibility (1/GPa) = 0.02103611
#
# Stress axis : x y z
#
# Youngs Moduli (GPa) = 58.03265 69.77432 92.78568
#
# Poissons Ratio (x) = 0.19410 0.33320
# Poissons Ratio (y) = 0.16143 0.39709
# Poissons Ratio (z) = 0.20840 0.29861
#
# Static dielectric constant tensor:
#      x y z
#    x 4.037820 -0.113550 0.223600 
#    y -0.113550 3.758530 0.085580 
#    z 0.223600 0.085580 4.068000 
# 
# 
# High freq. dielectric constant tensor:
#      x y z
#    x 1.815560 0.001080 0.015580 
#    y 0.001080 1.808000 0.011850 
#    z 0.015580 0.011850 1.824750 
# 
# From -- ./inp_files/192809.got.cif
#   From: 2010.06.25/outbox.cif.g09.slc.cpg/sg2_97_cif.got.tgz:192809.got - 2010.06.27 13:26:56.
