data_PCOD8007624
_publ_section_title
;
Structure prediction by ZEFSAII (Michael W. Deem and Ramdas Pophale) SiO2 
 PCOD8007624
Probable space group: P -1
;
_chemical_formula_sum "Si O2"
_cell_formula_units_Z 16
_cell_length_a 6.314384
_cell_length_b 22.169119
_cell_length_c 7.848417
_cell_angle_alpha 50.762980
_cell_angle_beta 62.192946
_cell_angle_gamma 56.847800
_cell_volume 700.004785
_symmetry_space_group_name_H-M "P -1"
_symmetry_group_IT_number 2
_symmetry_cell_setting 'triclinic'
loop_
_space_group_symop_operation_xyz
x,y,z
-x,-y,-z
loop_
_atom_site_type_symbol
_atom_site_label
_atom_site_fract_x
_atom_site_fract_y
_atom_site_fract_z
Si Si1 0.377677 0.204982 0.802636
Si Si2 0.350685 0.529921 0.328747
Si Si3 0.716669 0.065877 0.163406
Si Si4 0.792300 0.893141 0.516755
Si Si5 0.642734 0.762447 0.633446
Si Si6 0.212087 0.382596 0.666004
Si Si7 0.088796 0.838758 0.840233
Si Si8 0.782249 0.582670 0.999480
O O1 0.439732 0.202260 0.586271
O O2 0.400744 0.287457 0.732198
O O3 0.598215 0.122551 0.942210
O O4 0.089044 0.210389 0.940718
O O5 0.500000 0.500000 0.500000
O O6 0.319719 0.446218 0.412294
O O7 0.515332 0.569477 0.081009
O O8 0.070197 0.601736 0.332765
O O9 0.500935 0.076751 0.367005
O O10 0.933313 0.091780 0.130451
O O11 0.828670 0.966111 0.252157
O O12 0.835137 0.806762 0.554218
O O13 0.987190 0.880703 0.621913
O O14 0.387941 0.778332 0.816276
O O15 0.795366 0.662590 0.749326
O O16 0.184576 0.402419 0.840968
O O17 0.000000 0.500000 0.000000
#
# Coordination Sequence:
#
# PCOD8007624 Si02
#       8
#     2   2   2   2   2   2   2   2
#     4  11  24  40  64  94 130 168 206 258 311 374
#     4   9  21  39  65  88 115 163 203 260 313 371
#     4   9  19  38  65  96 125 167 210 252 314 371
#     4   9  19  39  65  94 128 164 209 260 306 372
#     4  11  25  41  61  95 127 163 214 258 310 377
#     4  10  21  42  63  88 125 163 209 255 317 373
#     4  10  20  41  66  90 126 171 206 256 312 367
#     4  11  24  42  62  93 125 162 210 265 317 373
#
# _framework density 22.856985999999999
#
# number of rings (size 3 to 8) (size 9 to 14) (size 15 to 20)
#    0.000    2.000    0.000    3.375    5.250    4.000 
#    4.500    1.250    0.000    0.000    0.000    0.000 
#    0.000    0.000    0.000    0.000    0.000    0.000 
#
# Total GULP energy -198334.383308 kJ/mol
# GULP energy per Si atom -12395.898957 kJ/mol
# Density = 2.280496 g / cm^3
# Si number density = 22.856986 Si / 1000 Ang^3
#
#
#
# Elastic Constant Matrix: (Units=GPa)
#
#
# Indices 1 2 3 4 5 6 
#
# 1 117.1644 34.3430 40.5544 -14.4137 -1.3965 12.5669
# 2 34.3430 94.8843 49.4061 -31.7428 -10.4551 13.7123
# 3 40.5544 49.4061 116.9271 -36.3312 12.1138 14.8393
# 4 -14.4137 -31.7428 -36.3312 44.6749 4.8315 0.2866
# 5 -1.3965 -10.4551 12.1138 4.8315 24.9258 -1.4199
# 6 12.5669 13.7123 14.8393 0.2866 -1.4199 28.5919
#
#
#
# Elastic Compliance Matrix: (Units=1/GPa)
#
#
# Indices 1 2 3 4 5 6 
#
# 1 0.010238 -0.002057 -0.002636 -0.000391 0.000948 -0.002095
# 2 -0.002057 0.017760 -0.004744 0.007268 0.007956 -0.004829
# 3 -0.002636 -0.004744 0.017026 0.011060 -0.012906 -0.006155
# 4 -0.000391 0.007268 0.011060 0.037583 -0.010200 -0.009937
# 5 0.000948 0.007956 -0.012906 -0.010200 0.052052 0.005153
# 6 -0.002095 -0.004829 -0.006155 -0.009937 0.005153 0.041761
#
#
# Mechanical properties :
#
#
# Convention : Reuss Voigt Hill
#
# Bulk Modulus (GPa) = 38.23993 64.17588 51.20791
# Shear Modulus (GPa) = 24.50867 33.28334 28.89600
#
# Velocity S-wave (km/s) = 3.27809 3.82010 3.55943
# Velocity P-wave (km/s) = 5.57622 6.89896 6.27256
#
# Compressibility (1/GPa) = 0.02615068
#
# Stress axis : x y z
#
# Youngs Moduli (GPa) = 97.67447 56.30765 58.73466
#
# Poissons Ratio (x) = 0.11581 0.15481
# Poissons Ratio (y) = 0.20089 0.27863
# Poissons Ratio (z) = 0.25744 0.26712
#
# Static dielectric constant tensor:
#      x y z
#    x 4.278660 0.238050 -0.385900 
#    y 0.238050 3.984050 -0.427710 
#    z -0.385900 -0.427710 4.370180 
# 
# 
# High freq. dielectric constant tensor:
#      x y z
#    x 1.906530 0.009160 -0.005820 
#    y 0.009160 1.882630 -0.025690 
#    z -0.005820 -0.025690 1.904360 
# 
# From -- ./inp_files/141090.got.cif
#   From: 2010.06.25/outbox.cif.g09.slc.cpg/sg2_71_cif.got.tgz:141090.got - 2010.06.27 13:26:56.
