data_PCOD8007908
_publ_section_title
;
Structure prediction by ZEFSAII (Michael W. Deem and Ramdas Pophale) SiO2 
 PCOD8007908
Probable space group: P -1
;
_chemical_formula_sum "Si O2"
_cell_formula_units_Z 16
_cell_length_a 17.716283
_cell_length_b 11.536252
_cell_length_c 16.727970
_cell_angle_alpha 151.692467
_cell_angle_beta 146.370261
_cell_angle_gamma 26.812058
_cell_volume 713.509108
_symmetry_space_group_name_H-M "P -1"
_symmetry_group_IT_number 2
_symmetry_cell_setting 'triclinic'
loop_
_space_group_symop_operation_xyz
x,y,z
-x,-y,-z
loop_
_atom_site_type_symbol
_atom_site_label
_atom_site_fract_x
_atom_site_fract_y
_atom_site_fract_z
Si Si1 0.291557 0.588970 0.266254
Si Si2 0.728196 0.666965 0.745742
Si Si3 0.106476 0.186055 0.552351
Si Si4 0.491928 0.632285 0.988418
Si Si5 0.315261 0.779788 0.639579
Si Si6 0.129244 0.727660 0.890440
Si Si7 0.973682 0.793327 0.038016
Si Si8 0.799006 0.171990 0.260002
O O1 0.233381 0.519483 0.253217
O O2 0.489852 0.338760 0.269557
O O3 0.180685 0.591924 0.096922
O O4 0.227544 0.937155 0.438108
O O5 0.677521 0.522334 0.547038
O O6 0.899306 0.618534 0.832533
O O7 0.577509 0.019750 0.846013
O O8 0.083998 0.493757 0.699181
O O9 0.912125 0.292289 0.445601
O O10 0.194562 0.047626 0.632345
O O11 0.381453 0.592351 0.803395
O O12 0.500000 0.500000 0.000000
O O13 0.683621 0.447473 0.011461
O O14 0.243150 0.914811 0.745960
O O15 0.115817 0.877769 0.884368
O O16 0.000000 0.000000 0.000000
O O17 0.910081 0.865322 0.118037
#
# Coordination Sequence:
#
# PCOD8007908 Si02
#       8
#     2   2   2   2   2   2   2   2
#     4  10  21  40  69 101 127 169 219 268 325 381
#     4  10  20  41  71  93 131 172 215 266 325 389
#     4  10  23  45  66  95 136 172 212 269 332 378
#     4  11  22  46  65  92 134 173 213 261 331 382
#     4  11  22  41  71 103 128 164 220 274 322 382
#     4  12  26  44  66  92 135 176 222 265 317 393
#     4  10  23  44  62  96 132 178 213 261 332 383
#     4  10  23  41  67  98 129 170 216 265 328 384
#
# _framework density 22.424379999999999
#
# number of rings (size 3 to 8) (size 9 to 14) (size 15 to 20)
#    0.000    1.500    2.500    3.750    3.500    3.000 
#    6.750    4.375    0.000    0.000    0.000    0.000 
#    0.000    0.000    0.000    0.000    0.000    0.000 
#
# Total GULP energy -198305.943943 kJ/mol
# GULP energy per Si atom -12394.121496 kJ/mol
# Density = 2.237334 g / cm^3
# Si number density = 22.424380 Si / 1000 Ang^3
#
#
#
# Elastic Constant Matrix: (Units=GPa)
#
#
# Indices 1 2 3 4 5 6 
#
# 1 75.2787 12.3710 24.8200 -6.9387 2.2026 0.2995
# 2 12.3710 91.8273 50.6100 -21.2580 4.3035 -6.0284
# 3 24.8200 50.6100 85.8311 -17.3611 26.6282 1.3852
# 4 -6.9387 -21.2580 -17.3611 54.8233 -0.6342 3.8941
# 5 2.2026 4.3035 26.6282 -0.6342 30.2454 1.3020
# 6 0.2995 -6.0284 1.3852 3.8941 1.3020 25.6219
#
#
#
# Elastic Compliance Matrix: (Units=1/GPa)
#
#
# Indices 1 2 3 4 5 6 
#
# 1 0.015104 0.001473 -0.006524 0.000452 0.004434 0.000229
# 2 0.001473 0.018896 -0.013957 0.002899 0.009369 0.004267
# 3 -0.006524 -0.013957 0.029777 0.003212 -0.023510 -0.004111
# 4 0.000452 0.002899 0.003212 0.020584 -0.002735 -0.002486
# 5 0.004434 0.009369 -0.023510 -0.002735 0.051997 0.001197
# 6 0.000229 0.004267 -0.004111 -0.002486 0.001197 0.040570
#
#
# Mechanical properties :
#
#
# Convention : Reuss Voigt Hill
#
# Bulk Modulus (GPa) = 38.81912 47.61545 43.21728
# Shear Modulus (GPa) = 22.36840 33.14720 27.75780
#
# Velocity S-wave (km/s) = 3.16175 3.84888 3.52211
# Velocity P-wave (km/s) = 5.53874 6.40560 5.98788
#
# Compressibility (1/GPa) = 0.02576050
#
# Stress axis : x y z
#
# Youngs Moduli (GPa) = 66.20800 52.92134 33.58327
#
# Poissons Ratio (x) = -0.07793 0.21909
# Poissons Ratio (y) = -0.09749 0.46872
# Poissons Ratio (z) = 0.43192 0.73861
#
# Static dielectric constant tensor:
#      x y z
#    x 4.034810 0.116650 0.195130 
#    y 0.116650 3.815530 -0.457470 
#    z 0.195130 -0.457470 4.290410 
# 
# 
# High freq. dielectric constant tensor:
#      x y z
#    x 1.872640 -0.002960 0.013190 
#    y -0.002960 1.887980 -0.018420 
#    z 0.013190 -0.018420 1.884920 
# 
# From -- ./inp_files/389054.got.cif
#   From: 2010.06.25/outbox.cif.g09.slc.cpg/sg2_195_cif.got.tgz:389054.got - 2010.06.27 13:26:56.
