data_PCOD8007920
_publ_section_title
;
Structure prediction by ZEFSAII (Michael W. Deem and Ramdas Pophale) SiO2 
 PCOD8007920
Probable space group: P -1
;
_chemical_formula_sum "Si O2"
_cell_formula_units_Z 14
_cell_length_a 9.261849
_cell_length_b 23.807253
_cell_length_c 8.913478
_cell_angle_alpha 29.776340
_cell_angle_beta 48.655088
_cell_angle_gamma 36.900635
_cell_volume 582.340349
_symmetry_space_group_name_H-M "P -1"
_symmetry_group_IT_number 2
_symmetry_cell_setting 'triclinic'
loop_
_space_group_symop_operation_xyz
x,y,z
-x,-y,-z
loop_
_atom_site_type_symbol
_atom_site_label
_atom_site_fract_x
_atom_site_fract_y
_atom_site_fract_z
Si Si1 0.342865 0.296711 0.382274
Si Si2 0.758158 0.202016 0.820798
Si Si3 0.159960 0.146347 0.291873
Si Si4 0.536655 0.491647 0.174287
Si Si5 0.792012 0.088514 0.753054
Si Si6 0.972288 0.404179 0.632697
Si Si7 0.578286 0.822446 0.712008
O O1 0.553044 0.159314 0.652956
O O2 0.082978 0.392411 0.421240
O O3 0.311741 0.240680 0.379686
O O4 0.409007 0.402108 0.057472
O O5 0.747448 0.331795 0.458403
O O6 0.718322 0.123219 0.898151
O O7 0.541427 0.250597 0.972487
O O8 0.021808 0.084425 0.989690
O O9 0.205339 0.206443 0.268693
O O10 0.918686 0.160352 0.451598
O O11 0.376803 0.990509 0.452137
O O12 0.123587 0.243260 0.955815
O O13 0.306536 0.529295 0.336993
O O14 0.500000 0.500000 0.000000
O O15 0.000000 0.500000 0.500000
#
# Coordination Sequence:
#
# PCOD8007920 Si02
#       7
#     2   2   2   2   2   2   2
#     4  12  25  43  72 108 141 176 237 296 337 411
#     4  10  21  41  68  97 137 187 228 280 348 416
#     4  10  21  43  68  95 138 191 229 281 353 418
#     4  12  22  44  72 103 137 187 233 282 347 423
#     4  10  20  41  72 102 129 186 239 283 340 415
#     4  12  23  41  74 100 139 190 233 275 353 421
#     4  10  24  43  66 101 143 179 235 293 345 407
#
# _framework density 24.040925000000001
#
# number of rings (size 3 to 8) (size 9 to 14) (size 15 to 20)
#    0.000    1.143    4.286    1.714    0.000    4.571 
#    2.571    2.857    0.000    0.000    0.000    0.000 
#    0.000    0.000    0.000    0.000    0.000    0.000 
#
# Total GULP energy -173608.996903 kJ/mol
# GULP energy per Si atom -12400.642636 kJ/mol
# Density = 2.398621 g / cm^3
# Si number density = 24.040925 Si / 1000 Ang^3
#
#
#
# Elastic Constant Matrix: (Units=GPa)
#
#
# Indices 1 2 3 4 5 6 
#
# 1 55.4737 39.8193 14.4472 -1.8145 -4.9505 12.3728
# 2 39.8193 134.3608 30.0725 24.8830 -3.4592 12.1635
# 3 14.4472 30.0725 129.7097 -17.9545 5.1825 -5.2436
# 4 -1.8145 24.8830 -17.9545 32.5257 -1.0872 0.8402
# 5 -4.9505 -3.4592 5.1825 -1.0872 18.0547 2.4863
# 6 12.3728 12.1635 -5.2436 0.8402 2.4863 41.1633
#
#
#
# Elastic Compliance Matrix: (Units=1/GPa)
#
#
# Indices 1 2 3 4 5 6 
#
# 1 0.026532 -0.008577 -0.000354 0.008240 0.007067 -0.006081
# 2 -0.008577 0.013469 -0.004063 -0.012954 0.000850 -0.001707
# 3 -0.000354 -0.004063 0.010117 0.008484 -0.003633 0.002642
# 4 0.008240 -0.012954 0.008484 0.045755 -0.000110 0.001504
# 5 0.007067 0.000850 -0.003633 -0.000110 0.059409 -0.006424
# 6 -0.006081 -0.001707 0.002642 0.001504 -0.006424 0.027319
#
#
# Mechanical properties :
#
#
# Convention : Reuss Voigt Hill
#
# Bulk Modulus (GPa) = 41.44400 54.24690 47.84545
# Shear Modulus (GPa) = 23.08028 34.02907 28.55468
#
# Velocity S-wave (km/s) = 3.10181 3.76635 3.45012
# Velocity P-wave (km/s) = 5.48678 6.44416 5.98464
#
# Compressibility (1/GPa) = 0.02412894
#
# Stress axis : x y z
#
# Youngs Moduli (GPa) = 37.69025 74.24204 98.83966
#
# Poissons Ratio (x) = 0.63680 0.03500
# Poissons Ratio (y) = 0.32328 0.40163
# Poissons Ratio (z) = 0.01335 0.30168
#
# Static dielectric constant tensor:
#      x y z
#    x 4.156540 0.001860 -0.111280 
#    y 0.001860 4.615070 -0.141530 
#    z -0.111280 -0.141530 4.664520 
# 
# 
# High freq. dielectric constant tensor:
#      x y z
#    x 1.915620 -0.014180 0.001670 
#    y -0.014180 1.961220 -0.000820 
#    z 0.001670 -0.000820 1.973070 
# 
# From -- ./inp_files/225788.got.cif
#   From: 2010.06.25/outbox.cif.g09.slc.cpg/sg2_113_cif.got.tgz:225788.got - 2010.06.27 13:26:56.
