data_PCOD8007358
_publ_section_title
;
Structure prediction by ZEFSAII (Michael W. Deem and Ramdas Pophale) SiO2 
 PCOD8007358
Probable space group: P -1
;
_chemical_formula_sum "Si O2"
_cell_formula_units_Z 14
_cell_length_a 9.315598
_cell_length_b 15.399864
_cell_length_c 16.664333
_cell_angle_alpha 24.540557
_cell_angle_beta 107.388495
_cell_angle_gamma 90.906510
_cell_volume 723.327358
_symmetry_space_group_name_H-M "P -1"
_symmetry_group_IT_number 2
_symmetry_cell_setting 'triclinic'
loop_
_space_group_symop_operation_xyz
x,y,z
-x,-y,-z
loop_
_atom_site_type_symbol
_atom_site_label
_atom_site_fract_x
_atom_site_fract_y
_atom_site_fract_z
Si Si1 0.896053 0.096218 0.051682
Si Si2 0.938966 0.459584 0.940043
Si Si3 0.355301 0.604829 0.092724
Si Si4 0.098791 0.196324 0.498641
Si Si5 0.181416 0.859718 0.435262
Si Si6 0.977456 0.417174 0.696170
Si Si7 0.269607 0.177046 0.817986
O O1 0.731587 0.341807 0.876923
O O2 0.800598 0.984703 0.087654
O O3 0.090108 0.862925 0.332524
O O4 0.964088 0.195319 0.912344
O O5 0.743232 0.494679 0.891116
O O6 0.117787 0.157831 0.188547
O O7 0.000000 0.500000 0.000000
O O8 0.888899 0.694483 0.674518
O O9 0.297147 0.881402 0.811830
O O10 0.586753 0.369542 0.331799
O O11 0.912415 0.204851 0.457438
O O12 0.076504 0.374566 0.418465
O O13 0.195390 0.269528 0.820047
O O14 0.825495 0.563325 0.473654
O O15 0.500000 0.000000 0.000000
#
# Coordination Sequence:
#
# PCOD8007358 Si02
#       7
#     2   2   2   2   2   2   2
#     4  10  21  41  58  87 122 158 202 251 298 349
#     4  10  22  43  64  91 124 155 198 249 301 358
#     4  10  22  37  63  93 120 156 206 242 297 364
#     4  10  20  41  61  89 120 164 195 246 305 355
#     4  10  22  38  63  91 119 159 199 250 295 360
#     4  11  21  40  60  84 122 159 202 246 304 348
#     4  11  25  37  58  91 120 157 204 255 295 348
#
# _framework density 19.354997999999998
#
# number of rings (size 3 to 8) (size 9 to 14) (size 15 to 20)
#    0.000    2.000    5.714    0.429    2.000    5.714 
#    0.000    1.429    0.000    0.000    0.000    0.000 
#    0.000    0.000    0.000    0.000    0.000    0.000 
#
# Total GULP energy -173550.164137 kJ/mol
# GULP energy per Si atom -12396.440295 kJ/mol
# Density = 1.931094 g / cm^3
# Si number density = 19.354998 Si / 1000 Ang^3
#
#
#
# Elastic Constant Matrix: (Units=GPa)
#
#
# Indices 1 2 3 4 5 6 
#
# 1 117.7554 40.7245 95.0873 3.7144 8.3007 1.2502
# 2 40.7245 75.2956 41.2217 14.3621 -3.8872 4.2984
# 3 95.0873 41.2217 135.8817 -0.1854 14.6551 -12.0025
# 4 3.7144 14.3621 -0.1854 19.7596 -10.1616 -2.7273
# 5 8.3007 -3.8872 14.6551 -10.1616 52.6454 0.1992
# 6 1.2502 4.2984 -12.0025 -2.7273 0.1992 26.4604
#
#
#
# Elastic Compliance Matrix: (Units=1/GPa)
#
#
# Indices 1 2 3 4 5 6 
#
# 1 0.021834 -0.002272 -0.015296 -0.003719 -0.000040 -0.007984
# 2 -0.002272 0.020941 -0.005485 -0.015640 0.000441 -0.007398
# 3 -0.015296 -0.005485 0.021059 0.007442 -0.002464 0.011952
# 4 -0.003719 -0.015640 0.007442 0.070153 0.010851 0.013241
# 5 -0.000040 0.000441 -0.002464 0.010851 0.021815 -0.000233
# 6 -0.007984 -0.007398 0.011952 0.013241 -0.000233 0.046159
#
#
# Mechanical properties :
#
#
# Convention : Reuss Voigt Hill
#
# Bulk Modulus (GPa) = 56.40874 75.88887 66.14880
# Shear Modulus (GPa) = 19.68690 29.89970 24.79330
#
# Velocity S-wave (km/s) = 3.19274 3.93466 3.58296
# Velocity P-wave (km/s) = 6.54209 7.74184 7.16712
#
# Compressibility (1/GPa) = 0.01772775
#
# Stress axis : x y z
#
# Youngs Moduli (GPa) = 45.79950 47.75307 47.48653
#
# Poissons Ratio (x) = 0.10851 0.72635
# Poissons Ratio (y) = 0.10407 0.26046
# Poissons Ratio (z) = 0.70054 0.26192
#
# Static dielectric constant tensor:
#      x y z
#    x 3.745130 0.016860 -0.281070 
#    y 0.016860 3.518390 0.006750 
#    z -0.281070 0.006750 3.626380 
# 
# 
# High freq. dielectric constant tensor:
#      x y z
#    x 1.755270 0.005160 -0.016610 
#    y 0.005160 1.744960 -0.003370 
#    z -0.016610 -0.003370 1.751530 
# 
# From -- ./inp_files/289335.got.cif
#   From: 2010.06.25/outbox.cif.g09.slc.cpg/sg2_145_cif.got.tgz:289335.got - 2010.06.27 13:26:56.
