data_PCOD8007803
_publ_section_title
;
Structure prediction by ZEFSAII (Michael W. Deem and Ramdas Pophale) SiO2 
 PCOD8007803
Probable space group: P -1
;
_chemical_formula_sum "Si O2"
_cell_formula_units_Z 14
_cell_length_a 22.182950
_cell_length_b 11.604957
_cell_length_c 15.125713
_cell_angle_alpha 27.171433
_cell_angle_beta 159.599918
_cell_angle_gamma 154.560708
_cell_volume 558.189249
_symmetry_space_group_name_H-M "P -1"
_symmetry_group_IT_number 2
_symmetry_cell_setting 'triclinic'
loop_
_space_group_symop_operation_xyz
x,y,z
-x,-y,-z
loop_
_atom_site_type_symbol
_atom_site_label
_atom_site_fract_x
_atom_site_fract_y
_atom_site_fract_z
Si Si1 0.948394 0.122150 0.228724
Si Si2 0.789927 0.830742 0.866182
Si Si3 0.330816 0.720969 0.585651
Si Si4 0.310822 0.126105 0.803271
Si Si5 0.665155 0.444719 0.809382
Si Si6 0.963139 0.323566 0.933087
Si Si7 0.345410 0.356121 0.006404
O O1 0.944170 0.405739 0.062015
O O2 0.788545 0.880988 0.232574
O O3 0.160138 0.130957 0.519752
O O4 0.882687 0.067228 0.071224
O O5 0.681126 0.522325 0.883401
O O6 0.662714 0.997367 0.554115
O O7 0.805421 0.838053 0.991792
O O8 0.000000 0.000000 0.000000
O O9 0.186704 0.629377 0.367267
O O10 0.255654 0.485245 0.720883
O O11 0.541139 0.792287 0.788575
O O12 0.361375 0.869315 0.025730
O O13 0.506862 0.403735 0.888893
O O14 0.500000 0.500000 0.500000
O O15 0.863276 0.680100 0.881705
#
# Coordination Sequence:
#
# PCOD8007803 Si02
#       7
#     2   2   2   2   2   2   2
#     4   9  20  37  70 101 134 178 230 302 359 407
#     4  12  27  49  69 105 148 197 235 288 369 438
#     4  11  24  48  70 107 138 190 243 296 357 423
#     4  10  21  43  67 108 138 178 243 302 352 424
#     4  11  25  44  68 102 144 187 241 285 360 443
#     4  10  20  41  68  99 140 181 232 292 355 423
#     4  11  26  45  77 104 140 188 250 304 347 426
#
# _framework density 25.081099999999999
#
# number of rings (size 3 to 8) (size 9 to 14) (size 15 to 20)
#    0.000    1.429    2.857    1.286    2.000    5.714 
#    2.571    0.000    0.000    0.000    0.000    0.000 
#    0.000    0.000    0.000    0.000    0.000    0.000 
#
# Total GULP energy -173553.938658 kJ/mol
# GULP energy per Si atom -12396.709904 kJ/mol
# Density = 2.502401 g / cm^3
# Si number density = 25.081100 Si / 1000 Ang^3
#
#
#
# Elastic Constant Matrix: (Units=GPa)
#
#
# Indices 1 2 3 4 5 6 
#
# 1 158.1184 36.0130 76.1948 -3.4694 -20.3264 4.7090
# 2 36.0130 50.1962 27.0544 -9.0803 6.5196 9.2170
# 3 76.1948 27.0544 147.2794 -10.5357 -13.5124 0.3135
# 4 -3.4694 -9.0803 -10.5357 39.3498 -9.2842 -0.0960
# 5 -20.3264 6.5196 -13.5124 -9.2842 46.9146 -7.6288
# 6 4.7090 9.2170 0.3135 -0.0960 -7.6288 51.6796
#
#
#
# Elastic Compliance Matrix: (Units=1/GPa)
#
#
# Indices 1 2 3 4 5 6 
#
# 1 0.009956 -0.005896 -0.003732 -0.000517 0.004081 0.000768
# 2 -0.005896 0.028136 -0.002532 0.003536 -0.007397 -0.005551
# 3 -0.003732 -0.002532 0.009525 0.002128 0.002069 0.001043
# 4 -0.000517 0.003536 0.002128 0.028049 0.005491 0.000266
# 5 0.004081 -0.007397 0.002069 0.005491 0.026586 0.004870
# 6 0.000768 -0.005551 0.001043 0.000266 0.004870 0.020983
#
#
# Mechanical properties :
#
#
# Convention : Reuss Voigt Hill
#
# Bulk Modulus (GPa) = 42.92264 70.45759 56.69011
# Shear Modulus (GPa) = 32.19125 42.01093 37.10109
#
# Velocity S-wave (km/s) = 3.58646 4.09712 3.85027
# Velocity P-wave (km/s) = 5.85671 7.10878 6.51290
#
# Compressibility (1/GPa) = 0.02329773
#
# Stress axis : x y z
#
# Youngs Moduli (GPa) = 100.44253 35.54131 104.98212
#
# Poissons Ratio (x) = 0.20956 0.39178
# Poissons Ratio (y) = 0.59222 0.26581
# Poissons Ratio (z) = 0.37484 0.08999
#
# Static dielectric constant tensor:
#      x y z
#    x 5.407000 -0.155340 -0.330430 
#    y -0.155340 4.820860 -0.038450 
#    z -0.330430 -0.038450 4.649250 
# 
# 
# High freq. dielectric constant tensor:
#      x y z
#    x 2.019560 -0.021800 -0.008470 
#    y -0.021800 2.021560 0.000300 
#    z -0.008470 0.000300 1.991960 
# 
# From -- ./inp_files/541076.got.cif
#   From: 2010.06.25/outbox.cif.g09.slc.cpg/sg2_271_cif.got.tgz:541076.got - 2010.06.27 13:26:56.
