data_PCOD8007865
_publ_section_title
;
Structure prediction by ZEFSAII (Michael W. Deem and Ramdas Pophale) SiO2 
 PCOD8007865
Probable space group: P -1
;
_chemical_formula_sum "Si O2"
_cell_formula_units_Z 14
_cell_length_a 20.266851
_cell_length_b 14.356031
_cell_length_c 11.430356
_cell_angle_alpha 42.320374
_cell_angle_beta 33.184857
_cell_angle_gamma 19.813746
_cell_volume 596.027628
_symmetry_space_group_name_H-M "P -1"
_symmetry_group_IT_number 2
_symmetry_cell_setting 'triclinic'
loop_
_space_group_symop_operation_xyz
x,y,z
-x,-y,-z
loop_
_atom_site_type_symbol
_atom_site_label
_atom_site_fract_x
_atom_site_fract_y
_atom_site_fract_z
Si Si1 0.319681 0.322753 0.847893
Si Si2 0.246674 0.846421 0.284521
Si Si3 0.734682 0.922500 0.783853
Si Si4 0.230392 0.743049 0.980513
Si Si5 0.308886 0.075464 0.528699
Si Si6 0.886999 0.443752 0.643822
Si Si7 0.184429 0.024976 0.969057
O O1 0.463126 0.201882 0.869579
O O2 0.479130 0.205050 0.606092
O O3 0.240732 0.241444 0.023662
O O4 0.090555 0.654185 0.886476
O O5 0.209206 0.996057 0.302696
O O6 0.497531 0.502663 0.254775
O O7 0.000000 0.000000 0.500000
O O8 0.311897 0.863018 0.052996
O O9 0.930438 0.709404 0.589681
O O10 0.241191 0.574012 0.162244
O O11 0.183755 0.883154 0.031504
O O12 0.000000 0.000000 0.000000
O O13 0.326506 0.224485 0.354744
O O14 0.329799 0.996777 0.703756
O O15 0.036666 0.302091 0.675975
#
# Coordination Sequence:
#
# PCOD8007865 Si02
#       7
#     2   2   2   2   2   2   2
#     4  10  22  42  75 106 139 186 252 309 352 422
#     4  12  29  47  69 105 158 198 232 299 382 448
#     4  10  21  43  71 105 142 192 247 299 358 434
#     4  12  25  46  75 102 139 195 259 297 351 435
#     4  10  21  40  71 106 141 180 241 308 361 423
#     4  10  20  41  70 103 138 183 247 306 351 416
#     4  12  25  44  69 105 147 187 236 300 375 440
#
# _framework density 23.488845000000001
#
# number of rings (size 3 to 8) (size 9 to 14) (size 15 to 20)
#    0.000    1.143    2.857    3.000    4.000    0.571 
#    0.000    5.000    0.000    0.000    0.000    0.000 
#    0.000    0.000    0.000    0.000    0.000    0.000 
#
# Total GULP energy -173574.694756 kJ/mol
# GULP energy per Si atom -12398.192483 kJ/mol
# Density = 2.343538 g / cm^3
# Si number density = 23.488845 Si / 1000 Ang^3
#
#
#
# Elastic Constant Matrix: (Units=GPa)
#
#
# Indices 1 2 3 4 5 6 
#
# 1 75.6699 41.7836 18.5716 1.8921 -2.9009 17.5530
# 2 41.7836 113.3229 43.1559 11.2472 -16.0064 20.8464
# 3 18.5716 43.1559 100.0646 -1.5312 -6.1548 0.5659
# 4 1.8921 11.2472 -1.5312 40.0481 0.0255 -1.2669
# 5 -2.9009 -16.0064 -6.1548 0.0255 40.9922 -8.5394
# 6 17.5530 20.8464 0.5659 -1.2669 -8.5394 40.3133
#
#
#
# Elastic Compliance Matrix: (Units=1/GPa)
#
#
# Indices 1 2 3 4 5 6 
#
# 1 0.017623 -0.005510 -0.000989 0.000512 -0.002146 -0.005249
# 2 -0.005510 0.014510 -0.005052 -0.004149 0.003603 -0.004401
# 3 -0.000989 -0.005052 0.012398 0.002035 0.000448 0.003028
# 4 0.000512 -0.004149 0.002035 0.026270 -0.000762 0.002558
# 5 -0.002146 0.003603 0.000448 -0.000762 0.026696 0.004696
# 6 -0.005249 -0.004401 0.003028 0.002558 0.004696 0.030399
#
#
# Mechanical properties :
#
#
# Convention : Reuss Voigt Hill
#
# Bulk Modulus (GPa) = 46.66655 55.11998 50.89326
# Shear Modulus (GPa) = 31.61736 36.64048 34.12892
#
# Velocity S-wave (km/s) = 3.67285 3.95385 3.81594
# Velocity P-wave (km/s) = 6.15606 6.66043 6.41321
#
# Compressibility (1/GPa) = 0.02142862
#
# Stress axis : x y z
#
# Youngs Moduli (GPa) = 56.74475 68.91751 80.66030
#
# Poissons Ratio (x) = 0.37970 0.07978
# Poissons Ratio (y) = 0.31264 0.40752
# Poissons Ratio (z) = 0.05612 0.34820
#
# Static dielectric constant tensor:
#      x y z
#    x 4.377250 0.083920 -0.066860 
#    y 0.083920 4.418460 -0.001130 
#    z -0.066860 -0.001130 4.258370 
# 
# 
# High freq. dielectric constant tensor:
#      x y z
#    x 1.922760 0.018210 0.004820 
#    y 0.018210 1.939580 0.003500 
#    z 0.004820 0.003500 1.930650 
# 
# From -- ./inp_files/188603.got.cif
#   From: 2010.06.25/outbox.cif.g09.slc.cpg/sg2_95_cif.got.tgz:188603.got - 2010.06.27 13:26:56.
