data_PCOD8007839
_publ_section_title
;
Structure prediction by ZEFSAII (Michael W. Deem and Ramdas Pophale) SiO2 
 PCOD8007839
Probable space group: P -1
;
_chemical_formula_sum "Si O2"
_cell_formula_units_Z 16
_cell_length_a 15.430442
_cell_length_b 11.104773
_cell_length_c 9.218695
_cell_angle_alpha 138.766730
_cell_angle_beta 132.344464
_cell_angle_gamma 50.070254
_cell_volume 739.276240
_symmetry_space_group_name_H-M "P -1"
_symmetry_group_IT_number 2
_symmetry_cell_setting 'triclinic'
loop_
_space_group_symop_operation_xyz
x,y,z
-x,-y,-z
loop_
_atom_site_type_symbol
_atom_site_label
_atom_site_fract_x
_atom_site_fract_y
_atom_site_fract_z
Si Si1 0.458057 0.438600 0.549242
Si Si2 0.987394 0.027382 0.341629
Si Si3 0.094798 0.277994 0.522330
Si Si4 0.658389 0.881651 0.464046
Si Si5 0.053083 0.693510 0.897998
Si Si6 0.717508 0.240579 0.190252
Si Si7 0.407299 0.072211 0.247991
Si Si8 0.685241 0.291352 0.873822
O O1 0.500000 0.500000 0.500000
O O2 0.339681 0.604455 0.612592
O O3 0.418483 0.242006 0.308076
O O4 0.565939 0.414195 0.766460
O O5 0.863110 0.187783 0.309028
O O6 0.096840 0.114962 0.494754
O O7 0.000000 0.000000 0.500000
O O8 0.995857 0.827912 0.090438
O O9 0.230799 0.281047 0.627501
O O10 0.032425 0.485052 0.708152
O O11 0.018950 0.222690 0.253253
O O12 0.631928 0.828445 0.549932
O O13 0.536220 0.909114 0.257382
O O14 0.703146 0.068999 0.676843
O O15 0.196373 0.667937 0.023869
O O16 0.669078 0.335691 0.067127
O O17 0.686064 0.041933 0.013579
#
# Coordination Sequence:
#
# PCOD8007839 Si02
#       8
#     2   2   2   2   2   2   2   2
#     4  11  26  41  64  99 135 170 209 269 338 399
#     4  12  27  45  65  96 142 179 218 270 335 398
#     4  11  23  40  69 101 126 174 226 280 325 386
#     4   9  18  36  67  95 128 162 216 277 324 373
#     4  11  23  40  68  98 127 173 228 275 320 387
#     4  11  24  43  68  92 127 177 219 271 325 385
#     4   9  21  39  61  97 128 165 214 269 322 391
#     4  10  20  41  69  93 130 165 224 272 319 390
#
# _framework density 21.642789
#
# number of rings (size 3 to 8) (size 9 to 14) (size 15 to 20)
#    0.000    1.500    2.500    3.000    5.250    2.000 
#    2.250    0.000    0.000    0.000    0.000    0.000 
#    0.000    0.000    0.000    0.000    0.000    0.000 
#
# Total GULP energy -198412.831708 kJ/mol
# GULP energy per Si atom -12400.801982 kJ/mol
# Density = 2.159353 g / cm^3
# Si number density = 21.642789 Si / 1000 Ang^3
#
#
#
# Elastic Constant Matrix: (Units=GPa)
#
#
# Indices 1 2 3 4 5 6 
#
# 1 100.5825 47.3247 33.2904 -2.0761 -8.8430 -1.9248
# 2 47.3247 83.6355 29.4336 5.6481 -14.7822 0.0327
# 3 33.2904 29.4336 67.2273 5.1834 -17.0863 3.7266
# 4 -2.0761 5.6481 5.1834 25.5224 -7.5816 -1.0770
# 5 -8.8430 -14.7822 -17.0863 -7.5816 34.6684 0.2026
# 6 -1.9248 0.0327 3.7266 -1.0770 0.2026 48.0132
#
#
#
# Elastic Compliance Matrix: (Units=1/GPa)
#
#
# Indices 1 2 3 4 5 6 
#
# 1 0.014910 -0.007134 -0.004805 0.003564 -0.000834 0.001059
# 2 -0.007134 0.017946 -0.003171 -0.002829 0.003652 -0.000131
# 3 -0.004805 -0.003171 0.020730 -0.001824 0.007251 -0.001871
# 4 0.003564 -0.002829 -0.001824 0.042952 0.008190 0.001215
# 5 -0.000834 0.003652 0.007251 0.008190 0.035557 -0.000565
# 6 0.001059 -0.000131 -0.001871 0.001215 -0.000565 0.021045
#
#
# Mechanical properties :
#
#
# Convention : Reuss Voigt Hill
#
# Bulk Modulus (GPa) = 42.79864 52.39365 47.59615
# Shear Modulus (GPa) = 26.15779 31.06725 28.61252
#
# Velocity S-wave (km/s) = 3.48029 3.79285 3.63992
# Velocity P-wave (km/s) = 5.99732 6.59104 6.30118
#
# Compressibility (1/GPa) = 0.02336523
#
# Stress axis : x y z
#
# Youngs Moduli (GPa) = 67.07103 55.72351 48.23932
#
# Poissons Ratio (x) = 0.39753 0.23180
# Poissons Ratio (y) = 0.47848 0.15297
# Poissons Ratio (z) = 0.32228 0.17670
#
# Static dielectric constant tensor:
#      x y z
#    x 3.929860 -0.115010 0.145100 
#    y -0.115010 3.810490 0.049370 
#    z 0.145100 0.049370 3.713530 
# 
# 
# High freq. dielectric constant tensor:
#      x y z
#    x 1.856820 -0.010410 0.016140 
#    y -0.010410 1.842620 0.016000 
#    z 0.016140 0.016000 1.832050 
# 
# From -- ./inp_files/271009.got.cif
#   From: 2010.06.25/outbox.cif.g09.slc.cpg/sg2_136_cif.got.tgz:271009.got - 2010.06.27 13:26:56.
