data_PCOD8007889
_publ_section_title
;
Structure prediction by ZEFSAII (Michael W. Deem and Ramdas Pophale) SiO2 
 PCOD8007889
Probable space group: P -1
;
_chemical_formula_sum "Si O2"
_cell_formula_units_Z 14
_cell_length_a 10.787044
_cell_length_b 7.509037
_cell_length_c 11.610277
_cell_angle_alpha 125.270106
_cell_angle_beta 48.245680
_cell_angle_gamma 108.009696
_cell_volume 568.389908
_symmetry_space_group_name_H-M "P -1"
_symmetry_group_IT_number 2
_symmetry_cell_setting 'triclinic'
loop_
_space_group_symop_operation_xyz
x,y,z
-x,-y,-z
loop_
_atom_site_type_symbol
_atom_site_label
_atom_site_fract_x
_atom_site_fract_y
_atom_site_fract_z
Si Si1 0.693563 0.966241 0.881026
Si Si2 0.606863 0.645820 0.198281
Si Si3 0.741161 0.992615 0.109161
Si Si4 0.105950 0.293543 0.800620
Si Si5 0.763341 0.456900 0.641608
Si Si6 0.851826 0.298634 0.778168
Si Si7 0.077362 0.824615 0.753472
O O1 0.764643 0.712607 0.757752
O O2 0.800948 0.056174 0.746581
O O3 0.706502 0.093686 0.042464
O O4 0.500000 0.000000 0.000000
O O5 0.597881 0.862653 0.203434
O O6 0.697569 0.690876 0.282684
O O7 0.416664 0.599356 0.312766
O O8 0.710286 0.448422 0.992822
O O9 0.773617 0.188349 0.249299
O O10 0.907671 0.808357 0.925196
O O11 0.043955 0.309576 0.709882
O O12 0.059164 0.061369 0.789698
O O13 0.000000 0.500000 0.000000
O O14 0.830412 0.331853 0.668531
O O15 0.893311 0.374768 0.429223
#
# Coordination Sequence:
#
# PCOD8007889 Si02
#       7
#     2   2   2   2   2   2   2
#     4  12  23  41  72  98 139 182 225 276 347 410
#     4  10  20  41  70  98 132 179 227 275 337 405
#     4  10  21  43  69  93 131 188 224 266 343 416
#     4   9  20  38  64  95 131 178 226 268 328 410
#     4  12  25  42  70 107 139 171 228 291 340 394
#     4  11  21  41  67 101 133 180 228 275 337 410
#     4  10  23  43  68  99 138 180 226 283 337 402
#
# _framework density 24.630980000000001
#
# number of rings (size 3 to 8) (size 9 to 14) (size 15 to 20)
#    0.000    1.429    4.286    1.286    0.000    3.429 
#    0.000    5.000    0.000    0.000    0.000    0.000 
#    0.000    0.000    0.000    0.000    0.000    0.000 
#
# Total GULP energy -173434.140545 kJ/mol
# GULP energy per Si atom -12388.152896 kJ/mol
# Density = 2.457492 g / cm^3
# Si number density = 24.630980 Si / 1000 Ang^3
#
#
#
# Elastic Constant Matrix: (Units=GPa)
#
#
# Indices 1 2 3 4 5 6 
#
# 1 161.8793 26.4107 27.8029 -8.6731 25.9105 -10.9130
# 2 26.4107 73.1491 5.2007 -1.0070 12.2006 -9.0629
# 3 27.8029 5.2007 68.9466 1.9503 26.3727 -11.3906
# 4 -8.6731 -1.0070 1.9503 22.5817 4.1739 -3.0888
# 5 25.9105 12.2006 26.3727 4.1739 33.6182 -9.6906
# 6 -10.9130 -9.0629 -11.3906 -3.0888 -9.6906 30.5906
#
#
#
# Elastic Compliance Matrix: (Units=1/GPa)
#
#
# Indices 1 2 3 4 5 6 
#
# 1 0.007667 -0.001773 -0.001186 0.003918 -0.004620 0.000700
# 2 -0.001773 0.015417 0.001955 0.001198 -0.004988 0.003204
# 3 -0.001186 0.001955 0.021368 0.001143 -0.015768 0.003233
# 4 0.003918 0.001198 0.001143 0.047994 -0.009118 0.004136
# 5 -0.004620 -0.004988 -0.015768 -0.009118 0.050358 0.006035
# 6 0.000700 0.003204 0.003233 0.004136 0.006035 0.037422
#
#
# Mechanical properties :
#
#
# Convention : Reuss Voigt Hill
#
# Bulk Modulus (GPa) = 23.55959 46.97818 35.26888
# Shear Modulus (GPa) = 25.46070 33.66217 29.56143
#
# Velocity S-wave (km/s) = 3.21859 3.70085 3.46811
# Velocity P-wave (km/s) = 4.83717 6.11358 5.51244
#
# Compressibility (1/GPa) = 0.04244557
#
# Stress axis : x y z
#
# Youngs Moduli (GPa) = 130.43039 64.86314 46.79896
#
# Poissons Ratio (x) = 0.11497 0.05550
# Poissons Ratio (y) = 0.23120 -0.09150
# Poissons Ratio (z) = 0.15468 -0.12682
#
# Static dielectric constant tensor:
#      x y z
#    x 5.083160 0.275380 0.492830 
#    y 0.275380 4.680300 0.345240 
#    z 0.492830 0.345240 4.390650 
# 
# 
# High freq. dielectric constant tensor:
#      x y z
#    x 2.007180 0.009070 0.016650 
#    y 0.009070 1.981180 0.008360 
#    z 0.016650 0.008360 1.934960 
# 
# From -- ./inp_files/419889.got.cif
#   From: 2010.06.25/outbox.cif.g09.slc.cpg/sg2_210_cif.got.tgz:419889.got - 2010.06.27 13:26:56.
