data_PCOD8007132
_publ_section_title
;
Structure prediction by ZEFSAII (Michael W. Deem and Ramdas Pophale) SiO2 
 PCOD8007132
Probable space group: P -1
;
_chemical_formula_sum "Si O2"
_cell_formula_units_Z 16
_cell_length_a 15.112404
_cell_length_b 9.150043
_cell_length_c 9.153768
_cell_angle_alpha 105.158696
_cell_angle_beta 101.501241
_cell_angle_gamma 133.706215
_cell_volume 740.653016
_symmetry_space_group_name_H-M "P -1"
_symmetry_group_IT_number 2
_symmetry_cell_setting 'triclinic'
loop_
_space_group_symop_operation_xyz
x,y,z
-x,-y,-z
loop_
_atom_site_type_symbol
_atom_site_label
_atom_site_fract_x
_atom_site_fract_y
_atom_site_fract_z
Si Si1 0.828965 0.767314 0.060489
Si Si2 0.396343 0.458094 0.561793
Si Si3 0.137915 0.052476 0.194235
Si Si4 0.853959 0.269780 0.806503
Si Si5 0.839832 0.279777 0.457739
Si Si6 0.349609 0.725763 0.238364
Si Si7 0.654056 0.741362 0.195747
Si Si8 0.634533 0.261115 0.426184
O O1 0.785692 0.811941 0.195677
O O2 0.848626 0.899621 0.960558
O O3 0.699908 0.476250 0.932444
O O4 0.977166 0.868469 0.157380
O O5 0.500000 0.500000 0.500000
O O6 0.243340 0.293545 0.389049
O O7 0.379111 0.338177 0.668875
O O8 0.437358 0.688778 0.669172
O O9 0.195784 0.959826 0.216610
O O10 0.866068 0.287997 0.640499
O O11 0.734449 0.230315 0.811741
O O12 0.000000 0.500000 0.000000
O O13 0.771716 0.357088 0.421727
O O14 0.000000 0.500000 0.500000
O O15 0.726249 0.004893 0.281471
O O16 0.321093 0.630029 0.367623
O O17 0.518384 0.972339 0.325893
O O18 0.500000 0.500000 0.000000
#
# Coordination Sequence:
#
# PCOD8007132 Si02
#       8
#     2   2   2   2   2   2   2   2
#     4  11  24  40  68  98 138 176 224 282 344 403
#     4  12  25  45  70 100 132 180 235 282 338 410
#     4  11  23  41  67 100 133 179 232 276 334 413
#     4  11  22  41  68 101 132 174 230 280 335 406
#     4  11  27  46  69 100 142 183 222 281 352 406
#     4  10  20  40  67  95 129 172 220 282 332 394
#     4  12  28  47  68 100 143 182 230 285 347 409
#     4  10  23  41  69  94 129 172 229 275 336 400
#
# _framework density 21.602557999999998
#
# number of rings (size 3 to 8) (size 9 to 14) (size 15 to 20)
#    0.000    1.000    3.750    2.250    7.000    1.500 
#    0.000    1.250    0.000    0.000    0.000    0.000 
#    0.000    0.000    0.000    0.000    0.000    0.000 
#
# Total GULP energy -198274.598138 kJ/mol
# GULP energy per Si atom -12392.162384 kJ/mol
# Density = 2.155339 g / cm^3
# Si number density = 21.602558 Si / 1000 Ang^3
#
#
#
# Elastic Constant Matrix: (Units=GPa)
#
#
# Indices 1 2 3 4 5 6 
#
# 1 137.5705 55.3754 21.4372 -4.7009 -11.5937 -2.2507
# 2 55.3754 90.9479 23.1061 -0.0619 -9.2074 -6.9243
# 3 21.4372 23.1061 87.8331 11.9786 -0.6636 10.1862
# 4 -4.7009 -0.0619 11.9786 29.3140 -0.8559 -2.5654
# 5 -11.5937 -9.2074 -0.6636 -0.8559 33.8985 -1.8816
# 6 -2.2507 -6.9243 10.1862 -2.5654 -1.8816 38.0586
#
#
#
# Elastic Compliance Matrix: (Units=1/GPa)
#
#
# Indices 1 2 3 4 5 6 
#
# 1 0.009925 -0.005509 -0.001274 0.002172 0.001937 0.000168
# 2 -0.005509 0.015724 -0.003313 0.000894 0.002545 0.003608
# 3 -0.001274 -0.003313 0.014002 -0.006408 -0.001497 -0.004932
# 4 0.002172 0.000894 -0.006408 0.037549 0.002066 0.004639
# 5 0.001937 0.002545 -0.001497 0.002066 0.031024 0.002651
# 6 0.000168 0.003608 -0.004932 0.004639 0.002651 0.028705
#
#
# Mechanical properties :
#
#
# Convention : Reuss Voigt Hill
#
# Bulk Modulus (GPa) = 51.38924 57.35430 54.37177
# Shear Modulus (GPa) = 30.56072 34.68307 32.62190
#
# Velocity S-wave (km/s) = 3.76530 4.01123 3.89021
# Velocity P-wave (km/s) = 6.53785 6.93258 6.73811
#
# Compressibility (1/GPa) = 0.01945933
#
# Stress axis : x y z
#
# Youngs Moduli (GPa) = 100.75211 63.59608 71.41641
#
# Poissons Ratio (x) = 0.35036 0.09100
# Poissons Ratio (y) = 0.55505 0.23660
# Poissons Ratio (z) = 0.12838 0.21069
#
# Static dielectric constant tensor:
#      x y z
#    x 3.861150 0.077580 0.128100 
#    y 0.077580 3.774940 0.230740 
#    z 0.128100 0.230740 4.009510 
# 
# 
# High freq. dielectric constant tensor:
#      x y z
#    x 1.864970 -0.007990 0.003610 
#    y -0.007990 1.849940 0.021770 
#    z 0.003610 0.021770 1.840890 
# 
# From -- ./inp_files/299264.got.cif
#   From: 2010.06.25/outbox.cif.g09.slc.cpg/sg2_150_cif.got.tgz:299264.got - 2010.06.27 13:26:56.
