data_PCOD8007207
_publ_section_title
;
Structure prediction by ZEFSAII (Michael W. Deem and Ramdas Pophale) SiO2 
 PCOD8007207
Probable space group: P -1
;
_chemical_formula_sum "Si O2"
_cell_formula_units_Z 16
_cell_length_a 17.085658
_cell_length_b 17.929505
_cell_length_c 10.344348
_cell_angle_alpha 130.977584
_cell_angle_beta 143.923504
_cell_angle_gamma 24.952238
_cell_volume 748.410309
_symmetry_space_group_name_H-M "P -1"
_symmetry_group_IT_number 2
_symmetry_cell_setting 'triclinic'
loop_
_space_group_symop_operation_xyz
x,y,z
-x,-y,-z
loop_
_atom_site_type_symbol
_atom_site_label
_atom_site_fract_x
_atom_site_fract_y
_atom_site_fract_z
Si Si1 0.915979 0.531720 0.721744
Si Si2 0.089998 0.814012 0.605244
Si Si3 0.974363 0.811664 0.185372
Si Si4 0.958131 0.738212 0.555316
Si Si5 0.385826 0.562348 0.060337
Si Si6 0.575381 0.929736 0.665467
Si Si7 0.794549 0.180971 0.687963
Si Si8 0.280004 0.429473 0.239365
O O1 0.756315 0.721582 0.666075
O O2 0.753320 0.577875 0.663959
O O3 0.991186 0.408814 0.570169
O O4 0.177340 0.405679 0.986891
O O5 0.944901 0.901212 0.373036
O O6 0.392080 0.625304 0.769765
O O7 0.016609 0.766514 0.539763
O O8 0.018811 0.960758 0.750079
O O9 0.119304 0.777007 0.226781
O O10 0.135957 0.619881 0.234346
O O11 0.710467 0.938623 0.922698
O O12 0.671120 0.939712 0.434109
O O13 0.136358 0.652767 0.818262
O O14 0.301539 0.720510 0.188394
O O15 0.500000 0.500000 0.000000
O O16 0.500000 0.000000 0.500000
O O17 0.571385 0.263576 0.411363
#
# Coordination Sequence:
#
# PCOD8007207 Si02
#       8
#     2   2   2   2   2   2   2   2
#     4  10  22  42  66  96 129 169 215 273 314 392
#     4  11  24  41  66 103 126 170 229 269 325 391
#     4  11  23  43  65  97 141 167 218 280 319 393
#     4  11  23  42  69  91 132 176 216 267 328 386
#     4  10  23  41  63  93 132 172 220 269 317 393
#     4  11  26  44  64  98 134 172 218 265 329 396
#     4  12  23  40  66  96 135 175 214 275 337 374
#     4  10  20  40  68  96 130 167 217 266 331 381
#
# _framework density 21.378647000000001
#
# number of rings (size 3 to 8) (size 9 to 14) (size 15 to 20)
#    0.000    1.250    2.500    3.000    1.750    5.000 
#    0.000    0.000    0.000    0.000    0.000    0.000 
#    0.000    0.000    0.000    0.000    0.000    0.000 
#
# Total GULP energy -198403.786678 kJ/mol
# GULP energy per Si atom -12400.236667 kJ/mol
# Density = 2.132999 g / cm^3
# Si number density = 21.378647 Si / 1000 Ang^3
#
#
#
# Elastic Constant Matrix: (Units=GPa)
#
#
# Indices 1 2 3 4 5 6 
#
# 1 74.9245 16.2915 31.9530 -0.1149 3.7565 6.6040
# 2 16.2915 113.2217 49.3775 19.6380 -9.5398 -7.7786
# 3 31.9530 49.3775 148.5469 -1.4343 5.3407 -10.0655
# 4 -0.1149 19.6380 -1.4343 36.0804 -7.3091 2.0638
# 5 3.7565 -9.5398 5.3407 -7.3091 36.3913 -1.9839
# 6 6.6040 -7.7786 -10.0655 2.0638 -1.9839 27.1662
#
#
#
# Elastic Compliance Matrix: (Units=1/GPa)
#
#
# Indices 1 2 3 4 5 6 
#
# 1 0.015603 -0.001519 -0.003161 0.000725 -0.001704 -0.005579
# 2 -0.001519 0.012225 -0.003683 -0.006424 0.002786 0.003197
# 3 -0.003161 -0.003683 0.008892 0.001904 -0.001411 0.002761
# 4 0.000725 -0.006424 0.001904 0.032353 0.004271 -0.003456
# 5 -0.001704 0.002786 -0.001411 0.004271 0.029588 0.002525
# 6 -0.005579 0.003197 0.002761 -0.003456 0.002525 0.040552
#
#
# Mechanical properties :
#
#
# Convention : Reuss Voigt Hill
#
# Bulk Modulus (GPa) = 50.01168 59.10413 54.55790
# Shear Modulus (GPa) = 30.74936 35.86566 33.30751
#
# Velocity S-wave (km/s) = 3.79663 4.10034 3.95141
# Velocity P-wave (km/s) = 6.53172 7.07979 6.81127
#
# Compressibility (1/GPa) = 0.01999533
#
# Stress axis : x y z
#
# Youngs Moduli (GPa) = 64.08825 81.79686 112.45848
#
# Poissons Ratio (x) = 0.12426 0.35550
# Poissons Ratio (y) = 0.09736 0.41414
# Poissons Ratio (z) = 0.20260 0.30122
#
# Static dielectric constant tensor:
#      x y z
#    x 3.651530 -0.054940 0.100110 
#    y -0.054940 3.900690 -0.124400 
#    z 0.100110 -0.124400 4.472840 
# 
# 
# High freq. dielectric constant tensor:
#      x y z
#    x 1.822850 -0.003690 0.004910 
#    y -0.003690 1.838900 0.001390 
#    z 0.004910 0.001390 1.857180 
# 
# From -- ./inp_files/472753.got.cif
#   From: 2010.06.25/outbox.cif.g09.slc.cpg/sg2_237_cif.got.tgz:472753.got - 2010.06.27 13:26:56.
