data_PCOD8007333
_publ_section_title
;
Structure prediction by ZEFSAII (Michael W. Deem and Ramdas Pophale) SiO2 
 PCOD8007333
Probable space group: P -1
;
_chemical_formula_sum "Si O2"
_cell_formula_units_Z 14
_cell_length_a 10.214420
_cell_length_b 18.206844
_cell_length_c 9.333777
_cell_angle_alpha 90.609736
_cell_angle_beta 119.270104
_cell_angle_gamma 139.715213
_cell_volume 717.745540
_symmetry_space_group_name_H-M "P -1"
_symmetry_group_IT_number 2
_symmetry_cell_setting 'triclinic'
loop_
_space_group_symop_operation_xyz
x,y,z
-x,-y,-z
loop_
_atom_site_type_symbol
_atom_site_label
_atom_site_fract_x
_atom_site_fract_y
_atom_site_fract_z
Si Si1 0.739654 0.882960 0.098801
Si Si2 0.734070 0.535174 0.137919
Si Si3 0.700113 0.738829 0.281929
Si Si4 0.657952 0.387110 0.323202
Si Si5 0.396204 0.020123 0.045001
Si Si6 0.751076 0.789330 0.640684
Si Si7 0.248540 0.863219 0.476124
O O1 0.727355 0.833852 0.240703
O O2 0.617328 0.779211 0.902601
O O3 0.530700 0.868660 0.989004
O O4 0.107649 0.066219 0.277129
O O5 0.680424 0.476032 0.263775
O O6 0.084787 0.720242 0.316104
O O7 0.500000 0.500000 0.000000
O O8 0.641358 0.438245 0.960360
O O9 0.686229 0.733815 0.444589
O O10 0.993791 0.816157 0.382433
O O11 0.569421 0.355623 0.442621
O O12 0.000000 0.500000 0.500000
O O13 0.566831 0.087087 0.287791
O O14 0.500000 0.000000 0.000000
O O15 0.014886 0.849745 0.856219
O O16 0.500000 0.000000 0.500000
#
# Coordination Sequence:
#
# PCOD8007333 Si02
#       7
#     2   2   2   2   2   2   2
#     4   9  21  36  64  87 125 160 204 249 300 360
#     4   9  22  39  60  84 124 160 198 247 305 359
#     4  10  20  41  59  91 126 160 200 256 306 355
#     4  11  22  40  61  87 122 163 207 249 301 365
#     4  10  21  38  60  94 124 153 206 255 299 354
#     4  10  22  37  64  89 125 158 205 250 306 347
#     4  11  22  38  64  90 121 162 207 246 299 373
#
# _framework density 19.505519
#
# number of rings (size 3 to 8) (size 9 to 14) (size 15 to 20)
#    0.857    1.143    1.429    1.714    6.000    1.143 
#    0.000   10.000    0.000    0.000    0.000    0.000 
#    0.000    0.000    0.000    0.000    0.000    0.000 
#
# Total GULP energy -173450.199960 kJ/mol
# GULP energy per Si atom -12389.299997 kJ/mol
# Density = 1.946112 g / cm^3
# Si number density = 19.505519 Si / 1000 Ang^3
#
#
#
# Elastic Constant Matrix: (Units=GPa)
#
#
# Indices 1 2 3 4 5 6 
#
# 1 90.9542 71.9175 42.2546 -6.8703 5.7775 2.4459
# 2 71.9175 145.0292 80.0791 8.4121 -4.7307 -4.5920
# 3 42.2546 80.0791 135.5301 -8.3387 -5.0084 6.8630
# 4 -6.8703 8.4121 -8.3387 28.6739 -11.1567 7.7859
# 5 5.7775 -4.7307 -5.0084 -11.1567 28.8708 -5.4958
# 6 2.4459 -4.5920 6.8630 7.7859 -5.4958 37.8048
#
#
#
# Elastic Compliance Matrix: (Units=1/GPa)
#
#
# Indices 1 2 3 4 5 6 
#
# 1 0.020758 -0.011710 0.001130 0.008823 -0.003475 -0.005293
# 2 -0.011710 0.018161 -0.008168 -0.012218 0.000521 0.007038
# 3 0.001130 -0.008168 0.012759 0.008908 0.003187 -0.004753
# 4 0.008823 -0.012218 0.008908 0.052623 0.015788 -0.012215
# 5 -0.003475 0.000521 0.003187 0.015788 0.042576 0.002647
# 6 -0.005293 0.007038 -0.004753 -0.012215 0.002647 0.031412
#
#
# Mechanical properties :
#
#
# Convention : Reuss Voigt Hill
#
# Bulk Modulus (GPa) = 70.52003 84.44621 77.48312
# Shear Modulus (GPa) = 22.67422 30.88739 26.78081
#
# Velocity S-wave (km/s) = 3.41317 3.98366 3.70940
# Velocity P-wave (km/s) = 7.19482 8.03411 7.62602
#
# Compressibility (1/GPa) = 0.01418037
#
# Stress axis : x y z
#
# Youngs Moduli (GPa) = 48.17304 55.06373 78.37496
#
# Poissons Ratio (x) = 0.64480 -0.08853
# Poissons Ratio (y) = 0.56411 0.64020
# Poissons Ratio (z) = -0.05441 0.44978
#
# Static dielectric constant tensor:
#      x y z
#    x 4.262390 -0.555920 -2.429360 
#    y -0.555920 3.771770 0.709030 
#    z -2.429360 0.709030 10.792660 
# 
# 
# High freq. dielectric constant tensor:
#      x y z
#    x 1.740860 -0.023150 -0.000520 
#    y -0.023150 1.750230 -0.006060 
#    z -0.000520 -0.006060 1.778670 
# 
# From -- ./inp_files/281036.got.cif
#   From: 2010.06.25/outbox.cif.g09.slc.cpg/sg2_141_cif.got.tgz:281036.got - 2010.06.27 13:26:56.
