data_PCOD8007036
_publ_section_title
;
Structure prediction by ZEFSAII (Michael W. Deem and Ramdas Pophale) SiO2 
 PCOD8007036
Probable space group: P -1
;
_chemical_formula_sum "Si O2"
_cell_formula_units_Z 12
_cell_length_a 8.766798
_cell_length_b 12.348566
_cell_length_c 8.236707
_cell_angle_alpha 104.232634
_cell_angle_beta 78.738390
_cell_angle_gamma 142.985984
_cell_volume 520.325500
_symmetry_space_group_name_H-M "P -1"
_symmetry_group_IT_number 2
_symmetry_cell_setting 'triclinic'
loop_
_space_group_symop_operation_xyz
x,y,z
-x,-y,-z
loop_
_atom_site_type_symbol
_atom_site_label
_atom_site_fract_x
_atom_site_fract_y
_atom_site_fract_z
Si Si1 0.020916 0.547999 0.328664
Si Si2 0.055171 0.122498 0.167518
Si Si3 0.878182 0.237889 0.109127
Si Si4 0.236730 0.064621 0.534292
Si Si5 0.660681 0.093809 0.749057
Si Si6 0.476725 0.613496 0.602747
O O1 0.999107 0.428301 0.173796
O O2 0.800714 0.513964 0.318945
O O3 0.000000 0.500000 0.500000
O O4 0.285736 0.761340 0.311000
O O5 0.317752 0.243089 0.247737
O O6 0.079190 0.258254 0.131061
O O7 0.808130 0.983150 0.284125
O O8 0.000000 0.000000 0.000000
O O9 0.633269 0.087390 0.219004
O O10 0.819171 0.184960 0.914737
O O11 0.481204 0.280049 0.522067
O O12 0.245535 0.953418 0.398220
O O13 0.000000 0.000000 0.500000
O O14 0.500000 0.500000 0.500000
#
# Coordination Sequence:
#
# PCOD8007036 Si02
#       6
#     2   2   2   2   2   2
#     4  12  25  42  70 103 139 178 235 282 344 414
#     4  11  25  44  71  99 135 185 232 281 352 411
#     4  11  24  44  69  99 142 178 232 283 340 414
#     4  10  20  40  66  94 135 180 223 276 340 407
#     4  11  24  43  71 101 137 184 227 285 346 404
#     4  11  23  43  66 101 140 177 231 287 340 413
#
# _framework density 23.062483
#
# number of rings (size 3 to 8) (size 9 to 14) (size 15 to 20)
#    0.000    1.000    1.667    6.500    4.667    1.333 
#    0.000    1.667    0.000    0.000    0.000    0.000 
#    0.000    0.000    0.000    0.000    0.000    0.000 
#
# Total GULP energy -148824.933798 kJ/mol
# GULP energy per Si atom -12402.077816 kJ/mol
# Density = 2.300999 g / cm^3
# Si number density = 23.062483 Si / 1000 Ang^3
#
#
#
# Elastic Constant Matrix: (Units=GPa)
#
#
# Indices 1 2 3 4 5 6 
#
# 1 73.6160 16.2801 28.3153 8.7637 -16.4128 -26.7669
# 2 16.2801 125.2328 38.1194 8.5597 -18.7059 -31.4642
# 3 28.3153 38.1194 150.4800 15.6503 -21.6367 -17.7435
# 4 8.7637 8.5597 15.6503 40.9485 -11.1563 -2.8594
# 5 -16.4128 -18.7059 -21.6367 -11.1563 39.7035 5.7984
# 6 -26.7669 -31.4642 -17.7435 -2.8594 5.7984 45.0481
#
#
#
# Elastic Compliance Matrix: (Units=1/GPa)
#
#
# Indices 1 2 3 4 5 6 
#
# 1 0.019455 0.001829 -0.001798 -0.001474 0.005863 0.011281
# 2 0.001829 0.010681 -0.001593 -0.000490 0.003700 0.007412
# 3 -0.001798 -0.001593 0.007955 -0.001659 0.002295 0.000552
# 4 -0.001474 -0.000490 -0.001659 0.027040 0.005989 -0.000926
# 5 0.005863 0.003700 0.002295 0.005989 0.031811 0.003257
# 6 0.011281 0.007412 0.000552 -0.000926 0.003257 0.033818
#
#
# Mechanical properties :
#
#
# Convention : Reuss Voigt Hill
#
# Bulk Modulus (GPa) = 28.59801 57.19538 42.89669
# Shear Modulus (GPa) = 34.35511 42.91430 38.63470
#
# Velocity S-wave (km/s) = 3.86379 4.31836 4.09738
# Velocity P-wave (km/s) = 5.68615 7.05112 6.40510
#
# Compressibility (1/GPa) = 0.03496747
#
# Stress axis : x y z
#
# Youngs Moduli (GPa) = 51.39937 93.62806 125.71204
#
# Poissons Ratio (x) = -0.17123 0.22599
# Poissons Ratio (y) = -0.09400 0.20024
# Poissons Ratio (z) = 0.09240 0.14913
#
# Static dielectric constant tensor:
#      x y z
#    x 4.490390 0.167030 -0.120310 
#    y 0.167030 5.697770 -0.924030 
#    z -0.120310 -0.924030 4.662370 
# 
# 
# High freq. dielectric constant tensor:
#      x y z
#    x 1.926010 -0.012760 -0.002120 
#    y -0.012760 1.915840 -0.001480 
#    z -0.002120 -0.001480 1.913020 
# 
# From -- ./inp_files/164847.got.cif
#   From: 2010.06.25/outbox.cif.g09.slc.cpg/sg2_83_cif.got.tgz:164847.got - 2010.06.27 13:26:56.
