data_PCOD8007404
_publ_section_title
;
Structure prediction by ZEFSAII (Michael W. Deem and Ramdas Pophale) SiO2 
 PCOD8007404
Probable space group: P -1
;
_chemical_formula_sum "Si O2"
_cell_formula_units_Z 16
_cell_length_a 17.030864
_cell_length_b 6.859442
_cell_length_c 7.947846
_cell_angle_alpha 101.463739
_cell_angle_beta 127.034994
_cell_angle_gamma 79.591615
_cell_volume 724.185409
_symmetry_space_group_name_H-M "P -1"
_symmetry_group_IT_number 2
_symmetry_cell_setting 'triclinic'
loop_
_space_group_symop_operation_xyz
x,y,z
-x,-y,-z
loop_
_atom_site_type_symbol
_atom_site_label
_atom_site_fract_x
_atom_site_fract_y
_atom_site_fract_z
Si Si1 0.764271 0.610719 0.128060
Si Si2 0.781194 0.847898 0.868725
Si Si3 0.603109 0.348400 0.302820
Si Si4 0.411958 0.620144 0.082200
Si Si5 0.177482 0.557797 0.318647
Si Si6 0.116282 0.765048 0.951477
Si Si7 0.931962 0.602642 0.569657
Si Si8 0.596299 0.094277 0.577132
O O1 0.822688 0.405657 0.106075
O O2 0.831598 0.707182 0.374851
O O3 0.742938 0.774735 0.985661
O O4 0.658542 0.561993 0.057065
O O5 0.835850 0.661126 0.812257
O O6 0.687240 0.929237 0.651361
O O7 0.856874 0.015610 0.028285
O O8 0.524088 0.538829 0.250153
O O9 0.710361 0.422508 0.481677
O O10 0.578457 0.189408 0.386099
O O11 0.594455 0.261528 0.085572
O O12 0.373313 0.750677 0.214342
O O13 0.102752 0.570864 0.381594
O O14 0.143184 0.732864 0.176471
O O15 0.997898 0.759372 0.774670
O O16 0.000000 0.500000 0.500000
O O17 0.500000 0.000000 0.500000
#
# Coordination Sequence:
#
# PCOD8007404 Si02
#       8
#     2   2   2   2   2   2   2   2
#     4  10  20  41  62  90 129 165 211 267 316 378
#     4  11  22  37  63  92 129 168 209 263 327 380
#     4  11  23  40  68  96 128 177 217 259 324 383
#     4  11  22  41  67  94 132 173 217 262 317 386
#     4  11  21  42  63  92 128 162 216 273 311 385
#     4  10  21  40  64  91 122 166 218 259 327 382
#     4  10  22  40  67  89 120 172 213 267 332 374
#     4  12  23  41  63  98 136 173 213 263 321 384
#
# _framework density 22.093788
#
# number of rings (size 3 to 8) (size 9 to 14) (size 15 to 20)
#    0.000    1.250    3.750    3.000    0.000    1.500 
#    2.250    2.500    0.000    0.000    0.000    0.000 
#    0.000    0.000    0.000    0.000    0.000    0.000 
#
# Total GULP energy -198368.891468 kJ/mol
# GULP energy per Si atom -12398.055717 kJ/mol
# Density = 2.204350 g / cm^3
# Si number density = 22.093788 Si / 1000 Ang^3
#
#
#
# Elastic Constant Matrix: (Units=GPa)
#
#
# Indices 1 2 3 4 5 6 
#
# 1 107.1683 27.0011 39.5049 -1.6283 -0.3074 36.5724
# 2 27.0011 84.4341 34.7177 -5.4463 -3.4248 28.3603
# 3 39.5049 34.7177 135.8128 -11.1959 7.7028 24.9865
# 4 -1.6283 -5.4463 -11.1959 25.5980 22.0846 0.6551
# 5 -0.3074 -3.4248 7.7028 22.0846 48.9742 1.8177
# 6 36.5724 28.3603 24.9865 0.6551 1.8177 37.7432
#
#
#
# Elastic Compliance Matrix: (Units=1/GPa)
#
#
# Indices 1 2 3 4 5 6 
#
# 1 0.014401 0.000668 -0.002051 -0.000524 0.001184 -0.013146
# 2 0.000668 0.016666 -0.002168 0.002064 0.001018 -0.011820
# 3 -0.002051 -0.002168 0.010088 0.008695 -0.005563 -0.002945
# 4 -0.000524 0.002064 0.008695 0.072496 -0.033679 -0.006436
# 5 0.001184 0.001018 -0.005563 -0.033679 0.036538 0.000595
# 6 -0.013146 -0.011820 -0.002945 -0.006436 0.000595 0.050147
#
#
# Mechanical properties :
#
#
# Convention : Reuss Voigt Hill
#
# Bulk Modulus (GPa) = 29.36646 58.87361 44.12004
# Shear Modulus (GPa) = 22.85319 37.54248 30.19784
#
# Velocity S-wave (km/s) = 3.21965 4.12665 3.70104
# Velocity P-wave (km/s) = 5.20981 7.02927 6.18679
#
# Compressibility (1/GPa) = 0.03405245
#
# Stress axis : x y z
#
# Youngs Moduli (GPa) = 69.44169 60.00305 99.12761
#
# Poissons Ratio (x) = -0.04008 0.20335
# Poissons Ratio (y) = -0.04639 0.21487
# Poissons Ratio (z) = 0.14245 0.13006
#
# Static dielectric constant tensor:
#      x y z
#    x 4.094030 0.301710 0.045520 
#    y 0.301710 3.640270 -0.003830 
#    z 0.045520 -0.003830 4.644060 
# 
# 
# High freq. dielectric constant tensor:
#      x y z
#    x 1.878990 0.027310 0.006960 
#    y 0.027310 1.834030 -0.006000 
#    z 0.006960 -0.006000 1.889220 
# 
# From -- ./inp_files/53226.got.cif
#   From: 2010.06.25/outbox.cif.g09.slc.cpg/sg2_27_cif.got.tgz:53226.got - 2010.06.27 13:26:56.
