data_PCOD8007811
_publ_section_title
;
Structure prediction by ZEFSAII (Michael W. Deem and Ramdas Pophale) SiO2 
 PCOD8007811
Probable space group: P -1
;
_chemical_formula_sum "Si O2"
_cell_formula_units_Z 12
_cell_length_a 9.398196
_cell_length_b 10.365289
_cell_length_c 7.056736
_cell_angle_alpha 108.404029
_cell_angle_beta 47.315086
_cell_angle_gamma 120.435660
_cell_volume 435.274883
_symmetry_space_group_name_H-M "P -1"
_symmetry_group_IT_number 2
_symmetry_cell_setting 'triclinic'
loop_
_space_group_symop_operation_xyz
x,y,z
-x,-y,-z
loop_
_atom_site_type_symbol
_atom_site_label
_atom_site_fract_x
_atom_site_fract_y
_atom_site_fract_z
Si Si1 0.798199 0.588472 0.887195
Si Si2 0.538782 0.039886 0.760290
Si Si3 0.825562 0.890237 0.466570
Si Si4 0.419221 0.618517 0.699370
Si Si5 0.608193 0.344494 0.670032
Si Si6 0.088121 0.877104 0.912528
O O1 0.783083 0.505864 0.661352
O O2 0.234570 0.539402 0.982956
O O3 0.623265 0.655391 0.097412
O O4 0.026962 0.732504 0.760691
O O5 0.611645 0.213557 0.738199
O O6 0.731553 0.997736 0.489583
O O7 0.500000 0.000000 0.000000
O O8 0.334533 0.943227 0.773884
O O9 0.614947 0.759243 0.689359
O O10 0.940777 0.808519 0.200854
O O11 0.000000 0.000000 0.500000
O O12 0.500000 0.500000 0.500000
O O13 0.342111 0.676166 0.605998
O O14 0.000000 0.000000 0.000000
#
# Coordination Sequence:
#
# PCOD8007811 Si02
#       6
#     2   2   2   2   2   2
#     4  10  21  42  72  99 145 186 231 292 360 418
#     4  12  25  44  72 108 145 184 247 293 353 434
#     4  12  25  44  72 101 141 189 235 297 357 414
#     4  10  20  41  69 100 138 187 236 284 358 425
#     4  10  21  40  69 102 138 190 234 290 352 425
#     4  12  24  45  70 107 139 188 234 290 366 421
#
# _framework density 27.568784999999998
#
# number of rings (size 3 to 8) (size 9 to 14) (size 15 to 20)
#    0.000    1.000    6.667    1.000    0.000    4.000 
#    0.000    5.000    0.000   11.000    0.000    0.000 
#    0.000    0.000    0.000    0.000    0.000    0.000 
#
# Total GULP energy -148720.151768 kJ/mol
# GULP energy per Si atom -12393.345981 kJ/mol
# Density = 2.750604 g / cm^3
# Si number density = 27.568785 Si / 1000 Ang^3
#
#
#
# Elastic Constant Matrix: (Units=GPa)
#
#
# Indices 1 2 3 4 5 6 
#
# 1 154.3121 76.9120 28.4255 -6.8645 -5.9612 17.4163
# 2 76.9120 221.9827 17.7571 3.0090 -0.5534 35.4401
# 3 28.4255 17.7571 70.7262 -6.1763 -5.6809 10.5975
# 4 -6.8645 3.0090 -6.1763 31.0527 1.5388 3.7775
# 5 -5.9612 -0.5534 -5.6809 1.5388 40.1707 -2.7897
# 6 17.4163 35.4401 10.5975 3.7775 -2.7897 69.0528
#
#
#
# Elastic Compliance Matrix: (Units=1/GPa)
#
#
# Indices 1 2 3 4 5 6 
#
# 1 0.008413 -0.002671 -0.002439 0.001648 0.000773 -0.000436
# 2 -0.002671 0.005814 -0.000163 -0.000889 -0.000462 -0.002255
# 3 -0.002439 -0.000163 0.015804 0.002759 0.001639 -0.001811
# 4 0.001648 -0.000889 0.002759 0.033517 -0.000818 -0.002249
# 5 0.000773 -0.000462 0.001639 -0.000818 0.025325 0.000858
# 6 -0.000436 -0.002255 -0.001811 -0.002249 0.000858 0.016185
#
#
# Mechanical properties :
#
#
# Convention : Reuss Voigt Hill
#
# Bulk Modulus (GPa) = 51.32094 77.02333 64.17213
# Shear Modulus (GPa) = 40.95000 49.65034 45.30017
#
# Velocity S-wave (km/s) = 3.85824 4.24838 4.05800
# Velocity P-wave (km/s) = 6.20516 7.21555 6.72935
#
# Compressibility (1/GPa) = 0.01948522
#
# Stress axis : x y z
#
# Youngs Moduli (GPa) = 118.86027 171.99189 63.27327
#
# Poissons Ratio (x) = 0.45934 0.15435
# Poissons Ratio (y) = 0.31744 0.01032
# Poissons Ratio (z) = 0.28996 0.02806
#
# Static dielectric constant tensor:
#      x y z
#    x 5.779780 -0.396650 0.321570 
#    y -0.396650 5.594930 -0.011910 
#    z 0.321570 -0.011910 5.965130 
# 
# 
# High freq. dielectric constant tensor:
#      x y z
#    x 2.110400 -0.001960 0.004810 
#    y -0.001960 2.132840 0.008950 
#    z 0.004810 0.008950 2.111440 
# 
# From -- ./inp_files/182170.got.cif
#   From: 2010.06.25/outbox.cif.g09.slc.cpg/sg2_92_cif.got.tgz:182170.got - 2010.06.27 13:26:56.
