data_PCOD8007367
_publ_section_title
;
Structure prediction by ZEFSAII (Michael W. Deem and Ramdas Pophale) SiO2 
 PCOD8007367
Probable space group: P -1
;
_chemical_formula_sum "Si O2"
_cell_formula_units_Z 16
_cell_length_a 13.311347
_cell_length_b 9.622844
_cell_length_c 15.871856
_cell_angle_alpha 66.216719
_cell_angle_beta 25.246453
_cell_angle_gamma 71.460255
_cell_volume 787.768708
_symmetry_space_group_name_H-M "P -1"
_symmetry_group_IT_number 2
_symmetry_cell_setting 'triclinic'
loop_
_space_group_symop_operation_xyz
x,y,z
-x,-y,-z
loop_
_atom_site_type_symbol
_atom_site_label
_atom_site_fract_x
_atom_site_fract_y
_atom_site_fract_z
Si Si1 0.075116 0.167994 0.642297
Si Si2 0.164785 0.657250 0.825561
Si Si3 0.853741 0.897440 0.973903
Si Si4 0.595430 0.559188 0.611054
Si Si5 0.191910 0.671677 0.608205
Si Si6 0.382657 0.997548 0.330880
Si Si7 0.542712 0.133122 0.000518
Si Si8 0.675552 0.676830 0.010044
O O1 0.168698 0.330790 0.571982
O O2 0.275145 0.123021 0.437800
O O3 0.822571 0.183337 0.787547
O O4 0.042905 0.039442 0.770037
O O5 0.391249 0.661438 0.712917
O O6 0.257849 0.691112 0.651775
O O7 0.996397 0.785700 0.948430
O O8 0.000000 0.500000 0.000000
O O9 0.734410 0.814312 0.000222
O O10 0.643872 0.959489 0.172293
O O11 0.644032 0.445838 0.526193
O O12 0.513797 0.456787 0.778309
O O13 0.217678 0.835073 0.500103
O O14 0.916756 0.604501 0.824561
O O15 0.404398 0.074267 0.203873
O O16 0.427870 0.273580 0.012224
O O17 0.500000 0.000000 0.000000
#
# Coordination Sequence:
#
# PCOD8007367 Si02
#       8
#     2   2   2   2   2   2   2   2
#     4  11  25  41  60  98 132 158 204 268 315 360
#     4  11  20  41  69  91 122 167 211 254 303 375
#     4  10  20  41  61  91 127 155 215 255 297 375
#     4  12  25  41  63  95 134 159 206 266 312 360
#     4  11  21  40  69  91 121 168 217 246 307 377
#     4  11  20  40  67  92 124 165 211 255 308 373
#     4  11  21  40  67  91 125 166 214 256 305 372
#     4  11  21  40  63  93 124 163 212 262 294 374
#
# _framework density 20.31053
#
# number of rings (size 3 to 8) (size 9 to 14) (size 15 to 20)
#    0.000    1.000    8.750    0.375    0.000    6.000 
#    0.000    1.875    0.000    0.000    0.000    0.000 
#    0.000    0.000    0.000    0.000    0.000    0.000 
#
# Total GULP energy -198362.904260 kJ/mol
# GULP energy per Si atom -12397.681516 kJ/mol
# Density = 2.026430 g / cm^3
# Si number density = 20.310530 Si / 1000 Ang^3
#
#
#
# Elastic Constant Matrix: (Units=GPa)
#
#
# Indices 1 2 3 4 5 6 
#
# 1 74.2435 24.4226 30.3333 -10.8526 -4.9793 -17.5751
# 2 24.4226 51.1531 20.7314 -12.1018 6.3608 -8.5211
# 3 30.3333 20.7314 109.0246 -15.4515 9.4834 -0.3414
# 4 -10.8526 -12.1018 -15.4515 42.8656 1.1507 1.1313
# 5 -4.9793 6.3608 9.4834 1.1507 32.5265 -3.0529
# 6 -17.5751 -8.5211 -0.3414 1.1313 -3.0529 28.0242
#
#
#
# Elastic Compliance Matrix: (Units=1/GPa)
#
#
# Indices 1 2 3 4 5 6 
#
# 1 0.021202 -0.006704 -0.005041 0.001152 0.007105 0.011924
# 2 -0.006704 0.025834 -0.001856 0.004999 -0.005448 0.002833
# 3 -0.005041 -0.001856 0.011661 0.002628 -0.004292 -0.004158
# 4 0.001152 0.004999 0.002628 0.026018 -0.002397 0.000963
# 5 0.007105 -0.005448 -0.004292 -0.002397 0.034857 0.006641
# 6 0.011924 0.002833 -0.004158 0.000963 0.006641 0.044657
#
#
# Mechanical properties :
#
#
# Convention : Reuss Voigt Hill
#
# Bulk Modulus (GPa) = 31.75242 42.82173 37.28708
# Shear Modulus (GPa) = 24.76117 31.27885 28.02001
#
# Velocity S-wave (km/s) = 3.49539 3.92858 3.71830
# Velocity P-wave (km/s) = 5.65312 6.45814 6.06899
#
# Compressibility (1/GPa) = 0.03149366
#
# Stress axis : x y z
#
# Youngs Moduli (GPa) = 47.16534 38.70858 85.75929
#
# Poissons Ratio (x) = 0.25950 0.43235
# Poissons Ratio (y) = 0.31620 0.15917
# Poissons Ratio (z) = 0.23778 0.07184
#
# Static dielectric constant tensor:
#      x y z
#    x 4.390300 -0.560130 0.175310 
#    y -0.560130 3.858470 0.256950 
#    z 0.175310 0.256950 4.056730 
# 
# 
# High freq. dielectric constant tensor:
#      x y z
#    x 1.767790 -0.030350 0.007000 
#    y -0.030350 1.784490 0.005560 
#    z 0.007000 0.005560 1.812490 
# 
# From -- ./inp_files/315657.got.cif
#   From: 2010.06.25/outbox.cif.g09.slc.cpg/sg2_158_cif.got.tgz:315657.got - 2010.06.27 13:26:56.
