data_PCOD8007107
_publ_section_title
;
Structure prediction by ZEFSAII (Michael W. Deem and Ramdas Pophale) SiO2 
 PCOD8007107
Probable space group: P -1
;
_chemical_formula_sum "Si O2"
_cell_formula_units_Z 14
_cell_length_a 7.362800
_cell_length_b 9.857988
_cell_length_c 9.651788
_cell_angle_alpha 43.774022
_cell_angle_beta 92.309235
_cell_angle_gamma 93.307207
_cell_volume 483.843418
_symmetry_space_group_name_H-M "P -1"
_symmetry_group_IT_number 2
_symmetry_cell_setting 'triclinic'
loop_
_space_group_symop_operation_xyz
x,y,z
-x,-y,-z
loop_
_atom_site_type_symbol
_atom_site_label
_atom_site_fract_x
_atom_site_fract_y
_atom_site_fract_z
Si Si1 0.920464 0.602535 0.727208
Si Si2 0.489264 0.710932 0.910708
Si Si3 0.978550 0.176800 0.709711
Si Si4 0.628540 0.356700 0.527638
Si Si5 0.117627 0.846594 0.791679
Si Si6 0.386266 0.161880 0.456366
Si Si7 0.817491 0.689990 0.123309
O O1 0.957964 0.671642 0.519183
O O2 0.024057 0.716392 0.768003
O O3 0.998939 0.377288 0.908426
O O4 0.703343 0.620483 0.732163
O O5 0.289895 0.741436 0.946780
O O6 0.504495 0.871836 0.662125
O O7 0.500000 0.500000 0.000000
O O8 0.654707 0.779815 0.964912
O O9 0.780670 0.246064 0.705089
O O10 0.125499 0.181647 0.835341
O O11 0.974924 0.946707 0.825593
O O12 0.500000 0.500000 0.500000
O O13 0.512279 0.180343 0.581840
O O14 0.731012 0.477993 0.320602
O O15 0.201257 0.034865 0.571857
#
# Coordination Sequence:
#
# PCOD8007107 Si02
#       7
#     2   2   2   2   2   2   2
#     4  10  20  40  67  92 125 164 210 261 307 371
#     4  12  23  42  61  93 130 167 207 258 311 376
#     4  10  21  38  61  93 125 163 205 261 314 361
#     4  11  20  37  66  94 125 161 216 258 306 377
#     4  11  23  42  66  92 127 167 209 262 312 367
#     4  11  22  37  67  96 118 164 218 257 304 371
#     4  11  22  40  61  90 132 167 202 259 316 370
#
# _framework density 28.934979999999999
#
# number of rings (size 3 to 8) (size 9 to 14) (size 15 to 20)
#    0.000    1.143    2.857    7.286    0.000    2.286 
#    0.000    0.000    0.000    6.857    0.000    0.000 
#    0.000    0.000    0.000    0.000    0.000    0.000 
#
# Total GULP energy -173583.814857 kJ/mol
# GULP energy per Si atom -12398.843918 kJ/mol
# Density = 2.886912 g / cm^3
# Si number density = 28.934980 Si / 1000 Ang^3
#
#
#
# Elastic Constant Matrix: (Units=GPa)
#
#
# Indices 1 2 3 4 5 6 
#
# 1 191.1082 66.9730 45.8515 23.6586 45.9642 -29.4007
# 2 66.9730 170.4313 46.1297 19.5288 29.4873 -10.6724
# 3 45.8515 46.1297 109.9540 17.6796 34.8695 2.2351
# 4 23.6586 19.5288 17.6796 54.9978 2.0207 14.6980
# 5 45.9642 29.4873 34.8695 2.0207 53.0801 0.2383
# 6 -29.4007 -10.6724 2.2351 14.6980 0.2383 59.9909
#
#
#
# Elastic Compliance Matrix: (Units=1/GPa)
#
#
# Indices 1 2 3 4 5 6 
#
# 1 0.008633 -0.001387 -0.000459 -0.004194 -0.006266 0.005053
# 2 -0.001387 0.007454 -0.001744 -0.001731 -0.001734 0.001143
# 3 -0.000459 -0.001744 0.012664 -0.002933 -0.006840 -0.000261
# 4 -0.004194 -0.001731 -0.002933 0.023482 0.005662 -0.008030
# 5 -0.006266 -0.001734 -0.006840 0.005662 0.029527 -0.004629
# 6 0.005053 0.001143 -0.000261 -0.008030 -0.004629 0.021344
#
#
# Mechanical properties :
#
#
# Convention : Reuss Voigt Hill
#
# Bulk Modulus (GPa) = 46.35958 87.71130 67.03544
# Shear Modulus (GPa) = 42.56224 54.44973 48.50598
#
# Velocity S-wave (km/s) = 3.83947 4.34267 4.09880
# Velocity P-wave (km/s) = 5.97597 7.45145 6.75412
#
# Compressibility (1/GPa) = 0.02157052
#
# Stress axis : x y z
#
# Youngs Moduli (GPa) = 115.84082 134.14920 78.96433
#
# Poissons Ratio (x) = 0.18604 0.03626
# Poissons Ratio (y) = 0.16065 0.13772
# Poissons Ratio (z) = 0.05320 0.23397
#
# Static dielectric constant tensor:
#      x y z
#    x 6.321900 -0.578210 0.045770 
#    y -0.578210 5.422040 -0.888270 
#    z 0.045770 -0.888270 6.732050 
# 
# 
# High freq. dielectric constant tensor:
#      x y z
#    x 2.203580 -0.014010 0.000500 
#    y -0.014010 2.186420 -0.038360 
#    z 0.000500 -0.038360 2.214350 
# 
# From -- ./inp_files/156934.got.cif
#   From: 2010.06.25/outbox.cif.g09.slc.cpg/sg2_79_cif.got.tgz:156934.got - 2010.06.27 13:26:56.
