data_PCOD8007840
_publ_section_title
;
Structure prediction by ZEFSAII (Michael W. Deem and Ramdas Pophale) SiO2 
 PCOD8007840
Probable space group: P -1
;
_chemical_formula_sum "Si O2"
_cell_formula_units_Z 14
_cell_length_a 11.255580
_cell_length_b 7.530806
_cell_length_c 8.939534
_cell_angle_alpha 116.931813
_cell_angle_beta 76.244673
_cell_angle_gamma 108.559956
_cell_volume 636.490666
_symmetry_space_group_name_H-M "P -1"
_symmetry_group_IT_number 2
_symmetry_cell_setting 'triclinic'
loop_
_space_group_symop_operation_xyz
x,y,z
-x,-y,-z
loop_
_atom_site_type_symbol
_atom_site_label
_atom_site_fract_x
_atom_site_fract_y
_atom_site_fract_z
Si Si1 0.122919 0.673038 0.220079
Si Si2 0.640158 0.991371 0.632920
Si Si3 0.950105 0.912761 0.259278
Si Si4 0.083943 0.299646 0.514164
Si Si5 0.242777 0.311958 0.986726
Si Si6 0.462411 0.256960 0.712114
Si Si7 0.326576 0.361348 0.306839
O O1 0.184980 0.508982 0.060946
O O2 0.055937 0.780231 0.152526
O O3 0.015846 0.575425 0.343513
O O4 0.225806 0.847852 0.339993
O O5 0.627103 0.886194 0.434763
O O6 0.622638 0.817973 0.699323
O O7 0.532670 0.117091 0.736415
O O8 0.881544 0.838891 0.411724
O O9 0.853853 0.879463 0.136015
O O10 0.018007 0.152495 0.341948
O O11 0.217800 0.432474 0.463680
O O12 0.263943 0.265999 0.134349
O O13 0.377926 0.360962 0.883958
O O14 0.562347 0.437085 0.667232
#
# Coordination Sequence:
#
# PCOD8007840 Si02
#       7
#     2   2   2   2   2   2   2
#     4  10  20  41  69  93 131 171 210 268 325 380
#     4  11  23  47  71  91 126 176 226 256 321 381
#     4   9  19  41  67  94 128 176 209 268 321 385
#     4   9  19  38  68  90 125 173 218 255 314 382
#     4  12  24  39  65  99 138 163 213 268 336 370
#     4  11  26  45  68  94 128 178 216 266 316 390
#     4  12  23  41  68 100 130 166 216 276 308 394
#
# _framework density 21.995611
#
# number of rings (size 3 to 8) (size 9 to 14) (size 15 to 20)
#    0.857    0.571    2.857    3.000    0.000    1.714 
#    0.000    0.000    3.143    0.000    0.000    0.000 
#    0.000    0.000    0.000    0.000    0.000    0.000 
#
# Total GULP energy -173507.445572 kJ/mol
# GULP energy per Si atom -12393.388969 kJ/mol
# Density = 2.194555 g / cm^3
# Si number density = 21.995611 Si / 1000 Ang^3
#
#
#
# Elastic Constant Matrix: (Units=GPa)
#
#
# Indices 1 2 3 4 5 6 
#
# 1 116.1080 28.8506 42.2296 -5.3475 -7.7365 1.5879
# 2 28.8506 56.8288 20.2813 -0.7664 -15.2784 0.4047
# 3 42.2296 20.2813 84.3533 2.7169 -27.7166 -0.8439
# 4 -5.3475 -0.7664 2.7169 22.0061 -0.2463 -2.0996
# 5 -7.7365 -15.2784 -27.7166 -0.2463 53.1509 3.1313
# 6 1.5879 0.4047 -0.8439 -2.0996 3.1313 33.9852
#
#
#
# Elastic Compliance Matrix: (Units=1/GPa)
#
#
# Indices 1 2 3 4 5 6 
#
# 1 0.011846 -0.004597 -0.005786 0.003385 -0.002587 -0.000195
# 2 -0.004597 0.021721 -0.001301 -0.000197 0.004927 -0.000542
# 3 -0.005786 -0.001301 0.017832 -0.003585 0.008080 -0.000237
# 4 0.003385 -0.000197 -0.003585 0.046950 -0.001380 0.002783
# 5 -0.002587 0.004927 0.008080 -0.001380 0.024182 -0.002050
# 6 -0.000195 -0.000542 -0.000237 0.002783 -0.002050 0.029795
#
#
# Mechanical properties :
#
#
# Convention : Reuss Voigt Hill
#
# Bulk Modulus (GPa) = 35.67577 48.89034 42.28306
# Shear Modulus (GPa) = 27.02138 32.89036 29.95587
#
# Velocity S-wave (km/s) = 3.50878 3.87112 3.69440
# Velocity P-wave (km/s) = 5.71578 6.50049 6.12072
#
# Compressibility (1/GPa) = 0.02803023
#
# Stress axis : x y z
#
# Youngs Moduli (GPa) = 84.41914 46.03865 56.07750
#
# Poissons Ratio (x) = 0.21166 0.32447
# Poissons Ratio (y) = 0.38811 0.07295
# Poissons Ratio (z) = 0.48845 0.05989
#
# Static dielectric constant tensor:
#      x y z
#    x 4.258130 -0.035650 -0.089480 
#    y -0.035650 3.584140 0.101070 
#    z -0.089480 0.101070 3.835830 
# 
# 
# High freq. dielectric constant tensor:
#      x y z
#    x 1.888070 0.004450 -0.004620 
#    y 0.004450 1.834320 0.007980 
#    z -0.004620 0.007980 1.854990 
# 
# From -- ./inp_files/245354.got.cif
#   From: 2010.06.25/outbox.cif.g09.slc.cpg/sg2_123_cif.got.tgz:245354.got - 2010.06.27 13:26:56.
