data_PCOD8007792
_publ_section_title
;
Structure prediction by ZEFSAII (Michael W. Deem and Ramdas Pophale) SiO2 
 PCOD8007792
Probable space group: P -1
;
_chemical_formula_sum "Si O2"
_cell_formula_units_Z 16
_cell_length_a 15.279391
_cell_length_b 8.835049
_cell_length_c 12.277357
_cell_angle_alpha 67.713349
_cell_angle_beta 148.261475
_cell_angle_gamma 128.350950
_cell_volume 637.925358
_symmetry_space_group_name_H-M "P -1"
_symmetry_group_IT_number 2
_symmetry_cell_setting 'triclinic'
loop_
_space_group_symop_operation_xyz
x,y,z
-x,-y,-z
loop_
_atom_site_type_symbol
_atom_site_label
_atom_site_fract_x
_atom_site_fract_y
_atom_site_fract_z
Si Si1 0.850885 0.004209 0.585642
Si Si2 0.487870 0.239802 0.990483
Si Si3 0.396262 0.849225 0.074673
Si Si4 0.568871 0.278865 0.466829
Si Si5 0.833162 0.115106 0.772779
Si Si6 0.177283 0.520041 0.115276
Si Si7 0.900979 0.608519 0.400812
Si Si8 0.777669 0.677267 0.453441
O O1 0.628356 0.943683 0.333786
O O2 0.873739 0.828196 0.619029
O O3 0.876138 0.034602 0.733079
O O4 0.033942 0.212593 0.662500
O O5 0.646245 0.443600 0.174349
O O6 0.374485 0.033631 0.001606
O O7 0.635640 0.237058 0.057904
O O8 0.313227 0.243120 0.747052
O O9 0.228556 0.663953 0.026807
O O10 0.718622 0.220640 0.600330
O O11 0.622963 0.375284 0.621196
O O12 0.598089 0.446217 0.369501
O O13 0.323744 0.078400 0.259883
O O14 0.068018 0.283906 0.025519
O O15 0.000000 0.500000 0.000000
O O16 0.952244 0.686366 0.561340
O O17 0.000000 0.500000 0.500000
#
# Coordination Sequence:
#
# PCOD8007792 Si02
#       8
#     2   2   2   2   2   2   2   2
#     4  11  22  42  66  97 139 180 227 289 346 406
#     4  10  23  42  68  99 138 183 226 287 345 413
#     4  10  20  41  68  96 135 184 227 279 348 407
#     4  10  22  43  68  99 140 180 231 288 341 410
#     4  10  21  41  72  99 128 185 240 277 342 419
#     4  10  21  40  67 104 133 175 242 285 332 409
#     4  12  23  42  69  98 133 184 241 279 342 425
#     4  11  26  44  64 102 146 179 221 295 357 401
#
# _framework density 25.081305
#
# number of rings (size 3 to 8) (size 9 to 14) (size 15 to 20)
#    0.000    1.500    2.500    2.250    0.000    1.500 
#    6.750    0.625    0.000    0.000    0.000    0.000 
#    0.000    0.000    0.000    0.000    0.000    0.000 
#
# Total GULP energy -198348.147032 kJ/mol
# GULP energy per Si atom -12396.759189 kJ/mol
# Density = 2.502422 g / cm^3
# Si number density = 25.081305 Si / 1000 Ang^3
#
#
#
# Elastic Constant Matrix: (Units=GPa)
#
#
# Indices 1 2 3 4 5 6 
#
# 1 148.2078 58.0249 12.8862 8.4792 -16.8187 -8.1574
# 2 58.0249 140.8651 14.5539 16.8736 15.3689 10.7966
# 3 12.8862 14.5539 36.4739 21.6357 -4.0700 -4.5816
# 4 8.4792 16.8736 21.6357 38.2556 -2.4705 -2.5668
# 5 -16.8187 15.3689 -4.0700 -2.4705 18.1208 7.8224
# 6 -8.1574 10.7966 -4.5816 -2.5668 7.8224 49.1876
#
#
#
# Elastic Compliance Matrix: (Units=1/GPa)
#
#
# Indices 1 2 3 4 5 6 
#
# 1 0.011013 -0.006440 -0.000535 0.001755 0.015446 0.000825
# 2 -0.006440 0.012436 -0.002488 -0.003848 -0.016945 -0.001535
# 3 -0.000535 -0.002488 0.043030 -0.022506 0.007290 0.002132
# 4 0.001755 -0.003848 -0.022506 0.040536 0.005224 0.000324
# 5 0.015446 -0.016945 0.007290 0.005224 0.089248 -0.006960
# 6 0.000825 -0.001535 0.002132 0.000324 -0.006960 0.022127
#
#
# Mechanical properties :
#
#
# Convention : Reuss Voigt Hill
#
# Bulk Modulus (GPa) = 21.02909 55.16411 38.09660
# Shear Modulus (GPa) = 19.74980 37.11824 28.43402
#
# Velocity S-wave (km/s) = 2.80916 3.85114 3.37066
# Velocity P-wave (km/s) = 4.35022 6.46660 5.51096
#
# Compressibility (1/GPa) = 0.04755318
#
# Stress axis : x y z
#
# Youngs Moduli (GPa) = 90.80206 80.41026 23.23946
#
# Poissons Ratio (x) = 0.51783 0.01243
# Poissons Ratio (y) = 0.58476 0.05783
# Poissons Ratio (z) = 0.04858 0.20008
#
# Static dielectric constant tensor:
#      x y z
#    x 4.914160 -0.474910 -0.574700 
#    y -0.474910 4.983760 0.917950 
#    z -0.574700 0.917950 4.824630 
# 
# 
# High freq. dielectric constant tensor:
#      x y z
#    x 2.004590 -0.001430 -0.012410 
#    y -0.001430 2.012850 0.022100 
#    z -0.012410 0.022100 1.974190 
# 
# From -- ./inp_files/447246.got.cif
#   From: 2010.06.25/outbox.cif.g09.slc.cpg/sg2_224_cif.got.tgz:447246.got - 2010.06.27 13:26:56.
