data_PCOD8007000
_publ_section_title
;
Structure prediction by ZEFSAII (Michael W. Deem and Ramdas Pophale) SiO2 
 PCOD8007000
Probable space group: P -1
;
_chemical_formula_sum "Si O2"
_cell_formula_units_Z 8
_cell_length_a 6.386719
_cell_length_b 8.453934
_cell_length_c 7.300025
_cell_angle_alpha 53.271120
_cell_angle_beta 91.421818
_cell_angle_gamma 101.195835
_cell_volume 307.792272
_symmetry_space_group_name_H-M "P -1"
_symmetry_group_IT_number 2
_symmetry_cell_setting 'triclinic'
loop_
_space_group_symop_operation_xyz
x,y,z
-x,-y,-z
loop_
_atom_site_type_symbol
_atom_site_label
_atom_site_fract_x
_atom_site_fract_y
_atom_site_fract_z
Si Si1 0.271259 0.842765 0.113451
Si Si2 0.894002 0.853396 0.313305
Si Si3 0.582281 0.618840 0.172446
Si Si4 0.399364 0.192821 0.336388
O O1 0.334611 0.631125 0.212152
O O2 0.140387 0.826667 0.315408
O O3 0.500000 0.000000 0.000000
O O4 0.118211 0.919076 0.909557
O O5 0.739374 0.683569 0.301898
O O6 0.821357 0.830596 0.537877
O O7 0.575796 0.388558 0.276487
O O8 0.659706 0.774321 0.897708
O O9 0.500000 0.000000 0.500000
#
# Coordination Sequence:
#
# PCOD8007000 Si02
#       4
#     2   2   2   2
#     4   9  19  39  67  91 124 164 214 260 307 377
#     4  10  20  40  66  91 126 169 206 259 318 369
#     4  10  22  41  65  91 130 164 211 258 309 383
#     4  11  22  39  65  96 130 164 208 262 315 371
#
# _framework density 25.991555999999999
#
# number of rings (size 3 to 8) (size 9 to 14) (size 15 to 20)
#    0.000    2.000    2.500    0.750    0.000    1.000 
#    0.000   21.250    0.000    0.000    0.000    0.000 
#    0.000    0.000    0.000    0.000    0.000    0.000 
#
# Total GULP energy -99125.172846 kJ/mol
# GULP energy per Si atom -12390.646606 kJ/mol
# Density = 2.593240 g / cm^3
# Si number density = 25.991556 Si / 1000 Ang^3
#
#
#
# Elastic Constant Matrix: (Units=GPa)
#
#
# Indices 1 2 3 4 5 6 
#
# 1 145.7655 61.5096 49.6802 16.7780 -28.9066 -36.7366
# 2 61.5096 107.2299 44.3552 -13.0838 -4.0491 -34.9060
# 3 49.6802 44.3552 130.5519 18.3363 -21.6698 -41.8031
# 4 16.7780 -13.0838 18.3363 60.5157 -26.0735 -14.5028
# 5 -28.9066 -4.0491 -21.6698 -26.0735 38.1138 18.6621
# 6 -36.7366 -34.9060 -41.8031 -14.5028 18.6621 40.4850
#
#
#
# Elastic Compliance Matrix: (Units=1/GPa)
#
#
# Indices 1 2 3 4 5 6 
#
# 1 0.011110 -0.005526 -0.000760 -0.001154 0.005942 0.001380
# 2 -0.005526 0.018440 -0.001429 0.007164 -0.005176 0.014361
# 3 -0.000760 -0.001429 0.011739 -0.001161 0.000467 0.009568
# 4 -0.001154 0.007164 -0.001161 0.026391 0.013853 0.006999
# 5 0.005942 -0.005176 0.000467 0.013853 0.047547 -0.015544
# 6 0.001380 0.014361 0.009568 0.006999 -0.015544 0.057887
#
#
# Mechanical properties :
#
#
# Convention : Reuss Voigt Hill
#
# Bulk Modulus (GPa) = 38.67126 77.18191 57.92659
# Shear Modulus (GPa) = 25.35962 43.02303 34.19133
#
# Velocity S-wave (km/s) = 3.12699 4.07291 3.63089
# Velocity P-wave (km/s) = 5.28660 7.20261 6.31766
#
# Compressibility (1/GPa) = 0.02585900
#
# Stress axis : x y z
#
# Youngs Moduli (GPa) = 90.00807 54.22914 85.18713
#
# Poissons Ratio (x) = 0.29966 0.06477
# Poissons Ratio (y) = 0.49737 0.12173
# Poissons Ratio (z) = 0.06843 0.07749
#
# Static dielectric constant tensor:
#      x y z
#    x 4.987550 -0.956050 -0.160400 
#    y -0.956050 5.311900 -0.060930 
#    z -0.160400 -0.060930 4.896980 
# 
# 
# High freq. dielectric constant tensor:
#      x y z
#    x 2.019150 -0.027280 -0.017970 
#    y -0.027280 2.043140 -0.001340 
#    z -0.017970 -0.001340 2.044000 
# 
# From -- ./inp_files/26251.got.cif
#   From: 2010.06.25/outbox.cif.g09.slc.cpg/sg2_14_cif.got.tgz:26251.got - 2010.06.27 13:26:56.
