data_PCOD8007540
_publ_section_title
;
Structure prediction by ZEFSAII (Michael W. Deem and Ramdas Pophale) SiO2 
 PCOD8007540
Probable space group: P -1
;
_chemical_formula_sum "Si O2"
_cell_formula_units_Z 12
_cell_length_a 8.689641
_cell_length_b 7.843260
_cell_length_c 11.686164
_cell_angle_alpha 122.185614
_cell_angle_beta 139.335318
_cell_angle_gamma 66.540268
_cell_volume 439.223024
_symmetry_space_group_name_H-M "P -1"
_symmetry_group_IT_number 2
_symmetry_cell_setting 'triclinic'
loop_
_space_group_symop_operation_xyz
x,y,z
-x,-y,-z
loop_
_atom_site_type_symbol
_atom_site_label
_atom_site_fract_x
_atom_site_fract_y
_atom_site_fract_z
Si Si1 0.083817 0.351242 0.590540
Si Si2 0.741496 0.384443 0.599865
Si Si3 0.240078 0.526030 0.962865
Si Si4 0.726109 0.015815 0.835382
Si Si5 0.336221 0.149352 0.027595
Si Si6 0.190591 0.994433 0.366601
O O1 0.277256 0.447765 0.823575
O O2 0.000000 0.500000 0.500000
O O3 0.842417 0.297518 0.504534
O O4 0.207626 0.162595 0.534290
O O5 0.500000 0.500000 0.500000
O O6 0.682897 0.199189 0.581900
O O7 0.953257 0.527469 0.822967
O O8 0.358299 0.376656 0.070884
O O9 0.347402 0.749138 0.113652
O O10 0.667644 0.941233 0.646254
O O11 0.597875 0.871040 0.806209
O O12 0.000000 0.000000 0.000000
O O13 0.077785 0.057322 0.831855
O O14 0.500000 0.000000 0.000000
#
# Coordination Sequence:
#
# PCOD8007540 Si02
#       6
#     2   2   2   2   2   2
#     4  10  20  41  65  86 125 168 204 253 319 367
#     4   9  21  41  64  92 121 166 211 255 306 373
#     4   9  22  42  65  87 127 167 203 255 314 366
#     4  10  21  41  65  89 126 166 208 252 316 373
#     4  10  22  41  64  94 124 166 210 259 309 370
#     4  10  21  42  61  90 128 163 200 261 312 369
#
# _framework density 27.320971
#
# number of rings (size 3 to 8) (size 9 to 14) (size 15 to 20)
#    1.000    1.333    0.000    2.500    0.000    6.667 
#   12.000    0.833    0.000    0.000    0.000    0.000 
#    0.000    0.000    0.000    0.000    0.000    0.000 
#
# Total GULP energy -148717.278944 kJ/mol
# GULP energy per Si atom -12393.106579 kJ/mol
# Density = 2.725879 g / cm^3
# Si number density = 27.320971 Si / 1000 Ang^3
#
#
#
# Elastic Constant Matrix: (Units=GPa)
#
#
# Indices 1 2 3 4 5 6 
#
# 1 113.7661 55.5993 57.6791 -9.2301 -48.9556 9.6292
# 2 55.5993 161.7555 62.0077 -17.8221 -17.9967 8.3571
# 3 57.6791 62.0077 111.1702 -10.6574 -44.0494 0.8829
# 4 -9.2301 -17.8221 -10.6574 50.7367 10.2412 -18.4770
# 5 -48.9556 -17.9967 -44.0494 10.2412 44.6037 -1.8652
# 6 9.6292 8.3571 0.8829 -18.4770 -1.8652 47.1286
#
#
#
# Elastic Compliance Matrix: (Units=1/GPa)
#
#
# Indices 1 2 3 4 5 6 
#
# 1 0.020142 -0.004907 0.000346 -0.003657 0.021148 -0.003848
# 2 -0.004907 0.009417 -0.005452 0.002909 -0.007627 0.000274
# 3 0.000346 -0.005452 0.018297 -0.001055 0.016525 0.000793
# 4 -0.003657 0.002909 -0.001055 0.025285 -0.009278 0.009797
# 5 0.021148 -0.007627 0.016525 -0.009278 0.060815 -0.004509
# 6 -0.003848 0.000274 0.000793 0.009797 -0.004509 0.025604
#
#
# Mechanical properties :
#
#
# Convention : Reuss Voigt Hill
#
# Bulk Modulus (GPa) = 35.93235 81.91824 58.92530
# Shear Modulus (GPa) = 26.47439 42.58751 34.53095
#
# Velocity S-wave (km/s) = 3.11628 3.95243 3.55899
# Velocity P-wave (km/s) = 5.11163 7.13286 6.20509
#
# Compressibility (1/GPa) = 0.02783007
#
# Stress axis : x y z
#
# Youngs Moduli (GPa) = 49.64729 106.19602 54.65466
#
# Poissons Ratio (x) = 0.52113 -0.01892
# Poissons Ratio (y) = 0.24363 0.29796
# Poissons Ratio (z) = -0.01719 0.57894
#
# Static dielectric constant tensor:
#      x y z
#    x 5.599100 0.347520 -0.588960 
#    y 0.347520 4.871010 -0.740640 
#    z -0.588960 -0.740640 4.671320 
# 
# 
# High freq. dielectric constant tensor:
#      x y z
#    x 2.123210 -0.004550 0.000430 
#    y -0.004550 2.105260 -0.019850 
#    z 0.000430 -0.019850 2.101230 
# 
# From -- ./inp_files/377221.got.cif
#   From: 2010.06.25/outbox.cif.g09.slc.cpg/sg2_189_cif.got.tgz:377221.got - 2010.06.27 13:26:56.
