data_PCOD8007755
_publ_section_title
;
Structure prediction by ZEFSAII (Michael W. Deem and Ramdas Pophale) SiO2 
 PCOD8007755
Probable space group: P -1
;
_chemical_formula_sum "Si O2"
_cell_formula_units_Z 16
_cell_length_a 15.880795
_cell_length_b 17.630519
_cell_length_c 13.426880
_cell_angle_alpha 132.101918
_cell_angle_beta 28.135288
_cell_angle_gamma 151.575752
_cell_volume 745.644537
_symmetry_space_group_name_H-M "P -1"
_symmetry_group_IT_number 2
_symmetry_cell_setting 'triclinic'
loop_
_space_group_symop_operation_xyz
x,y,z
-x,-y,-z
loop_
_atom_site_type_symbol
_atom_site_label
_atom_site_fract_x
_atom_site_fract_y
_atom_site_fract_z
Si Si1 0.283327 0.802483 0.028387
Si Si2 0.609030 0.560429 0.551163
Si Si3 0.652449 0.063886 0.504834
Si Si4 0.613957 0.336456 0.064796
Si Si5 0.719024 0.755448 0.261039
Si Si6 0.569437 0.837941 0.108126
Si Si7 0.783832 0.805222 0.020295
Si Si8 0.702122 0.256608 0.264335
O O1 0.413501 0.761677 0.907478
O O2 0.258789 0.775493 0.912474
O O3 0.944585 0.665739 0.308984
O O4 0.500000 0.000000 0.000000
O O5 0.500000 0.500000 0.500000
O O6 0.626929 0.687452 0.674881
O O7 0.353224 0.384174 0.731742
O O8 0.682031 0.191546 0.631797
O O9 0.004929 0.185296 0.238633
O O10 0.500000 0.000000 0.500000
O O11 0.428891 0.888279 0.650453
O O12 0.497610 0.236009 0.994905
O O13 0.963868 0.545272 0.871607
O O14 0.537849 0.762460 0.509153
O O15 0.609135 0.688075 0.200717
O O16 0.088535 0.949329 0.055562
O O17 0.541853 0.732390 0.124619
O O18 0.000000 0.000000 0.000000
#
# Coordination Sequence:
#
# PCOD8007755 Si02
#       8
#     2   2   2   2   2   2   2   2
#     4  12  28  47  69 102 134 175 229 278 335 406
#     4  12  26  46  71  98 134 180 225 274 343 401
#     4  12  21  40  75  98 134 181 229 272 334 401
#     4  12  27  45  68 102 140 175 226 280 340 400
#     4  11  22  44  73  94 135 179 224 276 336 397
#     4  11  24  42  69 104 133 178 230 274 335 402
#     4  10  20  41  68 101 130 173 229 273 326 399
#     4  12  23  45  70  96 141 179 217 285 337 393
#
# _framework density 21.457947000000001
#
# number of rings (size 3 to 8) (size 9 to 14) (size 15 to 20)
#    0.000    0.500    7.500    2.625    3.500    1.500 
#    0.000    3.125    0.000    0.000    0.000    0.000 
#    0.000    0.000    0.000    0.000    0.000    0.000 
#
# Total GULP energy -198464.358048 kJ/mol
# GULP energy per Si atom -12404.022378 kJ/mol
# Density = 2.140911 g / cm^3
# Si number density = 21.457947 Si / 1000 Ang^3
#
#
#
# Elastic Constant Matrix: (Units=GPa)
#
#
# Indices 1 2 3 4 5 6 
#
# 1 151.0710 58.9224 34.9308 11.0043 19.3161 -20.3156
# 2 58.9224 85.9987 40.7001 19.0828 8.4106 -7.0282
# 3 34.9308 40.7001 115.0894 31.4435 -0.8048 -10.4995
# 4 11.0043 19.0828 31.4435 40.7973 -7.7989 -1.1974
# 5 19.3161 8.4106 -0.8048 -7.7989 41.3230 4.3446
# 6 -20.3156 -7.0282 -10.4995 -1.1974 4.3446 34.8490
#
#
#
# Elastic Compliance Matrix: (Units=1/GPa)
#
#
# Indices 1 2 3 4 5 6 
#
# 1 0.010302 -0.005919 -0.000519 -0.000264 -0.004214 0.005172
# 2 -0.005919 0.018537 -0.003546 -0.004724 -0.001892 -0.000707
# 3 -0.000519 -0.003546 0.012470 -0.007841 -0.000539 0.002537
# 4 -0.000264 -0.004724 -0.007841 0.034218 0.007732 -0.003257
# 5 -0.004214 -0.001892 -0.000539 0.007732 0.028667 -0.006309
# 6 0.005172 -0.000707 0.002537 -0.003257 -0.006309 0.033007
#
#
# Mechanical properties :
#
#
# Convention : Reuss Voigt Hill
#
# Bulk Modulus (GPa) = 46.85887 69.02951 57.94419
# Shear Modulus (GPa) = 30.43522 37.90090 34.16806
#
# Velocity S-wave (km/s) = 3.77021 4.20728 3.99473
# Velocity P-wave (km/s) = 6.39043 7.47269 6.95265
#
# Compressibility (1/GPa) = 0.02134068
#
# Stress axis : x y z
#
# Youngs Moduli (GPa) = 97.07210 53.94506 80.18932
#
# Poissons Ratio (x) = 0.31931 0.04162
# Poissons Ratio (y) = 0.57459 0.28437
# Poissons Ratio (z) = 0.05038 0.19130
#
# Static dielectric constant tensor:
#      x y z
#    x 4.541390 -0.231090 1.011070 
#    y -0.231090 3.733620 -0.192480 
#    z 1.011070 -0.192480 -0.406640 
# 
# 
# High freq. dielectric constant tensor:
#      x y z
#    x 1.862470 -0.013650 0.001500 
#    y -0.013650 1.823290 0.019300 
#    z 0.001500 0.019300 1.856000 
# 
# From -- ./inp_files/456974.got.cif
#   From: 2010.06.25/outbox.cif.g09.slc.cpg/sg2_229_cif.got.tgz:456974.got - 2010.06.27 13:26:56.
