data_PCOD8007254
_publ_section_title
;
Structure prediction by ZEFSAII (Michael W. Deem and Ramdas Pophale) SiO2 
 PCOD8007254
Probable space group: P -1
;
_chemical_formula_sum "Si O2"
_cell_formula_units_Z 16
_cell_length_a 24.564067
_cell_length_b 9.340602
_cell_length_c 8.936279
_cell_angle_alpha 106.795353
_cell_angle_beta 132.743748
_cell_angle_gamma 36.411658
_cell_volume 721.563511
_symmetry_space_group_name_H-M "P -1"
_symmetry_group_IT_number 2
_symmetry_cell_setting 'triclinic'
loop_
_space_group_symop_operation_xyz
x,y,z
-x,-y,-z
loop_
_atom_site_type_symbol
_atom_site_label
_atom_site_fract_x
_atom_site_fract_y
_atom_site_fract_z
Si Si1 0.565025 0.793587 0.922803
Si Si2 0.135938 0.976563 0.113226
Si Si3 0.303053 0.745393 0.901898
Si Si4 0.794585 0.464646 0.008046
Si Si5 0.533566 0.523087 0.413081
Si Si6 0.892920 0.736055 0.075987
Si Si7 0.939075 0.815346 0.651457
Si Si8 0.652413 0.911184 0.643759
O O1 0.419660 0.000681 0.622524
O O2 0.657404 0.494413 0.068459
O O3 0.681508 0.679388 0.000772
O O4 0.500000 0.000000 0.000000
O O5 0.058528 0.089190 0.163024
O O6 0.293872 0.774153 0.383390
O O7 0.045094 0.264934 0.941038
O O8 0.147295 0.805642 0.987245
O O9 0.192391 0.999938 0.897250
O O10 0.222373 0.899269 0.638290
O O11 0.454114 0.578629 0.142175
O O12 0.934534 0.329661 0.261119
O O13 0.712299 0.658569 0.760868
O O14 0.500000 0.500000 0.500000
O O15 0.473155 0.797811 0.395195
O O16 0.024070 0.423143 0.315866
O O17 0.783247 0.801013 0.827248
#
# Coordination Sequence:
#
# PCOD8007254 Si02
#       8
#     2   2   2   2   2   2   2   2
#     4  12  24  40  67  99 132 168 215 274 335 382
#     4  12  21  41  71  94 128 176 224 263 317 391
#     4  11  22  44  66  94 136 167 215 275 337 371
#     4  11  24  44  63  93 138 179 210 264 324 397
#     4  11  18  39  73  91 120 172 218 272 323 375
#     4  10  20  45  71  90 127 179 220 265 316 393
#     4  11  27  39  63 102 135 172 218 264 326 388
#     4  10  20  40  69  96 125 167 222 267 328 382
#
# _framework density 22.17407
#
# number of rings (size 3 to 8) (size 9 to 14) (size 15 to 20)
#    0.000    1.000    6.250    1.500    1.750    1.000 
#    0.000    8.750    0.000    0.000    0.000    0.000 
#    0.000    0.000    0.000    0.000    0.000    0.000 
#
# Total GULP energy -198376.225905 kJ/mol
# GULP energy per Si atom -12398.514119 kJ/mol
# Density = 2.212360 g / cm^3
# Si number density = 22.174070 Si / 1000 Ang^3
#
#
#
# Elastic Constant Matrix: (Units=GPa)
#
#
# Indices 1 2 3 4 5 6 
#
# 1 90.2643 49.3898 39.3621 3.8186 -13.8367 10.2166
# 2 49.3898 113.0889 43.8435 1.9641 -10.9244 11.1563
# 3 39.3621 43.8435 111.5365 -8.6628 -24.5470 20.3826
# 4 3.8186 1.9641 -8.6628 34.0368 2.5852 -10.1723
# 5 -13.8367 -10.9244 -24.5470 2.5852 22.2825 -8.6865
# 6 10.2166 11.1563 20.3826 -10.1723 -8.6865 37.7699
#
#
#
# Elastic Compliance Matrix: (Units=1/GPa)
#
#
# Indices 1 2 3 4 5 6 
#
# 1 0.016105 -0.005447 -0.002600 -0.002814 0.004365 -0.001099
# 2 -0.005447 0.012446 -0.003072 -0.001136 -0.000950 -0.001070
# 3 -0.002600 -0.003072 0.014265 0.002392 0.011199 -0.002868
# 4 -0.002814 -0.001136 0.002392 0.032966 -0.000119 0.008657
# 5 0.004365 -0.000950 0.011199 -0.000119 0.062344 0.007362
# 6 -0.001099 -0.001070 -0.002868 0.008657 0.007362 0.032662
#
#
# Mechanical properties :
#
#
# Convention : Reuss Voigt Hill
#
# Bulk Modulus (GPa) = 48.59286 64.45340 56.52313
# Shear Modulus (GPa) = 25.01440 30.97081 27.99261
#
# Velocity S-wave (km/s) = 3.36235 3.74132 3.55689
# Velocity P-wave (km/s) = 6.08570 6.91328 6.51265
#
# Compressibility (1/GPa) = 0.02057915
#
# Stress axis : x y z
#
# Youngs Moduli (GPa) = 62.09231 80.34782 70.10053
#
# Poissons Ratio (x) = 0.43764 0.18224
# Poissons Ratio (y) = 0.33821 0.21534
# Poissons Ratio (z) = 0.16142 0.24682
#
# Static dielectric constant tensor:
#      x y z
#    x 3.991640 0.095640 -0.016700 
#    y 0.095640 4.139230 -0.311810 
#    z -0.016700 -0.311810 4.212660 
# 
# 
# High freq. dielectric constant tensor:
#      x y z
#    x 1.861230 0.012320 -0.003820 
#    y 0.012320 1.875840 -0.017660 
#    z -0.003820 -0.017660 1.868840 
# 
# From -- ./inp_files/352264.got.cif
#   From: 2010.06.25/outbox.cif.g09.slc.cpg/sg2_177_cif.got.tgz:352264.got - 2010.06.27 13:26:56.
