data_PCOD8007070
_publ_section_title
;
Structure prediction by ZEFSAII (Michael W. Deem and Ramdas Pophale) SiO2 
 PCOD8007070
Probable space group: P -1
;
_chemical_formula_sum "Si O2"
_cell_formula_units_Z 16
_cell_length_a 10.800111
_cell_length_b 9.119797
_cell_length_c 16.860166
_cell_angle_alpha 121.785947
_cell_angle_beta 33.266241
_cell_angle_gamma 127.752547
_cell_volume 719.801992
_symmetry_space_group_name_H-M "P -1"
_symmetry_group_IT_number 2
_symmetry_cell_setting 'triclinic'
loop_
_space_group_symop_operation_xyz
x,y,z
-x,-y,-z
loop_
_atom_site_type_symbol
_atom_site_label
_atom_site_fract_x
_atom_site_fract_y
_atom_site_fract_z
Si Si1 0.937776 0.133500 0.657732
Si Si2 0.913746 0.803299 0.950336
Si Si3 0.333542 0.266341 0.364896
Si Si4 0.131403 0.691706 0.942864
Si Si5 0.219052 0.950072 0.117160
Si Si6 0.628845 0.320400 0.781751
Si Si7 0.977208 0.741092 0.729415
Si Si8 0.741140 0.388695 0.571229
O O1 0.927508 0.184454 0.770430
O O2 0.759906 0.194120 0.714367
O O3 0.214376 0.238325 0.509001
O O4 0.847077 0.908536 0.638320
O O5 0.063975 0.806269 0.790843
O O6 0.958470 0.671698 0.954685
O O7 0.633549 0.733759 0.053466
O O8 0.000000 0.000000 0.000000
O O9 0.602285 0.266566 0.222664
O O10 0.359973 0.464405 0.370684
O O11 0.144415 0.852383 0.044312
O O12 0.000000 0.500000 0.000000
O O13 0.152102 0.132409 0.205796
O O14 0.500000 0.000000 0.000000
O O15 0.783241 0.533191 0.776252
O O16 0.580641 0.279191 0.700739
O O17 0.221522 0.751614 0.554202
O O18 0.000000 0.500000 0.500000
#
# Coordination Sequence:
#
# PCOD8007070 Si02
#       8
#     2   2   2   2   2   2   2   2
#     4  11  22  38  72 104 133 165 232 286 332 382
#     4  12  25  47  63  97 142 176 223 269 340 407
#     4  11  22  43  65 103 134 176 217 281 338 393
#     4  12  28  45  69  95 142 185 216 274 345 411
#     4  12  25  43  68 102 133 176 231 281 332 400
#     4  11  23  41  74 101 129 178 224 282 334 391
#     4  11  24  44  69 100 131 172 231 278 329 398
#     4  10  20  40  66  99 131 165 222 278 330 388
#
# _framework density 22.228335000000001
#
# number of rings (size 3 to 8) (size 9 to 14) (size 15 to 20)
#    0.000    0.750    5.000    4.125    5.250    0.000 
#    0.000    4.375    0.000    0.000    0.000    0.000 
#    0.000    0.000    0.000    0.000    0.000    0.000 
#
# Total GULP energy -198357.858832 kJ/mol
# GULP energy per Si atom -12397.366177 kJ/mol
# Density = 2.217774 g / cm^3
# Si number density = 22.228335 Si / 1000 Ang^3
#
#
#
# Elastic Constant Matrix: (Units=GPa)
#
#
# Indices 1 2 3 4 5 6 
#
# 1 94.8289 30.9873 55.3413 7.9118 27.1962 -20.3058
# 2 30.9873 66.7961 27.5421 14.8844 1.6490 -19.4021
# 3 55.3413 27.5421 135.8368 6.2683 20.5184 -14.0095
# 4 7.9118 14.8844 6.2683 40.1796 -3.2824 -2.4300
# 5 27.1962 1.6490 20.5184 -3.2824 42.2335 -1.4791
# 6 -20.3058 -19.4021 -14.0095 -2.4300 -1.4791 38.4299
#
#
#
# Elastic Compliance Matrix: (Units=1/GPa)
#
#
# Indices 1 2 3 4 5 6 
#
# 1 0.018839 -0.004619 -0.004640 -0.001733 -0.009640 0.005450
# 2 -0.004619 0.021273 -0.001820 -0.006011 0.002819 0.007364
# 3 -0.004640 -0.001820 0.009908 -0.000091 -0.001756 0.000168
# 4 -0.001733 -0.006011 -0.000091 0.027627 0.003468 -0.002103
# 5 -0.009640 0.002819 -0.001756 0.003468 0.030796 -0.002906
# 6 0.005450 0.007364 0.000168 -0.002103 -0.002906 0.032435
#
#
# Mechanical properties :
#
#
# Convention : Reuss Voigt Hill
#
# Bulk Modulus (GPa) = 35.89273 58.35592 47.12432
# Shear Modulus (GPa) = 29.01473 36.40801 32.71137
#
# Velocity S-wave (km/s) = 3.61682 4.05150 3.84031
# Velocity P-wave (km/s) = 5.79864 6.94234 6.39610
#
# Compressibility (1/GPa) = 0.02786079
#
# Stress axis : x y z
#
# Youngs Moduli (GPa) = 53.08074 47.00690 100.92738
#
# Poissons Ratio (x) = 0.21713 0.46835
# Poissons Ratio (y) = 0.24519 0.18373
# Poissons Ratio (z) = 0.24632 0.08557
#
# Static dielectric constant tensor:
#      x y z
#    x 1.022420 -0.636830 0.601090 
#    y -0.636830 4.217790 -0.186830 
#    z 0.601090 -0.186830 5.528280 
# 
# 
# High freq. dielectric constant tensor:
#      x y z
#    x 1.864640 -0.030500 0.015600 
#    y -0.030500 1.864200 0.005360 
#    z 0.015600 0.005360 1.896410 
# 
# From -- ./inp_files/207373.got.cif
#   From: 2010.06.25/outbox.cif.g09.slc.cpg/sg2_104_cif.got.tgz:207373.got - 2010.06.27 13:26:56.
