data_PCOD8007768
_publ_section_title
;
Structure prediction by ZEFSAII (Michael W. Deem and Ramdas Pophale) SiO2 
 PCOD8007768
Probable space group: P -1
;
_chemical_formula_sum "Si O2"
_cell_formula_units_Z 16
_cell_length_a 9.032693
_cell_length_b 9.337048
_cell_length_c 14.872579
_cell_angle_alpha 110.194219
_cell_angle_beta 98.588990
_cell_angle_gamma 131.983893
_cell_volume 733.653848
_symmetry_space_group_name_H-M "P -1"
_symmetry_group_IT_number 2
_symmetry_cell_setting 'triclinic'
loop_
_space_group_symop_operation_xyz
x,y,z
-x,-y,-z
loop_
_atom_site_type_symbol
_atom_site_label
_atom_site_fract_x
_atom_site_fract_y
_atom_site_fract_z
Si Si1 0.982167 0.624363 0.957158
Si Si2 0.206943 0.100567 0.102165
Si Si3 0.998592 0.376463 0.550638
Si Si4 0.256187 0.298663 0.486580
Si Si5 0.960515 0.037122 0.230522
Si Si6 0.588004 0.827671 0.393740
Si Si7 0.951719 0.563910 0.735015
Si Si8 0.510886 0.422910 0.847666
O O1 0.978785 0.554404 0.841230
O O2 0.747803 0.539284 0.938903
O O3 0.000000 0.500000 0.000000
O O4 0.210114 0.918518 0.054954
O O5 0.158743 0.112779 0.203182
O O6 0.444983 0.372604 0.146022
O O7 0.000000 0.000000 0.000000
O O8 0.064048 0.510671 0.680052
O O9 0.000000 0.500000 0.500000
O O10 0.201772 0.412466 0.558553
O O11 0.732545 0.098895 0.469204
O O12 0.500000 0.500000 0.500000
O O13 0.045332 0.098018 0.354183
O O14 0.262774 0.170520 0.531732
O O15 0.918013 0.176006 0.223077
O O16 0.706287 0.746960 0.137042
O O17 0.322125 0.639211 0.365855
O O18 0.574430 0.759759 0.276363
#
# Coordination Sequence:
#
# PCOD8007768 Si02
#       8
#     2   2   2   2   2   2   2   2
#     4  10  23  45  69  94 132 170 222 285 341 392
#     4  10  20  41  68  92 124 170 219 280 330 388
#     4  12  23  38  63  98 136 183 220 263 343 406
#     4  12  23  39  66  97 135 174 226 274 318 399
#     4  12  21  40  70  96 129 173 230 266 337 396
#     4  11  21  42  63  96 137 174 217 279 321 398
#     4  11  22  43  67  95 138 175 222 278 342 404
#     4  10  21  40  70  94 129 172 218 273 337 395
#
# _framework density 21.808651000000001
#
# number of rings (size 3 to 8) (size 9 to 14) (size 15 to 20)
#    0.000    1.000    7.500    0.750    0.000    3.000 
#    0.000    6.875    2.750    0.000    0.000    0.000 
#    0.000    0.000    0.000    0.000    0.000    0.000 
#
# Total GULP energy -198403.624939 kJ/mol
# GULP energy per Si atom -12400.226559 kJ/mol
# Density = 2.175901 g / cm^3
# Si number density = 21.808651 Si / 1000 Ang^3
#
#
#
# Elastic Constant Matrix: (Units=GPa)
#
#
# Indices 1 2 3 4 5 6 
#
# 1 95.1332 62.1101 41.9192 -2.3692 -13.8537 -4.9108
# 2 62.1101 177.2953 44.1482 19.2712 -0.2011 -16.9180
# 3 41.9192 44.1482 80.7196 -5.8662 -16.2822 -17.7445
# 4 -2.3692 19.2712 -5.8662 44.1332 -4.0757 7.2921
# 5 -13.8537 -0.2011 -16.2822 -4.0757 34.7742 1.6324
# 6 -4.9108 -16.9180 -17.7445 7.2921 1.6324 44.0449
#
#
#
# Elastic Compliance Matrix: (Units=1/GPa)
#
#
# Indices 1 2 3 4 5 6 
#
# 1 0.016928 -0.005246 -0.005386 0.003423 0.004735 -0.003040
# 2 -0.005246 0.009038 -0.002834 -0.005450 -0.004135 0.002801
# 3 -0.005386 -0.002834 0.019606 0.003324 0.007154 0.005394
# 4 0.003423 -0.005450 0.003324 0.027087 0.006302 -0.005091
# 5 0.004735 -0.004135 0.007154 0.006302 0.034732 -0.000509
# 6 -0.003040 0.002801 0.005394 -0.005091 -0.000509 0.026476
#
#
# Mechanical properties :
#
#
# Convention : Reuss Voigt Hill
#
# Bulk Modulus (GPa) = 53.64419 72.16702 62.90561
# Shear Modulus (GPa) = 29.93813 38.25515 34.09664
#
# Velocity S-wave (km/s) = 3.70910 4.19277 3.95833
# Velocity P-wave (km/s) = 6.55701 7.52343 7.05678
#
# Compressibility (1/GPa) = 0.01864135
#
# Stress axis : x y z
#
# Youngs Moduli (GPa) = 59.07533 110.63820 51.00501
#
# Poissons Ratio (x) = 0.58037 0.27472
# Poissons Ratio (y) = 0.30989 0.14453
# Poissons Ratio (z) = 0.31818 0.31351
#
# Static dielectric constant tensor:
#      x y z
#    x 1.937250 1.439530 0.504520 
#    y 1.439530 3.363300 -0.327480 
#    z 0.504520 -0.327480 3.984750 
# 
# 
# High freq. dielectric constant tensor:
#      x y z
#    x 1.827380 0.004330 -0.015750 
#    y 0.004330 1.875960 0.003060 
#    z -0.015750 0.003060 1.859330 
# 
# From -- ./inp_files/273765.got.cif
#   From: 2010.06.25/outbox.cif.g09.slc.cpg/sg2_137_cif.got.tgz:273765.got - 2010.06.27 13:26:56.
