data_PCOD8007126
_publ_section_title
;
Structure prediction by ZEFSAII (Michael W. Deem and Ramdas Pophale) SiO2 
 PCOD8007126
Probable space group: P -1
;
_chemical_formula_sum "Si O2"
_cell_formula_units_Z 10
_cell_length_a 5.031625
_cell_length_b 11.807587
_cell_length_c 8.003482
_cell_angle_alpha 95.633137
_cell_angle_beta 105.852083
_cell_angle_gamma 104.782259
_cell_volume 435.013971
_symmetry_space_group_name_H-M "P -1"
_symmetry_group_IT_number 2
_symmetry_cell_setting 'triclinic'
loop_
_space_group_symop_operation_xyz
x,y,z
-x,-y,-z
loop_
_atom_site_type_symbol
_atom_site_label
_atom_site_fract_x
_atom_site_fract_y
_atom_site_fract_z
Si Si1 0.994510 0.909526 0.837515
Si Si2 0.038532 0.318292 0.653746
Si Si3 0.996587 0.682131 0.985670
Si Si4 0.612135 0.092056 0.383836
Si Si5 0.330931 0.559271 0.229598
O O1 0.664664 0.868173 0.712116
O O2 0.237341 0.966706 0.744960
O O3 0.087726 0.795384 0.897737
O O4 0.000000 0.000000 0.000000
O O5 0.347870 0.383064 0.637282
O O6 0.093476 0.275191 0.844329
O O7 0.867644 0.206381 0.500118
O O8 0.868933 0.417750 0.651152
O O9 0.262297 0.625612 0.057822
O O10 0.732111 0.580111 0.841282
O O11 0.500000 0.000000 0.500000
#
# Coordination Sequence:
#
# PCOD8007126 Si02
#       5
#     2   2   2   2   2
#     4  12  27  45  69 100 130 174 231 281 323 393
#     4  10  20  40  67  94 130 175 217 260 334 392
#     4   9  22  39  71  95 134 168 228 259 324 395
#     4  12  27  47  66  95 137 180 221 275 343 392
#     4   9  20  37  71  96 130 175 215 259 331 398
#
# _framework density 22.987769
#
# number of rings (size 3 to 8) (size 9 to 14) (size 15 to 20)
#    1.200    0.400    0.000    4.200    2.800    1.600 
#    0.000    6.000    0.000    0.000    0.000    0.000 
#    0.000    0.000    0.000    0.000    0.000    0.000 
#
# Total GULP energy -123905.314478 kJ/mol
# GULP energy per Si atom -12390.531448 kJ/mol
# Density = 2.293545 g / cm^3
# Si number density = 22.987769 Si / 1000 Ang^3
#
#
#
# Elastic Constant Matrix: (Units=GPa)
#
#
# Indices 1 2 3 4 5 6 
#
# 1 143.3075 39.7368 38.7854 -0.6320 -6.5984 21.6750
# 2 39.7368 110.2541 48.2411 5.6165 0.9638 -2.1631
# 3 38.7854 48.2411 70.0401 13.0525 -15.1700 -1.9901
# 4 -0.6320 5.6165 13.0525 26.6816 7.7912 4.9744
# 5 -6.5984 0.9638 -15.1700 7.7912 39.2760 7.0796
# 6 21.6750 -2.1631 -1.9901 4.9744 7.0796 32.6982
#
#
#
# Elastic Compliance Matrix: (Units=1/GPa)
#
#
# Indices 1 2 3 4 5 6 
#
# 1 0.010171 -0.001598 -0.005643 0.004803 0.000046 -0.007932
# 2 -0.001598 0.014306 -0.010859 0.003599 -0.005901 0.002075
# 3 -0.005643 -0.010859 0.031518 -0.018302 0.014288 0.004631
# 4 0.004803 0.003599 -0.018302 0.051805 -0.015062 -0.008679
# 5 0.000046 -0.005901 0.014288 -0.015062 0.034991 -0.004836
# 6 -0.007932 0.002075 0.004631 -0.008679 -0.004836 0.038627
#
#
# Mechanical properties :
#
#
# Convention : Reuss Voigt Hill
#
# Bulk Modulus (GPa) = 50.51165 64.12539 57.31852
# Shear Modulus (GPa) = 22.30001 32.85371 27.57686
#
# Velocity S-wave (km/s) = 3.11799 3.78455 3.46733
# Velocity P-wave (km/s) = 5.91468 6.85953 6.40455
#
# Compressibility (1/GPa) = 0.01979741
#
# Stress axis : x y z
#
# Youngs Moduli (GPa) = 98.31808 69.90148 31.72777
#
# Poissons Ratio (x) = 0.11167 0.17903
# Poissons Ratio (y) = 0.15707 0.34452
# Poissons Ratio (z) = 0.55477 0.75904
#
# Static dielectric constant tensor:
#      x y z
#    x 4.126420 0.028690 0.054550 
#    y 0.028690 3.764870 0.094060 
#    z 0.054550 0.094060 4.174730 
# 
# 
# High freq. dielectric constant tensor:
#      x y z
#    x 1.908400 0.002250 0.001090 
#    y 0.002250 1.888570 0.018720 
#    z 0.001090 0.018720 1.905570 
# 
# From -- ./inp_files/87140.got.cif
#   From: 2010.06.25/outbox.cif.g09.slc.cpg/sg2_44_cif.got.tgz:87140.got - 2010.06.27 13:26:56.
