data_PCOD8007562
_publ_section_title
;
Structure prediction by ZEFSAII (Michael W. Deem and Ramdas Pophale) SiO2 
 PCOD8007562
Probable space group: P -1
;
_chemical_formula_sum "Si O2"
_cell_formula_units_Z 16
_cell_length_a 9.967090
_cell_length_b 8.242054
_cell_length_c 11.200405
_cell_angle_alpha 117.055803
_cell_angle_beta 84.397522
_cell_angle_gamma 113.041067
_cell_volume 750.405976
_symmetry_space_group_name_H-M "P -1"
_symmetry_group_IT_number 2
_symmetry_cell_setting 'triclinic'
loop_
_space_group_symop_operation_xyz
x,y,z
-x,-y,-z
loop_
_atom_site_type_symbol
_atom_site_label
_atom_site_fract_x
_atom_site_fract_y
_atom_site_fract_z
Si Si1 0.725838 0.173918 0.364361
Si Si2 0.710109 0.254934 0.133269
Si Si3 0.238542 0.430584 0.155456
Si Si4 0.871097 0.550813 0.586796
Si Si5 0.399196 0.163084 0.077431
Si Si6 0.535871 0.767716 0.180406
Si Si7 0.973781 0.044172 0.382543
Si Si8 0.809845 0.659460 0.135611
O O1 0.785718 0.233408 0.243380
O O2 0.720475 0.370937 0.494046
O O3 0.835803 0.104523 0.405209
O O4 0.572234 0.984277 0.308428
O O5 0.543362 0.232727 0.171669
O O6 0.807748 0.462656 0.133913
O O7 0.696158 0.073085 0.985205
O O8 0.127182 0.455921 0.270838
O O9 0.295698 0.274519 0.158963
O O10 0.374720 0.636236 0.193305
O O11 0.156359 0.349259 0.010903
O O12 0.000000 0.500000 0.500000
O O13 0.884137 0.767180 0.613442
O O14 0.463416 0.223394 0.958910
O O15 0.654415 0.677199 0.177613
O O16 0.943887 0.848668 0.239946
O O17 0.000000 0.000000 0.500000
#
# Coordination Sequence:
#
# PCOD8007562 Si02
#       8
#     2   2   2   2   2   2   2   2
#     4   9  20  35  59  83 114 155 190 239 286 344
#     4  10  16  30  57  89 124 146 176 223 294 357
#     4  11  19  35  59  87 125 151 187 239 288 352
#     4  10  23  42  58  77 111 159 207 247 284 325
#     4   9  17  29  53  90 128 150 169 223 294 359
#     4   9  16  32  56  90 122 148 181 227 300 357
#     4  10  21  40  64  78 106 159 205 239 289 340
#     4  10  18  32  60  92 118 151 188 235 289 349
#
# _framework density 21.32179
#
# number of rings (size 3 to 8) (size 9 to 14) (size 15 to 20)
#    0.000    2.250    2.500    2.250    0.000    1.000 
#    0.000    3.125    0.000    6.750    0.000    0.000 
#    0.000    0.000    0.000    0.000    0.000    0.000 
#
# Total GULP energy -198263.449182 kJ/mol
# GULP energy per Si atom -12391.465574 kJ/mol
# Density = 2.127326 g / cm^3
# Si number density = 21.321790 Si / 1000 Ang^3
#
#
#
# Elastic Constant Matrix: (Units=GPa)
#
#
# Indices 1 2 3 4 5 6 
#
# 1 42.2018 23.1042 32.0527 -7.2050 6.2331 -6.8557
# 2 23.1042 152.0393 73.7087 24.4656 1.1487 -1.3428
# 3 32.0527 73.7087 147.5050 7.6921 11.5436 16.7487
# 4 -7.2050 24.4656 7.6921 45.5115 1.4393 7.0124
# 5 6.2331 1.1487 11.5436 1.4393 27.7715 -5.1201
# 6 -6.8557 -1.3428 16.7487 7.0124 -5.1201 21.3291
#
#
#
# Elastic Compliance Matrix: (Units=1/GPa)
#
#
# Indices 1 2 3 4 5 6 
#
# 1 0.035021 -0.001916 -0.008597 0.005670 -0.001619 0.015634
# 2 -0.001916 0.010772 -0.005840 -0.006436 0.004177 0.007767
# 3 -0.008597 -0.005840 0.013828 0.002166 -0.006696 -0.016309
# 4 0.005670 -0.006436 0.002166 0.027779 -0.005318 -0.010693
# 5 -0.001619 0.004177 -0.006696 -0.005318 0.042377 0.016922
# 6 0.015634 0.007767 -0.016309 -0.010693 0.016922 0.072783
#
#
# Mechanical properties :
#
#
# Convention : Reuss Voigt Hill
#
# Bulk Modulus (GPa) = 37.15188 66.60860 51.88024
# Shear Modulus (GPa) = 20.47183 33.11446 26.79314
#
# Velocity S-wave (km/s) = 3.10197 3.94519 3.54871
# Velocity P-wave (km/s) = 5.50380 7.21528 6.41685
#
# Compressibility (1/GPa) = 0.02691654
#
# Stress axis : x y z
#
# Youngs Moduli (GPa) = 28.55452 92.83160 72.31455
#
# Poissons Ratio (x) = 0.17789 0.62165
# Poissons Ratio (y) = 0.05472 0.42229
# Poissons Ratio (z) = 0.24547 0.54210
#
# Static dielectric constant tensor:
#      x y z
#    x 3.464320 -0.111900 0.346210 
#    y -0.111900 4.378370 0.647350 
#    z 0.346210 0.647350 4.145930 
# 
# 
# High freq. dielectric constant tensor:
#      x y z
#    x 1.786180 -0.013540 0.030010 
#    y -0.013540 1.856360 0.027470 
#    z 0.030010 0.027470 1.826980 
# 
# From -- ./inp_files/418146.got.cif
#   From: 2010.06.25/outbox.cif.g09.slc.cpg/sg2_210_cif.got.tgz:418146.got - 2010.06.27 13:26:56.
