data_PCOD8007150
_publ_section_title
;
Structure prediction by ZEFSAII (Michael W. Deem and Ramdas Pophale) SiO2 
 PCOD8007150
Probable space group: P -1
;
_chemical_formula_sum "Si O2"
_cell_formula_units_Z 14
_cell_length_a 8.967967
_cell_length_b 12.805559
_cell_length_c 8.552219
_cell_angle_alpha 59.289305
_cell_angle_beta 109.251375
_cell_angle_gamma 69.833910
_cell_volume 617.671920
_symmetry_space_group_name_H-M "P -1"
_symmetry_group_IT_number 2
_symmetry_cell_setting 'triclinic'
loop_
_space_group_symop_operation_xyz
x,y,z
-x,-y,-z
loop_
_atom_site_type_symbol
_atom_site_label
_atom_site_fract_x
_atom_site_fract_y
_atom_site_fract_z
Si Si1 0.448910 0.822472 0.255323
Si Si2 0.848372 0.704308 0.632337
Si Si3 0.974470 0.140787 0.300926
Si Si4 0.480010 0.660175 0.070107
Si Si5 0.906773 0.847106 0.005988
Si Si6 0.208229 0.354439 0.997937
Si Si7 0.652560 0.371283 0.525348
O O1 0.657994 0.793410 0.380145
O O2 0.453211 0.757812 0.137702
O O3 0.417787 0.733544 0.446079
O O4 0.258680 0.005846 0.056187
O O5 0.916207 0.810529 0.593464
O O6 0.029760 0.535454 0.754415
O O7 0.777320 0.680314 0.788449
O O8 0.069454 0.094506 0.195373
O O9 0.000000 0.000000 0.500000
O O10 0.736284 0.288191 0.096603
O O11 0.575613 0.695084 0.939882
O O12 0.625871 0.471150 0.289626
O O13 0.832846 0.746592 0.035432
O O14 0.116361 0.741106 0.252405
O O15 0.500000 0.500000 0.500000
#
# Coordination Sequence:
#
# PCOD8007150 Si02
#       7
#     2   2   2   2   2   2   2
#     4  11  24  41  72 102 134 182 228 275 343 396
#     4  10  25  46  70  95 138 184 221 277 346 408
#     4  11  26  44  69 102 141 173 226 283 341 405
#     4  11  25  44  72 102 135 178 231 285 326 403
#     4  11  23  43  70 100 140 182 217 282 344 399
#     4  10  24  44  69  98 139 176 231 274 344 398
#     4  10  20  40  67  98 135 172 226 274 332 390
#
# _framework density 22.665755999999998
#
# number of rings (size 3 to 8) (size 9 to 14) (size 15 to 20)
#    0.000    1.429    2.857    2.143    8.000    5.714 
#    0.000    0.000    0.000    0.000    0.000    0.000 
#    0.000    0.000    0.000    0.000    0.000    0.000 
#
# Total GULP energy -173617.380815 kJ/mol
# GULP energy per Si atom -12401.241487 kJ/mol
# Density = 2.261417 g / cm^3
# Si number density = 22.665756 Si / 1000 Ang^3
#
#
#
# Elastic Constant Matrix: (Units=GPa)
#
#
# Indices 1 2 3 4 5 6 
#
# 1 108.1252 13.4199 14.7309 2.4178 3.3343 3.2383
# 2 13.4199 55.8275 12.8716 -19.8241 4.8857 -5.5173
# 3 14.7309 12.8716 84.9577 -14.5841 12.0329 2.3298
# 4 2.4178 -19.8241 -14.5841 30.2526 5.1040 7.2985
# 5 3.3343 4.8857 12.0329 5.1040 50.9826 -1.9986
# 6 3.2383 -5.5173 2.3298 7.2985 -1.9986 28.8379
#
#
#
# Elastic Compliance Matrix: (Units=1/GPa)
#
#
# Indices 1 2 3 4 5 6 
#
# 1 0.010036 -0.003472 -0.001950 -0.003959 0.000510 -0.000596
# 2 -0.003472 0.025315 0.000344 0.017597 -0.004023 0.000473
# 3 -0.001950 0.000344 0.014267 0.008801 -0.004287 -0.003392
# 4 -0.003959 0.017597 0.008801 0.053378 -0.009282 -0.011052
# 5 0.000510 -0.004023 -0.004287 -0.009282 0.022041 0.003396
# 6 -0.000596 0.000473 -0.003392 -0.011052 0.003396 0.038141
#
#
# Mechanical properties :
#
#
# Convention : Reuss Voigt Hill
#
# Bulk Modulus (GPa) = 25.34022 36.77280 31.05651
# Shear Modulus (GPa) = 26.81146 35.87382 31.34264
#
# Velocity S-wave (km/s) = 3.44307 3.98267 3.72266
# Velocity P-wave (km/s) = 5.19717 6.11621 5.67532
#
# Compressibility (1/GPa) = 0.03946296
#
# Stress axis : x y z
#
# Youngs Moduli (GPa) = 99.64316 39.50218 70.08944
#
# Poissons Ratio (x) = 0.13717 0.13664
# Poissons Ratio (y) = 0.34601 -0.02413
# Poissons Ratio (z) = 0.19426 -0.01360
#
# Static dielectric constant tensor:
#      x y z
#    x 4.361140 0.173900 -0.147540 
#    y 0.173900 4.950040 -0.496100 
#    z -0.147540 -0.496100 4.266450 
# 
# 
# High freq. dielectric constant tensor:
#      x y z
#    x 1.910670 0.009190 0.003970 
#    y 0.009190 1.890470 -0.012740 
#    z 0.003970 -0.012740 1.888390 
# 
# From -- ./inp_files/157702.got.cif
#   From: 2010.06.25/outbox.cif.g09.slc.cpg/sg2_79_cif.got.tgz:157702.got - 2010.06.27 13:26:56.
