data_PCOD8007031
_publ_section_title
;
Structure prediction by ZEFSAII (Michael W. Deem and Ramdas Pophale) SiO2 
 PCOD8007031
Probable space group: P -1
;
_chemical_formula_sum "Si O2"
_cell_formula_units_Z 14
_cell_length_a 8.381320
_cell_length_b 12.841439
_cell_length_c 9.070012
_cell_angle_alpha 54.491398
_cell_angle_beta 115.328642
_cell_angle_gamma 130.761469
_cell_volume 600.020513
_symmetry_space_group_name_H-M "P -1"
_symmetry_group_IT_number 2
_symmetry_cell_setting 'triclinic'
loop_
_space_group_symop_operation_xyz
x,y,z
-x,-y,-z
loop_
_atom_site_type_symbol
_atom_site_label
_atom_site_fract_x
_atom_site_fract_y
_atom_site_fract_z
Si Si1 0.500171 0.253685 0.187295
Si Si2 0.209540 0.356929 0.459876
Si Si3 0.776847 0.859338 0.576294
Si Si4 0.735168 0.203328 0.909039
Si Si5 0.468274 0.319144 0.797351
Si Si6 0.447225 0.988505 0.746615
Si Si7 0.932835 0.464090 0.332233
O O1 0.271937 0.183798 0.234052
O O2 0.532285 0.116760 0.277055
O O3 0.685385 0.381269 0.264641
O O4 0.494469 0.338755 0.967736
O O5 0.245802 0.285022 0.391464
O O6 0.241041 0.282998 0.682232
O O7 0.372220 0.536736 0.358597
O O8 0.986139 0.341541 0.395393
O O9 0.598200 0.893421 0.442191
O O10 0.000000 0.000000 0.500000
O O11 0.516731 0.194817 0.866433
O O12 0.942506 0.373405 0.838310
O O13 0.676579 0.097695 0.828050
O O14 0.749314 0.119418 0.129204
O O15 0.000000 0.500000 0.500000
#
# Coordination Sequence:
#
# PCOD8007031 Si02
#       7
#     2   2   2   2   2   2   2
#     4  11  25  42  68  96 131 171 226 270 314 392
#     4  10  22  42  67  93 135 169 208 266 334 381
#     4  12  25  41  63  94 131 173 214 270 332 384
#     4   9  19  38  69  92 128 171 217 262 317 388
#     4   9  20  41  69  95 128 172 214 266 324 381
#     4  10  20  40  66  94 129 174 214 260 318 390
#     4  11  24  42  67 100 128 170 220 272 324 384
#
# _framework density 23.332535
#
# number of rings (size 3 to 8) (size 9 to 14) (size 15 to 20)
#    0.000    1.714    1.429    2.143    4.000    8.000 
#    2.571    0.714    0.000    0.000    0.000    0.000 
#    0.000    0.000    0.000    0.000    0.000    0.000 
#
# Total GULP energy -173436.411339 kJ/mol
# GULP energy per Si atom -12388.315096 kJ/mol
# Density = 2.327943 g / cm^3
# Si number density = 23.332535 Si / 1000 Ang^3
#
#
#
# Elastic Constant Matrix: (Units=GPa)
#
#
# Indices 1 2 3 4 5 6 
#
# 1 76.9343 26.8612 22.2195 3.7711 -21.4272 -2.9445
# 2 26.8612 98.3596 12.2100 5.8792 -14.6287 -8.2333
# 3 22.2195 12.2100 92.3945 7.5232 -18.0011 -5.1890
# 4 3.7711 5.8792 7.5232 33.6780 -8.3709 -4.2362
# 5 -21.4272 -14.6287 -18.0011 -8.3709 26.4330 -3.5232
# 6 -2.9445 -8.2333 -5.1890 -4.2362 -3.5232 35.4158
#
#
#
# Elastic Compliance Matrix: (Units=1/GPa)
#
#
# Indices 1 2 3 4 5 6 
#
# 1 0.018002 -0.002736 -0.001479 0.002330 0.013106 0.002226
# 2 -0.002736 0.011872 0.000218 -0.000235 0.004828 0.003017
# 3 -0.001479 0.000218 0.012865 -0.000470 0.007873 0.002540
# 4 0.002330 -0.000235 -0.000470 0.033413 0.012731 0.005333
# 5 0.013106 0.004828 0.007873 0.012731 0.061994 0.011056
# 6 0.002226 0.003017 0.002540 0.005333 0.011056 0.031232
#
#
# Mechanical properties :
#
#
# Convention : Reuss Voigt Hill
#
# Bulk Modulus (GPa) = 28.78145 43.36332 36.07238
# Shear Modulus (GPa) = 26.46169 32.86519 29.66344
#
# Velocity S-wave (km/s) = 3.37131 3.75715 3.56945
# Velocity P-wave (km/s) = 5.24561 6.11938 5.69926
#
# Compressibility (1/GPa) = 0.03474461
#
# Stress axis : x y z
#
# Youngs Moduli (GPa) = 55.55042 84.23477 77.73226
#
# Poissons Ratio (x) = 0.23049 0.11495
# Poissons Ratio (y) = 0.15200 -0.01698
# Poissons Ratio (z) = 0.08215 -0.01840
#
# Static dielectric constant tensor:
#      x y z
#    x 4.125440 -0.037000 0.071040 
#    y -0.037000 3.654200 0.107540 
#    z 0.071040 0.107540 4.320530 
# 
# 
# High freq. dielectric constant tensor:
#      x y z
#    x 1.898330 -0.018400 -0.003430 
#    y -0.018400 1.917610 -0.012110 
#    z -0.003430 -0.012110 1.935060 
# 
# From -- ./inp_files/185298.got.cif
#   From: 2010.06.25/outbox.cif.g09.slc.cpg/sg2_93_cif.got.tgz:185298.got - 2010.06.27 13:26:56.
