data_PCOD8007403
_publ_section_title
;
Structure prediction by ZEFSAII (Michael W. Deem and Ramdas Pophale) SiO2 
 PCOD8007403
Probable space group: P -1
;
_chemical_formula_sum "Si O2"
_cell_formula_units_Z 16
_cell_length_a 18.502134
_cell_length_b 21.086304
_cell_length_c 7.938557
_cell_angle_alpha 52.615611
_cell_angle_beta 117.989461
_cell_angle_gamma 159.563173
_cell_volume 801.978703
_symmetry_space_group_name_H-M "P -1"
_symmetry_group_IT_number 2
_symmetry_cell_setting 'triclinic'
loop_
_space_group_symop_operation_xyz
x,y,z
-x,-y,-z
loop_
_atom_site_type_symbol
_atom_site_label
_atom_site_fract_x
_atom_site_fract_y
_atom_site_fract_z
Si Si1 0.491619 0.625854 0.664089
Si Si2 0.665480 0.659627 0.273625
Si Si3 0.970131 0.086589 0.550690
Si Si4 0.627506 0.299099 0.248126
Si Si5 0.872848 0.162422 0.503146
Si Si6 0.876669 0.470619 0.935716
Si Si7 0.740161 0.431096 0.536838
Si Si8 0.359574 0.509376 0.072599
O O1 0.390493 0.463090 0.712360
O O2 0.454926 0.681031 0.456457
O O3 0.338429 0.487390 0.885263
O O4 0.755717 0.851717 0.610230
O O5 0.500000 0.500000 0.500000
O O6 0.920097 0.880779 0.257968
O O7 0.603985 0.690730 0.081137
O O8 0.153979 0.277166 0.306014
O O9 0.889927 0.089970 0.562022
O O10 0.747047 0.348320 0.168609
O O11 0.729170 0.385494 0.409094
O O12 0.376300 0.043154 0.390814
O O13 0.639634 0.398247 0.017959
O O14 0.024744 0.309272 0.600059
O O15 0.949155 0.298083 0.231220
O O16 0.721638 0.345929 0.800046
O O17 0.000000 0.500000 0.000000
#
# Coordination Sequence:
#
# PCOD8007403 Si02
#       8
#     2   2   2   2   2   2   2   2
#     4  11  21  39  59  83 121 158 207 249 299 363
#     4  10  22  37  56  85 124 158 201 262 297 342
#     4  11  20  39  62  83 120 162 201 255 303 348
#     4  11  21  42  65  89 125 166 202 246 310 369
#     4  10  20  41  62  90 124 158 203 248 303 374
#     4  10  23  43  67  95 126 155 200 257 305 375
#     4   9  21  40  62  92 121 159 204 249 300 370
#     4  10  21  36  58  87 115 161 204 245 301 357
#
# _framework density 19.950655999999999
#
# number of rings (size 3 to 8) (size 9 to 14) (size 15 to 20)
#    0.750    1.000    5.000    0.375    1.750    3.500 
#    6.750    3.125    0.000    0.000    0.000    0.000 
#    0.000    0.000    0.000    0.000    0.000    0.000 
#
# Total GULP energy -198240.903629 kJ/mol
# GULP energy per Si atom -12390.056477 kJ/mol
# Density = 1.990525 g / cm^3
# Si number density = 19.950656 Si / 1000 Ang^3
#
#
#
# Elastic Constant Matrix: (Units=GPa)
#
#
# Indices 1 2 3 4 5 6 
#
# 1 99.6540 32.6753 16.5719 12.4716 -11.4021 16.0064
# 2 32.6753 127.9795 25.5602 7.5105 -10.3982 5.1644
# 3 16.5719 25.5602 47.1145 4.8966 -8.7743 5.6582
# 4 12.4716 7.5105 4.8966 26.9160 13.0888 -1.4094
# 5 -11.4021 -10.3982 -8.7743 13.0888 27.2065 3.7687
# 6 16.0064 5.1644 5.6582 -1.4094 3.7687 23.7597
#
#
#
# Elastic Compliance Matrix: (Units=1/GPa)
#
#
# Indices 1 2 3 4 5 6 
#
# 1 0.016742 -0.001647 0.001719 -0.016689 0.017052 -0.015025
# 2 -0.001647 0.009399 -0.003531 -0.002829 0.003232 -0.000773
# 3 0.001719 -0.003531 0.028265 -0.013499 0.016439 -0.010530
# 4 -0.016689 -0.002829 -0.013499 0.075070 -0.052401 0.027838
# 5 0.017052 0.003232 0.016439 -0.052401 0.080070 -0.031914
# 6 -0.015025 -0.000773 -0.010530 0.027838 -0.031914 0.061599
#
#
# Mechanical properties :
#
#
# Convention : Reuss Voigt Hill
#
# Bulk Modulus (GPa) = 21.05775 47.15144 34.10459
# Shear Modulus (GPa) = 17.01305 28.90582 22.95943
#
# Velocity S-wave (km/s) = 2.92337 3.81053 3.39604
# Velocity P-wave (km/s) = 4.68749 6.56091 5.70167
#
# Compressibility (1/GPa) = 0.04748846
#
# Stress axis : x y z
#
# Youngs Moduli (GPa) = 59.73115 106.39160 35.37941
#
# Poissons Ratio (x) = 0.17519 -0.06082
# Poissons Ratio (y) = 0.09836 0.12493
# Poissons Ratio (z) = -0.10269 0.37570
#
# Static dielectric constant tensor:
#      x y z
#    x 3.442620 0.144600 -0.077530 
#    y 0.144600 3.846130 0.315040 
#    z -0.077530 0.315040 3.720300 
# 
# 
# High freq. dielectric constant tensor:
#      x y z
#    x 1.774590 0.009100 -0.008440 
#    y 0.009100 1.775380 0.009990 
#    z -0.008440 0.009990 1.766530 
# 
# From -- ./inp_files/337607.got.cif
#   From: 2010.06.25/outbox.cif.g09.slc.cpg/sg2_169_cif.got.tgz:337607.got - 2010.06.27 13:26:56.
