data_PCOD8007861
_publ_section_title
;
Structure prediction by ZEFSAII (Michael W. Deem and Ramdas Pophale) SiO2 
 PCOD8007861
Probable space group: P -1
;
_chemical_formula_sum "Si O2"
_cell_formula_units_Z 12
_cell_length_a 14.101654
_cell_length_b 7.522543
_cell_length_c 8.621344
_cell_angle_alpha 124.957932
_cell_angle_beta 138.912118
_cell_angle_gamma 73.781680
_cell_volume 472.441906
_symmetry_space_group_name_H-M "P -1"
_symmetry_group_IT_number 2
_symmetry_cell_setting 'triclinic'
loop_
_space_group_symop_operation_xyz
x,y,z
-x,-y,-z
loop_
_atom_site_type_symbol
_atom_site_label
_atom_site_fract_x
_atom_site_fract_y
_atom_site_fract_z
Si Si1 0.670427 0.517320 0.073663
Si Si2 0.189504 0.473255 0.059535
Si Si3 0.863727 0.911386 0.670426
Si Si4 0.644789 0.861321 0.978846
Si Si5 0.453454 0.058929 0.637104
Si Si6 0.861244 0.243884 0.589297
O O1 0.805260 0.640811 0.423368
O O2 0.607851 0.724984 0.030640
O O3 0.736104 0.408882 0.951828
O O4 0.541004 0.326456 0.906141
O O5 0.221204 0.628088 0.328669
O O6 0.261551 0.265822 0.078546
O O7 0.009873 0.405182 0.774798
O O8 0.724060 0.986685 0.603753
O O9 0.916561 0.047224 0.644846
O O10 0.000000 0.000000 0.000000
O O11 0.742583 0.121936 0.252027
O O12 0.494537 0.884210 0.722485
O O13 0.500000 0.000000 0.500000
#
# Coordination Sequence:
#
# PCOD8007861 Si02
#       6
#     2   2   2   2   2   2
#     4   9  23  46  70 103 142 181 240 285 350 413
#     4   9  20  41  69 106 134 187 230 289 345 420
#     4  11  26  44  69 105 146 185 233 295 348 419
#     4   9  23  43  70  99 139 184 231 292 341 414
#     4  12  26  46  71 106 140 187 237 287 355 416
#     4  10  20  41  70 101 142 185 237 277 364 411
#
# _framework density 25.399947999999998
#
# number of rings (size 3 to 8) (size 9 to 14) (size 15 to 20)
#    1.000    1.000    0.000    2.000    2.333    6.000 
#    3.000    2.500    0.000    0.000    0.000    0.000 
#    0.000    0.000    0.000    0.000    0.000    0.000 
#
# Total GULP energy -148673.896899 kJ/mol
# GULP energy per Si atom -12389.491408 kJ/mol
# Density = 2.534214 g / cm^3
# Si number density = 25.399948 Si / 1000 Ang^3
#
#
#
# Elastic Constant Matrix: (Units=GPa)
#
#
# Indices 1 2 3 4 5 6 
#
# 1 70.1047 23.6985 28.4878 -8.8986 24.1590 -12.8532
# 2 23.6985 76.9056 45.8841 3.6065 8.2734 -9.2250
# 3 28.4878 45.8841 125.7602 -12.3186 17.1100 -8.0862
# 4 -8.8986 3.6065 -12.3186 37.4745 -4.8980 -3.4904
# 5 24.1590 8.2734 17.1100 -4.8980 31.9372 10.9944
# 6 -12.8532 -9.2250 -8.0862 -3.4904 10.9944 44.8200
#
#
#
# Elastic Compliance Matrix: (Units=1/GPa)
#
#
# Indices 1 2 3 4 5 6 
#
# 1 0.026407 -0.004443 -0.000030 0.004932 -0.022363 0.012523
# 2 -0.004443 0.018278 -0.006201 -0.004654 0.000969 0.000769
# 3 -0.000030 -0.006201 0.011377 0.003931 -0.004623 0.002208
# 4 0.004932 -0.004654 0.003931 0.029771 -0.001381 0.003823
# 5 -0.022363 0.000969 -0.004623 -0.001381 0.057567 -0.021277
# 6 0.012523 0.000769 0.002208 0.003823 -0.021277 0.031976
#
#
# Mechanical properties :
#
#
# Convention : Reuss Voigt Hill
#
# Bulk Modulus (GPa) = 28.80619 52.10126 40.45372
# Shear Modulus (GPa) = 24.00452 34.49302 29.24877
#
# Velocity S-wave (km/s) = 3.07752 3.68910 3.39710
# Velocity P-wave (km/s) = 4.89835 6.22116 5.59896
#
# Compressibility (1/GPa) = 0.03471476
#
# Stress axis : x y z
#
# Youngs Moduli (GPa) = 37.86860 54.71160 87.89860
#
# Poissons Ratio (x) = 0.24307 0.00264
# Poissons Ratio (y) = 0.16824 0.54502
# Poissons Ratio (z) = 0.00114 0.33924
#
# Static dielectric constant tensor:
#      x y z
#    x 4.502020 0.039450 -0.119030 
#    y 0.039450 4.609160 0.613500 
#    z -0.119030 0.613500 4.840710 
# 
# 
# High freq. dielectric constant tensor:
#      x y z
#    x 2.017130 -0.005320 -0.003400 
#    y -0.005320 1.992350 0.030860 
#    z -0.003400 0.030860 2.018110 
# 
# From -- ./inp_files/291131.got.cif
#   From: 2010.06.25/outbox.cif.g09.slc.cpg/sg2_146_cif.got.tgz:291131.got - 2010.06.27 13:26:56.
