data_PCOD8007855
_publ_section_title
;
Structure prediction by ZEFSAII (Michael W. Deem and Ramdas Pophale) SiO2 
 PCOD8007855
Probable space group: P -1
;
_chemical_formula_sum "Si O2"
_cell_formula_units_Z 14
_cell_length_a 11.445179
_cell_length_b 11.678046
_cell_length_c 10.524126
_cell_angle_alpha 80.311489
_cell_angle_beta 65.958123
_cell_angle_gamma 136.650888
_cell_volume 592.098934
_symmetry_space_group_name_H-M "P -1"
_symmetry_group_IT_number 2
_symmetry_cell_setting 'triclinic'
loop_
_space_group_symop_operation_xyz
x,y,z
-x,-y,-z
loop_
_atom_site_type_symbol
_atom_site_label
_atom_site_fract_x
_atom_site_fract_y
_atom_site_fract_z
Si Si1 0.708752 0.871114 0.266486
Si Si2 0.257641 0.354417 0.793675
Si Si3 0.148285 0.466006 0.633056
Si Si4 0.283322 0.992738 0.272729
Si Si5 0.993087 0.211991 0.297546
Si Si6 0.297400 0.258602 0.258033
Si Si7 0.110345 0.554380 0.077633
O O1 0.678197 0.707209 0.307201
O O2 0.421671 0.703244 0.380766
O O3 0.772240 0.958901 0.366709
O O4 0.944830 0.102225 0.025415
O O5 0.279509 0.487026 0.676641
O O6 0.466181 0.528101 0.785373
O O7 0.902688 0.210184 0.715642
O O8 0.050615 0.507620 0.729008
O O9 0.135083 0.855663 0.498518
O O10 0.349355 0.180293 0.174147
O O11 0.570510 0.155222 0.114574
O O12 0.267123 0.350358 0.165791
O O13 0.070048 0.385520 0.148693
O O14 0.000000 0.000000 0.500000
O O15 0.000000 0.500000 0.000000
#
# Coordination Sequence:
#
# PCOD8007855 Si02
#       7
#     2   2   2   2   2   2   2
#     4  11  23  40  66  98 129 171 221 272 332 388
#     4  11  24  42  69 102 134 171 220 276 333 395
#     4  12  25  44  67  95 138 177 218 273 328 397
#     4  11  25  44  69 100 133 175 223 275 335 395
#     4  11  24  43  69  98 135 175 220 276 333 395
#     4  10  20  41  69  99 133 169 216 274 333 387
#     4  12  27  46  69  97 132 179 228 273 330 398
#
# _framework density 23.644694999999999
#
# number of rings (size 3 to 8) (size 9 to 14) (size 15 to 20)
#    0.000    0.857    0.000    8.571    0.000    9.714 
#    0.000    1.429    0.000    0.000    0.000    0.000 
#    0.000    0.000    0.000    0.000    0.000    0.000 
#
# Total GULP energy -173619.806674 kJ/mol
# GULP energy per Si atom -12401.414762 kJ/mol
# Density = 2.359088 g / cm^3
# Si number density = 23.644695 Si / 1000 Ang^3
#
#
#
# Elastic Constant Matrix: (Units=GPa)
#
#
# Indices 1 2 3 4 5 6 
#
# 1 133.1610 64.0487 48.6967 -10.6178 -10.2329 8.2048
# 2 64.0487 168.0128 37.1397 -15.6235 -17.4315 4.7491
# 3 48.6967 37.1397 108.6462 -14.6099 -38.7485 3.4909
# 4 -10.6178 -15.6235 -14.6099 40.0114 5.2567 -11.1211
# 5 -10.2329 -17.4315 -38.7485 5.2567 48.5810 -1.7781
# 6 8.2048 4.7491 3.4909 -11.1211 -1.7781 34.3999
#
#
#
# Elastic Compliance Matrix: (Units=1/GPa)
#
#
# Indices 1 2 3 4 5 6 
#
# 1 0.010654 -0.003300 -0.004559 -0.000298 -0.002612 -0.001854
# 2 -0.003300 0.007608 -0.000311 0.001901 0.001598 0.000465
# 3 -0.004559 -0.000311 0.015741 0.003273 0.011172 0.001169
# 4 -0.000298 0.001901 0.003273 0.029292 0.000389 0.008967
# 5 -0.002612 0.001598 0.011172 0.000389 0.029510 0.000920
# 6 -0.001854 0.000465 0.001169 0.008967 0.000920 0.032276
#
#
# Mechanical properties :
#
#
# Convention : Reuss Voigt Hill
#
# Bulk Modulus (GPa) = 56.61717 78.84334 67.73026
# Shear Modulus (GPa) = 33.94223 41.92745 37.93484
#
# Velocity S-wave (km/s) = 3.79292 4.21554 4.00980
# Velocity P-wave (km/s) = 6.57105 7.55724 7.08133
#
# Compressibility (1/GPa) = 0.01766249
#
# Stress axis : x y z
#
# Youngs Moduli (GPa) = 93.86138 131.43930 63.52777
#
# Poissons Ratio (x) = 0.43374 0.28965
# Poissons Ratio (y) = 0.30974 0.01976
# Poissons Ratio (z) = 0.42795 0.04089
#
# Static dielectric constant tensor:
#      x y z
#    x 4.477290 -0.132990 -0.281510 
#    y -0.132990 4.340740 -0.106020 
#    z -0.281510 -0.106020 4.570380 
# 
# 
# High freq. dielectric constant tensor:
#      x y z
#    x 1.927750 -0.003900 -0.016160 
#    y -0.003900 1.943650 -0.011140 
#    z -0.016160 -0.011140 1.965970 
# 
# From -- ./inp_files/416944.got.cif
#   From: 2010.06.25/outbox.cif.g09.slc.cpg/sg2_209_cif.got.tgz:416944.got - 2010.06.27 13:26:56.
