data_PCOD8007089
_publ_section_title
;
Structure prediction by ZEFSAII (Michael W. Deem and Ramdas Pophale) SiO2 
 PCOD8007089
Probable space group: P -1
;
_chemical_formula_sum "Si O2"
_cell_formula_units_Z 12
_cell_length_a 6.659357
_cell_length_b 16.192259
_cell_length_c 4.815301
_cell_angle_alpha 87.656467
_cell_angle_beta 80.088955
_cell_angle_gamma 87.008881
_cell_volume 510.519485
_symmetry_space_group_name_H-M "P -1"
_symmetry_group_IT_number 2
_symmetry_cell_setting 'triclinic'
loop_
_space_group_symop_operation_xyz
x,y,z
-x,-y,-z
loop_
_atom_site_type_symbol
_atom_site_label
_atom_site_fract_x
_atom_site_fract_y
_atom_site_fract_z
Si Si1 0.842798 0.944607 0.702112
Si Si2 0.168310 0.816778 0.685004
Si Si3 0.108082 0.414783 0.578129
Si Si4 0.235734 0.706805 0.193303
Si Si5 0.608951 0.585553 0.983442
Si Si6 0.647367 0.015193 0.222785
O O1 0.634912 0.962658 0.543564
O O2 0.933610 0.850332 0.676674
O O3 0.000000 0.000000 0.500000
O O4 0.838610 0.968056 0.026015
O O5 0.270549 0.782883 0.381735
O O6 0.305691 0.889438 0.754555
O O7 0.161501 0.741663 0.911032
O O8 0.198579 0.425944 0.859248
O O9 0.000000 0.500000 0.500000
O O10 0.939653 0.346643 0.626716
O O11 0.297832 0.388645 0.337076
O O12 0.448742 0.655991 0.115842
O O13 0.500000 0.500000 0.000000
O O14 0.500000 0.000000 0.000000
#
# Coordination Sequence:
#
# PCOD8007089 Si02
#       6
#     2   2   2   2   2   2
#     4  10  20  40  67  87 124 179 221 259 334 421
#     4  11  23  44  65  96 136 173 220 284 352 391
#     4  12  26  46  74 101 135 187 240 274 346 428
#     4  12  26  45  68 102 145 176 226 297 345 399
#     4  12  26  46  75 101 138 183 236 284 341 421
#     4  11  22  41  67  97 130 174 229 279 334 419
#
# _framework density 23.505469999999999
#
# number of rings (size 3 to 8) (size 9 to 14) (size 15 to 20)
#    0.000    0.667    1.667    8.500    2.333    0.000 
#   18.000    0.000    0.000    0.000    0.000    0.000 
#    0.000    0.000    0.000    0.000    0.000    0.000 
#
# Total GULP energy -148738.853436 kJ/mol
# GULP energy per Si atom -12394.904453 kJ/mol
# Density = 2.345197 g / cm^3
# Si number density = 23.505470 Si / 1000 Ang^3
#
#
#
# Elastic Constant Matrix: (Units=GPa)
#
#
# Indices 1 2 3 4 5 6 
#
# 1 123.0350 46.5934 27.1399 4.5846 7.0790 -13.8112
# 2 46.5934 117.8530 35.5295 15.7181 0.5762 -27.9956
# 3 27.1399 35.5295 166.9051 13.5908 -1.9008 -10.2194
# 4 4.5846 15.7181 13.5908 52.1474 -2.1109 3.2488
# 5 7.0790 0.5762 -1.9008 -2.1109 45.3882 -4.6320
# 6 -13.8112 -27.9956 -10.2194 3.2488 -4.6320 40.0554
#
#
#
# Elastic Compliance Matrix: (Units=1/GPa)
#
#
# Indices 1 2 3 4 5 6 
#
# 1 0.009779 -0.003530 -0.000852 0.000337 -0.001450 0.000492
# 2 -0.003530 0.012564 -0.001333 -0.003566 0.000947 0.007623
# 3 -0.000852 -0.001333 0.006557 -0.001252 0.000427 0.000599
# 4 0.000337 -0.003566 -0.001252 0.020837 0.000467 -0.004332
# 5 -0.001450 0.000947 0.000427 0.000467 0.022576 0.002844
# 6 0.000492 0.007623 0.000599 -0.004332 0.002844 0.031296
#
#
# Mechanical properties :
#
#
# Convention : Reuss Voigt Hill
#
# Bulk Modulus (GPa) = 57.24141 69.59098 63.41619
# Shear Modulus (GPa) = 41.36921 47.42022 44.39471
#
# Velocity S-wave (km/s) = 4.19977 4.49643 4.35063
# Velocity P-wave (km/s) = 6.92262 7.52514 7.23016
#
# Compressibility (1/GPa) = 0.01746987
#
# Stress axis : x y z
#
# Youngs Moduli (GPa) = 102.26259 79.59045 152.50350
#
# Poissons Ratio (x) = 0.28096 0.13001
# Poissons Ratio (y) = 0.36099 0.20324
# Poissons Ratio (z) = 0.08718 0.10607
#
# Static dielectric constant tensor:
#      x y z
#    x 5.806780 -0.788530 0.637130 
#    y -0.788530 4.323970 -0.191850 
#    z 0.637130 -0.191850 3.131110 
# 
# 
# High freq. dielectric constant tensor:
#      x y z
#    x 1.958440 -0.019720 -0.002980 
#    y -0.019720 1.918420 0.009080 
#    z -0.002980 0.009080 1.974590 
# 
# From -- ./inp_files/5181.got.cif
#   From: 2010.06.25/outbox.cif.g09.slc.cpg/sg2_3_cif.got.tgz:5181.got - 2010.06.27 13:26:56.
