data_PCOD8007566
_publ_section_title
;
Structure prediction by ZEFSAII (Michael W. Deem and Ramdas Pophale) SiO2 
 PCOD8007566
Probable space group: P -1
;
_chemical_formula_sum "Si O2"
_cell_formula_units_Z 16
_cell_length_a 12.602735
_cell_length_b 6.548201
_cell_length_c 13.469500
_cell_angle_alpha 77.487952
_cell_angle_beta 135.219020
_cell_angle_gamma 88.694570
_cell_volume 738.771619
_symmetry_space_group_name_H-M "P -1"
_symmetry_group_IT_number 2
_symmetry_cell_setting 'triclinic'
loop_
_space_group_symop_operation_xyz
x,y,z
-x,-y,-z
loop_
_atom_site_type_symbol
_atom_site_label
_atom_site_fract_x
_atom_site_fract_y
_atom_site_fract_z
Si Si1 0.087605 0.863309 0.478157
Si Si2 0.198991 0.773807 0.197006
Si Si3 0.711995 0.044459 0.566727
Si Si4 0.407715 0.823148 0.978083
Si Si5 0.328772 0.539140 0.789114
Si Si6 0.141841 0.215366 0.027893
Si Si7 0.831888 0.783440 0.176555
Si Si8 0.367226 0.314873 0.319350
O O1 0.181956 0.998292 0.458646
O O2 0.209925 0.641565 0.614100
O O3 0.973208 0.767069 0.346473
O O4 0.000000 0.000000 0.500000
O O5 0.191650 0.862621 0.295860
O O6 0.344397 0.562788 0.311977
O O7 0.227749 0.959831 0.123692
O O8 0.036419 0.728104 0.057967
O O9 0.545050 0.212031 0.415488
O O10 0.682111 0.819229 0.608300
O O11 0.359909 0.737750 0.850692
O O12 0.254377 0.959477 0.917751
O O13 0.508408 0.616159 0.129861
O O14 0.500000 0.000000 0.000000
O O15 0.267988 0.375415 0.835506
O O16 0.249034 0.337867 0.145949
O O17 0.121411 0.299452 0.893424
#
# Coordination Sequence:
#
# PCOD8007566 Si02
#       8
#     2   2   2   2   2   2   2   2
#     4  12  24  43  64  91 133 182 217 270 327 392
#     4  10  20  41  65  91 126 163 210 268 331 386
#     4  10  23  42  64  93 133 163 218 268 325 389
#     4   9  20  40  62  86 120 166 215 269 318 371
#     4  10  22  39  62  88 126 169 223 267 312 387
#     4  10  22  37  64  95 126 158 212 272 323 391
#     4  11  22  41  62  92 129 172 219 270 326 387
#     4  10  22  42  66  98 123 166 213 274 331 392
#
# _framework density 21.657574
#
# number of rings (size 3 to 8) (size 9 to 14) (size 15 to 20)
#    0.000    1.750    2.500    1.125    0.000    6.000 
#    2.250    0.000    0.000    0.000    0.000    0.000 
#    0.000    0.000    0.000    0.000    0.000    0.000 
#
# Total GULP energy -198276.044284 kJ/mol
# GULP energy per Si atom -12392.252768 kJ/mol
# Density = 2.160828 g / cm^3
# Si number density = 21.657574 Si / 1000 Ang^3
#
#
#
# Elastic Constant Matrix: (Units=GPa)
#
#
# Indices 1 2 3 4 5 6 
#
# 1 80.1462 21.9303 28.0570 6.4833 -8.0144 -2.2533
# 2 21.9303 81.2961 24.6656 -12.4388 -1.3037 0.2404
# 3 28.0570 24.6656 127.3148 -8.7004 0.2313 -7.0970
# 4 6.4833 -12.4388 -8.7004 31.4264 -1.5362 6.0116
# 5 -8.0144 -1.3037 0.2313 -1.5362 32.5086 1.9063
# 6 -2.2533 0.2404 -7.0970 6.0116 1.9063 17.8961
#
#
#
# Elastic Compliance Matrix: (Units=1/GPa)
#
#
# Indices 1 2 3 4 5 6 
#
# 1 0.015508 -0.004179 -0.002881 -0.005976 0.003246 0.002528
# 2 -0.004179 0.015047 -0.001723 0.007075 0.000143 -0.003804
# 3 -0.002881 -0.001723 0.009105 0.001864 -0.000917 0.002743
# 4 -0.005976 0.007075 0.001864 0.038995 0.001423 -0.013359
# 5 0.003246 0.000143 -0.000917 0.001423 0.031865 -0.003829
# 6 0.002528 -0.003804 0.002743 -0.013359 -0.003829 0.062230
#
#
# Mechanical properties :
#
#
# Convention : Reuss Voigt Hill
#
# Bulk Modulus (GPa) = 45.26172 48.67366 46.96769
# Shear Modulus (GPa) = 25.29306 30.63984 27.96645
#
# Velocity S-wave (km/s) = 3.42111 3.76538 3.59737
# Velocity P-wave (km/s) = 6.04562 6.43639 6.24406
#
# Compressibility (1/GPa) = 0.02209373
#
# Stress axis : x y z
#
# Youngs Moduli (GPa) = 64.48089 66.45872 109.82662
#
# Poissons Ratio (x) = 0.27774 0.31646
# Poissons Ratio (y) = 0.26947 0.18922
# Poissons Ratio (z) = 0.18580 0.11450
#
# Static dielectric constant tensor:
#      x y z
#    x 3.712520 -0.064510 0.230470 
#    y -0.064510 3.994890 -0.195310 
#    z 0.230470 -0.195310 4.167910 
# 
# 
# High freq. dielectric constant tensor:
#      x y z
#    x 1.825320 0.005390 0.014880 
#    y 0.005390 1.847020 -0.005390 
#    z 0.014880 -0.005390 1.871210 
# 
# From -- ./inp_files/525791.got.cif
#   From: 2010.06.25/outbox.cif.g09.slc.cpg/sg2_263_cif.got.tgz:525791.got - 2010.06.27 13:26:56.
