data_PCOD8007131
_publ_section_title
;
Structure prediction by ZEFSAII (Michael W. Deem and Ramdas Pophale) SiO2 
 PCOD8007131
Probable space group: P -1
;
_chemical_formula_sum "Si O2"
_cell_formula_units_Z 16
_cell_length_a 15.931322
_cell_length_b 15.652566
_cell_length_c 9.197628
_cell_angle_alpha 51.443573
_cell_angle_beta 133.234323
_cell_angle_gamma 154.491504
_cell_volume 719.515495
_symmetry_space_group_name_H-M "P -1"
_symmetry_group_IT_number 2
_symmetry_cell_setting 'triclinic'
loop_
_space_group_symop_operation_xyz
x,y,z
-x,-y,-z
loop_
_atom_site_type_symbol
_atom_site_label
_atom_site_fract_x
_atom_site_fract_y
_atom_site_fract_z
Si Si1 0.086252 0.644616 0.247643
Si Si2 0.273398 0.251274 0.168484
Si Si3 0.054697 0.928063 0.576862
Si Si4 0.079332 0.205482 0.742462
Si Si5 0.838500 0.645816 0.855635
Si Si6 0.129634 0.738267 0.519205
Si Si7 0.515197 0.316280 0.596283
Si Si8 0.450406 0.896209 0.199138
O O1 0.187165 0.739159 0.426499
O O2 0.262914 0.803146 0.166411
O O3 0.981732 0.442993 0.324115
O O4 0.896852 0.581205 0.075502
O O5 0.183522 0.269365 0.154495
O O6 0.492225 0.375128 0.360718
O O7 0.116433 0.026175 0.204862
O O8 0.284568 0.320076 0.950430
O O9 0.887287 0.767667 0.420156
O O10 0.030124 0.819166 0.788586
O O11 0.284969 0.104160 0.602179
O O12 0.000000 0.000000 0.500000
O O13 0.030623 0.288013 0.654530
O O14 0.627930 0.468317 0.699412
O O15 0.341704 0.944184 0.627738
O O16 0.626486 0.289097 0.724453
O O17 0.500000 0.000000 0.000000
#
# Coordination Sequence:
#
# PCOD8007131 Si02
#       8
#     2   2   2   2   2   2   2   2
#     4  11  27  42  72 100 128 189 222 275 347 388
#     4  10  20  40  67  95 127 175 215 269 338 387
#     4  11  22  40  65  98 130 171 214 270 338 395
#     4  10  20  40  69  94 131 174 216 274 335 395
#     4  12  23  42  67  96 133 170 219 274 331 401
#     4  11  23  48  67  95 141 172 230 281 326 407
#     4  11  24  40  66  97 134 169 218 277 330 392
#     4  12  25  45  69 100 136 175 230 277 334 404
#
# _framework density 22.237186999999999
#
# number of rings (size 3 to 8) (size 9 to 14) (size 15 to 20)
#    0.000    1.000    6.250    2.250    1.750    1.000 
#    0.000    0.625    0.000    0.000    0.000    0.000 
#    0.000    0.000    0.000    0.000    0.000    0.000 
#
# Total GULP energy -198347.702388 kJ/mol
# GULP energy per Si atom -12396.731399 kJ/mol
# Density = 2.218657 g / cm^3
# Si number density = 22.237187 Si / 1000 Ang^3
#
#
#
# Elastic Constant Matrix: (Units=GPa)
#
#
# Indices 1 2 3 4 5 6 
#
# 1 92.7028 9.2786 28.8568 -11.1532 0.7059 -8.4787
# 2 9.2786 51.1418 14.5876 1.0443 1.1117 -8.4337
# 3 28.8568 14.5876 119.1379 -0.3392 14.2921 -5.4656
# 4 -11.1532 1.0443 -0.3392 29.1041 -8.4727 8.3750
# 5 0.7059 1.1117 14.2921 -8.4727 39.8586 -1.5172
# 6 -8.4787 -8.4337 -5.4656 8.3750 -1.5172 24.2814
#
#
#
# Elastic Compliance Matrix: (Units=1/GPa)
#
#
# Indices 1 2 3 4 5 6 
#
# 1 0.012597 -0.001283 -0.003045 0.004939 0.002019 0.001690
# 2 -0.001283 0.021730 -0.001954 -0.003674 -0.000363 0.007904
# 3 -0.003045 -0.001954 0.009882 -0.002430 -0.003910 0.001076
# 4 0.004939 -0.003674 -0.002430 0.043285 0.009538 -0.014432
# 5 0.002019 -0.000363 -0.003910 0.009538 0.028424 -0.001815
# 6 0.001690 0.007904 0.001076 -0.014432 -0.001815 0.049626
#
#
# Mechanical properties :
#
#
# Convention : Reuss Voigt Hill
#
# Bulk Modulus (GPa) = 31.60049 40.93650 36.26850
# Shear Modulus (GPa) = 26.50332 32.66613 29.58472
#
# Velocity S-wave (km/s) = 3.45606 3.83689 3.65144
# Velocity P-wave (km/s) = 5.49248 6.17074 5.84146
#
# Compressibility (1/GPa) = 0.03164508
#
# Stress axis : x y z
#
# Youngs Moduli (GPa) = 79.38553 46.01925 101.19498
#
# Poissons Ratio (x) = 0.05904 0.30810
# Poissons Ratio (y) = 0.10185 0.19776
# Poissons Ratio (z) = 0.24169 0.08993
#
# Static dielectric constant tensor:
#      x y z
#    x -13.494070 -10.678590 -6.200440 
#    y -10.678590 -2.468720 -3.595100 
#    z -6.200440 -3.595100 2.490350 
# 
# 
# High freq. dielectric constant tensor:
#      x y z
#    x 1.870630 -0.023560 -0.001260 
#    y -0.023560 1.865200 -0.000440 
#    z -0.001260 -0.000440 1.897290 
# 
# From -- ./inp_files/314750.got.cif
#   From: 2010.06.25/outbox.cif.g09.slc.cpg/sg2_158_cif.got.tgz:314750.got - 2010.06.27 13:26:56.
