data_PCOD8007208
_publ_section_title
;
Structure prediction by ZEFSAII (Michael W. Deem and Ramdas Pophale) SiO2 
 PCOD8007208
Probable space group: P -1
;
_chemical_formula_sum "Si O2"
_cell_formula_units_Z 16
_cell_length_a 9.223761
_cell_length_b 15.188649
_cell_length_c 11.612129
_cell_angle_alpha 108.780009
_cell_angle_beta 128.037410
_cell_angle_gamma 113.049983
_cell_volume 742.032066
_symmetry_space_group_name_H-M "P -1"
_symmetry_group_IT_number 2
_symmetry_cell_setting 'triclinic'
loop_
_space_group_symop_operation_xyz
x,y,z
-x,-y,-z
loop_
_atom_site_type_symbol
_atom_site_label
_atom_site_fract_x
_atom_site_fract_y
_atom_site_fract_z
Si Si1 0.903255 0.664613 0.526849
Si Si2 0.632332 0.813200 0.366317
Si Si3 0.430750 0.846157 0.696410
Si Si4 0.569483 0.103231 0.848518
Si Si5 0.229793 0.644416 0.318787
Si Si6 0.805440 0.024203 0.170187
Si Si7 0.572527 0.458611 0.916736
Si Si8 0.812633 0.571300 0.680886
O O1 0.562014 0.548245 0.267799
O O2 0.885592 0.581552 0.585584
O O3 0.103694 0.706846 0.537630
O O4 0.037625 0.814016 0.707531
O O5 0.617449 0.899390 0.320115
O O6 0.369712 0.700629 0.284797
O O7 0.599890 0.709770 0.223694
O O8 0.954859 0.948655 0.643046
O O9 0.454071 0.778715 0.579654
O O10 0.469778 0.960923 0.700804
O O11 0.693332 0.936553 0.957627
O O12 0.483574 0.079679 0.931929
O O13 0.923989 0.258587 0.067387
O O14 0.174207 0.517169 0.277332
O O15 0.927884 0.584306 0.136342
O O16 0.500000 0.500000 0.000000
O O17 0.500000 0.500000 0.500000
#
# Coordination Sequence:
#
# PCOD8007208 Si02
#       8
#     2   2   2   2   2   2   2   2
#     4  10  20  40  68  96 130 175 229 271 332 393
#     4  11  25  43  68  97 137 184 224 272 341 401
#     4  11  22  43  68  98 133 175 226 283 325 396
#     4  11  22  42  71  94 133 177 233 271 331 407
#     4  12  27  44  67 102 143 176 222 279 344 399
#     4  10  20  42  68  96 126 179 224 279 328 390
#     4  11  22  42  68  98 135 179 220 279 333 401
#     4  12  24  42  67 101 131 183 222 273 346 400
#
# _framework density 21.56241
#
# number of rings (size 3 to 8) (size 9 to 14) (size 15 to 20)
#    0.000    1.000    5.000    3.000    1.750    1.500 
#    2.250    0.000    0.000    0.000    0.000    0.000 
#    0.000    0.000    0.000    0.000    0.000    0.000 
#
# Total GULP energy -198400.005987 kJ/mol
# GULP energy per Si atom -12400.000374 kJ/mol
# Density = 2.151333 g / cm^3
# Si number density = 21.562410 Si / 1000 Ang^3
#
#
#
# Elastic Constant Matrix: (Units=GPa)
#
#
# Indices 1 2 3 4 5 6 
#
# 1 80.5360 23.6647 35.4201 8.9565 -3.7229 -4.8681
# 2 23.6647 86.6382 14.8646 -2.9910 -15.7142 2.5963
# 3 35.4201 14.8646 121.5483 -9.3366 4.9545 -5.0585
# 4 8.9565 -2.9910 -9.3366 29.3709 -0.5982 3.7937
# 5 -3.7229 -15.7142 4.9545 -0.5982 35.7898 -6.6759
# 6 -4.8681 2.5963 -5.0585 3.7937 -6.6759 14.5591
#
#
#
# Elastic Compliance Matrix: (Units=1/GPa)
#
#
# Indices 1 2 3 4 5 6 
#
# 1 0.017240 -0.004013 -0.004920 -0.008201 0.002038 0.007843
# 2 -0.004013 0.013890 -0.000626 0.002847 0.005385 -0.002309
# 3 -0.004920 -0.000626 0.010174 0.004653 -0.002154 -0.000199
# 4 -0.008201 0.002847 0.004653 0.039950 -0.001997 -0.012959
# 5 0.002038 0.005385 -0.002154 -0.001997 0.033558 0.014880
# 6 0.007843 -0.002309 -0.000199 -0.012959 0.014880 0.081851
#
#
# Mechanical properties :
#
#
# Convention : Reuss Voigt Hill
#
# Bulk Modulus (GPa) = 45.07317 48.51346 46.79332
# Shear Modulus (GPa) = 22.40371 30.26217 26.33294
#
# Velocity S-wave (km/s) = 3.22688 3.75035 3.49842
# Velocity P-wave (km/s) = 5.90191 6.42662 6.16985
#
# Compressibility (1/GPa) = 0.02218615
#
# Stress axis : x y z
#
# Youngs Moduli (GPa) = 58.00390 71.99379 98.28659
#
# Poissons Ratio (x) = 0.28895 0.48355
# Poissons Ratio (y) = 0.23280 0.06153
# Poissons Ratio (z) = 0.28537 0.04507
#
# Static dielectric constant tensor:
#      x y z
#    x 3.701300 0.054020 0.113540 
#    y 0.054020 3.925720 -0.168870 
#    z 0.113540 -0.168870 4.202920 
# 
# 
# High freq. dielectric constant tensor:
#      x y z
#    x 1.820320 0.005860 0.012020 
#    y 0.005860 1.842040 -0.015290 
#    z 0.012020 -0.015290 1.868760 
# 
# From -- ./inp_files/392049.got.cif
#   From: 2010.06.25/outbox.cif.g09.slc.cpg/sg2_197_cif.got.tgz:392049.got - 2010.06.27 13:26:56.
