data_PCOD8007525
_publ_section_title
;
Structure prediction by ZEFSAII (Michael W. Deem and Ramdas Pophale) SiO2 
 PCOD8007525
Probable space group: P -1
;
_chemical_formula_sum "Si O2"
_cell_formula_units_Z 16
_cell_length_a 12.170489
_cell_length_b 12.426682
_cell_length_c 11.605531
_cell_angle_alpha 48.964757
_cell_angle_beta 117.568157
_cell_angle_gamma 78.661683
_cell_volume 778.383243
_symmetry_space_group_name_H-M "P -1"
_symmetry_group_IT_number 2
_symmetry_cell_setting 'triclinic'
loop_
_space_group_symop_operation_xyz
x,y,z
-x,-y,-z
loop_
_atom_site_type_symbol
_atom_site_label
_atom_site_fract_x
_atom_site_fract_y
_atom_site_fract_z
Si Si1 0.381950 0.268330 0.051402
Si Si2 0.733094 0.799980 0.579333
Si Si3 0.862722 0.450728 0.058724
Si Si4 0.757891 0.312543 0.922037
Si Si5 0.722062 0.590135 0.534854
Si Si6 0.406741 0.433359 0.730500
Si Si7 0.081795 0.329090 0.759158
Si Si8 0.000148 0.094928 0.819408
O O1 0.254186 0.466759 0.938884
O O2 0.569297 0.050399 0.358645
O O3 0.449306 0.316364 0.951233
O O4 0.270716 0.230670 0.970550
O O5 0.783003 0.660287 0.810916
O O6 0.649048 0.779883 0.446706
O O7 0.918707 0.723104 0.683178
O O8 0.843854 0.328538 0.056475
O O9 0.710547 0.449720 0.692910
O O10 0.567476 0.407915 0.805549
O O11 0.909165 0.064399 0.132523
O O12 0.601078 0.677316 0.298532
O O13 0.936868 0.440686 0.715525
O O14 0.211657 0.684237 0.469596
O O15 0.120029 0.136859 0.865152
O O16 0.000000 0.500000 0.500000
O O17 0.000000 0.000000 0.000000
#
# Coordination Sequence:
#
# PCOD8007525 Si02
#       8
#     2   2   2   2   2   2   2   2
#     4  12  24  41  67  99 132 177 221 276 336 389
#     4  10  23  40  69  96 124 179 225 274 336 385
#     4  10  24  45  64  92 136 172 230 279 312 399
#     4  11  24  43  66  93 132 180 219 270 328 397
#     4  10  20  41  64  96 134 164 218 281 326 386
#     4  11  25  40  64 100 134 168 219 276 329 401
#     4  11  21  40  66  99 139 163 210 284 334 385
#     4  11  23  40  67  98 132 178 212 262 339 397
#
# _framework density 20.555427000000002
#
# number of rings (size 3 to 8) (size 9 to 14) (size 15 to 20)
#    0.000    1.250    6.250    0.750    1.750    5.000 
#    0.000    1.250    0.000    0.000    0.000    0.000 
#    0.000    0.000    0.000    0.000    0.000    0.000 
#
# Total GULP energy -198442.727309 kJ/mol
# GULP energy per Si atom -12402.670457 kJ/mol
# Density = 2.050864 g / cm^3
# Si number density = 20.555427 Si / 1000 Ang^3
#
#
#
# Elastic Constant Matrix: (Units=GPa)
#
#
# Indices 1 2 3 4 5 6 
#
# 1 124.2837 27.9256 32.3824 -1.7526 1.8871 -7.4168
# 2 27.9256 108.5302 27.8982 -6.3501 -2.4603 -2.7909
# 3 32.3824 27.8982 81.2609 -2.2827 7.3515 5.3773
# 4 -1.7526 -6.3501 -2.2827 25.4006 -4.5486 -2.8483
# 5 1.8871 -2.4603 7.3515 -4.5486 24.3978 -1.2364
# 6 -7.4168 -2.7909 5.3773 -2.8483 -1.2364 24.9055
#
#
#
# Elastic Compliance Matrix: (Units=1/GPa)
#
#
# Indices 1 2 3 4 5 6 
#
# 1 0.009499 -0.001399 -0.003567 0.000463 0.000463 0.003518
# 2 -0.001399 0.010755 -0.003446 0.003028 0.002898 0.002023
# 3 -0.003567 -0.003446 0.015702 -0.001233 -0.005298 -0.005243
# 4 0.000463 0.003028 -0.001233 0.042304 0.008833 0.006020
# 5 0.000463 0.002898 -0.005298 0.008833 0.044732 0.004838
# 6 0.003518 0.002023 -0.005243 0.006020 0.004838 0.043487
#
#
# Mechanical properties :
#
#
# Convention : Reuss Voigt Hill
#
# Bulk Modulus (GPa) = 52.26702 54.49858 53.38280
# Shear Modulus (GPa) = 26.36021 29.99868 28.17945
#
# Velocity S-wave (km/s) = 3.58494 3.82436 3.70658
# Velocity P-wave (km/s) = 6.52827 6.78760 6.65920
#
# Compressibility (1/GPa) = 0.01913252
#
# Stress axis : x y z
#
# Youngs Moduli (GPa) = 105.27095 92.98287 63.68638
#
# Poissons Ratio (x) = 0.13012 0.22716
# Poissons Ratio (y) = 0.14731 0.21944
# Poissons Ratio (z) = 0.37548 0.32038
#
# Static dielectric constant tensor:
#      x y z
#    x 3.901930 0.013900 0.017960 
#    y 0.013900 3.780030 -0.010290 
#    z 0.017960 -0.010290 3.584910 
# 
# 
# High freq. dielectric constant tensor:
#      x y z
#    x 1.815020 -0.003950 0.005910 
#    y -0.003950 1.805560 -0.000630 
#    z 0.005910 -0.000630 1.789560 
# 
# From -- ./inp_files/427545.got.cif
#   From: 2010.06.25/outbox.cif.g09.slc.cpg/sg2_214_cif.got.tgz:427545.got - 2010.06.27 13:26:56.
