data_PCOD8007076
_publ_section_title
;
Structure prediction by ZEFSAII (Michael W. Deem and Ramdas Pophale) SiO2 
 PCOD8007076
Probable space group: P -1
;
_chemical_formula_sum "Si O2"
_cell_formula_units_Z 16
_cell_length_a 8.962360
_cell_length_b 11.021218
_cell_length_c 16.735163
_cell_angle_alpha 33.250235
_cell_angle_beta 128.529844
_cell_angle_gamma 114.254561
_cell_volume 685.247681
_symmetry_space_group_name_H-M "P -1"
_symmetry_group_IT_number 2
_symmetry_cell_setting 'triclinic'
loop_
_space_group_symop_operation_xyz
x,y,z
-x,-y,-z
loop_
_atom_site_type_symbol
_atom_site_label
_atom_site_fract_x
_atom_site_fract_y
_atom_site_fract_z
Si Si1 0.194568 0.187734 0.238135
Si Si2 0.842695 0.633577 0.257756
Si Si3 0.246400 0.067072 0.487827
Si Si4 0.273693 0.488129 0.550493
Si Si5 0.382446 0.914270 0.311891
Si Si6 0.473149 0.024067 0.112801
Si Si7 0.121171 0.648132 0.729475
Si Si8 0.752872 0.353891 0.056096
O O1 0.324622 0.069929 0.421813
O O2 0.972202 0.221436 0.176084
O O3 0.204763 0.037862 0.243673
O O4 0.284384 0.403303 0.133610
O O5 0.764992 0.489195 0.379665
O O6 0.822260 0.553989 0.204088
O O7 0.072094 0.605625 0.369763
O O8 0.693013 0.892989 0.059060
O O9 0.427441 0.006187 0.641532
O O10 0.101675 0.311151 0.333114
O O11 0.128455 0.874180 0.559245
O O12 0.419698 0.639857 0.487482
O O13 0.369663 0.220930 0.712248
O O14 0.345178 0.997907 0.162833
O O15 0.596411 0.215479 0.053991
O O16 0.267707 0.599785 0.880850
#
# Coordination Sequence:
#
# PCOD8007076 Si02
#       8
#     2   2   2   2   2   2   2   2
#     4  10  23  39  63 102 140 180 223 282 353 406
#     4  11  26  45  74 100 133 191 232 288 340 413
#     4  10  21  36  65 101 138 180 216 288 348 407
#     4  11  28  48  67 102 141 185 238 286 337 402
#     4  12  24  42  69 101 138 183 234 288 334 421
#     4  12  26  46  73 101 140 185 233 286 344 413
#     4  10  20  40  67 101 137 175 227 278 359 404
#     4  10  23  42  65 101 144 175 220 291 350 411
#
# _framework density 23.349222000000001
#
# number of rings (size 3 to 8) (size 9 to 14) (size 15 to 20)
#    0.000    1.250    1.250    3.375   10.500    1.500 
#    0.000    0.000    0.000    0.000    0.000    0.000 
#    0.000    0.000    0.000    0.000    0.000    0.000 
#
# Total GULP energy -198247.363606 kJ/mol
# GULP energy per Si atom -12390.460225 kJ/mol
# Density = 2.329608 g / cm^3
# Si number density = 23.349222 Si / 1000 Ang^3
#
#
#
# Elastic Constant Matrix: (Units=GPa)
#
#
# Indices 1 2 3 4 5 6 
#
# 1 107.7487 38.1912 43.8406 1.6276 -17.1051 -8.8784
# 2 38.1912 59.9179 27.2082 4.3283 -0.8799 -7.6155
# 3 43.8406 27.2082 119.5908 14.1747 -7.3153 6.4797
# 4 1.6276 4.3283 14.1747 30.7880 1.7578 -5.2640
# 5 -17.1051 -0.8799 -7.3153 1.7578 46.3382 1.8320
# 6 -8.8784 -7.6155 6.4797 -5.2640 1.8320 24.7501
#
#
#
# Elastic Compliance Matrix: (Units=1/GPa)
#
#
# Indices 1 2 3 4 5 6 
#
# 1 0.014331 -0.006919 -0.003948 0.002518 0.004271 0.004265
# 2 -0.006919 0.023250 -0.003197 -0.000303 -0.002829 0.005654
# 3 -0.003948 -0.003197 0.011653 -0.005911 0.000814 -0.006768
# 4 0.002518 -0.000303 -0.005911 0.036986 -0.001822 0.010359
# 5 0.004271 -0.002829 0.000814 -0.001822 0.023367 -0.001668
# 6 0.004265 0.005654 -0.006768 0.010359 -0.001668 0.047772
#
#
# Mechanical properties :
#
#
# Convention : Reuss Voigt Hill
#
# Bulk Modulus (GPa) = 47.37609 56.19305 51.78457
# Shear Modulus (GPa) = 25.97108 32.24309 29.10709
#
# Velocity S-wave (km/s) = 3.33872 3.72009 3.53455
# Velocity P-wave (km/s) = 5.93270 6.52462 6.23569
#
# Compressibility (1/GPa) = 0.02110769
#
# Stress axis : x y z
#
# Youngs Moduli (GPa) = 69.77922 43.01052 85.81212
#
# Poissons Ratio (x) = 0.29759 0.33876
# Poissons Ratio (y) = 0.48280 0.27432
# Poissons Ratio (z) = 0.27546 0.13750
#
# Static dielectric constant tensor:
#      x y z
#    x 4.447130 -0.224190 -0.015890 
#    y -0.224190 3.870640 0.050650 
#    z -0.015890 0.050650 4.331850 
# 
# 
# High freq. dielectric constant tensor:
#      x y z
#    x 1.942870 -0.011860 -0.007690 
#    y -0.011860 1.892070 0.004650 
#    z -0.007690 0.004650 1.934530 
# 
# From -- ./inp_files/237723.got.cif
#   From: 2010.06.25/outbox.cif.g09.slc.cpg/sg2_119_cif.got.tgz:237723.got - 2010.06.27 13:26:56.
