data_PCOD8007227
_publ_section_title
;
Structure prediction by ZEFSAII (Michael W. Deem and Ramdas Pophale) SiO2 
 PCOD8007227
Probable space group: P -1
;
_chemical_formula_sum "Si O2"
_cell_formula_units_Z 14
_cell_length_a 19.308269
_cell_length_b 9.339935
_cell_length_c 8.086285
_cell_angle_alpha 131.537257
_cell_angle_beta 136.392851
_cell_angle_gamma 38.156513
_cell_volume 606.159979
_symmetry_space_group_name_H-M "P -1"
_symmetry_group_IT_number 2
_symmetry_cell_setting 'triclinic'
loop_
_space_group_symop_operation_xyz
x,y,z
-x,-y,-z
loop_
_atom_site_type_symbol
_atom_site_label
_atom_site_fract_x
_atom_site_fract_y
_atom_site_fract_z
Si Si1 0.963610 0.775993 0.363207
Si Si2 0.956392 0.947954 0.124147
Si Si3 0.414491 0.267019 0.122900
Si Si4 0.766337 0.574172 0.521635
Si Si5 0.830335 0.549110 0.989478
Si Si6 0.686878 0.327300 0.982998
Si Si7 0.435428 0.918872 0.445827
O O1 0.963974 0.949387 0.626592
O O2 0.100244 0.528227 0.402402
O O3 0.927954 0.879517 0.196912
O O4 0.865550 0.729756 0.215911
O O5 0.816301 0.142329 0.961118
O O6 0.044078 0.722740 0.982446
O O7 0.269697 0.374959 0.982176
O O8 0.411542 0.447223 0.129177
O O9 0.473042 0.264249 0.396226
O O10 0.500000 0.000000 0.000000
O O11 0.767264 0.584659 0.729507
O O12 0.678920 0.832264 0.483568
O O13 0.720090 0.413479 0.269529
O O14 0.620405 0.206460 0.837042
O O15 0.500000 0.000000 0.500000
#
# Coordination Sequence:
#
# PCOD8007227 Si02
#       7
#     2   2   2   2   2   2   2
#     4   9  18  36  65 103 129 160 210 279 321 374
#     4   9  19  37  65 101 128 161 215 268 333 379
#     4  12  27  48  61  93 140 177 219 266 327 387
#     4  10  20  40  69 100 131 165 221 268 323 387
#     4  11  21  40  67  98 129 171 219 265 314 393
#     4  11  24  44  68  95 139 169 206 282 332 381
#     4  12  24  45  69  97 121 179 232 263 318 389
#
# _framework density 23.096214
#
# number of rings (size 3 to 8) (size 9 to 14) (size 15 to 20)
#    0.000    1.429    2.857    4.714    0.000    1.143 
#    5.143    2.857    0.000    0.000    0.000    0.000 
#    0.000    0.000    0.000    0.000    0.000    0.000 
#
# Total GULP energy -173542.060093 kJ/mol
# GULP energy per Si atom -12395.861435 kJ/mol
# Density = 2.304365 g / cm^3
# Si number density = 23.096214 Si / 1000 Ang^3
#
#
#
# Elastic Constant Matrix: (Units=GPa)
#
#
# Indices 1 2 3 4 5 6 
#
# 1 74.4042 31.2719 37.3399 18.8163 20.5951 3.7277
# 2 31.2719 141.3920 33.3937 1.9757 14.8979 -6.2078
# 3 37.3399 33.3937 106.1085 17.7730 31.9686 12.0315
# 4 18.8163 1.9757 17.7730 42.7009 10.9416 2.9902
# 5 20.5951 14.8979 31.9686 10.9416 25.2583 4.5840
# 6 3.7277 -6.2078 12.0315 2.9902 4.5840 20.3677
#
#
#
# Elastic Compliance Matrix: (Units=1/GPa)
#
#
# Indices 1 2 3 4 5 6 
#
# 1 0.019639 -0.002754 -0.002433 -0.005187 -0.009025 -0.000204
# 2 -0.002754 0.008508 -0.001937 0.001805 -0.001902 0.004404
# 3 -0.002433 -0.001937 0.016734 -0.001161 -0.016432 -0.006161
# 4 -0.005187 0.001805 -0.001161 0.028034 -0.007464 -0.000250
# 5 -0.009025 -0.001902 -0.016432 -0.007464 0.072926 -0.004538
# 6 -0.000204 0.004404 -0.006161 -0.000250 -0.004538 0.055175
#
#
# Mechanical properties :
#
#
# Convention : Reuss Voigt Hill
#
# Bulk Modulus (GPa) = 32.64610 58.43508 45.54059
# Shear Modulus (GPa) = 22.17538 32.32535 27.25036
#
# Velocity S-wave (km/s) = 3.10196 3.74518 3.43864
# Velocity P-wave (km/s) = 5.19568 6.63758 5.96039
#
# Compressibility (1/GPa) = 0.03063153
#
# Stress axis : x y z
#
# Youngs Moduli (GPa) = 50.91923 117.53987 59.75882
#
# Poissons Ratio (x) = 0.32376 0.14540
# Poissons Ratio (y) = 0.14026 0.11575
# Poissons Ratio (z) = 0.12389 0.22767
#
# Static dielectric constant tensor:
#      x y z
#    x 3.675590 -0.214000 0.201150 
#    y -0.214000 4.676810 -0.153510 
#    z 0.201150 -0.153510 4.166980 
# 
# 
# High freq. dielectric constant tensor:
#      x y z
#    x 1.875370 -0.010040 0.018610 
#    y -0.010040 1.934060 -0.002700 
#    z 0.018610 -0.002700 1.909480 
# 
# From -- ./inp_files/200443.got.cif
#   From: 2010.06.25/outbox.cif.g09.slc.cpg/sg2_101_cif.got.tgz:200443.got - 2010.06.27 13:26:56.
