data_PCOD8007621
_publ_section_title
;
Structure prediction by ZEFSAII (Michael W. Deem and Ramdas Pophale) SiO2 
 PCOD8007621
Probable space group: P -1
;
_chemical_formula_sum "Si O2"
_cell_formula_units_Z 16
_cell_length_a 8.485816
_cell_length_b 11.259323
_cell_length_c 19.158091
_cell_angle_alpha 23.490900
_cell_angle_beta 73.005570
_cell_angle_gamma 75.126783
_cell_volume 697.452964
_symmetry_space_group_name_H-M "P -1"
_symmetry_group_IT_number 2
_symmetry_cell_setting 'triclinic'
loop_
_space_group_symop_operation_xyz
x,y,z
-x,-y,-z
loop_
_atom_site_type_symbol
_atom_site_label
_atom_site_fract_x
_atom_site_fract_y
_atom_site_fract_z
Si Si1 0.127459 0.828815 0.939781
Si Si2 0.944505 0.311662 0.307941
Si Si3 0.362964 0.747099 0.393963
Si Si4 0.373022 0.587310 0.780653
Si Si5 0.770082 0.048405 0.845066
Si Si6 0.760442 0.642612 0.268943
Si Si7 0.582067 0.543287 0.652108
Si Si8 0.614011 0.092669 0.256604
O O1 0.237256 0.818163 0.861949
O O2 0.212863 0.020977 0.887318
O O3 0.961597 0.989615 0.853541
O O4 0.092039 0.485700 0.153276
O O5 0.789038 0.236494 0.317845
O O6 0.893229 0.553334 0.242368
O O7 0.000000 0.000000 0.500000
O O8 0.500000 0.500000 0.500000
O O9 0.276661 0.839195 0.285481
O O10 0.221569 0.598036 0.541388
O O11 0.447298 0.038335 0.262824
O O12 0.530134 0.673485 0.664275
O O13 0.415977 0.646679 0.823999
O O14 0.337550 0.238177 0.964392
O O15 0.725274 0.303160 0.769787
O O16 0.576720 0.619774 0.274501
O O17 0.654196 0.803404 0.453072
#
# Coordination Sequence:
#
# PCOD8007621 Si02
#       8
#     2   2   2   2   2   2   2   2
#     4  11  23  39  65  98 123 160 217 256 307 375
#     4  10  24  43  61  89 131 170 198 260 321 369
#     4  11  20  41  64  90 126 165 204 255 311 362
#     4  10  24  40  62  93 125 164 217 257 307 370
#     4  11  22  38  64  95 124 166 207 264 308 359
#     4  10  20  41  66  90 124 164 214 253 303 377
#     4  10  20  42  65  89 130 167 205 259 310 367
#     4  11  22  41  65  92 130 164 210 258 308 377
#
# _framework density 22.940615000000001
#
# number of rings (size 3 to 8) (size 9 to 14) (size 15 to 20)
#    0.000    1.500    3.750    1.125    0.000    7.500 
#    0.000    8.750    0.000    0.000    0.000    0.000 
#    0.000    0.000    0.000    0.000    0.000    0.000 
#
# Total GULP energy -198385.676931 kJ/mol
# GULP energy per Si atom -12399.104808 kJ/mol
# Density = 2.288840 g / cm^3
# Si number density = 22.940615 Si / 1000 Ang^3
#
#
#
# Elastic Constant Matrix: (Units=GPa)
#
#
# Indices 1 2 3 4 5 6 
#
# 1 43.3822 26.3699 30.8534 7.7493 -9.4170 1.2194
# 2 26.3699 144.8473 35.0767 11.8377 -18.8111 1.6784
# 3 30.8534 35.0767 108.2901 14.1037 -10.7177 -15.5974
# 4 7.7493 11.8377 14.1037 37.0829 -4.6170 -5.3060
# 5 -9.4170 -18.8111 -10.7177 -4.6170 31.0612 4.9790
# 6 1.2194 1.6784 -15.5974 -5.3060 4.9790 24.5849
#
#
#
# Elastic Compliance Matrix: (Units=1/GPa)
#
#
# Indices 1 2 3 4 5 6 
#
# 1 0.033186 -0.002711 -0.008833 -0.003214 0.006343 -0.009043
# 2 -0.002711 0.008483 -0.001796 -0.001352 0.003923 -0.002670
# 3 -0.008833 -0.001796 0.013783 -0.001609 -0.000708 0.009101
# 4 -0.003214 -0.001352 -0.001609 0.029599 0.001189 0.005378
# 5 0.006343 0.003923 -0.000708 0.001189 0.037777 -0.008425
# 6 -0.009043 -0.002670 0.009101 0.005378 -0.008425 0.049947
#
#
# Mechanical properties :
#
#
# Convention : Reuss Voigt Hill
#
# Bulk Modulus (GPa) = 34.75527 53.45772 44.10650
# Shear Modulus (GPa) = 23.91806 32.16043 28.03925
#
# Velocity S-wave (km/s) = 3.23245 3.74826 3.49987
# Velocity P-wave (km/s) = 5.39580 6.48736 5.96659
#
# Compressibility (1/GPa) = 0.02877261
#
# Stress axis : x y z
#
# Youngs Moduli (GPa) = 30.13287 117.88048 72.55252
#
# Poissons Ratio (x) = 0.31962 0.64086
# Poissons Ratio (y) = 0.08170 0.13027
# Poissons Ratio (z) = 0.26617 0.21166
#
# Static dielectric constant tensor:
#      x y z
#    x 4.162590 0.143300 -0.058850 
#    y 0.143300 4.544150 0.305550 
#    z -0.058850 0.305550 4.356700 
# 
# 
# High freq. dielectric constant tensor:
#      x y z
#    x 1.883870 0.005420 -0.010070 
#    y 0.005420 1.916800 0.014620 
#    z -0.010070 0.014620 1.912550 
# 
# From -- ./inp_files/589309.got.cif
#   From: 2010.06.25/outbox.cif.g09.slc.cpg/sg2_295_cif.got.tgz:589309.got - 2010.06.27 13:26:56.
