data_PCOD8007079
_publ_section_title
;
Structure prediction by ZEFSAII (Michael W. Deem and Ramdas Pophale) SiO2 
 PCOD8007079
Probable space group: P -1
;
_chemical_formula_sum "Si O2"
_cell_formula_units_Z 16
_cell_length_a 11.265190
_cell_length_b 11.735170
_cell_length_c 13.678204
_cell_angle_alpha 124.929927
_cell_angle_beta 29.281275
_cell_angle_gamma 130.486265
_cell_volume 672.550892
_symmetry_space_group_name_H-M "P -1"
_symmetry_group_IT_number 2
_symmetry_cell_setting 'triclinic'
loop_
_space_group_symop_operation_xyz
x,y,z
-x,-y,-z
loop_
_atom_site_type_symbol
_atom_site_label
_atom_site_fract_x
_atom_site_fract_y
_atom_site_fract_z
Si Si1 0.061559 0.959548 0.797253
Si Si2 0.157262 0.461563 0.954538
Si Si3 0.464094 0.277211 0.669682
Si Si4 0.000177 0.669827 0.793362
Si Si5 0.519189 0.789190 0.872678
Si Si6 0.563456 0.009230 0.119801
Si Si7 0.893712 0.147200 0.500366
Si Si8 0.761744 0.422991 0.703936
O O1 0.988650 0.836317 0.876473
O O2 0.100121 0.874904 0.631096
O O3 0.330244 0.098750 0.691971
O O4 0.829889 0.022276 0.987839
O O5 0.979479 0.379589 0.134518
O O6 0.289080 0.346486 0.765708
O O7 0.385732 0.613332 0.900559
O O8 0.000000 0.500000 0.000000
O O9 0.734712 0.321672 0.443209
O O10 0.497848 0.353955 0.792585
O O11 0.755699 0.545743 0.849105
O O12 0.383500 0.837290 0.902017
O O13 0.824899 0.833824 0.649374
O O14 0.473138 0.869364 0.042023
O O15 0.333224 0.993002 0.354922
O O16 0.817303 0.288556 0.650988
O O17 0.000000 0.500000 0.500000
#
# Coordination Sequence:
#
# PCOD8007079 Si02
#       8
#     2   2   2   2   2   2   2   2
#     4  11  24  41  66 105 138 171 223 283 339 402
#     4  12  28  46  68  97 137 183 228 278 338 403
#     4  11  25  44  68 102 142 174 224 280 339 411
#     4  11  25  44  72 100 137 181 224 278 344 403
#     4  10  22  44  64  96 137 179 231 277 326 399
#     4  10  23  40  69 100 134 177 230 278 331 403
#     4  11  21  40  70  99 135 177 223 277 342 399
#     4  10  20  40  67 103 130 172 220 271 336 401
#
# _framework density 23.790022
#
# number of rings (size 3 to 8) (size 9 to 14) (size 15 to 20)
#    0.000    1.250    2.500    3.750    3.500    3.500 
#    0.000    1.250    0.000    0.000    0.000    0.000 
#    0.000    0.000    0.000    0.000    0.000    0.000 
#
# Total GULP energy -198419.385599 kJ/mol
# GULP energy per Si atom -12401.211600 kJ/mol
# Density = 2.373587 g / cm^3
# Si number density = 23.790022 Si / 1000 Ang^3
#
#
#
# Elastic Constant Matrix: (Units=GPa)
#
#
# Indices 1 2 3 4 5 6 
#
# 1 125.3663 44.1656 34.2488 -8.3038 -6.9960 -22.0253
# 2 44.1656 134.4433 18.4833 -12.9190 -4.4266 -14.7059
# 3 34.2488 18.4833 73.3804 -18.2095 -2.1966 -13.3624
# 4 -8.3038 -12.9190 -18.2095 30.7005 -11.6939 -6.3754
# 5 -6.9960 -4.4266 -2.1966 -11.6939 29.7373 -1.9629
# 6 -22.0253 -14.7059 -13.3624 -6.3754 -1.9629 36.6636
#
#
#
# Elastic Compliance Matrix: (Units=1/GPa)
#
#
# Indices 1 2 3 4 5 6 
#
# 1 0.010808 -0.002217 -0.002732 0.002781 0.003453 0.005276
# 2 -0.002217 0.009156 0.001066 0.006071 0.003570 0.003976
# 3 -0.002732 0.001066 0.021072 0.017573 0.008642 0.009985
# 4 0.002781 0.006071 0.017573 0.061991 0.028740 0.022829
# 5 0.003453 0.003570 0.008642 0.028740 0.047850 0.014215
# 6 0.005276 0.003976 0.009985 0.022829 0.014215 0.040409
#
#
# Mechanical properties :
#
#
# Convention : Reuss Voigt Hill
#
# Bulk Modulus (GPa) = 30.05715 58.55393 44.30554
# Shear Modulus (GPa) = 23.79361 35.17309 29.48335
#
# Velocity S-wave (km/s) = 3.16595 3.84927 3.52421
# Velocity P-wave (km/s) = 5.10158 6.66499 5.93499
#
# Compressibility (1/GPa) = 0.03326995
#
# Stress axis : x y z
#
# Youngs Moduli (GPa) = 92.52650 109.22338 47.45651
#
# Poissons Ratio (x) = 0.24213 0.12963
# Poissons Ratio (y) = 0.20511 -0.05058
# Poissons Ratio (z) = 0.25275 -0.11641
#
# Static dielectric constant tensor:
#      x y z
#    x 4.207900 0.273910 -0.104950 
#    y 0.273910 3.999030 0.124500 
#    z -0.104950 0.124500 4.128540 
# 
# 
# High freq. dielectric constant tensor:
#      x y z
#    x 1.932760 -0.005610 -0.005470 
#    y -0.005610 1.955650 -0.005500 
#    z -0.005470 -0.005500 1.950060 
# 
# From -- ./inp_files/519023.got.cif
#   From: 2010.06.25/outbox.cif.g09.slc.cpg/sg2_260_cif.got.tgz:519023.got - 2010.06.27 13:26:56.
