data_PCOD8007963
_publ_section_title
;
Structure prediction by ZEFSAII (Michael W. Deem and Ramdas Pophale) SiO2 
 PCOD8007963
Probable space group: P -1
;
_chemical_formula_sum "Si O2"
_cell_formula_units_Z 14
_cell_length_a 8.460695
_cell_length_b 9.339981
_cell_length_c 17.563297
_cell_angle_alpha 131.762975
_cell_angle_beta 135.716852
_cell_angle_gamma 63.553514
_cell_volume 721.491699
_symmetry_space_group_name_H-M "P -1"
_symmetry_group_IT_number 2
_symmetry_cell_setting 'triclinic'
loop_
_space_group_symop_operation_xyz
x,y,z
-x,-y,-z
loop_
_atom_site_type_symbol
_atom_site_label
_atom_site_fract_x
_atom_site_fract_y
_atom_site_fract_z
Si Si1 0.076589 0.080057 0.290352
Si Si2 0.999536 0.130273 0.970357
Si Si3 0.217292 0.630475 0.648051
Si Si4 0.171034 0.715059 0.279211
Si Si5 0.366890 0.419523 0.140087
Si Si6 0.451098 0.419429 0.535864
Si Si7 0.727093 0.495079 0.029043
O O1 0.241245 0.267342 0.406193
O O2 0.846508 0.154465 0.275983
O O3 0.043757 0.996393 0.165097
O O4 0.169111 0.937073 0.334143
O O5 0.801010 0.278417 0.964442
O O6 0.244765 0.242538 0.083113
O O7 0.000000 0.000000 0.000000
O O8 0.360086 0.560545 0.745854
O O9 0.399328 0.608092 0.634880
O O10 0.000000 0.500000 0.500000
O O11 0.257559 0.613668 0.197364
O O12 0.334514 0.688247 0.397302
O O13 0.923898 0.623267 0.185568
O O14 0.314432 0.393808 0.024402
O O15 0.500000 0.500000 0.500000
O O16 0.500000 0.500000 0.000000
#
# Coordination Sequence:
#
# PCOD8007963 Si02
#       7
#     2   2   2   2   2   2   2
#     4  11  21  40  63  88 120 159 207 242 304 365
#     4  11  24  38  62  94 121 160 205 249 302 362
#     4   9  22  38  60  86 119 158 200 242 302 350
#     4  10  20  42  61  84 120 165 197 242 305 365
#     4  10  20  42  61  82 128 163 195 246 308 362
#     4  10  23  40  64  88 119 159 204 252 304 356
#     4  11  23  39  61  89 125 159 201 250 306 358
#
# _framework density 19.404243999999998
#
# number of rings (size 3 to 8) (size 9 to 14) (size 15 to 20)
#    0.000    1.714    2.857    1.286    8.000    2.857 
#    0.000    0.714    0.000    0.000    0.000    0.000 
#    0.000    0.000    0.000    0.000    0.000    0.000 
#
# Total GULP energy -173482.143234 kJ/mol
# GULP energy per Si atom -12391.581660 kJ/mol
# Density = 1.936008 g / cm^3
# Si number density = 19.404244 Si / 1000 Ang^3
#
#
#
# Elastic Constant Matrix: (Units=GPa)
#
#
# Indices 1 2 3 4 5 6 
#
# 1 100.3865 81.4661 36.9766 -5.9969 -4.2652 -6.7636
# 2 81.4661 138.7179 44.6183 -5.2521 -11.8310 2.6608
# 3 36.9766 44.6183 87.2183 -10.0084 -2.5536 -9.6712
# 4 -5.9969 -5.2521 -10.0084 35.5935 -2.0571 -3.3706
# 5 -4.2652 -11.8310 -2.5536 -2.0571 32.0810 -3.1515
# 6 -6.7636 2.6608 -9.6712 -3.3706 -3.1515 33.5951
#
#
#
# Elastic Compliance Matrix: (Units=1/GPa)
#
#
# Indices 1 2 3 4 5 6 
#
# 1 0.020317 -0.011356 -0.002178 0.001487 -0.001132 0.004406
# 2 -0.011356 0.015346 -0.003508 -0.000844 0.003396 -0.004278
# 3 -0.002178 -0.003508 0.015144 0.003829 0.000321 0.004613
# 4 0.001487 -0.000844 0.003829 0.029892 0.002570 0.004709
# 5 -0.001132 0.003396 0.000321 0.002570 0.032751 0.002926
# 6 0.004406 -0.004278 0.004613 0.004709 0.002926 0.033067
#
#
# Mechanical properties :
#
#
# Convention : Reuss Voigt Hill
#
# Bulk Modulus (GPa) = 59.79857 72.49383 66.14620
# Shear Modulus (GPa) = 26.85653 31.13805 28.99729
#
# Velocity S-wave (km/s) = 3.72432 4.01022 3.86991
# Velocity P-wave (km/s) = 7.02697 7.67355 7.35737
#
# Compressibility (1/GPa) = 0.01672281
#
# Stress axis : x y z
#
# Youngs Moduli (GPa) = 49.22012 65.16366 66.03379
#
# Poissons Ratio (x) = 0.73999 0.14383
# Poissons Ratio (y) = 0.55894 0.23164
# Poissons Ratio (z) = 0.10721 0.22859
#
# Static dielectric constant tensor:
#      x y z
#    x 3.782200 -0.344580 0.018830 
#    y -0.344580 3.653160 -0.043040 
#    z 0.018830 -0.043040 3.763020 
# 
# 
# High freq. dielectric constant tensor:
#      x y z
#    x 1.746610 -0.015060 -0.000610 
#    y -0.015060 1.754850 -0.009410 
#    z -0.000610 -0.009410 1.767020 
# 
# From -- ./inp_files/168382.got.cif
#   From: 2010.06.25/outbox.cif.g09.slc.cpg/sg2_85_cif.got.tgz:168382.got - 2010.06.27 13:26:56.
