data_PCOD8007587
_publ_section_title
;
Structure prediction by ZEFSAII (Michael W. Deem and Ramdas Pophale) SiO2 
 PCOD8007587
Probable space group: P -1
;
_chemical_formula_sum "Si O2"
_cell_formula_units_Z 16
_cell_length_a 15.200445
_cell_length_b 8.497548
_cell_length_c 14.608559
_cell_angle_alpha 87.446127
_cell_angle_beta 142.596816
_cell_angle_gamma 119.572666
_cell_volume 750.856192
_symmetry_space_group_name_H-M "P -1"
_symmetry_group_IT_number 2
_symmetry_cell_setting 'triclinic'
loop_
_space_group_symop_operation_xyz
x,y,z
-x,-y,-z
loop_
_atom_site_type_symbol
_atom_site_label
_atom_site_fract_x
_atom_site_fract_y
_atom_site_fract_z
Si Si1 0.883844 0.004171 0.480114
Si Si2 0.383563 0.498506 0.325243
Si Si3 0.076161 0.741177 0.058369
Si Si4 0.648630 0.024903 0.552915
Si Si5 0.324436 0.428233 0.928230
Si Si6 0.522165 0.467482 0.260826
Si Si7 0.503233 0.100765 0.275566
Si Si8 0.478543 0.078447 0.886234
O O1 0.719291 0.754508 0.404974
O O2 0.767822 0.059052 0.334712
O O3 0.000000 0.000000 0.500000
O O4 0.070495 0.219368 0.696187
O O5 0.500000 0.500000 0.500000
O O6 0.518693 0.768539 0.414107
O O7 0.390044 0.394423 0.245092
O O8 0.127771 0.319601 0.141860
O O9 0.134387 0.835741 0.210628
O O10 0.275518 0.932169 0.147837
O O11 0.000000 0.500000 0.000000
O O12 0.500000 0.000000 0.500000
O O13 0.685163 0.157750 0.487000
O O14 0.500000 0.500000 0.000000
O O15 0.346366 0.337562 0.037465
O O16 0.366656 0.643410 0.983061
O O17 0.608613 0.358595 0.336184
O O18 0.449726 0.969629 0.139292
O O19 0.500000 0.000000 0.000000
#
# Coordination Sequence:
#
# PCOD8007587 Si02
#       8
#     2   2   2   2   2   2   2   2
#     4  11  24  46  74  97 135 188 224 280 356 404
#     4  12  25  44  67 104 138 182 235 283 338 409
#     4  11  24  43  73  95 140 186 226 280 351 399
#     4  10  20  41  65  94 137 175 224 285 332 402
#     4  11  22  46  71  99 139 179 226 285 340 415
#     4  11  26  43  69 101 144 177 235 283 341 410
#     4  11  24  46  67 107 142 180 232 288 342 408
#     4  11  25  45  71 105 141 176 230 289 340 414
#
# _framework density 21.309007000000001
#
# number of rings (size 3 to 8) (size 9 to 14) (size 15 to 20)
#    0.000    1.000    5.000    3.750    0.000    5.500 
#    0.000    0.000    0.000    0.000    0.000    0.000 
#    0.000    0.000    0.000    0.000    0.000    0.000 
#
# Total GULP energy -198339.569275 kJ/mol
# GULP energy per Si atom -12396.223080 kJ/mol
# Density = 2.126051 g / cm^3
# Si number density = 21.309007 Si / 1000 Ang^3
#
#
#
# Elastic Constant Matrix: (Units=GPa)
#
#
# Indices 1 2 3 4 5 6 
#
# 1 128.4289 43.9382 45.3435 -15.3788 -19.4943 -0.4074
# 2 43.9382 126.4215 55.6695 -29.2842 -8.9550 -4.3302
# 3 45.3435 55.6695 178.0290 -25.4125 -8.9606 4.3656
# 4 -15.3788 -29.2842 -25.4125 41.0269 1.0176 -10.9666
# 5 -19.4943 -8.9550 -8.9606 1.0176 40.9399 -1.9061
# 6 -0.4074 -4.3302 4.3656 -10.9666 -1.9061 37.4408
#
#
#
# Elastic Compliance Matrix: (Units=1/GPa)
#
#
# Indices 1 2 3 4 5 6 
#
# 1 0.009783 -0.002170 -0.001450 0.001284 0.003862 0.000597
# 2 -0.002170 0.011379 -0.002047 0.006986 0.001003 0.003628
# 3 -0.001450 -0.002047 0.006965 0.002193 0.000313 -0.000406
# 4 0.001284 0.006986 0.002193 0.033987 0.002270 0.010637
# 5 0.003862 0.001003 0.000313 0.002270 0.026596 0.002140
# 6 0.000597 0.003628 -0.000406 0.010637 0.002140 0.030407
#
#
# Mechanical properties :
#
#
# Convention : Reuss Voigt Hill
#
# Bulk Modulus (GPa) = 59.54831 80.30908 69.92870
# Shear Modulus (GPa) = 36.75143 43.07673 39.91408
#
# Velocity S-wave (km/s) = 4.15744 4.50102 4.33264
# Velocity P-wave (km/s) = 7.14504 8.04872 7.61030
#
# Compressibility (1/GPa) = 0.01679309
#
# Stress axis : x y z
#
# Youngs Moduli (GPa) = 102.22201 87.88025 143.57006
#
# Poissons Ratio (x) = 0.19071 0.20818
# Poissons Ratio (y) = 0.22183 0.29386
# Poissons Ratio (z) = 0.14823 0.17988
#
# Static dielectric constant tensor:
#      x y z
#    x 3.884340 0.293020 0.059000 
#    y 0.293020 3.744710 -0.717530 
#    z 0.059000 -0.717530 3.578280 
# 
# 
# High freq. dielectric constant tensor:
#      x y z
#    x 1.842660 -0.011290 -0.019500 
#    y -0.011290 1.839190 -0.012910 
#    z -0.019500 -0.012910 1.840250 
# 
# From -- ./inp_files/528655.got.cif
#   From: 2010.06.25/outbox.cif.g09.slc.cpg/sg2_265_cif.got.tgz:528655.got - 2010.06.27 13:26:56.
