data_PCOD8007805
_publ_section_title
;
Structure prediction by ZEFSAII (Michael W. Deem and Ramdas Pophale) SiO2 
 PCOD8007805
Probable space group: P -1
;
_chemical_formula_sum "Si O2"
_cell_formula_units_Z 16
_cell_length_a 22.643336
_cell_length_b 8.423386
_cell_length_c 8.901941
_cell_angle_alpha 125.578202
_cell_angle_beta 53.256446
_cell_angle_gamma 147.946947
_cell_volume 710.806522
_symmetry_space_group_name_H-M "P -1"
_symmetry_group_IT_number 2
_symmetry_cell_setting 'triclinic'
loop_
_space_group_symop_operation_xyz
x,y,z
-x,-y,-z
loop_
_atom_site_type_symbol
_atom_site_label
_atom_site_fract_x
_atom_site_fract_y
_atom_site_fract_z
Si Si1 0.412811 0.367374 0.279043
Si Si2 0.435350 0.640852 0.083314
Si Si3 0.174733 0.705134 0.366327
Si Si4 0.005276 0.738125 0.098273
Si Si5 0.793855 0.642706 0.720545
Si Si6 0.049457 0.797133 0.735807
Si Si7 0.808712 0.616333 0.340557
Si Si8 0.568053 0.206859 0.367376
O O1 0.420654 0.496919 0.182114
O O2 0.435687 0.562568 0.492473
O O3 0.285895 0.026728 0.301533
O O4 0.503840 0.373982 0.141466
O O5 0.311726 0.449450 0.097901
O O6 0.509872 0.992035 0.190293
O O7 0.206337 0.571214 0.327535
O O8 0.114139 0.721118 0.590336
O O9 0.086179 0.496474 0.249699
O O10 0.874043 0.542947 0.202504
O O11 0.084768 0.003624 0.246861
O O12 0.061393 0.907071 0.945260
O O13 0.000000 0.500000 0.000000
O O14 0.766932 0.582330 0.551763
O O15 0.101141 0.041950 0.666224
O O16 0.698374 0.389897 0.275782
O O17 0.500000 0.000000 0.500000
#
# Coordination Sequence:
#
# PCOD8007805 Si02
#       8
#     2   2   2   2   2   2   2   2
#     4  10  21  42  68 100 127 190 229 283 334 417
#     4  10  23  41  72  96 140 179 240 277 345 411
#     4  11  24  42  71  93 143 176 231 280 353 401
#     4  12  29  41  67 106 138 175 226 288 348 407
#     4  12  25  45  65 103 141 176 222 293 348 399
#     4  11  25  45  67 101 130 185 230 272 341 428
#     4  12  23  46  74  93 138 180 228 281 340 413
#     4  10  20  41  69 100 125 179 238 273 333 408
#
# _framework density 22.509641999999999
#
# number of rings (size 3 to 8) (size 9 to 14) (size 15 to 20)
#    0.000    1.000    5.000    1.500    7.000    2.500 
#    2.250    0.625    0.000    0.000    0.000    0.000 
#    0.000    0.000    0.000    0.000    0.000    0.000 
#
# Total GULP energy -198419.265870 kJ/mol
# GULP energy per Si atom -12401.204117 kJ/mol
# Density = 2.245841 g / cm^3
# Si number density = 22.509642 Si / 1000 Ang^3
#
#
#
# Elastic Constant Matrix: (Units=GPa)
#
#
# Indices 1 2 3 4 5 6 
#
# 1 80.1234 25.3631 50.1784 -4.7733 -37.1490 8.0338
# 2 25.3631 117.9989 32.4115 1.6230 -20.4314 3.5151
# 3 50.1784 32.4115 83.4024 3.6387 -27.4504 11.9232
# 4 -4.7733 1.6230 3.6387 30.0015 0.7862 -12.1437
# 5 -37.1490 -20.4314 -27.4504 0.7862 42.3517 -6.8050
# 6 8.0338 3.5151 11.9232 -12.1437 -6.8050 33.2297
#
#
#
# Elastic Compliance Matrix: (Units=1/GPa)
#
#
# Indices 1 2 3 4 5 6 
#
# 1 0.028073 0.000066 -0.012037 0.006927 0.017304 0.003600
# 2 0.000066 0.009764 -0.002951 0.000014 0.002955 0.000620
# 3 -0.012037 -0.002951 0.022177 -0.007374 0.001381 -0.007147
# 4 0.006927 0.000014 -0.007374 0.042138 0.003258 0.017036
# 5 0.017304 0.002955 0.001381 0.003258 0.041815 0.004762
# 6 0.003600 0.000620 -0.007147 0.017036 0.004762 0.038923
#
#
# Mechanical properties :
#
#
# Convention : Reuss Voigt Hill
#
# Bulk Modulus (GPa) = 33.14564 55.27007 44.20786
# Shear Modulus (GPa) = 22.44267 32.68803 27.56535
#
# Velocity S-wave (km/s) = 3.16100 3.81488 3.50323
# Velocity P-wave (km/s) = 5.29902 6.63413 6.00380
#
# Compressibility (1/GPa) = 0.03016988
#
# Stress axis : x y z
#
# Youngs Moduli (GPa) = 35.62149 102.41715 45.09266
#
# Poissons Ratio (x) = -0.00674 0.54278
# Poissons Ratio (y) = -0.00235 0.13306
# Poissons Ratio (z) = 0.42877 0.30220
#
# Static dielectric constant tensor:
#      x y z
#    x 3.911860 0.016400 -0.311140 
#    y 0.016400 4.127730 0.314990 
#    z -0.311140 0.314990 4.302940 
# 
# 
# High freq. dielectric constant tensor:
#      x y z
#    x 1.879090 0.004490 -0.027370 
#    y 0.004490 1.894470 -0.003130 
#    z -0.027370 -0.003130 1.887640 
# 
# From -- ./inp_files/299550.got.cif
#   From: 2010.06.25/outbox.cif.g09.slc.cpg/sg2_150_cif.got.tgz:299550.got - 2010.06.27 13:26:56.
