data_PCOD8007958
_publ_section_title
;
Structure prediction by ZEFSAII (Michael W. Deem and Ramdas Pophale) SiO2 
 PCOD8007958
Probable space group: P -1
;
_chemical_formula_sum "Si O2"
_cell_formula_units_Z 14
_cell_length_a 8.991271
_cell_length_b 6.915209
_cell_length_c 19.290365
_cell_angle_alpha 126.673454
_cell_angle_beta 57.434389
_cell_angle_gamma 131.818291
_cell_volume 696.982603
_symmetry_space_group_name_H-M "P -1"
_symmetry_group_IT_number 2
_symmetry_cell_setting 'triclinic'
loop_
_space_group_symop_operation_xyz
x,y,z
-x,-y,-z
loop_
_atom_site_type_symbol
_atom_site_label
_atom_site_fract_x
_atom_site_fract_y
_atom_site_fract_z
Si Si1 0.928500 0.323371 0.292866
Si Si2 0.249651 0.315422 0.310777
Si Si3 0.295020 0.082191 0.851047
Si Si4 0.490413 0.908658 0.331209
Si Si5 0.122392 0.965746 0.400262
Si Si6 0.778071 0.427556 0.015309
Si Si7 0.471774 0.044956 0.124479
O O1 0.085803 0.264380 0.281758
O O2 0.002177 0.647560 0.334911
O O3 0.896156 0.194357 0.195791
O O4 0.711801 0.162350 0.354983
O O5 0.398328 0.652117 0.354310
O O6 0.378740 0.171801 0.227709
O O7 0.140083 0.179843 0.381849
O O8 0.482246 0.213679 0.775947
O O9 0.367504 0.007784 0.886812
O O10 0.214112 0.283642 0.938725
O O11 0.345213 0.039330 0.387043
O O12 0.000000 0.000000 0.500000
O O13 0.714767 0.242200 0.921773
O O14 0.599862 0.267703 0.081525
O O15 0.000000 0.500000 0.000000
#
# Coordination Sequence:
#
# PCOD8007958 Si02
#       7
#     2   2   2   2   2   2   2
#     4   9  22  38  62  92 120 160 208 253 306 373
#     4  11  20  40  66  86 122 168 203 253 310 371
#     4  10  20  42  60  87 124 161 206 248 305 363
#     4   9  21  41  61  89 123 161 204 253 304 373
#     4  11  24  41  64  96 124 158 208 258 312 373
#     4  11  24  39  58  95 124 160 212 254 299 359
#     4  11  22  38  63  87 125 166 202 257 305 353
#
# _framework density 20.086587000000002
#
# number of rings (size 3 to 8) (size 9 to 14) (size 15 to 20)
#    0.857    0.857    2.857    1.286    0.000    8.000 
#    0.000    1.429    0.000    0.000    0.000    0.000 
#    0.000    0.000    0.000    0.000    0.000    0.000 
#
# Total GULP energy -173571.164268 kJ/mol
# GULP energy per Si atom -12397.940305 kJ/mol
# Density = 2.004087 g / cm^3
# Si number density = 20.086587 Si / 1000 Ang^3
#
#
#
# Elastic Constant Matrix: (Units=GPa)
#
#
# Indices 1 2 3 4 5 6 
#
# 1 92.0368 19.7143 -6.3317 8.4023 -8.7827 -4.3125
# 2 19.7143 88.4204 -9.5922 2.1174 10.1555 -4.0880
# 3 -6.3317 -9.5922 31.8252 -4.6878 -3.9514 -6.9566
# 4 8.4023 2.1174 -4.6878 24.9144 -3.5448 -0.9720
# 5 -8.7827 10.1555 -3.9514 -3.5448 28.1816 -4.4344
# 6 -4.3125 -4.0880 -6.9566 -0.9720 -4.4344 37.6144
#
#
#
# Elastic Compliance Matrix: (Units=1/GPa)
#
#
# Indices 1 2 3 4 5 6 
#
# 1 0.012512 -0.002986 0.002305 -0.002698 0.005288 0.002090
# 2 -0.002986 0.012917 0.002852 -0.000236 -0.005060 0.000986
# 3 0.002305 0.002852 0.036490 0.007170 0.007021 0.008336
# 4 -0.002698 -0.000236 0.007170 0.043403 0.006155 0.002838
# 5 0.005288 -0.005060 0.007021 0.006155 0.041726 0.006433
# 6 0.002090 0.000986 0.008336 0.002838 0.006433 0.029306
#
#
# Mechanical properties :
#
#
# Convention : Reuss Voigt Hill
#
# Bulk Modulus (GPa) = 15.09157 24.42926 19.76041
# Shear Modulus (GPa) = 25.76007 32.04153 28.90080
#
# Velocity S-wave (km/s) = 3.58502 3.99829 3.79728
# Velocity P-wave (km/s) = 4.96649 5.78822 5.39303
#
# Compressibility (1/GPa) = 0.06626215
#
# Stress axis : x y z
#
# Youngs Moduli (GPa) = 79.92161 77.41677 27.40494
#
# Poissons Ratio (x) = 0.23115 -0.06318
# Poissons Ratio (y) = 0.23863 -0.07816
# Poissons Ratio (z) = -0.18425 -0.22078
#
# Static dielectric constant tensor:
#      x y z
#    x 3.594230 0.037720 -0.075910 
#    y 0.037720 3.730560 0.031740 
#    z -0.075910 0.031740 3.390920 
# 
# 
# High freq. dielectric constant tensor:
#      x y z
#    x 1.790650 -0.001230 -0.012520 
#    y -0.001230 1.789160 0.002230 
#    z -0.012520 0.002230 1.764600 
# 
# From -- ./inp_files/55096.got.cif
#   From: 2010.06.25/outbox.cif.g09.slc.cpg/sg2_28_cif.got.tgz:55096.got - 2010.06.27 13:26:56.
