data_PCOD8007305
_publ_section_title
;
Structure prediction by ZEFSAII (Michael W. Deem and Ramdas Pophale) SiO2 
 PCOD8007305
Probable space group: P -1
;
_chemical_formula_sum "Si O2"
_cell_formula_units_Z 16
_cell_length_a 19.239233
_cell_length_b 5.266168
_cell_length_c 7.900725
_cell_angle_alpha 116.209697
_cell_angle_beta 59.156484
_cell_angle_gamma 107.010029
_cell_volume 614.330088
_symmetry_space_group_name_H-M "P -1"
_symmetry_group_IT_number 2
_symmetry_cell_setting 'triclinic'
loop_
_space_group_symop_operation_xyz
x,y,z
-x,-y,-z
loop_
_atom_site_type_symbol
_atom_site_label
_atom_site_fract_x
_atom_site_fract_y
_atom_site_fract_z
Si Si1 0.295886 0.336761 0.238774
Si Si2 0.180368 0.826837 0.558131
Si Si3 0.773973 0.192817 0.995216
Si Si4 0.933361 0.238409 0.999795
Si Si5 0.414527 0.216544 0.333662
Si Si6 0.974511 0.170984 0.422061
Si Si7 0.289676 0.210174 0.744826
Si Si8 0.562600 0.386908 0.016996
O O1 0.228795 0.556166 0.384120
O O2 0.354905 0.392579 0.343215
O O3 0.356277 0.390123 0.009985
O O4 0.249734 0.021088 0.194835
O O5 0.116823 0.756193 0.766302
O O6 0.123561 0.879242 0.483574
O O7 0.238642 0.110289 0.608269
O O8 0.870341 0.256222 0.924758
O O9 0.735616 0.482463 0.080086
O O10 0.731585 0.037224 0.166211
O O11 0.000000 0.500000 0.000000
O O12 0.979408 0.951987 0.834533
O O13 0.384000 0.226626 0.569777
O O14 0.510149 0.339874 0.242715
O O15 0.405876 0.902565 0.175110
O O16 0.000000 0.500000 0.500000
O O17 0.000000 0.000000 0.500000
O O18 0.500000 0.500000 0.000000
#
# Coordination Sequence:
#
# PCOD8007305 Si02
#       8
#     2   2   2   2   2   2   2   2
#     4  11  23  44  70 105 139 181 235 292 345 407
#     4  11  24  46  72  98 133 188 236 285 343 421
#     4  11  27  42  67 102 144 177 228 296 355 400
#     4  11  24  47  71 100 137 186 237 284 348 426
#     4  10  20  40  72 100 135 188 235 276 336 421
#     4  12  27  45  68 101 137 175 224 292 354 408
#     4  11  24  44  67 101 138 184 230 282 342 420
#     4   9  20  38  70 103 138 176 237 278 335 410
#
# _framework density 26.044633000000001
#
# number of rings (size 3 to 8) (size 9 to 14) (size 15 to 20)
#    0.000    1.250    1.250    4.125    3.500    7.000 
#    0.000    1.250    0.000    0.000    0.000    0.000 
#    0.000    0.000    0.000    0.000    0.000    0.000 
#
# Total GULP energy -198359.269729 kJ/mol
# GULP energy per Si atom -12397.454358 kJ/mol
# Density = 2.598535 g / cm^3
# Si number density = 26.044633 Si / 1000 Ang^3
#
#
#
# Elastic Constant Matrix: (Units=GPa)
#
#
# Indices 1 2 3 4 5 6 
#
# 1 88.3844 26.1569 20.5934 11.8861 -17.5265 -0.6956
# 2 26.1569 129.9182 43.1049 10.9390 -14.6690 16.9054
# 3 20.5934 43.1049 106.6126 15.1711 -38.7757 8.9944
# 4 11.8861 10.9390 15.1711 40.9971 4.6109 -3.7471
# 5 -17.5265 -14.6690 -38.7757 4.6109 39.6326 2.0097
# 6 -0.6956 16.9054 8.9944 -3.7471 2.0097 52.3034
#
#
#
# Elastic Compliance Matrix: (Units=1/GPa)
#
#
# Indices 1 2 3 4 5 6 
#
# 1 0.013663 -0.002018 0.001555 -0.004834 0.007382 -0.000063
# 2 -0.002018 0.009565 -0.003197 -0.000998 -0.000231 -0.002631
# 3 0.001555 -0.003197 0.019019 -0.009144 0.019360 -0.003616
# 4 -0.004834 -0.000998 -0.009144 0.031600 -0.015367 0.004685
# 5 0.007382 -0.000231 0.019360 -0.015367 0.049452 -0.006158
# 6 -0.000063 -0.002631 -0.003616 0.004685 -0.006158 0.021163
#
#
# Mechanical properties :
#
#
# Convention : Reuss Voigt Hill
#
# Bulk Modulus (GPa) = 28.63171 56.06950 42.35061
# Shear Modulus (GPa) = 30.59530 42.25729 36.42629
#
# Velocity S-wave (km/s) = 3.43115 4.03239 3.74386
# Velocity P-wave (km/s) = 5.16858 6.57687 5.91479
#
# Compressibility (1/GPa) = 0.03492631
#
# Stress axis : x y z
#
# Youngs Moduli (GPa) = 73.19300 104.55248 52.57762
#
# Poissons Ratio (x) = 0.21097 -0.08175
# Poissons Ratio (y) = 0.14769 0.16810
# Poissons Ratio (z) = -0.11381 0.33427
#
# Static dielectric constant tensor:
#      x y z
#    x 5.236470 0.541250 -0.393850 
#    y 0.541250 4.477010 -0.389700 
#    z -0.393850 -0.389700 5.355180 
# 
# 
# High freq. dielectric constant tensor:
#      x y z
#    x 2.047770 0.006290 -0.016920 
#    y 0.006290 2.047130 -0.012880 
#    z -0.016920 -0.012880 2.056530 
# 
# From -- ./inp_files/340622.got.cif
#   From: 2010.06.25/outbox.cif.g09.slc.cpg/sg2_171_cif.got.tgz:340622.got - 2010.06.27 13:26:56.
