data_PCOD8007672
_publ_section_title
;
Structure prediction by ZEFSAII (Michael W. Deem and Ramdas Pophale) SiO2 
 PCOD8007672
Probable space group: P -1
;
_chemical_formula_sum "Si O2"
_cell_formula_units_Z 12
_cell_length_a 10.204055
_cell_length_b 13.618504
_cell_length_c 7.855339
_cell_angle_alpha 115.290447
_cell_angle_beta 56.129088
_cell_angle_gamma 149.744929
_cell_volume 452.819356
_symmetry_space_group_name_H-M "P -1"
_symmetry_group_IT_number 2
_symmetry_cell_setting 'triclinic'
loop_
_space_group_symop_operation_xyz
x,y,z
-x,-y,-z
loop_
_atom_site_type_symbol
_atom_site_label
_atom_site_fract_x
_atom_site_fract_y
_atom_site_fract_z
Si Si1 0.815820 0.342137 0.320707
Si Si2 0.103508 0.750563 0.122029
Si Si3 0.433574 0.359847 0.287199
Si Si4 0.151125 0.990234 0.069147
Si Si5 0.445857 0.344678 0.640889
Si Si6 0.669870 0.219116 0.685925
O O1 0.745427 0.245258 0.120495
O O2 0.636367 0.348196 0.491908
O O3 0.732310 0.212746 0.442602
O O4 0.150246 0.565254 0.256353
O O5 0.227074 0.805520 0.262234
O O6 0.771137 0.531110 0.191403
O O7 0.184110 0.919097 0.140148
O O8 0.285396 0.181281 0.159742
O O9 0.297589 0.284701 0.519416
O O10 0.375535 0.441844 0.292135
O O11 0.331308 0.050867 0.821792
O O12 0.811751 0.814671 0.151653
#
# Coordination Sequence:
#
# PCOD8007672 Si02
#       6
#     2   2   2   2   2   2
#     4  11  23  43  70  98 133 176 222 273 332 394
#     4  11  22  43  73  96 134 176 216 281 332 386
#     4  10  20  41  66  97 136 173 223 270 330 403
#     4  11  23  40  68 100 130 177 224 268 337 397
#     4  10  22  39  66  96 135 177 216 277 332 386
#     4  11  23  41  70  99 132 174 226 268 333 398
#
# _framework density 26.500636
#
# number of rings (size 3 to 8) (size 9 to 14) (size 15 to 20)
#    0.000    1.333    3.333    2.500    0.000    1.333 
#    3.000    0.833    0.000    0.000    0.000    0.000 
#    0.000    0.000    0.000    0.000    0.000    0.000 
#
# Total GULP energy -148680.548671 kJ/mol
# GULP energy per Si atom -12390.045723 kJ/mol
# Density = 2.644032 g / cm^3
# Si number density = 26.500636 Si / 1000 Ang^3
#
#
#
# Elastic Constant Matrix: (Units=GPa)
#
#
# Indices 1 2 3 4 5 6 
#
# 1 104.7230 26.8760 50.5283 3.7284 -6.6152 -20.2047
# 2 26.8760 75.0571 28.0513 -14.7395 -23.4806 -12.9784
# 3 50.5283 28.0513 111.1402 -19.5207 -12.0822 -4.6820
# 4 3.7284 -14.7395 -19.5207 46.5247 -1.2587 -9.0956
# 5 -6.6152 -23.4806 -12.0822 -1.2587 41.1394 5.4509
# 6 -20.2047 -12.9784 -4.6820 -9.0956 5.4509 19.8474
#
#
#
# Elastic Compliance Matrix: (Units=1/GPa)
#
#
# Indices 1 2 3 4 5 6 
#
# 1 0.015719 -0.002158 -0.006755 -0.002386 -0.002427 0.012570
# 2 -0.002158 0.021977 -0.001200 0.009535 0.010358 0.013416
# 3 -0.006755 -0.001200 0.013491 0.005353 0.002722 -0.002773
# 4 -0.002386 0.009535 0.005353 0.030540 0.005229 0.017629
# 5 -0.002427 0.010358 0.002722 0.005229 0.030942 -0.001156
# 6 0.012570 0.013416 -0.002773 0.017629 -0.001156 0.079696
#
#
# Mechanical properties :
#
#
# Convention : Reuss Voigt Hill
#
# Bulk Modulus (GPa) = 32.29833 55.75905 44.02869
# Shear Modulus (GPa) = 22.43040 33.86662 28.14851
#
# Velocity S-wave (km/s) = 2.91247 3.57873 3.26265
# Velocity P-wave (km/s) = 4.85017 6.17760 5.55369
#
# Compressibility (1/GPa) = 0.03096135
#
# Stress axis : x y z
#
# Youngs Moduli (GPa) = 63.61713 45.50193 74.12398
#
# Poissons Ratio (x) = 0.09819 0.50071
# Poissons Ratio (y) = 0.13729 0.08893
# Poissons Ratio (z) = 0.42973 0.05459
#
# Static dielectric constant tensor:
#      x y z
#    x 4.720050 -0.414870 -0.054270 
#    y -0.414870 4.917000 -0.665010 
#    z -0.054270 -0.665010 5.317290 
# 
# 
# High freq. dielectric constant tensor:
#      x y z
#    x 2.042750 -0.027400 -0.010150 
#    y -0.027400 2.062990 -0.030340 
#    z -0.010150 -0.030340 2.072860 
# 
# From -- ./inp_files/273997.got.cif
#   From: 2010.06.25/outbox.cif.g09.slc.cpg/sg2_137_cif.got.tgz:273997.got - 2010.06.27 13:26:56.
