data_PCOD8007818
_publ_section_title
;
Structure prediction by ZEFSAII (Michael W. Deem and Ramdas Pophale) SiO2 
 PCOD8007818
Probable space group: P -1
;
_chemical_formula_sum "Si O2"
_cell_formula_units_Z 16
_cell_length_a 14.847579
_cell_length_b 7.629088
_cell_length_c 11.923610
_cell_angle_alpha 106.487629
_cell_angle_beta 151.043726
_cell_angle_gamma 70.073396
_cell_volume 614.439562
_symmetry_space_group_name_H-M "P -1"
_symmetry_group_IT_number 2
_symmetry_cell_setting 'triclinic'
loop_
_space_group_symop_operation_xyz
x,y,z
-x,-y,-z
loop_
_atom_site_type_symbol
_atom_site_label
_atom_site_fract_x
_atom_site_fract_y
_atom_site_fract_z
Si Si1 0.655566 0.658339 0.811534
Si Si2 0.271449 0.312353 0.431297
Si Si3 0.782019 0.003005 0.541495
Si Si4 0.864376 0.767435 0.393958
Si Si5 0.637428 0.269383 0.676221
Si Si6 0.487913 0.240487 0.101116
Si Si7 0.119346 0.119949 0.041779
Si Si8 0.795323 0.427420 0.392171
O O1 0.735703 0.450094 0.811679
O O2 0.448997 0.757903 0.547275
O O3 0.647527 0.631506 0.931827
O O4 0.794741 0.799267 0.959120
O O5 0.455169 0.341488 0.570307
O O6 0.113178 0.267161 0.163494
O O7 0.183779 0.491042 0.444950
O O8 0.333995 0.130130 0.543959
O O9 0.645909 0.129203 0.332531
O O10 0.929636 0.870935 0.592317
O O11 0.901451 0.108014 0.776322
O O12 0.805962 0.571566 0.329824
O O13 0.026991 0.743248 0.471103
O O14 0.655946 0.874913 0.138441
O O15 0.765435 0.083170 0.831682
O O16 0.596091 0.356473 0.154737
#
# Coordination Sequence:
#
# PCOD8007818 Si02
#       8
#     2   2   2   2   2   2   2   2
#     4  10  22  38  67 106 140 186 238 277 356 417
#     4  10  20  44  68  98 140 183 229 280 354 425
#     4  11  25  43  66 102 135 186 236 285 352 420
#     4  10  25  47  68  97 137 180 236 291 353 413
#     4  10  20  41  69 101 144 193 226 287 351 421
#     4  12  23  44  69  98 139 177 235 300 341 414
#     4  11  23  42  69 104 149 186 226 293 350 420
#     4  10  23  45  72 101 131 177 239 287 352 425
#
# _framework density 26.03999
#
# number of rings (size 3 to 8) (size 9 to 14) (size 15 to 20)
#    0.000    1.500    1.250    4.125    1.750    3.500 
#    6.750    1.875    0.000    0.000    0.000    0.000 
#    0.000    0.000    0.000    0.000    0.000    0.000 
#
# Total GULP energy -198274.270690 kJ/mol
# GULP energy per Si atom -12392.141918 kJ/mol
# Density = 2.598072 g / cm^3
# Si number density = 26.039990 Si / 1000 Ang^3
#
#
#
# Elastic Constant Matrix: (Units=GPa)
#
#
# Indices 1 2 3 4 5 6 
#
# 1 97.4906 -6.8483 8.8588 3.4682 -0.5426 11.7639
# 2 -6.8483 44.9754 8.1878 6.8451 0.7764 16.9662
# 3 8.8588 8.1878 77.3056 13.5921 2.6426 -3.4495
# 4 3.4682 6.8451 13.5921 35.4721 -3.5321 -0.9145
# 5 -0.5426 0.7764 2.6426 -3.5321 30.3726 9.2762
# 6 11.7639 16.9662 -3.4495 -0.9145 9.2762 33.9688
#
#
#
# Elastic Compliance Matrix: (Units=1/GPa)
#
#
# Indices 1 2 3 4 5 6 
#
# 1 0.011788 0.005195 -0.002093 -0.001307 0.002425 -0.007587
# 2 0.005195 0.031878 -0.004128 -0.005082 0.005049 -0.019656
# 3 -0.002093 -0.004128 0.014810 -0.004875 -0.003336 0.005070
# 4 -0.001307 -0.005082 -0.004875 0.031575 0.003470 0.002398
# 5 0.002425 0.005049 -0.003336 0.003470 0.037785 -0.013926
# 6 -0.007587 -0.019656 0.005070 0.002398 -0.013926 0.046266
#
#
# Mechanical properties :
#
#
# Convention : Reuss Voigt Hill
#
# Bulk Modulus (GPa) = 17.72257 26.68535 22.20396
# Shear Modulus (GPa) = 25.64604 33.93424 29.79014
#
# Velocity S-wave (km/s) = 3.14167 3.61385 3.38600
# Velocity P-wave (km/s) = 4.46999 5.26149 4.88181
#
# Compressibility (1/GPa) = 0.05642521
#
# Stress axis : x y z
#
# Youngs Moduli (GPa) = 84.83203 31.36961 67.52137
#
# Poissons Ratio (x) = -0.16297 0.14130
# Poissons Ratio (y) = -0.44071 0.27872
# Poissons Ratio (z) = 0.17752 0.12949
#
# Static dielectric constant tensor:
#      x y z
#    x 5.598460 -0.244550 -0.193450 
#    y -0.244550 4.754830 0.292000 
#    z -0.193450 0.292000 4.668120 
# 
# 
# High freq. dielectric constant tensor:
#      x y z
#    x 2.064880 -0.001950 -0.005170 
#    y -0.001950 2.038940 0.006760 
#    z -0.005170 0.006760 2.024450 
# 
# From -- ./inp_files/447936.got.cif
#   From: 2010.06.25/outbox.cif.g09.slc.cpg/sg2_224_cif.got.tgz:447936.got - 2010.06.27 13:26:56.
