data_PCOD8007432
_publ_section_title
;
Structure prediction by ZEFSAII (Michael W. Deem and Ramdas Pophale) SiO2 
 PCOD8007432
Probable space group: P -1
;
_chemical_formula_sum "Si O2"
_cell_formula_units_Z 16
_cell_length_a 9.319066
_cell_length_b 11.478038
_cell_length_c 11.887737
_cell_angle_alpha 86.672487
_cell_angle_beta 123.646922
_cell_angle_gamma 130.908958
_cell_volume 699.840469
_symmetry_space_group_name_H-M "P -1"
_symmetry_group_IT_number 2
_symmetry_cell_setting 'triclinic'
loop_
_space_group_symop_operation_xyz
x,y,z
-x,-y,-z
loop_
_atom_site_type_symbol
_atom_site_label
_atom_site_fract_x
_atom_site_fract_y
_atom_site_fract_z
Si Si1 0.874003 0.092310 0.357542
Si Si2 0.295679 0.487792 0.465410
Si Si3 0.687986 0.228091 0.924855
Si Si4 0.114959 0.979019 0.396475
Si Si5 0.805380 0.670055 0.126231
Si Si6 0.339764 0.176986 0.269326
Si Si7 0.911446 0.104567 0.983887
Si Si8 0.062691 0.565056 0.204088
O O1 0.786280 0.045936 0.453113
O O2 0.026330 0.289630 0.391308
O O3 0.617087 0.949449 0.178139
O O4 0.065462 0.084158 0.412610
O O5 0.500000 0.500000 0.500000
O O6 0.423752 0.610644 0.627670
O O7 0.230125 0.561423 0.351059
O O8 0.830782 0.178185 0.010741
O O9 0.744641 0.305579 0.821120
O O10 0.794643 0.371357 0.055136
O O11 0.860460 0.786824 0.245814
O O12 0.331678 0.096720 0.385642
O O13 0.966607 0.632399 0.223076
O O14 0.891813 0.767217 0.039327
O O15 0.500000 0.500000 0.000000
O O16 0.346464 0.093298 0.168617
O O17 0.062262 0.103449 0.141067
#
# Coordination Sequence:
#
# PCOD8007432 Si02
#       8
#     2   2   2   2   2   2   2   2
#     4  11  24  39  62  94 122 165 212 256 313 364
#     4  12  24  40  63  92 129 165 208 262 311 367
#     4  10  21  41  63  89 128 157 209 261 308 378
#     4  10  22  40  61  89 120 167 208 248 309 372
#     4  10  21  40  65  93 126 163 205 260 308 371
#     4  10  20  41  63  89 123 166 209 249 312 379
#     4   9  21  39  65  91 120 168 206 250 319 370
#     4  10  23  41  65  97 121 168 206 255 318 371
#
# _framework density 22.862354
#
# number of rings (size 3 to 8) (size 9 to 14) (size 15 to 20)
#    0.000    1.750    1.250    2.250    3.500    1.500 
#    6.750    5.000    0.000    0.000    0.000    0.000 
#    0.000    0.000    0.000    0.000    0.000    0.000 
#
# Total GULP energy -198346.198895 kJ/mol
# GULP energy per Si atom -12396.637431 kJ/mol
# Density = 2.281032 g / cm^3
# Si number density = 22.862354 Si / 1000 Ang^3
#
#
#
# Elastic Constant Matrix: (Units=GPa)
#
#
# Indices 1 2 3 4 5 6 
#
# 1 36.8346 20.0854 8.4367 -4.6300 1.8655 -14.2892
# 2 20.0854 97.5348 39.3258 23.7516 2.3685 -20.9916
# 3 8.4367 39.3258 84.9766 21.7699 -0.6000 -2.4926
# 4 -4.6300 23.7516 21.7699 56.4626 -9.7113 5.5521
# 5 1.8655 2.3685 -0.6000 -9.7113 31.8906 3.7915
# 6 -14.2892 -20.9916 -2.4926 5.5521 3.7915 28.0997
#
#
#
# Elastic Compliance Matrix: (Units=1/GPa)
#
#
# Indices 1 2 3 4 5 6 
#
# 1 0.036257 -0.004309 -0.002158 0.003762 -0.002433 0.014612
# 2 -0.004309 0.018412 -0.005651 -0.008147 -0.005294 0.013386
# 3 -0.002158 -0.005651 0.015362 -0.003361 0.000206 -0.003320
# 4 0.003762 -0.008147 -0.003361 0.025405 0.009336 -0.010750
# 5 -0.002433 -0.005294 0.000206 0.009336 0.036154 -0.011897
# 6 0.014612 0.013386 -0.003320 -0.010750 -0.011897 0.056453
#
#
# Mechanical properties :
#
#
# Convention : Reuss Voigt Hill
#
# Bulk Modulus (GPa) = 21.83587 39.44907 30.64247
# Shear Modulus (GPa) = 21.97394 33.39046 27.68220
#
# Velocity S-wave (km/s) = 3.10359 3.82579 3.48346
# Velocity P-wave (km/s) = 4.73442 6.06697 5.44164
#
# Compressibility (1/GPa) = 0.04579621
#
# Stress axis : x y z
#
# Youngs Moduli (GPa) = 27.58117 54.31345 65.09395
#
# Poissons Ratio (x) = 0.23401 0.14048
# Poissons Ratio (y) = 0.11883 0.36782
# Poissons Ratio (z) = 0.05952 0.30690
#
# Static dielectric constant tensor:
#      x y z
#    x 3.827430 -0.330370 -0.270110 
#    y -0.330370 4.323680 0.106740 
#    z -0.270110 0.106740 4.200350 
# 
# 
# High freq. dielectric constant tensor:
#      x y z
#    x 1.872550 -0.024340 -0.010650 
#    y -0.024340 1.912050 0.008960 
#    z -0.010650 0.008960 1.909150 
# 
# From -- ./inp_files/392632.got.cif
#   From: 2010.06.25/outbox.cif.g09.slc.cpg/sg2_197_cif.got.tgz:392632.got - 2010.06.27 13:26:56.
