data_PCOD8007628
_publ_section_title
;
Structure prediction by ZEFSAII (Michael W. Deem and Ramdas Pophale) SiO2 
 PCOD8007628
Probable space group: P -1
;
_chemical_formula_sum "Si O2"
_cell_formula_units_Z 14
_cell_length_a 9.034654
_cell_length_b 8.659363
_cell_length_c 8.939984
_cell_angle_alpha 73.434764
_cell_angle_beta 74.668102
_cell_angle_gamma 70.150308
_cell_volume 619.563506
_symmetry_space_group_name_H-M "P -1"
_symmetry_group_IT_number 2
_symmetry_cell_setting 'triclinic'
loop_
_space_group_symop_operation_xyz
x,y,z
-x,-y,-z
loop_
_atom_site_type_symbol
_atom_site_label
_atom_site_fract_x
_atom_site_fract_y
_atom_site_fract_z
Si Si1 0.607204 0.730544 0.180928
Si Si2 0.057735 0.491919 0.816855
Si Si3 0.737113 0.032525 0.106625
Si Si4 0.258828 0.890241 0.260844
Si Si5 0.036628 0.203204 0.696098
Si Si6 0.810077 0.763567 0.650532
Si Si7 0.539627 0.669217 0.894159
O O1 0.746767 0.558893 0.231526
O O2 0.427248 0.743627 0.281902
O O3 0.651818 0.887378 0.195369
O O4 0.599571 0.752536 0.998007
O O5 0.991745 0.354127 0.786106
O O6 0.978543 0.671449 0.712223
O O7 0.000000 0.500000 0.000000
O O8 0.625664 0.206020 0.157323
O O9 0.896864 0.972698 0.181335
O O10 0.770052 0.051226 0.919201
O O11 0.117461 0.806478 0.356425
O O12 0.253657 0.046481 0.325662
O O13 0.164691 0.233566 0.534667
O O14 0.681132 0.656432 0.739805
O O15 0.500000 0.500000 0.000000
#
# Coordination Sequence:
#
# PCOD8007628 Si02
#       7
#     2   2   2   2   2   2   2
#     4  10  20  41  66  91 121 172 224 266 317 375
#     4  11  23  43  67  92 132 178 216 268 328 392
#     4  10  20  42  65  92 127 170 229 265 316 389
#     4  11  21  42  69  94 130 173 226 268 314 399
#     4  11  26  40  67 101 131 176 220 267 336 389
#     4  12  23  43  66  96 142 170 211 283 334 378
#     4  11  22  37  67 100 126 167 225 273 322 388
#
# _framework density 22.596554999999999
#
# number of rings (size 3 to 8) (size 9 to 14) (size 15 to 20)
#    0.000    1.143    4.286    3.000    4.000    1.714 
#    0.000    0.714    0.000    0.000    0.000    0.000 
#    0.000    0.000    0.000    0.000    0.000    0.000 
#
# Total GULP energy -173523.100730 kJ/mol
# GULP energy per Si atom -12394.507195 kJ/mol
# Density = 2.254512 g / cm^3
# Si number density = 22.596555 Si / 1000 Ang^3
#
#
#
# Elastic Constant Matrix: (Units=GPa)
#
#
# Indices 1 2 3 4 5 6 
#
# 1 102.1926 44.2297 17.9292 13.2110 -19.5458 -7.0689
# 2 44.2297 99.1623 37.0496 16.5765 -8.0446 -21.2295
# 3 17.9292 37.0496 102.7771 12.5966 -12.4704 3.0735
# 4 13.2110 16.5765 12.5966 17.9446 -1.6007 -4.5576
# 5 -19.5458 -8.0446 -12.4704 -1.6007 32.1166 -5.3053
# 6 -7.0689 -21.2295 3.0735 -4.5576 -5.3053 39.0127
#
#
#
# Elastic Compliance Matrix: (Units=1/GPa)
#
#
# Indices 1 2 3 4 5 6 
#
# 1 0.013920 -0.005023 0.000956 -0.005613 0.007313 0.000052
# 2 -0.005023 0.016867 -0.004584 -0.006625 0.000363 0.007905
# 3 0.000956 -0.004584 0.012443 -0.005794 0.003395 -0.003517
# 4 -0.005613 -0.006625 -0.005794 0.070690 -0.003198 0.003658
# 5 0.007313 0.000363 0.003395 -0.003198 0.037833 0.006027
# 6 0.000052 0.007905 -0.003517 0.003658 0.006027 0.031468
#
#
# Mechanical properties :
#
#
# Convention : Reuss Voigt Hill
#
# Bulk Modulus (GPa) = 38.56950 55.83878 47.20414
# Shear Modulus (GPa) = 23.90446 31.47634 27.69040
#
# Velocity S-wave (km/s) = 3.25604 3.73630 3.50441
# Velocity P-wave (km/s) = 5.58941 6.58621 6.10818
#
# Compressibility (1/GPa) = 0.02592722
#
# Stress axis : x y z
#
# Youngs Moduli (GPa) = 71.84012 59.28684 80.36741
#
# Poissons Ratio (x) = 0.29781 -0.07685
# Poissons Ratio (y) = 0.36086 0.36844
# Poissons Ratio (z) = -0.06870 0.27180
#
# Static dielectric constant tensor:
#      x y z
#    x 4.368220 -0.369700 -0.004510 
#    y -0.369700 4.089020 0.108070 
#    z -0.004510 0.108070 3.811350 
# 
# 
# High freq. dielectric constant tensor:
#      x y z
#    x 1.895760 -0.020660 -0.002970 
#    y -0.020660 1.886130 0.013560 
#    z -0.002970 0.013560 1.865150 
# 
# From -- ./inp_files/157958.got.cif
#   From: 2010.06.25/outbox.cif.g09.slc.cpg/sg2_79_cif.got.tgz:157958.got - 2010.06.27 13:26:56.
