data_PCOD8007724
_publ_section_title
;
Structure prediction by ZEFSAII (Michael W. Deem and Ramdas Pophale) SiO2 
 PCOD8007724
Probable space group: P -1
;
_chemical_formula_sum "Si O2"
_cell_formula_units_Z 16
_cell_length_a 11.874906
_cell_length_b 11.690518
_cell_length_c 12.485896
_cell_angle_alpha 118.116533
_cell_angle_beta 37.038436
_cell_angle_gamma 89.840937
_cell_volume 645.393537
_symmetry_space_group_name_H-M "P -1"
_symmetry_group_IT_number 2
_symmetry_cell_setting 'triclinic'
loop_
_space_group_symop_operation_xyz
x,y,z
-x,-y,-z
loop_
_atom_site_type_symbol
_atom_site_label
_atom_site_fract_x
_atom_site_fract_y
_atom_site_fract_z
Si Si1 0.155639 0.751118 0.386304
Si Si2 0.981540 0.781293 0.293835
Si Si3 0.220890 0.487652 0.369149
Si Si4 0.319237 0.838705 0.995641
Si Si5 0.692019 0.673921 0.440442
Si Si6 0.556941 0.164233 0.708345
Si Si7 0.353003 0.944051 0.630107
Si Si8 0.996157 0.683336 0.843347
O O1 0.102600 0.745425 0.301866
O O2 0.267294 0.568568 0.277412
O O3 0.397733 0.733221 0.207018
O O4 0.888197 0.943985 0.725728
O O5 0.947948 0.645418 0.235917
O O6 0.166838 0.774332 0.068699
O O7 0.677648 0.981987 0.600307
O O8 0.480927 0.273409 0.104220
O O9 0.000000 0.500000 0.500000
O O10 0.153312 0.605652 0.578560
O O11 0.482039 0.802499 0.751944
O O12 0.537505 0.763629 0.485628
O O13 0.820325 0.467583 0.267284
O O14 0.709654 0.108166 0.451870
O O15 0.248031 0.293975 0.980509
O O16 0.500000 0.000000 0.500000
O O17 0.090774 0.127148 0.973105
#
# Coordination Sequence:
#
# PCOD8007724 Si02
#       8
#     2   2   2   2   2   2   2   2
#     4  11  24  41  65  91 131 177 204 269 333 365
#     4  11  23  42  64  94 134 168 217 268 319 387
#     4  11  25  40  63  98 128 170 218 260 319 392
#     4  10  24  41  60  94 132 161 218 263 310 394
#     4  11  22  41  67  96 124 176 208 262 341 369
#     4  10  22  41  65  95 125 170 219 265 321 378
#     4  10  20  41  67  94 128 164 224 269 304 394
#     4  10  22  39  64  94 127 164 217 263 315 388
#
# _framework density 24.791077999999999
#
# number of rings (size 3 to 8) (size 9 to 14) (size 15 to 20)
#    0.000    1.500    2.500    3.750    5.250    3.500 
#    0.000    5.625    0.000    7.500    0.000    0.000 
#    0.000    0.000    0.000    0.000    0.000    0.000 
#
# Total GULP energy -198306.135076 kJ/mol
# GULP energy per Si atom -12394.133442 kJ/mol
# Density = 2.473465 g / cm^3
# Si number density = 24.791078 Si / 1000 Ang^3
#
#
#
# Elastic Constant Matrix: (Units=GPa)
#
#
# Indices 1 2 3 4 5 6 
#
# 1 77.3945 33.1109 -3.2172 12.9642 10.5864 -29.1552
# 2 33.1109 98.3527 2.3938 9.4831 -8.6123 -36.7690
# 3 -3.2172 2.3938 41.3497 16.3747 -8.9938 -10.2979
# 4 12.9642 9.4831 16.3747 41.0478 -3.2093 -10.8559
# 5 10.5864 -8.6123 -8.9938 -3.2093 25.9851 0.6470
# 6 -29.1552 -36.7690 -10.2979 -10.8559 0.6470 46.3841
#
#
#
# Elastic Compliance Matrix: (Units=1/GPa)
#
#
# Indices 1 2 3 4 5 6 
#
# 1 0.020505 -0.003557 0.004525 -0.005536 -0.008897 0.009902
# 2 -0.003557 0.016146 0.003384 -0.000421 0.007643 0.011109
# 3 0.004525 0.003384 0.033693 -0.012289 0.009173 0.010003
# 4 -0.005536 -0.000421 -0.012289 0.031455 0.001728 0.000796
# 5 -0.008897 0.007643 0.009173 0.001728 0.047974 0.002238
# 6 0.009902 0.011109 0.010003 0.000796 0.002238 0.038966
#
#
# Mechanical properties :
#
#
# Convention : Reuss Voigt Hill
#
# Bulk Modulus (GPa) = 12.65044 31.29688 21.97366
# Shear Modulus (GPa) = 24.22683 35.00403 29.61543
#
# Velocity S-wave (km/s) = 3.12948 3.76168 3.46005
# Velocity P-wave (km/s) = 4.26287 5.61415 4.98451
#
# Compressibility (1/GPa) = 0.07904860
#
# Stress axis : x y z
#
# Youngs Moduli (GPa) = 48.76849 61.93672 29.67983
#
# Poissons Ratio (x) = 0.22028 -0.13429
# Poissons Ratio (y) = 0.17345 -0.10045
# Poissons Ratio (z) = -0.22066 -0.20962
#
# Static dielectric constant tensor:
#      x y z
#    x 4.685920 -0.129440 0.105310 
#    y -0.129440 5.235040 -0.035100 
#    z 0.105310 -0.035100 4.739460 
# 
# 
# High freq. dielectric constant tensor:
#      x y z
#    x 1.980200 -0.024940 -0.005410 
#    y -0.024940 1.988870 0.011870 
#    z -0.005410 0.011870 1.987150 
# 
# From -- ./inp_files/428521.got.cif
#   From: 2010.06.25/outbox.cif.g09.slc.cpg/sg2_215_cif.got.tgz:428521.got - 2010.06.27 13:26:56.
