data_PCOD8007212
_publ_section_title
;
Structure prediction by ZEFSAII (Michael W. Deem and Ramdas Pophale) SiO2 
 PCOD8007212
Probable space group: P -1
;
_chemical_formula_sum "Si O2"
_cell_formula_units_Z 14
_cell_length_a 11.829358
_cell_length_b 10.965647
_cell_length_c 8.338039
_cell_angle_alpha 52.089438
_cell_angle_beta 126.441180
_cell_angle_gamma 105.614545
_cell_volume 678.615375
_symmetry_space_group_name_H-M "P -1"
_symmetry_group_IT_number 2
_symmetry_cell_setting 'triclinic'
loop_
_space_group_symop_operation_xyz
x,y,z
-x,-y,-z
loop_
_atom_site_type_symbol
_atom_site_label
_atom_site_fract_x
_atom_site_fract_y
_atom_site_fract_z
Si Si1 0.484763 0.129501 0.018586
Si Si2 0.360842 0.427429 0.483953
Si Si3 0.769536 0.075945 0.466898
Si Si4 0.997179 0.743380 0.390327
Si Si5 0.266370 0.089925 0.124727
Si Si6 0.915180 0.438087 0.705809
Si Si7 0.193175 0.270819 0.211352
O O1 0.398764 0.291250 0.755861
O O2 0.637821 0.160047 0.184985
O O3 0.406330 0.063947 0.156145
O O4 0.500000 0.000000 0.000000
O O5 0.500000 0.500000 0.500000
O O6 0.240900 0.559919 0.350710
O O7 0.299291 0.360907 0.325576
O O8 0.892575 0.181780 0.466580
O O9 0.732416 0.062036 0.637445
O O10 0.817111 0.899404 0.581175
O O11 0.077183 0.662542 0.367801
O O12 0.932036 0.617762 0.543006
O O13 0.874376 0.885306 0.124322
O O14 0.258320 0.245013 0.106334
O O15 0.035255 0.367632 0.991302
#
# Coordination Sequence:
#
# PCOD8007212 Si02
#       7
#     2   2   2   2   2   2   2
#     4  12  23  43  61  89 133 169 207 256 312 373
#     4  12  26  44  61  93 131 171 207 254 317 375
#     4  10  22  39  67  95 121 161 215 252 315 365
#     4  10  20  40  68  97 120 162 215 259 309 369
#     4   9  20  40  66  87 127 159 207 263 304 365
#     4  10  22  41  66  92 128 163 207 264 311 366
#     4   9  22  43  65  92 123 163 213 260 309 364
#
# _framework density 20.630243
#
# number of rings (size 3 to 8) (size 9 to 14) (size 15 to 20)
#    0.857    0.857    2.857    1.286    2.000    2.286 
#    0.000    2.857    0.000    0.000    0.000    0.000 
#    0.000    0.000    0.000    0.000    0.000    0.000 
#
# Total GULP energy -173580.910812 kJ/mol
# GULP energy per Si atom -12398.636487 kJ/mol
# Density = 2.058329 g / cm^3
# Si number density = 20.630243 Si / 1000 Ang^3
#
#
#
# Elastic Constant Matrix: (Units=GPa)
#
#
# Indices 1 2 3 4 5 6 
#
# 1 95.5475 33.3174 23.2398 8.1059 17.3960 5.4220
# 2 33.3174 86.3596 17.8750 16.4564 21.3866 14.4142
# 3 23.2398 17.8750 108.6901 15.3571 26.7395 2.7064
# 4 8.1059 16.4564 15.3571 30.3311 10.6832 7.2141
# 5 17.3960 21.3866 26.7395 10.6832 28.1170 1.5179
# 6 5.4220 14.4142 2.7064 7.2141 1.5179 25.6236
#
#
#
# Elastic Compliance Matrix: (Units=1/GPa)
#
#
# Indices 1 2 3 4 5 6 
#
# 1 0.012777 -0.003710 -0.001180 0.000800 -0.004240 -0.000466
# 2 -0.003710 0.017197 0.001144 -0.003599 -0.010107 -0.007398
# 3 -0.001180 0.001144 0.012310 -0.002653 -0.010822 -0.000306
# 4 0.000800 -0.003599 -0.002653 0.041970 -0.010692 -0.009047
# 5 -0.004240 -0.010107 -0.010822 -0.010692 0.059842 0.007191
# 6 -0.000466 -0.007398 -0.000306 -0.009047 0.007191 0.045440
#
#
# Mechanical properties :
#
#
# Convention : Reuss Voigt Hill
#
# Bulk Modulus (GPa) = 28.74190 48.82906 38.78548
# Shear Modulus (GPa) = 23.96637 31.22534 27.59586
#
# Velocity S-wave (km/s) = 3.41209 3.89468 3.66135
# Velocity P-wave (km/s) = 5.43003 6.62909 6.05929
#
# Compressibility (1/GPa) = 0.03479241
#
# Stress axis : x y z
#
# Youngs Moduli (GPa) = 78.26452 58.14826 81.23786
#
# Poissons Ratio (x) = 0.21572 0.09588
# Poissons Ratio (y) = 0.29034 -0.09295
# Poissons Ratio (z) = 0.09237 -0.06653
#
# Static dielectric constant tensor:
#      x y z
#    x 3.511890 -0.050390 0.063380 
#    y -0.050390 3.489210 0.031490 
#    z 0.063380 0.031490 3.857970 
# 
# 
# High freq. dielectric constant tensor:
#      x y z
#    x 1.791940 -0.004620 0.010640 
#    y -0.004620 1.790210 0.009180 
#    z 0.010640 0.009180 1.820940 
# 
# From -- ./inp_files/261806.got.cif
#   From: 2010.06.25/outbox.cif.g09.slc.cpg/sg2_131_cif.got.tgz:261806.got - 2010.06.27 13:26:56.
