data_PCOD8007657
_publ_section_title
;
Structure prediction by ZEFSAII (Michael W. Deem and Ramdas Pophale) SiO2 
 PCOD8007657
Probable space group: P -1
;
_chemical_formula_sum "Si O2"
_cell_formula_units_Z 16
_cell_length_a 11.888524
_cell_length_b 9.531782
_cell_length_c 18.806642
_cell_angle_alpha 96.015121
_cell_angle_beta 43.291698
_cell_angle_gamma 130.410319
_cell_volume 791.326176
_symmetry_space_group_name_H-M "P -1"
_symmetry_group_IT_number 2
_symmetry_cell_setting 'triclinic'
loop_
_space_group_symop_operation_xyz
x,y,z
-x,-y,-z
loop_
_atom_site_type_symbol
_atom_site_label
_atom_site_fract_x
_atom_site_fract_y
_atom_site_fract_z
Si Si1 0.891697 0.497247 0.477618
Si Si2 0.775950 0.935838 0.267986
Si Si3 0.711425 0.404466 0.794866
Si Si4 0.246747 0.570357 0.911953
Si Si5 0.913078 0.854950 0.725642
Si Si6 0.019296 0.905534 0.048792
Si Si7 0.907219 0.043964 0.603408
Si Si8 0.697147 0.475084 0.962690
O O1 0.537125 0.213675 0.615347
O O2 0.000000 0.500000 0.500000
O O3 0.083467 0.572938 0.328536
O O4 0.912345 0.681729 0.476543
O O5 0.828418 0.822150 0.200322
O O6 0.798656 0.937623 0.343482
O O7 0.039407 0.223033 0.131336
O O8 0.840763 0.646364 0.716576
O O9 0.743804 0.421057 0.866210
O O10 0.367552 0.126465 0.917598
O O11 0.151939 0.351621 0.915659
O O12 0.559099 0.834381 0.744454
O O13 0.290608 0.615846 0.978996
O O14 0.000000 0.500000 0.000000
O O15 0.970842 0.013661 0.647961
O O16 0.626176 0.681147 0.898753
O O17 0.000000 0.000000 0.000000
O O18 0.000000 0.000000 0.500000
#
# Coordination Sequence:
#
# PCOD8007657 Si02
#       8
#     2   2   2   2   2   2   2   2
#     4  12  27  41  61  96 130 166 211 260 315 374
#     4  11  21  39  67  93 124 165 215 255 305 382
#     4  11  21  40  65  96 128 162 207 265 310 370
#     4  11  24  40  62  96 126 164 205 263 319 366
#     4  10  20  42  68  94 124 165 213 259 315 366
#     4  12  19  36  68  93 116 162 220 252 295 372
#     4  11  24  46  62  87 133 168 206 259 319 375
#     4  10  20  41  66  95 128 160 211 259 316 368
#
# _framework density 20.219221999999998
#
# number of rings (size 3 to 8) (size 9 to 14) (size 15 to 20)
#    0.000    1.000    3.750    4.500    1.750    2.500 
#    4.500    1.875    0.000    0.000    0.000    0.000 
#    0.000    0.000    0.000    0.000    0.000    0.000 
#
# Total GULP energy -198396.867789 kJ/mol
# GULP energy per Si atom -12399.804237 kJ/mol
# Density = 2.017320 g / cm^3
# Si number density = 20.219222 Si / 1000 Ang^3
#
#
#
# Elastic Constant Matrix: (Units=GPa)
#
#
# Indices 1 2 3 4 5 6 
#
# 1 99.6686 23.0015 48.8958 -6.3037 -12.3489 11.5791
# 2 23.0015 62.9164 24.8598 10.4745 6.6490 6.5732
# 3 48.8958 24.8598 105.7881 14.6319 -11.5987 10.5890
# 4 -6.3037 10.4745 14.6319 37.4488 -0.5559 -2.8130
# 5 -12.3489 6.6490 -11.5987 -0.5559 37.3778 -5.1483
# 6 11.5791 6.5732 10.5890 -2.8130 -5.1483 32.9125
#
#
#
# Elastic Compliance Matrix: (Units=1/GPa)
#
#
# Indices 1 2 3 4 5 6 
#
# 1 0.015120 -0.004327 -0.006284 0.006166 0.003724 -0.001324
# 2 -0.004327 0.020389 -0.002346 -0.005855 -0.006324 -0.003285
# 3 -0.006284 -0.002346 0.014214 -0.006073 0.002381 -0.002040
# 4 0.006166 -0.005855 -0.006073 0.032088 0.002229 0.004045
# 5 0.003724 -0.006324 0.002381 0.002229 0.030451 0.004141
# 6 -0.001324 -0.003285 -0.002040 0.004045 0.004141 0.033155
#
#
# Mechanical properties :
#
#
# Convention : Reuss Voigt Hill
#
# Bulk Modulus (GPa) = 42.00013 51.32081 46.66047
# Shear Modulus (GPa) = 27.89129 32.98890 30.44009
#
# Velocity S-wave (km/s) = 3.71812 4.04364 3.88429
# Velocity P-wave (km/s) = 6.26498 6.87304 6.57604
#
# Compressibility (1/GPa) = 0.02380945
#
# Stress axis : x y z
#
# Youngs Moduli (GPa) = 66.13911 49.04560 70.35412
#
# Poissons Ratio (x) = 0.21220 0.44208
# Poissons Ratio (y) = 0.28616 0.16508
# Poissons Ratio (z) = 0.41559 0.11508
#
# Static dielectric constant tensor:
#      x y z
#    x 3.752000 0.194470 -0.001250 
#    y 0.194470 3.634190 0.041140 
#    z -0.001250 0.041140 3.746440 
# 
# 
# High freq. dielectric constant tensor:
#      x y z
#    x 1.791920 0.014050 -0.003880 
#    y 0.014050 1.790320 0.003310 
#    z -0.003880 0.003310 1.793350 
# 
# From -- ./inp_files/207816.got.cif
#   From: 2010.06.25/outbox.cif.g09.slc.cpg/sg2_104_cif.got.tgz:207816.got - 2010.06.27 13:26:56.
