data_PCOD8007148
_publ_section_title
;
Structure prediction by ZEFSAII (Michael W. Deem and Ramdas Pophale) SiO2 
 PCOD8007148
Probable space group: P -1
;
_chemical_formula_sum "Si O2"
_cell_formula_units_Z 16
_cell_length_a 14.859493
_cell_length_b 14.676950
_cell_length_c 11.907841
_cell_angle_alpha 29.496865
_cell_angle_beta 120.924340
_cell_angle_gamma 139.698166
_cell_volume 729.753532
_symmetry_space_group_name_H-M "P -1"
_symmetry_group_IT_number 2
_symmetry_cell_setting 'triclinic'
loop_
_space_group_symop_operation_xyz
x,y,z
-x,-y,-z
loop_
_atom_site_type_symbol
_atom_site_label
_atom_site_fract_x
_atom_site_fract_y
_atom_site_fract_z
Si Si1 0.508742 0.535902 0.835541
Si Si2 0.872456 0.738955 0.341209
Si Si3 0.321745 0.818697 0.051639
Si Si4 0.388746 0.034185 0.212894
Si Si5 0.653340 0.100957 0.273318
Si Si6 0.806398 0.708977 0.086394
Si Si7 0.820725 0.395194 0.286323
Si Si8 0.186498 0.920741 0.005554
O O1 0.331780 0.353486 0.882740
O O2 0.634604 0.853722 0.535393
O O3 0.500000 0.500000 0.000000
O O4 0.530173 0.371994 0.956821
O O5 0.795559 0.478480 0.644697
O O6 0.867247 0.683067 0.264907
O O7 0.796777 0.837904 0.222649
O O8 0.060266 0.992410 0.210956
O O9 0.282635 0.976856 0.897176
O O10 0.287114 0.763346 0.956688
O O11 0.500000 0.000000 0.000000
O O12 0.479950 0.960362 0.332705
O O13 0.283702 0.899600 0.403637
O O14 0.267449 0.911208 0.166918
O O15 0.786489 0.342721 0.187593
O O16 0.749505 0.491016 0.188900
O O17 0.004476 0.621062 0.193225
#
# Coordination Sequence:
#
# PCOD8007148 Si02
#       8
#     2   2   2   2   2   2   2   2
#     4  12  23  38  66  99 130 173 213 267 337 392
#     4  10  23  42  66  98 131 169 218 281 322 386
#     4  12  26  44  67  92 136 184 221 265 331 396
#     4  12  22  40  70  98 133 171 219 280 334 383
#     4  12  26  45  63 100 141 175 218 273 330 400
#     4  10  20  40  67  98 133 162 217 277 335 378
#     4  11  23  42  67  99 138 168 218 280 335 390
#     4  11  25  42  68 100 127 178 226 269 324 398
#
# _framework density 21.925211000000001
#
# number of rings (size 3 to 8) (size 9 to 14) (size 15 to 20)
#    0.000    0.750    5.000    3.000    1.750    2.000 
#    0.000    2.500    0.000    0.000    0.000    0.000 
#    0.000    0.000    0.000    0.000    0.000    0.000 
#
# Total GULP energy -198295.330590 kJ/mol
# GULP energy per Si atom -12393.458162 kJ/mol
# Density = 2.187531 g / cm^3
# Si number density = 21.925211 Si / 1000 Ang^3
#
#
#
# Elastic Constant Matrix: (Units=GPa)
#
#
# Indices 1 2 3 4 5 6 
#
# 1 73.1135 16.1867 11.1852 -3.5703 -4.8526 -20.6200
# 2 16.1867 126.6404 36.7060 6.6918 -6.1047 -27.8630
# 3 11.1852 36.7060 119.7286 -0.5346 -8.2258 -23.1234
# 4 -3.5703 6.6918 -0.5346 28.4496 -7.2118 -3.8435
# 5 -4.8526 -6.1047 -8.2258 -7.2118 30.0387 2.2055
# 6 -20.6200 -27.8630 -23.1234 -3.8435 2.2055 36.3208
#
#
#
# Elastic Compliance Matrix: (Units=1/GPa)
#
#
# Indices 1 2 3 4 5 6 
#
# 1 0.016902 -0.000203 0.000679 0.004357 0.003177 0.010140
# 2 -0.000203 0.009901 -0.001785 -0.001377 0.000708 0.006155
# 3 0.000679 -0.001785 0.010087 0.002100 0.002609 0.005502
# 4 0.004357 -0.001377 0.002100 0.039450 0.010006 0.006321
# 5 0.003177 0.000708 0.002609 0.010006 0.036857 0.002829
# 6 0.010140 0.006155 0.005502 0.006321 0.002829 0.042011
#
#
# Mechanical properties :
#
#
# Convention : Reuss Voigt Hill
#
# Bulk Modulus (GPa) = 29.17849 49.73756 39.45803
# Shear Modulus (GPa) = 29.54212 35.98880 32.76546
#
# Velocity S-wave (km/s) = 3.67468 4.05586 3.86997
# Velocity P-wave (km/s) = 5.59835 6.68339 6.16478
#
# Compressibility (1/GPa) = 0.03427182
#
# Stress axis : x y z
#
# Youngs Moduli (GPa) = 59.16500 101.00199 99.13452
#
# Poissons Ratio (x) = 0.02054 -0.06736
# Poissons Ratio (y) = 0.01203 0.17698
# Poissons Ratio (z) = -0.04020 0.18031
#
# Static dielectric constant tensor:
#      x y z
#    x 3.813830 -0.489170 0.137520 
#    y -0.489170 3.483000 -0.081950 
#    z 0.137520 -0.081950 3.806690 
# 
# 
# High freq. dielectric constant tensor:
#      x y z
#    x 1.861190 -0.008440 0.015780 
#    y -0.008440 1.870260 -0.010100 
#    z 0.015780 -0.010100 1.847400 
# 
# From -- ./inp_files/425111.got.cif
#   From: 2010.06.25/outbox.cif.g09.slc.cpg/sg2_213_cif.got.tgz:425111.got - 2010.06.27 13:26:56.
