data_PCOD8007881
_publ_section_title
;
Structure prediction by ZEFSAII (Michael W. Deem and Ramdas Pophale) SiO2 
 PCOD8007881
Probable space group: P -1
;
_chemical_formula_sum "Si O2"
_cell_formula_units_Z 16
_cell_length_a 11.408365
_cell_length_b 6.611076
_cell_length_c 14.191925
_cell_angle_alpha 92.087280
_cell_angle_beta 127.730983
_cell_angle_gamma 116.845906
_cell_volume 677.066077
_symmetry_space_group_name_H-M "P -1"
_symmetry_group_IT_number 2
_symmetry_cell_setting 'triclinic'
loop_
_space_group_symop_operation_xyz
x,y,z
-x,-y,-z
loop_
_atom_site_type_symbol
_atom_site_label
_atom_site_fract_x
_atom_site_fract_y
_atom_site_fract_z
Si Si1 0.460817 0.699066 0.785679
Si Si2 0.764428 0.884238 0.073092
Si Si3 0.765107 0.183610 0.245467
Si Si4 0.636077 0.607238 0.708019
Si Si5 0.026125 0.337788 0.765026
Si Si6 0.087075 0.270079 0.506756
Si Si7 0.032356 0.398004 0.106599
Si Si8 0.269318 0.178975 0.446099
O O1 0.431059 0.914621 0.801462
O O2 0.576049 0.742556 0.749148
O O3 0.245331 0.458324 0.662601
O O4 0.562489 0.673536 0.924083
O O5 0.881730 0.775806 0.136934
O O6 0.741096 0.962396 0.167194
O O7 0.860606 0.117197 0.049884
O O8 0.815326 0.414538 0.207876
O O9 0.921898 0.292771 0.405842
O O10 0.793666 0.601483 0.832149
O O11 0.466663 0.314397 0.596817
O O12 0.711449 0.772638 0.654388
O O13 0.922851 0.404836 0.786414
O O14 0.863727 0.125020 0.610767
O O15 0.173984 0.299196 0.446340
O O16 0.000000 0.000000 0.500000
O O17 0.000000 0.500000 0.000000
#
# Coordination Sequence:
#
# PCOD8007881 Si02
#       8
#     2   2   2   2   2   2   2   2
#     4  11  25  41  69 105 135 181 221 279 341 396
#     4  11  24  46  69  98 142 176 225 287 330 399
#     4  11  24  46  70 100 132 177 234 269 341 414
#     4  10  22  42  65 100 141 169 229 279 326 407
#     4  11  22  42  75  91 129 189 219 274 346 391
#     4  11  23  47  72  99 137 175 224 287 337 399
#     4  11  24  41  64  99 135 178 228 268 334 407
#     4  10  20  41  70  96 130 179 217 278 339 388
#
# _framework density 23.631371000000001
#
# number of rings (size 3 to 8) (size 9 to 14) (size 15 to 20)
#    0.000    1.250    2.500    3.000    1.750    2.000 
#   11.250    0.000    0.000    0.000    0.000    0.000 
#    0.000    0.000    0.000    0.000    0.000    0.000 
#
# Total GULP energy -198291.296339 kJ/mol
# GULP energy per Si atom -12393.206021 kJ/mol
# Density = 2.357759 g / cm^3
# Si number density = 23.631371 Si / 1000 Ang^3
#
#
#
# Elastic Constant Matrix: (Units=GPa)
#
#
# Indices 1 2 3 4 5 6 
#
# 1 140.1220 19.3319 42.8594 -15.4293 10.4881 -21.7982
# 2 19.3319 63.5548 19.9436 -10.5553 3.3372 -10.2659
# 3 42.8594 19.9436 130.6386 -1.6789 8.9543 -0.7761
# 4 -15.4293 -10.5553 -1.6789 31.3253 -2.8160 -0.9444
# 5 10.4881 3.3372 8.9543 -2.8160 36.9458 -1.6539
# 6 -21.7982 -10.2659 -0.7761 -0.9444 -1.6539 15.3047
#
#
#
# Elastic Compliance Matrix: (Units=1/GPa)
#
#
# Indices 1 2 3 4 5 6 
#
# 1 0.011646 0.001671 -0.003801 0.006520 -0.001243 0.017784
# 2 0.001671 0.020258 -0.003433 0.007943 -0.000139 0.016269
# 3 -0.003801 -0.003433 0.009444 -0.002882 -0.001458 -0.007573
# 4 0.006520 0.007943 -0.002882 0.038333 0.001814 0.017030
# 5 -0.001243 -0.000139 -0.001458 0.001814 0.027977 0.001199
# 6 0.017784 0.016269 -0.007573 0.017030 0.001199 0.102378
#
#
# Mechanical properties :
#
#
# Convention : Reuss Voigt Hill
#
# Bulk Modulus (GPa) = 33.08841 55.39835 44.24338
# Shear Modulus (GPa) = 21.62292 33.52719 27.57506
#
# Velocity S-wave (km/s) = 3.02819 3.77073 3.41967
# Velocity P-wave (km/s) = 5.12434 6.51548 5.86133
#
# Compressibility (1/GPa) = 0.03022206
#
# Stress axis : x y z
#
# Youngs Moduli (GPa) = 85.86377 49.36377 105.88957
#
# Poissons Ratio (x) = -0.08249 0.40253
# Poissons Ratio (y) = -0.14348 0.36348
# Poissons Ratio (z) = 0.32640 0.16945
#
# Static dielectric constant tensor:
#      x y z
#    x 4.879620 -0.185680 -0.100700 
#    y -0.185680 3.984040 0.191150 
#    z -0.100700 0.191150 4.511670 
# 
# 
# High freq. dielectric constant tensor:
#      x y z
#    x 1.958120 -0.012340 -0.004430 
#    y -0.012340 1.904020 0.009390 
#    z -0.004430 0.009390 1.947590 
# 
# From -- ./inp_files/367468.got.cif
#   From: 2010.06.25/outbox.cif.g09.slc.cpg/sg2_184_cif.got.tgz:367468.got - 2010.06.27 13:26:56.
