data_PCOD8007280
_publ_section_title
;
Structure prediction by ZEFSAII (Michael W. Deem and Ramdas Pophale) SiO2 
 PCOD8007280
Probable space group: P -1
;
_chemical_formula_sum "Si O2"
_cell_formula_units_Z 16
_cell_length_a 14.664537
_cell_length_b 10.596041
_cell_length_c 8.487229
_cell_angle_alpha 136.210608
_cell_angle_beta 56.639863
_cell_angle_gamma 115.355611
_cell_volume 761.131920
_symmetry_space_group_name_H-M "P -1"
_symmetry_group_IT_number 2
_symmetry_cell_setting 'triclinic'
loop_
_space_group_symop_operation_xyz
x,y,z
-x,-y,-z
loop_
_atom_site_type_symbol
_atom_site_label
_atom_site_fract_x
_atom_site_fract_y
_atom_site_fract_z
Si Si1 0.839659 0.793557 0.226866
Si Si2 0.788312 0.900678 0.054913
Si Si3 0.629643 0.985270 0.013005
Si Si4 0.160355 0.910707 0.268968
Si Si5 0.129021 0.480234 0.392562
Si Si6 0.462557 0.691101 0.776295
Si Si7 0.243026 0.581627 0.055167
Si Si8 0.073352 0.786452 0.913024
O O1 0.943560 0.734923 0.968584
O O2 0.888523 0.932476 0.436284
O O3 0.757856 0.875998 0.247931
O O4 0.782226 0.609498 0.187715
O O5 0.833749 0.717900 0.768406
O O6 0.683612 0.969535 0.120892
O O7 0.888014 0.052239 0.095834
O O8 0.721469 0.998564 0.803765
O O9 0.555851 0.801387 0.887304
O O10 0.568199 0.175753 0.221023
O O11 0.161345 0.728343 0.205038
O O12 0.089453 0.860443 0.140224
O O13 0.214424 0.550902 0.238387
O O14 0.000000 0.500000 0.500000
O O15 0.146079 0.613639 0.649092
O O16 0.500000 0.500000 0.500000
O O17 0.366567 0.649665 0.957982
#
# Coordination Sequence:
#
# PCOD8007280 Si02
#       8
#     2   2   2   2   2   2   2   2
#     4  11  21  36  55  86 124 162 205 247 298 353
#     4  10  22  37  62  86 124 164 207 248 298 365
#     4   9  21  40  61  95 115 154 204 248 312 371
#     4  10  22  36  58  88 122 154 206 258 300 359
#     4  11  22  40  59  86 127 173 205 244 297 360
#     4  10  20  40  70  89 122 156 196 260 322 363
#     4  10  22  38  61  90 119 161 205 250 309 365
#     4  11  22  36  58  86 118 172 210 244 300 350
#
# _framework density 21.021324
#
# number of rings (size 3 to 8) (size 9 to 14) (size 15 to 20)
#    0.000    1.750    2.500    2.250    1.750    5.500 
#    0.000    2.500    0.000   29.250    0.000    0.000 
#    0.000    0.000    0.000    0.000    0.000    0.000 
#
# Total GULP energy -198226.397766 kJ/mol
# GULP energy per Si atom -12389.149860 kJ/mol
# Density = 2.097348 g / cm^3
# Si number density = 21.021324 Si / 1000 Ang^3
#
#
#
# Elastic Constant Matrix: (Units=GPa)
#
#
# Indices 1 2 3 4 5 6 
#
# 1 67.2064 25.5565 24.6417 5.9829 0.7735 11.3239
# 2 25.5565 99.6266 22.5005 18.4335 -1.6720 16.6438
# 3 24.6417 22.5005 102.9829 12.4201 6.7931 -16.1652
# 4 5.9829 18.4335 12.4201 32.4052 -0.3486 -5.0266
# 5 0.7735 -1.6720 6.7931 -0.3486 27.3462 1.6007
# 6 11.3239 16.6438 -16.1652 -5.0266 1.6007 20.2356
#
#
#
# Elastic Compliance Matrix: (Units=1/GPa)
#
#
# Indices 1 2 3 4 5 6 
#
# 1 0.021348 0.000505 -0.008017 -0.004234 0.002536 -0.020019
# 2 0.000505 0.017168 -0.006336 -0.010875 0.003786 -0.022466
# 3 -0.008017 -0.006336 0.016921 0.002298 -0.005754 0.024241
# 4 -0.004234 -0.010875 0.002298 0.040551 -0.001967 0.023378
# 5 0.002536 0.003786 -0.005754 -0.001967 0.038875 -0.012693
# 6 -0.020019 -0.022466 0.024241 0.023378 -0.012693 0.105275
#
#
# Mechanical properties :
#
#
# Convention : Reuss Voigt Hill
#
# Bulk Modulus (GPa) = 36.05117 46.13481 41.09299
# Shear Modulus (GPa) = 18.04521 29.13854 23.59188
#
# Velocity S-wave (km/s) = 2.93307 3.72713 3.35368
# Velocity P-wave (km/s) = 5.35327 6.36524 5.88107
#
# Compressibility (1/GPa) = 0.02773835
#
# Stress axis : x y z
#
# Youngs Moduli (GPa) = 46.84290 58.24852 59.09906
#
# Poissons Ratio (x) = -0.02940 0.47382
# Poissons Ratio (y) = -0.02364 0.37447
# Poissons Ratio (z) = 0.37556 0.36908
#
# Static dielectric constant tensor:
#      x y z
#    x 3.619150 -0.011970 -0.062500 
#    y -0.011970 4.003020 0.258340 
#    z -0.062500 0.258340 3.912800 
# 
# 
# High freq. dielectric constant tensor:
#      x y z
#    x 1.802510 0.001650 0.001500 
#    y 0.001650 1.835530 0.019810 
#    z 0.001500 0.019810 1.825380 
# 
# From -- ./inp_files/308728.got.cif
#   From: 2010.06.25/outbox.cif.g09.slc.cpg/sg2_155_cif.got.tgz:308728.got - 2010.06.27 13:26:56.
