data_PCOD8007431
_publ_section_title
;
Structure prediction by ZEFSAII (Michael W. Deem and Ramdas Pophale) SiO2 
 PCOD8007431
Probable space group: P -1
;
_chemical_formula_sum "Si O2"
_cell_formula_units_Z 16
_cell_length_a 9.376290
_cell_length_b 14.934558
_cell_length_c 13.016336
_cell_angle_alpha 90.843884
_cell_angle_beta 117.338311
_cell_angle_gamma 39.882431
_cell_volume 836.084579
_symmetry_space_group_name_H-M "P -1"
_symmetry_group_IT_number 2
_symmetry_cell_setting 'triclinic'
loop_
_space_group_symop_operation_xyz
x,y,z
-x,-y,-z
loop_
_atom_site_type_symbol
_atom_site_label
_atom_site_fract_x
_atom_site_fract_y
_atom_site_fract_z
Si Si1 0.190143 0.789710 0.801796
Si Si2 0.827022 0.397298 0.174980
Si Si3 0.755361 0.703789 0.549901
Si Si4 0.308187 0.352161 0.813021
Si Si5 0.272818 0.325567 0.022272
Si Si6 0.801814 0.019448 0.491226
Si Si7 0.362815 0.130589 0.196082
Si Si8 0.625686 0.076841 0.767110
O O1 0.432782 0.751577 0.868384
O O2 0.344265 0.617749 0.874892
O O3 0.016479 0.860049 0.636944
O O4 0.953348 0.930372 0.816408
O O5 0.090546 0.279463 0.350286
O O6 0.023201 0.312853 0.134111
O O7 0.588826 0.596164 0.111121
O O8 0.467741 0.806593 0.525799
O O9 0.655979 0.773094 0.402964
O O10 0.017117 0.500312 0.640568
O O11 0.593302 0.167157 0.847400
O O12 0.192446 0.353388 0.875585
O O13 0.364290 0.183339 0.090219
O O14 0.000000 0.500000 0.000000
O O15 0.650158 0.025969 0.358436
O O16 0.000000 0.000000 0.500000
O O17 0.408311 0.003252 0.191470
#
# Coordination Sequence:
#
# PCOD8007431 Si02
#       8
#     2   2   2   2   2   2   2   2
#     4  10  21  33  59  83 106 140 181 231 268 311
#     4   8  17  35  54  85 100 136 184 219 266 309
#     4   8  17  34  56  82 107 137 179 222 269 314
#     4  10  21  35  58  79 111 147 178 218 273 323
#     4  12  22  38  56  79 113 144 182 223 270 322
#     4  10  16  30  56  85 109 135 180 225 268 317
#     4  10  19  35  57  84 108 141 180 222 271 319
#     4  10  20  37  59  80 109 143 181 226 267 318
#
# _framework density 19.13682
#
# number of rings (size 3 to 8) (size 9 to 14) (size 15 to 20)
#    0.750    1.500    2.500    1.125    0.000    4.500 
#    0.000    0.000    2.750    0.750    0.000    0.000 
#    0.000    0.000    0.000    0.000    0.000    0.000 
#
# Total GULP energy -198247.580178 kJ/mol
# GULP energy per Si atom -12390.473761 kJ/mol
# Density = 1.909326 g / cm^3
# Si number density = 19.136820 Si / 1000 Ang^3
#
#
#
# Elastic Constant Matrix: (Units=GPa)
#
#
# Indices 1 2 3 4 5 6 
#
# 1 130.4478 58.9759 29.5342 -2.8564 -9.8104 9.1004
# 2 58.9759 120.5465 28.0042 4.4264 -14.5558 15.4173
# 3 29.5342 28.0042 43.3370 -5.8470 -24.1297 8.9483
# 4 -2.8564 4.4264 -5.8470 22.3471 1.0795 -0.7272
# 5 -9.8104 -14.5558 -24.1297 1.0795 34.0319 -3.1259
# 6 9.1004 15.4173 8.9483 -0.7272 -3.1259 22.0677
#
#
#
# Elastic Compliance Matrix: (Units=1/GPa)
#
#
# Indices 1 2 3 4 5 6 
#
# 1 0.010785 -0.004293 -0.006435 0.000725 -0.003246 0.000725
# 2 -0.004293 0.012251 -0.004059 -0.004243 0.000784 -0.005171
# 3 -0.006435 -0.004059 0.051332 0.011551 0.031475 -0.010486
# 4 0.000725 -0.004243 0.011551 0.048469 0.005074 0.000298
# 5 -0.003246 0.000784 0.031475 0.005074 0.050513 -0.004650
# 6 0.000725 -0.005171 -0.010486 0.000298 -0.004650 0.052232
#
#
# Mechanical properties :
#
#
# Convention : Reuss Voigt Hill
#
# Bulk Modulus (GPa) = 22.32459 58.59555 40.46007
# Shear Modulus (GPa) = 18.51258 27.54380 23.02819
#
# Velocity S-wave (km/s) = 3.11365 3.79794 3.47269
# Velocity P-wave (km/s) = 4.96160 7.06528 6.10474
#
# Compressibility (1/GPa) = 0.04479366
#
# Stress axis : x y z
#
# Youngs Moduli (GPa) = 92.72302 81.62918 19.48084
#
# Poissons Ratio (x) = 0.35041 0.12536
# Poissons Ratio (y) = 0.39803 0.07907
# Poissons Ratio (z) = 0.59670 0.33134
#
# Static dielectric constant tensor:
#      x y z
#    x 3.464370 0.032210 -0.183610 
#    y 0.032210 3.289080 -0.131480 
#    z -0.183610 -0.131480 3.634260 
# 
# 
# High freq. dielectric constant tensor:
#      x y z
#    x 1.735670 -0.000040 -0.012100 
#    y -0.000040 1.719620 -0.014810 
#    z -0.012100 -0.014810 1.755090 
# 
# From -- ./inp_files/399136.got.cif
#   From: 2010.06.25/outbox.cif.g09.slc.cpg/sg2_200_cif.got.tgz:399136.got - 2010.06.27 13:26:56.
