data_PCOD8007058
_publ_section_title
;
Structure prediction by ZEFSAII (Michael W. Deem and Ramdas Pophale) SiO2 
 PCOD8007058
Probable space group: P -1
;
_chemical_formula_sum "Si O2"
_cell_formula_units_Z 16
_cell_length_a 8.669285
_cell_length_b 11.429083
_cell_length_c 14.762751
_cell_angle_alpha 50.090697
_cell_angle_beta 42.797482
_cell_angle_gamma 49.910603
_cell_volume 718.954549
_symmetry_space_group_name_H-M "P -1"
_symmetry_group_IT_number 2
_symmetry_cell_setting 'triclinic'
loop_
_space_group_symop_operation_xyz
x,y,z
-x,-y,-z
loop_
_atom_site_type_symbol
_atom_site_label
_atom_site_fract_x
_atom_site_fract_y
_atom_site_fract_z
Si Si1 0.452706 0.846458 0.137619
Si Si2 0.168796 0.765998 0.633420
Si Si3 0.424016 0.192794 0.442416
Si Si4 0.005677 0.786390 0.270180
Si Si5 0.752200 0.359623 0.942647
Si Si6 0.595379 0.106416 0.226368
Si Si7 0.733608 0.042802 0.658895
Si Si8 0.100489 0.447533 0.885260
O O1 0.206126 0.833516 0.213703
O O2 0.464501 0.860287 0.233828
O O3 0.656310 0.678322 0.119189
O O4 0.500000 0.000000 0.000000
O O5 0.411183 0.748965 0.589821
O O6 0.178416 0.823759 0.496538
O O7 0.128973 0.594095 0.740419
O O8 0.940638 0.913620 0.695469
O O9 0.483714 0.234917 0.293284
O O10 0.150019 0.276757 0.556520
O O11 0.500000 0.000000 0.500000
O O12 0.128380 0.654422 0.203065
O O13 0.818094 0.947935 0.230390
O O14 0.942562 0.368206 0.932482
O O15 0.500000 0.500000 0.000000
O O16 0.690676 0.195249 0.062622
O O17 0.371595 0.054680 0.317677
O O18 0.000000 0.500000 0.000000
#
# Coordination Sequence:
#
# PCOD8007058 Si02
#       8
#     2   2   2   2   2   2   2   2
#     4  12  25  43  67  96 132 175 223 270 325 393
#     4  11  23  41  66  97 137 166 217 267 332 391
#     4  10  20  40  66  97 131 165 217 267 327 387
#     4  11  23  42  66  97 126 167 226 265 321 387
#     4  12  25  44  65  94 132 173 219 266 332 392
#     4  11  21  41  71  96 129 170 219 274 320 390
#     4  11  22  39  70 100 128 171 221 265 331 393
#     4  12  26  45  66  95 133 175 218 274 331 386
#
# _framework density 22.254536999999999
#
# number of rings (size 3 to 8) (size 9 to 14) (size 15 to 20)
#    0.000    0.750    2.500    7.125    1.750    0.500 
#    0.000    1.250    0.000    0.000    0.000    0.000 
#    0.000    0.000    0.000    0.000    0.000    0.000 
#
# Total GULP energy -198247.620492 kJ/mol
# GULP energy per Si atom -12390.476281 kJ/mol
# Density = 2.220388 g / cm^3
# Si number density = 22.254537 Si / 1000 Ang^3
#
#
#
# Elastic Constant Matrix: (Units=GPa)
#
#
# Indices 1 2 3 4 5 6 
#
# 1 107.5425 27.8732 38.9686 12.6847 -16.5364 -3.9899
# 2 27.8732 105.1718 61.9233 15.1515 1.1523 -2.6950
# 3 38.9686 61.9233 111.4756 8.5148 -5.8683 -3.1917
# 4 12.6847 15.1515 8.5148 52.8063 2.4579 4.5294
# 5 -16.5364 1.1523 -5.8683 2.4579 33.6752 12.8046
# 6 -3.9899 -2.6950 -3.1917 4.5294 12.8046 23.9825
#
#
#
# Elastic Compliance Matrix: (Units=1/GPa)
#
#
# Indices 1 2 3 4 5 6 
#
# 1 0.011829 -0.001109 -0.003075 -0.002190 0.005982 -0.001346
# 2 -0.001109 0.014881 -0.007755 -0.002836 -0.003231 0.002716
# 3 -0.003075 -0.007755 0.014368 0.000610 0.001326 -0.000294
# 4 -0.002190 -0.002836 0.000610 0.020564 -0.000838 -0.004038
# 5 0.005982 -0.003231 0.001326 -0.000838 0.040990 -0.020918
# 6 -0.001346 0.002716 -0.000294 -0.004038 -0.020918 0.053670
#
#
# Mechanical properties :
#
#
# Convention : Reuss Voigt Hill
#
# Bulk Modulus (GPa) = 58.13702 64.63555 61.38629
# Shear Modulus (GPa) = 26.89432 35.12112 31.00772
#
# Velocity S-wave (km/s) = 3.48010 3.97691 3.73677
# Velocity P-wave (km/s) = 6.50604 7.08481 6.80158
#
# Compressibility (1/GPa) = 0.01720074
#
# Stress axis : x y z
#
# Youngs Moduli (GPa) = 84.54033 67.19819 69.59912
#
# Poissons Ratio (x) = 0.07450 0.21405
# Poissons Ratio (y) = 0.09372 0.53971
# Poissons Ratio (z) = 0.26000 0.52109
#
# Static dielectric constant tensor:
#      x y z
#    x 4.057640 0.139980 0.376430 
#    y 0.139980 3.564870 -0.716660 
#    z 0.376430 -0.716660 2.871510 
# 
# 
# High freq. dielectric constant tensor:
#      x y z
#    x 1.884700 -0.001450 -0.004350 
#    y -0.001450 1.864110 0.015950 
#    z -0.004350 0.015950 1.893670 
# 
# From -- ./inp_files/499966.got.cif
#   From: 2010.06.25/outbox.cif.g09.slc.cpg/sg2_250_cif.got.tgz:499966.got - 2010.06.27 13:26:56.
