data_PCOD8007756
_publ_section_title
;
Structure prediction by ZEFSAII (Michael W. Deem and Ramdas Pophale) SiO2 
 PCOD8007756
Probable space group: P -1
;
_chemical_formula_sum "Si O2"
_cell_formula_units_Z 16
_cell_length_a 12.281873
_cell_length_b 15.897186
_cell_length_c 16.185823
_cell_angle_alpha 153.318309
_cell_angle_beta 142.774119
_cell_angle_gamma 54.338174
_cell_volume 756.400864
_symmetry_space_group_name_H-M "P -1"
_symmetry_group_IT_number 2
_symmetry_cell_setting 'triclinic'
loop_
_space_group_symop_operation_xyz
x,y,z
-x,-y,-z
loop_
_atom_site_type_symbol
_atom_site_label
_atom_site_fract_x
_atom_site_fract_y
_atom_site_fract_z
Si Si1 0.395050 0.678556 0.196176
Si Si2 0.840391 0.465045 0.484984
Si Si3 0.824426 0.503560 0.841286
Si Si4 0.062947 0.648106 0.383072
Si Si5 0.766503 0.171833 0.030307
Si Si6 0.587551 0.695388 0.494800
Si Si7 0.612452 0.919035 0.384418
Si Si8 0.022900 0.023126 0.631943
O O1 0.526174 0.640767 0.313474
O O2 0.532698 0.740149 0.250770
O O3 0.336370 0.858983 0.346864
O O4 0.183393 0.468942 0.867663
O O5 0.835642 0.364851 0.482290
O O6 0.809240 0.280106 0.240334
O O7 0.663916 0.532901 0.430122
O O8 0.054203 0.677532 0.790479
O O9 0.845250 0.447664 0.711870
O O10 0.608487 0.332693 0.596971
O O11 0.833151 0.731635 0.046232
O O12 0.000000 0.500000 0.000000
O O13 0.135559 0.893565 0.620026
O O14 0.555690 0.144492 0.843543
O O15 0.758828 0.941112 0.826586
O O16 0.808866 0.934449 0.472007
O O17 0.000000 0.000000 0.500000
#
# Coordination Sequence:
#
# PCOD8007756 Si02
#       8
#     2   2   2   2   2   2   2   2
#     4  10  20  41  68 104 128 171 222 284 331 384
#     4  11  26  44  63  98 138 173 220 268 336 397
#     4  12  23  44  68  99 133 169 225 278 330 386
#     4  12  25  43  66  99 138 172 220 283 326 391
#     4  10  23  43  67  96 136 174 215 277 330 397
#     4  11  24  42  73  93 131 183 219 269 333 400
#     4  10  21  39  72 102 133 170 223 279 335 387
#     4  12  25  39  70 104 129 175 220 273 335 394
#
# _framework density 21.152806999999999
#
# number of rings (size 3 to 8) (size 9 to 14) (size 15 to 20)
#    0.000    1.000    5.000    1.125    3.500    4.000 
#    0.000    1.250    0.000    0.000    0.000    0.000 
#    0.000    0.000    0.000    0.000    0.000    0.000 
#
# Total GULP energy -198468.167807 kJ/mol
# GULP energy per Si atom -12404.260488 kJ/mol
# Density = 2.110466 g / cm^3
# Si number density = 21.152807 Si / 1000 Ang^3
#
#
#
# Elastic Constant Matrix: (Units=GPa)
#
#
# Indices 1 2 3 4 5 6 
#
# 1 100.8749 29.3290 -2.3311 5.1900 -2.2679 24.7427
# 2 29.3290 148.8334 27.6423 12.2308 -18.2318 19.3407
# 3 -2.3311 27.6423 52.8291 13.9915 -3.4762 5.7817
# 4 5.1900 12.2308 13.9915 28.7801 -0.1095 -2.4851
# 5 -2.2679 -18.2318 -3.4762 -0.1095 28.3713 -1.0460
# 6 24.7427 19.3407 5.7817 -2.4851 -1.0460 35.6114
#
#
#
# Elastic Compliance Matrix: (Units=1/GPa)
#
#
# Indices 1 2 3 4 5 6 
#
# 1 0.012875 -0.001697 0.003508 -0.004072 0.000025 -0.008877
# 2 -0.001697 0.008887 -0.003529 -0.002001 0.005022 -0.003066
# 3 0.003508 -0.003529 0.024624 -0.011558 0.000790 -0.005302
# 4 -0.004072 -0.002001 -0.011558 0.042691 -0.002542 0.008697
# 5 0.000025 0.005022 0.000790 -0.002542 0.038492 -0.001920
# 6 -0.008877 -0.003066 -0.005302 0.008697 -0.001920 0.037325
#
#
# Mechanical properties :
#
#
# Convention : Reuss Voigt Hill
#
# Bulk Modulus (GPa) = 23.28354 45.75755 34.52054
# Shear Modulus (GPa) = 27.37513 35.07905 31.22709
#
# Velocity S-wave (km/s) = 3.60135 4.07672 3.84638
# Velocity P-wave (km/s) = 5.32204 6.62106 6.00677
#
# Compressibility (1/GPa) = 0.04294880
#
# Stress axis : x y z
#
# Youngs Moduli (GPa) = 77.66845 112.52531 40.61138
#
# Poissons Ratio (x) = 0.19100 -0.14246
# Poissons Ratio (y) = 0.13184 0.14332
# Poissons Ratio (z) = -0.27246 0.39710
#
# Static dielectric constant tensor:
#      x y z
#    x 3.897020 0.154380 0.002820 
#    y 0.154380 3.774670 0.204680 
#    z 0.002820 0.204680 3.872140 
# 
# 
# High freq. dielectric constant tensor:
#      x y z
#    x 1.837230 0.007910 -0.002040 
#    y 0.007910 1.827170 0.016460 
#    z -0.002040 0.016460 1.828910 
# 
# From -- ./inp_files/452473.got.cif
#   From: 2010.06.25/outbox.cif.g09.slc.cpg/sg2_227_cif.got.tgz:452473.got - 2010.06.27 13:26:56.
