data_PCOD8007558
_publ_section_title
;
Structure prediction by ZEFSAII (Michael W. Deem and Ramdas Pophale) SiO2 
 PCOD8007558
Probable space group: P -1
;
_chemical_formula_sum "Si O2"
_cell_formula_units_Z 16
_cell_length_a 14.514600
_cell_length_b 19.745650
_cell_length_c 25.474650
_cell_angle_alpha 158.714154
_cell_angle_beta 17.726794
_cell_angle_gamma 149.861463
_cell_volume 789.758924
_symmetry_space_group_name_H-M "P -1"
_symmetry_group_IT_number 2
_symmetry_cell_setting 'triclinic'
loop_
_space_group_symop_operation_xyz
x,y,z
-x,-y,-z
loop_
_atom_site_type_symbol
_atom_site_label
_atom_site_fract_x
_atom_site_fract_y
_atom_site_fract_z
Si Si1 0.579646 0.279003 0.286848
Si Si2 0.678387 0.087517 0.265574
Si Si3 0.231148 0.260709 0.969195
Si Si4 0.678418 0.971004 0.676964
Si Si5 0.653947 0.485404 0.618482
Si Si6 0.372324 0.399444 0.172654
Si Si7 0.607509 0.781793 0.771053
Si Si8 0.287831 0.589467 0.252345
O O1 0.500000 0.500000 0.500000
O O2 0.562394 0.250882 0.214030
O O3 0.925350 0.207770 0.070837
O O4 0.329184 0.168207 0.369446
O O5 0.640841 0.275186 0.455880
O O6 0.442615 0.141713 0.385541
O O7 0.586085 0.927503 0.237091
O O8 0.000000 0.000000 0.000000
O O9 0.160239 0.431221 0.173066
O O10 0.461272 0.311608 0.838449
O O11 0.457316 0.171767 0.956520
O O12 0.000000 0.000000 0.500000
O O13 0.486477 0.537384 0.803703
O O14 0.502380 0.645210 0.773776
O O15 0.010499 0.486849 0.432661
O O16 0.478642 0.496239 0.132840
O O17 0.979544 0.746484 0.542565
O O18 0.500000 0.000000 0.000000
#
# Coordination Sequence:
#
# PCOD8007558 Si02
#       8
#     2   2   2   2   2   2   2   2
#     4  12  24  39  64  95 128 164 212 262 319 374
#     4  12  20  41  65  92 121 161 218 260 308 375
#     4  11  22  39  68  94 125 164 216 269 311 372
#     4  12  26  38  64  97 129 165 214 266 321 374
#     4  10  21  40  66  91 121 168 213 259 307 384
#     4  10  20  41  65  90 125 164 214 257 314 375
#     4  11  23  41  63  91 131 168 207 254 327 383
#     4  10  22  40  66  95 125 169 213 265 313 379
#
# _framework density 20.259347000000002
#
# number of rings (size 3 to 8) (size 9 to 14) (size 15 to 20)
#    0.000    1.000    5.000    2.250    3.500    2.000 
#    0.000    3.125    0.000    0.000    0.000    0.000 
#    0.000    0.000    0.000    0.000    0.000    0.000 
#
# Total GULP energy -198287.145353 kJ/mol
# GULP energy per Si atom -12392.946585 kJ/mol
# Density = 2.021324 g / cm^3
# Si number density = 20.259347 Si / 1000 Ang^3
#
#
#
# Elastic Constant Matrix: (Units=GPa)
#
#
# Indices 1 2 3 4 5 6 
#
# 1 155.8630 56.8385 36.3983 8.8278 17.0765 -16.4235
# 2 56.8385 113.0553 40.3473 15.6265 9.1504 -20.0878
# 3 36.3983 40.3473 80.7298 25.9241 9.0325 -10.4122
# 4 8.8278 15.6265 25.9241 36.8811 4.4641 -6.2081
# 5 17.0765 9.1504 9.0325 4.4641 29.5253 5.9022
# 6 -16.4235 -20.0878 -10.4122 -6.2081 5.9022 38.3656
#
#
#
# Elastic Compliance Matrix: (Units=1/GPa)
#
#
# Indices 1 2 3 4 5 6 
#
# 1 0.008638 -0.003045 -0.002117 0.001620 -0.004134 0.002427
# 2 -0.003045 0.012864 -0.003974 -0.000963 -0.001757 0.004468
# 3 -0.002117 -0.003974 0.019137 -0.010908 -0.001896 0.000733
# 4 0.001620 -0.000963 -0.010908 0.035815 -0.003426 0.003551
# 5 -0.004134 -0.001757 -0.001896 -0.003426 0.039881 -0.009894
# 6 0.002427 0.004468 0.000733 0.003551 -0.009894 0.031739
#
#
# Mechanical properties :
#
#
# Convention : Reuss Voigt Hill
#
# Bulk Modulus (GPa) = 44.71012 68.53514 56.62263
# Shear Modulus (GPa) = 28.76868 35.35868 32.06368
#
# Velocity S-wave (km/s) = 3.77240 4.18221 3.98258
# Velocity P-wave (km/s) = 6.41027 7.56463 7.01124
#
# Compressibility (1/GPa) = 0.02236630
#
# Stress axis : x y z
#
# Youngs Moduli (GPa) = 115.77163 77.73913 52.25426
#
# Poissons Ratio (x) = 0.23672 0.11063
# Poissons Ratio (y) = 0.35254 0.20765
# Poissons Ratio (z) = 0.24510 0.30892
#
# Static dielectric constant tensor:
#      x y z
#    x 4.342940 -0.318740 0.009180 
#    y -0.318740 3.516680 0.149880 
#    z 0.009180 0.149880 3.563620 
# 
# 
# High freq. dielectric constant tensor:
#      x y z
#    x 1.812300 -0.015080 -0.000030 
#    y -0.015080 1.782460 0.018210 
#    z -0.000030 0.018210 1.780550 
# 
# From -- ./inp_files/619825.got.cif
#   From: 2010.06.25/outbox.cif.g09.slc.cpg/sg2_310_cif.got.tgz:619825.got - 2010.06.27 13:26:56.
