data_PCOD8007467
_publ_section_title
;
Structure prediction by ZEFSAII (Michael W. Deem and Ramdas Pophale) SiO2 
 PCOD8007467
Probable space group: P -1
;
_chemical_formula_sum "Si O2"
_cell_formula_units_Z 14
_cell_length_a 15.404270
_cell_length_b 16.230281
_cell_length_c 7.574144
_cell_angle_alpha 138.783896
_cell_angle_beta 140.922015
_cell_angle_gamma 38.086400
_cell_volume 686.061009
_symmetry_space_group_name_H-M "P -1"
_symmetry_group_IT_number 2
_symmetry_cell_setting 'triclinic'
loop_
_space_group_symop_operation_xyz
x,y,z
-x,-y,-z
loop_
_atom_site_type_symbol
_atom_site_label
_atom_site_fract_x
_atom_site_fract_y
_atom_site_fract_z
Si Si1 0.749322 0.405139 0.694022
Si Si2 0.397409 0.811198 0.273785
Si Si3 0.430533 0.162325 0.102674
Si Si4 0.031940 0.629063 0.721495
Si Si5 0.825898 0.321618 0.296368
Si Si6 0.517646 0.287153 0.132825
Si Si7 0.166277 0.147829 0.488485
O O1 0.782844 0.416121 0.558368
O O2 0.670227 0.305407 0.432248
O O3 0.641769 0.563955 0.853457
O O4 0.909405 0.332160 0.943011
O O5 0.538635 0.758713 0.556135
O O6 0.276591 0.979961 0.365475
O O7 0.304405 0.724816 0.026174
O O8 0.481191 0.773369 0.156277
O O9 0.525719 0.172052 0.100094
O O10 0.247725 0.219504 0.854571
O O11 0.500000 0.000000 0.000000
O O12 0.165284 0.586601 0.708058
O O13 0.000000 0.500000 0.500000
O O14 0.872488 0.770403 0.631610
O O15 0.000257 0.181237 0.371366
#
# Coordination Sequence:
#
# PCOD8007467 Si02
#       7
#     2   2   2   2   2   2   2
#     4  10  21  41  60  86 117 157 197 247 282 345
#     4  10  20  41  64  85 116 157 195 248 287 340
#     4  10  21  39  58  88 120 155 192 240 296 344
#     4  10  21  38  57  88 119 154 191 235 302 348
#     4   9  21  39  61  88 117 150 198 241 293 345
#     4  10  22  39  62  87 117 153 208 235 285 353
#     4   9  21  39  59  90 120 147 197 242 292 351
#
# _framework density 20.406348000000001
#
# number of rings (size 3 to 8) (size 9 to 14) (size 15 to 20)
#    0.857    1.429    0.000    2.143    0.000    4.000 
#   10.286    5.714    0.000    0.000    0.000    0.000 
#    0.000    0.000    0.000    0.000    0.000    0.000 
#
# Total GULP energy -173512.699414 kJ/mol
# GULP energy per Si atom -12393.764244 kJ/mol
# Density = 2.035990 g / cm^3
# Si number density = 20.406348 Si / 1000 Ang^3
#
#
#
# Elastic Constant Matrix: (Units=GPa)
#
#
# Indices 1 2 3 4 5 6 
#
# 1 96.7941 27.0605 60.3634 9.3939 -15.5937 27.5494
# 2 27.0605 55.9398 35.9564 -11.0884 -0.9125 12.2271
# 3 60.3634 35.9564 175.9601 -25.1093 -5.6288 3.1686
# 4 9.3939 -11.0884 -25.1093 27.2367 -4.9847 -4.4817
# 5 -15.5937 -0.9125 -5.6288 -4.9847 29.6135 1.9807
# 6 27.5494 12.2271 3.1686 -4.4817 1.9807 39.7410
#
#
#
# Elastic Compliance Matrix: (Units=1/GPa)
#
#
# Indices 1 2 3 4 5 6 
#
# 1 0.029603 -0.007184 -0.011604 -0.025367 0.010279 -0.020759
# 2 -0.007184 0.024395 -0.000955 0.011111 -0.001267 -0.001133
# 3 -0.011604 -0.000955 0.011881 0.015752 -0.001850 0.009260
# 4 -0.025367 0.011111 0.015752 0.067899 0.000032 0.020566
# 5 0.010279 -0.001267 -0.001850 0.000032 0.039368 -0.008547
# 6 -0.020759 -0.001133 0.009260 0.020566 -0.008547 0.041909
#
#
# Mechanical properties :
#
#
# Convention : Reuss Voigt Hill
#
# Bulk Modulus (GPa) = 37.89162 63.93941 50.91551
# Shear Modulus (GPa) = 18.98692 33.00581 25.99636
#
# Velocity S-wave (km/s) = 3.05362 4.02609 3.57309
# Velocity P-wave (km/s) = 5.57151 7.28105 6.48287
#
# Compressibility (1/GPa) = 0.02639106
#
# Stress axis : x y z
#
# Youngs Moduli (GPa) = 33.78057 40.99210 84.16796
#
# Poissons Ratio (x) = 0.29451 0.97672
# Poissons Ratio (y) = 0.24269 0.08038
# Poissons Ratio (z) = 0.39200 0.03915
#
# Static dielectric constant tensor:
#      x y z
#    x 3.719290 0.089550 0.135770 
#    y 0.089550 3.447560 -0.263910 
#    z 0.135770 -0.263910 4.173790 
# 
# 
# High freq. dielectric constant tensor:
#      x y z
#    x 1.793500 0.014160 0.010680 
#    y 0.014160 1.779730 -0.012840 
#    z 0.010680 -0.012840 1.813860 
# 
# From -- ./inp_files/97440.got.cif
#   From: 2010.06.25/outbox.cif.g09.slc.cpg/sg2_49_cif.got.tgz:97440.got - 2010.06.27 13:26:56.
