data_PCOD8007854
_publ_section_title
;
Structure prediction by ZEFSAII (Michael W. Deem and Ramdas Pophale) SiO2 
 PCOD8007854
Probable space group: P -1
;
_chemical_formula_sum "Si O2"
_cell_formula_units_Z 16
_cell_length_a 8.686992
_cell_length_b 26.907034
_cell_length_c 11.601544
_cell_angle_alpha 33.798841
_cell_angle_beta 44.431228
_cell_angle_gamma 28.484417
_cell_volume 718.069694
_symmetry_space_group_name_H-M "P -1"
_symmetry_group_IT_number 2
_symmetry_cell_setting 'triclinic'
loop_
_space_group_symop_operation_xyz
x,y,z
-x,-y,-z
loop_
_atom_site_type_symbol
_atom_site_label
_atom_site_fract_x
_atom_site_fract_y
_atom_site_fract_z
Si Si1 0.747944 0.666679 0.417543
Si Si2 0.466491 0.096298 0.057100
Si Si3 0.255944 0.275623 0.010972
Si Si4 0.869042 0.970102 0.722396
Si Si5 0.811325 0.747230 0.441625
Si Si6 0.973691 0.405108 0.153570
Si Si7 0.094886 0.840933 0.089334
Si Si8 0.322618 0.501610 0.270634
O O1 0.568573 0.802316 0.192280
O O2 0.806362 0.660192 0.535011
O O3 0.539966 0.637563 0.568440
O O4 0.115592 0.548543 0.405366
O O5 0.400812 0.137740 0.149103
O O6 0.178779 0.113875 0.144321
O O7 0.822995 0.951707 0.115977
O O8 0.550812 0.253945 0.861670
O O9 0.196087 0.307837 0.115924
O O10 0.916491 0.395453 0.900842
O O11 0.080159 0.899808 0.862200
O O12 0.525774 0.105416 0.685764
O O13 0.000000 0.000000 0.500000
O O14 0.878900 0.702409 0.621969
O O15 0.069920 0.742783 0.267362
O O16 0.601384 0.491553 0.160152
O O17 0.000000 0.500000 0.000000
#
# Coordination Sequence:
#
# PCOD8007854 Si02
#       8
#     2   2   2   2   2   2   2   2
#     4  10  20  41  69  99 128 176 225 283 334 388
#     4  10  21  43  67 101 135 179 222 284 331 405
#     4  11  25  43  67  98 139 181 222 283 350 395
#     4  11  22  41  67 103 139 178 219 277 345 404
#     4  11  23  40  69  97 136 178 231 277 332 397
#     4  12  28  46  66 101 138 181 230 283 345 405
#     4  11  22  43  70 104 135 178 236 270 332 416
#     4  10  25  42  67  97 135 175 233 279 343 393
#
# _framework density 22.281960999999999
#
# number of rings (size 3 to 8) (size 9 to 14) (size 15 to 20)
#    0.000    1.250    2.500    3.000    7.000    3.500 
#    0.000    3.125    0.000    0.000    0.000    0.000 
#    0.000    0.000    0.000    0.000    0.000    0.000 
#
# Total GULP energy -198213.373383 kJ/mol
# GULP energy per Si atom -12388.335836 kJ/mol
# Density = 2.223125 g / cm^3
# Si number density = 22.281961 Si / 1000 Ang^3
#
#
#
# Elastic Constant Matrix: (Units=GPa)
#
#
# Indices 1 2 3 4 5 6 
#
# 1 145.9226 56.3686 48.4025 4.0131 -17.9237 12.1885
# 2 56.3686 71.9814 15.9395 4.7831 -9.3245 15.7583
# 3 48.4025 15.9395 94.8855 1.4297 -10.2877 7.1014
# 4 4.0131 4.7831 1.4297 25.6306 -0.2684 3.9681
# 5 -17.9237 -9.3245 -10.2877 -0.2684 44.9310 9.2626
# 6 12.1885 15.7583 7.1014 3.9681 9.2626 48.4166
#
#
#
# Elastic Compliance Matrix: (Units=1/GPa)
#
#
# Indices 1 2 3 4 5 6 
#
# 1 0.011577 -0.007807 -0.004365 -0.000073 0.002021 -0.000114
# 2 -0.007807 0.021455 0.001118 -0.001957 0.002725 -0.005543
# 3 -0.004365 0.001118 0.012879 0.000005 0.001746 -0.001489
# 4 -0.000073 -0.001957 0.000005 0.039810 0.000355 -0.002676
# 5 0.002021 0.002725 0.001746 0.000355 0.025378 -0.006536
# 6 -0.000114 -0.005543 -0.001489 -0.002676 -0.006536 0.024175
#
#
# Mechanical properties :
#
#
# Convention : Reuss Voigt Hill
#
# Bulk Modulus (GPa) = 42.01338 61.57898 51.79618
# Shear Modulus (GPa) = 30.24518 36.60089 33.42304
#
# Velocity S-wave (km/s) = 3.68827 4.05733 3.87719
# Velocity P-wave (km/s) = 6.08556 7.04595 6.58329
#
# Compressibility (1/GPa) = 0.02380194
#
# Stress axis : x y z
#
# Youngs Moduli (GPa) = 86.38130 46.60850 77.64856
#
# Poissons Ratio (x) = 0.36389 0.33894
# Poissons Ratio (y) = 0.67441 -0.08683
# Poissons Ratio (z) = 0.37706 -0.05212
#
# Static dielectric constant tensor:
#      x y z
#    x 5.017280 0.086480 -0.512690 
#    y 0.086480 4.191720 0.075910 
#    z -0.512690 0.075910 4.012510 
# 
# 
# High freq. dielectric constant tensor:
#      x y z
#    x 1.896850 0.011360 -0.007890 
#    y 0.011360 1.874540 -0.002630 
#    z -0.007890 -0.002630 1.862830 
# 
# From -- ./inp_files/407316.got.cif
#   From: 2010.06.25/outbox.cif.g09.slc.cpg/sg2_204_cif.got.tgz:407316.got - 2010.06.27 13:26:56.
