data_PCOD8007118
_publ_section_title
;
Structure prediction by ZEFSAII (Michael W. Deem and Ramdas Pophale) SiO2 
 PCOD8007118
Probable space group: P -1
;
_chemical_formula_sum "Si O2"
_cell_formula_units_Z 16
_cell_length_a 14.714996
_cell_length_b 8.360796
_cell_length_c 9.410841
_cell_angle_alpha 100.745385
_cell_angle_beta 69.484849
_cell_angle_gamma 52.070541
_cell_volume 717.696831
_symmetry_space_group_name_H-M "P -1"
_symmetry_group_IT_number 2
_symmetry_cell_setting 'triclinic'
loop_
_space_group_symop_operation_xyz
x,y,z
-x,-y,-z
loop_
_atom_site_type_symbol
_atom_site_label
_atom_site_fract_x
_atom_site_fract_y
_atom_site_fract_z
Si Si1 0.506635 0.652739 0.614337
Si Si2 0.636636 0.625325 0.788511
Si Si3 0.067965 0.608623 0.328782
Si Si4 0.957089 0.367567 0.983889
Si Si5 0.223346 0.913043 0.927000
Si Si6 0.170904 0.134802 0.284596
Si Si7 0.460650 0.912290 0.189387
Si Si8 0.335989 0.413087 0.730727
O O1 0.500000 0.500000 0.500000
O O2 0.600940 0.517483 0.685804
O O3 0.340567 0.895395 0.792602
O O4 0.592797 0.682749 0.481515
O O5 0.805754 0.439967 0.681508
O O6 0.552415 0.882200 0.807346
O O7 0.569424 0.680766 0.988302
O O8 0.044178 0.682315 0.189240
O O9 0.100812 0.376359 0.284013
O O10 0.932152 0.821563 0.536083
O O11 0.800310 0.538013 0.170137
O O12 0.072789 0.112488 0.959459
O O13 0.000000 0.500000 0.000000
O O14 0.283175 0.658042 0.839551
O O15 0.205495 0.965330 0.113260
O O16 0.307625 0.015047 0.282597
O O17 0.528819 0.812837 0.289307
#
# Coordination Sequence:
#
# PCOD8007118 Si02
#       8
#     2   2   2   2   2   2   2   2
#     4  10  24  44  66  95 134 177 218 270 333 393
#     4  10  20  40  67  93 131 167 219 279 321 386
#     4  10  22  40  64 100 127 166 221 272 327 389
#     4  12  25  42  70  95 134 173 219 271 331 392
#     4  11  24  45  64  93 137 177 214 274 331 394
#     4  10  21  40  66  95 131 169 217 270 332 388
#     4  10  21  38  68  95 126 170 223 272 330 382
#     4  11  26  44  63  98 132 176 223 266 336 396
#
# _framework density 22.293536
#
# number of rings (size 3 to 8) (size 9 to 14) (size 15 to 20)
#    0.000    1.500    3.750    0.375    5.250    2.000 
#    0.000    0.625    0.000    0.000    0.000    0.000 
#    0.000    0.000    0.000    0.000    0.000    0.000 
#
# Total GULP energy -198361.592904 kJ/mol
# GULP energy per Si atom -12397.599556 kJ/mol
# Density = 2.224280 g / cm^3
# Si number density = 22.293536 Si / 1000 Ang^3
#
#
#
# Elastic Constant Matrix: (Units=GPa)
#
#
# Indices 1 2 3 4 5 6 
#
# 1 108.8502 12.1953 42.5370 -0.3479 -12.7936 -19.4370
# 2 12.1953 53.2003 -3.3328 3.6174 -11.3466 -16.5206
# 3 42.5370 -3.3328 139.5964 -8.0054 -30.6918 -8.1482
# 4 -0.3479 3.6174 -8.0054 24.4114 -2.0854 1.2429
# 5 -12.7936 -11.3466 -30.6918 -2.0854 46.6318 4.3564
# 6 -19.4370 -16.5206 -8.1482 1.2429 4.3564 32.3334
#
#
#
# Elastic Compliance Matrix: (Units=1/GPa)
#
#
# Indices 1 2 3 4 5 6 
#
# 1 0.011596 -0.000982 -0.003232 -0.001017 0.000241 0.005661
# 2 -0.000982 0.024402 0.002794 -0.002781 0.006276 0.011843
# 3 -0.003232 0.002794 0.009852 0.003261 0.006331 0.000989
# 4 -0.001017 -0.002781 0.003261 0.042893 0.003419 -0.003320
# 5 0.000241 0.006276 0.006331 0.003419 0.027251 0.001144
# 6 0.005661 0.011843 0.000989 -0.003320 0.001144 0.040605
#
#
# Mechanical properties :
#
#
# Convention : Reuss Voigt Hill
#
# Bulk Modulus (GPa) = 23.25084 44.93844 34.09464
# Shear Modulus (GPa) = 28.77288 37.35847 33.06568
#
# Velocity S-wave (km/s) = 3.59644 4.09804 3.85541
# Velocity P-wave (km/s) = 5.26288 6.52635 5.92837
#
# Compressibility (1/GPa) = 0.04300920
#
# Stress axis : x y z
#
# Youngs Moduli (GPa) = 86.23772 40.97959 101.50684
#
# Poissons Ratio (x) = 0.04025 0.32804
# Poissons Ratio (y) = 0.08469 -0.28356
# Poissons Ratio (z) = 0.27870 -0.11448
#
# Static dielectric constant tensor:
#      x y z
#    x 4.126760 -0.195580 -0.278330 
#    y -0.195580 3.853710 -0.190960 
#    z -0.278330 -0.190960 4.622880 
# 
# 
# High freq. dielectric constant tensor:
#      x y z
#    x 1.886120 -0.019610 -0.006650 
#    y -0.019610 1.852850 -0.006950 
#    z -0.006650 -0.006950 1.895050 
# 
# From -- ./inp_files/205617.got.cif
#   From: 2010.06.25/outbox.cif.g09.slc.cpg/sg2_103_cif.got.tgz:205617.got - 2010.06.27 13:26:56.
