data_PCOD8007556
_publ_section_title
;
Structure prediction by ZEFSAII (Michael W. Deem and Ramdas Pophale) SiO2 
 PCOD8007556
Probable space group: P -1
;
_chemical_formula_sum "Si O2"
_cell_formula_units_Z 16
_cell_length_a 7.956877
_cell_length_b 13.417416
_cell_length_c 9.955003
_cell_angle_alpha 86.541434
_cell_angle_beta 135.483604
_cell_angle_gamma 111.973007
_cell_volume 655.249223
_symmetry_space_group_name_H-M "P -1"
_symmetry_group_IT_number 2
_symmetry_cell_setting 'triclinic'
loop_
_space_group_symop_operation_xyz
x,y,z
-x,-y,-z
loop_
_atom_site_type_symbol
_atom_site_label
_atom_site_fract_x
_atom_site_fract_y
_atom_site_fract_z
Si Si1 0.282922 0.285860 0.180409
Si Si2 0.233583 0.934801 0.571420
Si Si3 0.249113 0.065415 0.829691
Si Si4 0.886630 0.487439 0.242713
Si Si5 0.817298 0.055022 0.932493
Si Si6 0.478484 0.464388 0.799576
Si Si7 0.544306 0.395764 0.570435
Si Si8 0.306281 0.750399 0.765795
O O1 0.321695 0.406814 0.144232
O O2 0.341886 0.288471 0.374585
O O3 0.487997 0.253029 0.226012
O O4 0.972472 0.190365 0.986421
O O5 0.150315 0.813435 0.604469
O O6 0.025912 0.919102 0.332515
O O7 0.261232 0.028284 0.689078
O O8 0.545581 0.993502 0.691764
O O9 0.241125 0.972632 0.939237
O O10 0.513111 0.183763 0.006532
O O11 0.819645 0.546575 0.329663
O O12 0.918296 0.377034 0.311030
O O13 0.147803 0.574625 0.300751
O O14 0.608863 0.436795 0.003784
O O15 0.000000 0.000000 0.000000
O O16 0.474541 0.376052 0.690746
O O17 0.500000 0.500000 0.500000
#
# Coordination Sequence:
#
# PCOD8007556 Si02
#       8
#     2   2   2   2   2   2   2   2
#     4  10  21  40  59  92 123 167 204 255 321 370
#     4  10  22  41  62  91 125 163 209 266 307 378
#     4  10  22  41  60  94 123 160 215 255 315 382
#     4  10  21  42  65  92 126 172 206 258 329 367
#     4  11  20  40  63  86 128 160 203 263 312 362
#     4   9  21  41  63  91 130 162 213 265 306 381
#     4  10  22  39  60  90 130 159 214 262 301 382
#     4  10  20  41  65  88 127 166 208 259 320 377
#
# _framework density 24.418188000000001
#
# number of rings (size 3 to 8) (size 9 to 14) (size 15 to 20)
#    0.000    2.000    2.500    1.875    0.000    9.000 
#   18.000    0.000    0.000    0.000    0.000    0.000 
#    0.000    0.000    0.000    0.000    0.000    0.000 
#
# Total GULP energy -198257.276504 kJ/mol
# GULP energy per Si atom -12391.079781 kJ/mol
# Density = 2.436261 g / cm^3
# Si number density = 24.418188 Si / 1000 Ang^3
#
#
#
# Elastic Constant Matrix: (Units=GPa)
#
#
# Indices 1 2 3 4 5 6 
#
# 1 91.9197 7.3950 -5.7277 17.2508 -4.2323 -1.0697
# 2 7.3950 43.4706 10.0766 -8.6660 -4.1374 -11.4784
# 3 -5.7277 10.0766 71.1589 -13.1603 3.9215 -4.0590
# 4 17.2508 -8.6660 -13.1603 20.7718 -7.2350 -1.8806
# 5 -4.2323 -4.1374 3.9215 -7.2350 41.0894 2.3430
# 6 -1.0697 -11.4784 -4.0590 -1.8806 2.3430 21.2398
#
#
#
# Elastic Compliance Matrix: (Units=1/GPa)
#
#
# Indices 1 2 3 4 5 6 
#
# 1 0.014303 -0.006783 -0.001076 -0.016397 -0.001743 -0.004410
# 2 -0.006783 0.034772 -0.000255 0.023828 0.005890 0.019861
# 3 -0.001076 -0.000255 0.016357 0.011546 0.000111 0.003944
# 4 -0.016397 0.023828 0.011546 0.085565 0.013515 0.020343
# 5 -0.001743 0.005890 0.000111 0.013515 0.027044 0.001330
# 6 -0.004410 0.019861 0.003944 0.020343 0.001330 0.060001
#
#
# Mechanical properties :
#
#
# Convention : Reuss Voigt Hill
#
# Bulk Modulus (GPa) = 20.32332 25.55966 22.94149
# Shear Modulus (GPa) = 18.47259 29.60723 24.03991
#
# Velocity S-wave (km/s) = 2.75346 3.48589 3.14109
# Velocity P-wave (km/s) = 4.29532 5.16644 4.75089
#
# Compressibility (1/GPa) = 0.04920456
#
# Stress axis : x y z
#
# Youngs Moduli (GPa) = 69.91374 28.75863 61.13675
#
# Poissons Ratio (x) = 0.19507 0.06579
# Poissons Ratio (y) = 0.47422 0.01558
# Poissons Ratio (z) = 0.07524 0.00733
#
# Static dielectric constant tensor:
#      x y z
#    x 15.786230 14.780210 6.051590 
#    y 14.780210 25.863280 9.295840 
#    z 6.051590 9.295840 8.898630 
# 
# 
# High freq. dielectric constant tensor:
#      x y z
#    x 1.975190 -0.015590 -0.000890 
#    y -0.015590 1.940500 0.003280 
#    z -0.000890 0.003280 1.973800 
# 
# From -- ./inp_files/399155.got.cif
#   From: 2010.06.25/outbox.cif.g09.slc.cpg/sg2_200_cif.got.tgz:399155.got - 2010.06.27 13:26:56.
