data_PCOD8007679
_publ_section_title
;
Structure prediction by ZEFSAII (Michael W. Deem and Ramdas Pophale) SiO2 
 PCOD8007679
Probable space group: P -1
;
_chemical_formula_sum "Si O2"
_cell_formula_units_Z 14
_cell_length_a 7.921002
_cell_length_b 20.624524
_cell_length_c 9.798018
_cell_angle_alpha 33.020171
_cell_angle_beta 116.624315
_cell_angle_gamma 133.519330
_cell_volume 597.728219
_symmetry_space_group_name_H-M "P -1"
_symmetry_group_IT_number 2
_symmetry_cell_setting 'triclinic'
loop_
_space_group_symop_operation_xyz
x,y,z
-x,-y,-z
loop_
_atom_site_type_symbol
_atom_site_label
_atom_site_fract_x
_atom_site_fract_y
_atom_site_fract_z
Si Si1 0.089955 0.891969 0.860893
Si Si2 0.516410 0.661187 0.613938
Si Si3 0.152248 0.702911 0.414305
Si Si4 0.020243 0.948636 0.242984
Si Si5 0.379741 0.358414 0.016805
Si Si6 0.187363 0.586271 0.039477
Si Si7 0.358620 0.881637 0.449236
O O1 0.062853 0.758943 0.170192
O O2 0.887314 0.805111 0.821283
O O3 0.024747 0.976313 0.784621
O O4 0.353749 0.010168 0.675590
O O5 0.404149 0.742521 0.382353
O O6 0.799892 0.762588 0.494390
O O7 0.500712 0.653617 0.785435
O O8 0.356702 0.490496 0.793154
O O9 0.198466 0.791960 0.414128
O O10 0.957987 0.514665 0.698587
O O11 0.277677 0.980790 0.296499
O O12 0.000000 0.000000 0.000000
O O13 0.578643 0.407949 0.885884
O O14 0.294085 0.764484 0.756899
O O15 0.000000 0.500000 0.000000
#
# Coordination Sequence:
#
# PCOD8007679 Si02
#       7
#     2   2   2   2   2   2   2
#     4  12  26  46  68 108 146 173 229 301 344 400
#     4  11  23  44  72  97 135 192 235 269 351 428
#     4  11  21  42  73  97 140 182 228 287 342 409
#     4  12  24  42  74 103 134 187 233 278 351 420
#     4  11  25  43  70 102 140 181 233 289 341 411
#     4  10  20  41  66  99 132 180 232 277 334 411
#     4  11  22  43  71 100 139 186 231 280 344 417
#
# _framework density 23.422015999999999
#
# number of rings (size 3 to 8) (size 9 to 14) (size 15 to 20)
#    0.000    0.857    5.714    3.000    2.000    3.429 
#    2.571    1.429    0.000    0.000    0.000    0.000 
#    0.000    0.000    0.000    0.000    0.000    0.000 
#
# Total GULP energy -173555.957560 kJ/mol
# GULP energy per Si atom -12396.854111 kJ/mol
# Density = 2.336871 g / cm^3
# Si number density = 23.422016 Si / 1000 Ang^3
#
#
#
# Elastic Constant Matrix: (Units=GPa)
#
#
# Indices 1 2 3 4 5 6 
#
# 1 162.4604 41.8422 46.0836 -12.4787 17.6540 21.6876
# 2 41.8422 59.8522 30.2708 -24.1404 11.1199 8.0267
# 3 46.0836 30.2708 128.6834 -7.7829 2.6855 4.2458
# 4 -12.4787 -24.1404 -7.7829 28.6777 10.5687 0.7980
# 5 17.6540 11.1199 2.6855 10.5687 31.9984 1.4861
# 6 21.6876 8.0267 4.2458 0.7980 1.4861 23.3621
#
#
#
# Elastic Compliance Matrix: (Units=1/GPa)
#
#
# Indices 1 2 3 4 5 6 
#
# 1 0.009072 -0.001507 -0.002286 0.004233 -0.005349 -0.007293
# 2 -0.001507 0.050420 -0.006998 0.052348 -0.032726 -0.014359
# 3 -0.002286 -0.006998 0.009680 -0.006090 0.004768 0.002672
# 4 0.004233 0.052348 -0.006090 0.098745 -0.051660 -0.020895
# 5 -0.005349 -0.032726 0.004768 -0.051660 0.061626 0.013188
# 6 -0.007293 -0.014359 0.002672 -0.020895 0.013188 0.053897
#
#
# Mechanical properties :
#
#
# Convention : Reuss Voigt Hill
#
# Bulk Modulus (GPa) = 21.01286 65.26548 43.13917
# Shear Modulus (GPa) = 15.58191 32.32760 23.95475
#
# Velocity S-wave (km/s) = 2.58208 3.71917 3.20151
# Velocity P-wave (km/s) = 4.22852 6.80944 5.66784
#
# Compressibility (1/GPa) = 0.04758990
#
# Stress axis : x y z
#
# Youngs Moduli (GPa) = 110.23159 19.83329 103.30706
#
# Poissons Ratio (x) = 0.02988 0.23617
# Poissons Ratio (y) = 0.16610 0.72296
# Poissons Ratio (z) = 0.25200 0.13880
#
# Static dielectric constant tensor:
#      x y z
#    x 4.667610 0.379230 -0.591910 
#    y 0.379230 3.903260 -0.372120 
#    z -0.591910 -0.372120 5.339690 
# 
# 
# High freq. dielectric constant tensor:
#      x y z
#    x 1.938860 0.021820 0.001600 
#    y 0.021820 1.887340 -0.003820 
#    z 0.001600 -0.003820 1.939170 
# 
# From -- ./inp_files/406557.got.cif
#   From: 2010.06.25/outbox.cif.g09.slc.cpg/sg2_204_cif.got.tgz:406557.got - 2010.06.27 13:26:56.
