data_PCOD8007437
_publ_section_title
;
Structure prediction by ZEFSAII (Michael W. Deem and Ramdas Pophale) SiO2 
 PCOD8007437
Probable space group: P -1
;
_chemical_formula_sum "Si O2"
_cell_formula_units_Z 16
_cell_length_a 15.768675
_cell_length_b 9.148360
_cell_length_c 11.846380
_cell_angle_alpha 39.261736
_cell_angle_beta 51.086210
_cell_angle_gamma 44.920838
_cell_volume 751.384490
_symmetry_space_group_name_H-M "P -1"
_symmetry_group_IT_number 2
_symmetry_cell_setting 'triclinic'
loop_
_space_group_symop_operation_xyz
x,y,z
-x,-y,-z
loop_
_atom_site_type_symbol
_atom_site_label
_atom_site_fract_x
_atom_site_fract_y
_atom_site_fract_z
Si Si1 0.873418 0.629485 0.882838
Si Si2 0.448995 0.746600 0.476387
Si Si3 0.642807 0.924295 0.291242
Si Si4 0.305310 0.304230 0.191219
Si Si5 0.463869 0.543800 0.824189
Si Si6 0.136582 0.852871 0.429861
Si Si7 0.845608 0.578580 0.190447
Si Si8 0.718199 0.500554 0.660668
O O1 0.810938 0.548171 0.882840
O O2 0.019623 0.493949 0.831459
O O3 0.811226 0.940689 0.741160
O O4 0.838525 0.557210 0.075786
O O5 0.500000 0.500000 0.500000
O O6 0.548910 0.846056 0.355711
O O7 0.409517 0.659412 0.677654
O O8 0.337564 0.001421 0.362383
O O9 0.756797 0.857246 0.150546
O O10 0.682670 0.776905 0.465821
O O11 0.582474 0.229010 0.179682
O O12 0.260800 0.467353 0.245633
O O13 0.420101 0.331076 0.024577
O O14 0.611004 0.414890 0.778543
O O15 0.205340 0.618357 0.600573
O O16 0.157084 0.722162 0.365768
O O17 0.000000 0.000000 0.500000
#
# Coordination Sequence:
#
# PCOD8007437 Si02
#       8
#     2   2   2   2   2   2   2   2
#     4  10  23  40  62  91 126 160 218 269 305 373
#     4  11  25  41  61  94 134 161 211 270 310 378
#     4  10  20  42  68  84 124 180 206 250 329 378
#     4  12  25  38  63  98 132 164 212 260 319 376
#     4  11  23  41  61  94 130 175 205 247 327 389
#     4   9  20  40  67  87 115 169 215 256 314 369
#     4   9  21  42  64  86 121 169 215 256 320 371
#     4  10  20  41  63  90 130 166 210 259 308 392
#
# _framework density 21.294025999999999
#
# number of rings (size 3 to 8) (size 9 to 14) (size 15 to 20)
#    0.000    1.750    2.500    1.125    8.750    0.500 
#    0.000    6.250    0.000    0.000    0.000    0.000 
#    0.000    0.000    0.000    0.000    0.000    0.000 
#
# Total GULP energy -198313.243602 kJ/mol
# GULP energy per Si atom -12394.577725 kJ/mol
# Density = 2.124556 g / cm^3
# Si number density = 21.294026 Si / 1000 Ang^3
#
#
#
# Elastic Constant Matrix: (Units=GPa)
#
#
# Indices 1 2 3 4 5 6 
#
# 1 97.1607 22.5202 20.5199 8.0960 26.6509 8.1803
# 2 22.5202 116.7545 28.9157 11.2285 9.4067 3.8620
# 3 20.5199 28.9157 84.5184 7.2432 13.9550 9.6314
# 4 8.0960 11.2285 7.2432 28.3913 9.9511 -2.4205
# 5 26.6509 9.4067 13.9550 9.9511 19.1299 0.7116
# 6 8.1803 3.8620 9.6314 -2.4205 0.7116 23.3978
#
#
#
# Elastic Compliance Matrix: (Units=1/GPa)
#
#
# Indices 1 2 3 4 5 6 
#
# 1 0.017944 -0.001767 0.000888 0.004330 -0.026840 -0.005083
# 2 -0.001767 0.009813 -0.002863 -0.003142 0.001366 -0.000190
# 3 0.000888 -0.002863 0.014980 0.000334 -0.010721 -0.005644
# 4 0.004330 -0.003142 0.000334 0.045544 -0.028587 0.004448
# 5 -0.026840 0.001366 -0.010721 -0.028587 0.111418 0.007226
# 6 -0.005083 -0.000190 -0.005644 0.004448 0.007226 0.047111
#
#
# Mechanical properties :
#
#
# Convention : Reuss Voigt Hill
#
# Bulk Modulus (GPa) = 28.36599 49.14948 38.75774
# Shear Modulus (GPa) = 18.79381 29.28231 24.03806
#
# Velocity S-wave (km/s) = 2.97406 3.71231 3.36350
# Velocity P-wave (km/s) = 5.01432 6.44255 5.77278
#
# Compressibility (1/GPa) = 0.03525348
#
# Stress axis : x y z
#
# Youngs Moduli (GPa) = 55.72999 101.90345 66.75416
#
# Poissons Ratio (x) = 0.18003 -0.05927
# Poissons Ratio (y) = 0.09846 0.19112
# Poissons Ratio (z) = -0.04948 0.29175
#
# Static dielectric constant tensor:
#      x y z
#    x 3.560230 -0.034330 0.185010 
#    y -0.034330 4.062430 -0.109850 
#    z 0.185010 -0.109850 4.272570 
# 
# 
# High freq. dielectric constant tensor:
#      x y z
#    x 1.805920 0.002990 0.016760 
#    y 0.002990 1.838410 0.006080 
#    z 0.016760 0.006080 1.847780 
# 
# From -- ./inp_files/277684.got.cif
#   From: 2010.06.25/outbox.cif.g09.slc.cpg/sg2_139_cif.got.tgz:277684.got - 2010.06.27 13:26:56.
