data_PCOD8007536
_publ_section_title
;
Structure prediction by ZEFSAII (Michael W. Deem and Ramdas Pophale) SiO2 
 PCOD8007536
Probable space group: P -1
;
_chemical_formula_sum "Si O2"
_cell_formula_units_Z 16
_cell_length_a 12.918105
_cell_length_b 9.877890
_cell_length_c 11.968039
_cell_angle_alpha 50.794657
_cell_angle_beta 38.543587
_cell_angle_gamma 65.696135
_cell_volume 726.448192
_symmetry_space_group_name_H-M "P -1"
_symmetry_group_IT_number 2
_symmetry_cell_setting 'triclinic'
loop_
_space_group_symop_operation_xyz
x,y,z
-x,-y,-z
loop_
_atom_site_type_symbol
_atom_site_label
_atom_site_fract_x
_atom_site_fract_y
_atom_site_fract_z
Si Si1 0.852330 0.172853 0.671788
Si Si2 0.595385 0.015899 0.573593
Si Si3 0.871130 0.564567 0.819171
Si Si4 0.276304 0.766892 0.013348
Si Si5 0.722662 0.919901 0.298206
Si Si6 0.764841 0.777949 0.990274
Si Si7 0.622015 0.248036 0.631083
Si Si8 0.837027 0.613057 0.239102
O O1 0.812997 0.252421 0.782091
O O2 0.698270 0.189718 0.711198
O O3 0.027798 0.282057 0.423463
O O4 0.872825 0.968550 0.769771
O O5 0.475841 0.128324 0.544692
O O6 0.687926 0.138562 0.530138
O O7 0.734391 0.959714 0.400899
O O8 0.477377 0.840191 0.816489
O O9 0.747618 0.426629 0.920347
O O10 0.755532 0.649220 0.959299
O O11 0.997197 0.466424 0.833763
O O12 0.192337 0.904774 0.934757
O O13 0.814348 0.755184 0.279838
O O14 0.579308 0.803963 0.170385
O O15 0.858244 0.703228 0.053437
O O16 0.674814 0.457182 0.456863
#
# Coordination Sequence:
#
# PCOD8007536 Si02
#       8
#     2   2   2   2   2   2   2   2
#     4  11  23  46  61  90 126 169 210 253 308 372
#     4   9  19  36  62  99 121 153 202 263 313 358
#     4  11  27  39  61  91 131 168 209 251 302 376
#     4  10  20  41  65  84 129 166 204 249 315 365
#     4   9  19  36  62  95 123 155 199 258 312 360
#     4  12  22  41  66  92 125 168 206 255 316 363
#     4  11  23  38  71  94 126 154 210 265 311 363
#     4  11  23  41  61 100 124 161 208 260 308 367
#
# _framework density 22.024971000000001
#
# number of rings (size 3 to 8) (size 9 to 14) (size 15 to 20)
#    0.750    0.750    3.750    1.875    3.500    0.500 
#    0.000    4.375    0.000    0.000    0.000    0.000 
#    0.000    0.000    0.000    0.000    0.000    0.000 
#
# Total GULP energy -198428.762145 kJ/mol
# GULP energy per Si atom -12401.797634 kJ/mol
# Density = 2.197484 g / cm^3
# Si number density = 22.024971 Si / 1000 Ang^3
#
#
#
# Elastic Constant Matrix: (Units=GPa)
#
#
# Indices 1 2 3 4 5 6 
#
# 1 40.6127 38.5266 36.0070 -2.3681 17.8937 9.8797
# 2 38.5266 173.3702 52.0676 1.9406 26.1143 40.0865
# 3 36.0070 52.0676 85.9969 -6.8476 28.9583 7.6125
# 4 -2.3681 1.9406 -6.8476 44.5651 4.2398 11.9810
# 5 17.8937 26.1143 28.9583 4.2398 26.2437 -0.9834
# 6 9.8797 40.0865 7.6125 11.9810 -0.9834 31.0983
#
#
#
# Elastic Compliance Matrix: (Units=1/GPa)
#
#
# Indices 1 2 3 4 5 6 
#
# 1 0.048792 -0.000795 -0.010257 0.007413 -0.022938 -0.015546
# 2 -0.000795 0.011915 -0.001068 0.004982 -0.011583 -0.017131
# 3 -0.010257 -0.001068 0.024063 0.006218 -0.019661 -0.004273
# 4 0.007413 0.004982 0.006218 0.032034 -0.022924 -0.023366
# 5 -0.022938 -0.011583 -0.019661 -0.022924 0.092122 0.038776
# 6 -0.015546 -0.017131 -0.004273 -0.023366 0.038776 0.070451
#
#
# Mechanical properties :
#
#
# Convention : Reuss Voigt Hill
#
# Bulk Modulus (GPa) = 16.52057 61.46466 38.99261
# Shear Modulus (GPa) = 15.44186 31.94000 23.69093
#
# Velocity S-wave (km/s) = 2.65072 3.81224 3.28325
# Velocity P-wave (km/s) = 4.10920 6.88077 5.66703
#
# Compressibility (1/GPa) = 0.06053060
#
# Stress axis : x y z
#
# Youngs Moduli (GPa) = 20.49528 83.92533 41.55693
#
# Poissons Ratio (x) = 0.06676 0.42625
# Poissons Ratio (y) = 0.01630 0.04436
# Poissons Ratio (z) = 0.21022 0.08960
#
# Static dielectric constant tensor:
#      x y z
#    x 3.605370 0.178200 0.221200 
#    y 0.178200 3.971780 -0.088030 
#    z 0.221200 -0.088030 3.933750 
# 
# 
# High freq. dielectric constant tensor:
#      x y z
#    x 1.840030 0.019400 0.013500 
#    y 0.019400 1.875740 -0.001660 
#    z 0.013500 -0.001660 1.865650 
# 
# From -- ./inp_files/445610.got.cif
#   From: 2010.06.25/outbox.cif.g09.slc.cpg/sg2_223_cif.got.tgz:445610.got - 2010.06.27 13:26:56.
