data_PCOD8007797
_publ_section_title
;
Structure prediction by ZEFSAII (Michael W. Deem and Ramdas Pophale) SiO2 
 PCOD8007797
Probable space group: P -1
;
_chemical_formula_sum "Si O2"
_cell_formula_units_Z 16
_cell_length_a 12.227228
_cell_length_b 13.734650
_cell_length_c 11.514145
_cell_angle_alpha 30.959711
_cell_angle_beta 89.661324
_cell_angle_gamma 68.007686
_cell_volume 692.256855
_symmetry_space_group_name_H-M "P -1"
_symmetry_group_IT_number 2
_symmetry_cell_setting 'triclinic'
loop_
_space_group_symop_operation_xyz
x,y,z
-x,-y,-z
loop_
_atom_site_type_symbol
_atom_site_label
_atom_site_fract_x
_atom_site_fract_y
_atom_site_fract_z
Si Si1 0.628845 0.593621 0.981432
Si Si2 0.173413 0.210365 0.772985
Si Si3 0.630706 0.037957 0.766669
Si Si4 0.308630 0.060058 0.388113
Si Si5 0.720863 0.493455 0.328459
Si Si6 0.313513 0.433959 0.494611
Si Si7 0.090847 0.997561 0.819168
Si Si8 0.144904 0.937031 0.611798
O O1 0.446703 0.855549 0.690320
O O2 0.725809 0.672532 0.892876
O O3 0.650771 0.476734 0.231478
O O4 0.696113 0.367587 0.116260
O O5 0.288410 0.240547 0.707870
O O6 0.179074 0.054806 0.828353
O O7 0.000000 0.500000 0.500000
O O8 0.242971 0.026003 0.079154
O O9 0.645716 0.093910 0.577910
O O10 0.455703 0.296256 0.547870
O O11 0.672333 0.768402 0.032849
O O12 0.154449 0.139337 0.353689
O O13 0.651389 0.512592 0.433846
O O14 0.906966 0.235794 0.597891
O O15 0.154672 0.717639 0.151031
O O16 0.134930 0.966684 0.717870
O O17 0.000000 0.000000 0.500000
#
# Coordination Sequence:
#
# PCOD8007797 Si02
#       8
#     2   2   2   2   2   2   2   2
#     4  10  22  45  69  98 134 179 225 279 338 393
#     4  11  23  41  70  97 137 176 216 275 343 401
#     4  10  22  44  68 103 131 176 226 277 338 405
#     4  10  24  44  72  96 135 179 228 277 339 399
#     4  10  20  41  68  97 140 172 221 279 338 403
#     4  11  24  42  70  99 138 171 224 280 340 400
#     4  12  25  42  65 103 134 176 228 270 339 410
#     4  12  26  43  65 100 136 176 228 279 331 399
#
# _framework density 23.112807
#
# number of rings (size 3 to 8) (size 9 to 14) (size 15 to 20)
#    0.000    1.250    3.750    3.000    0.000    8.000 
#    0.000    0.000    0.000    0.000    0.000    0.000 
#    0.000    0.000    0.000    0.000    0.000    0.000 
#
# Total GULP energy -198365.775777 kJ/mol
# GULP energy per Si atom -12397.860986 kJ/mol
# Density = 2.306020 g / cm^3
# Si number density = 23.112807 Si / 1000 Ang^3
#
#
#
# Elastic Constant Matrix: (Units=GPa)
#
#
# Indices 1 2 3 4 5 6 
#
# 1 76.9833 26.6929 1.2781 16.1623 0.8017 11.9278
# 2 26.6929 157.9750 21.2386 25.9455 -2.2270 13.6747
# 3 1.2781 21.2386 74.6194 8.5691 19.2907 7.2939
# 4 16.1623 25.9455 8.5691 46.6877 6.0244 2.2472
# 5 0.8017 -2.2270 19.2907 6.0244 33.9057 4.2337
# 6 11.9278 13.6747 7.2939 2.2472 4.2337 38.4356
#
#
#
# Elastic Compliance Matrix: (Units=1/GPa)
#
#
# Indices 1 2 3 4 5 6 
#
# 1 0.015074 -0.001618 0.001041 -0.004343 0.000225 -0.004071
# 2 -0.001618 0.007695 -0.002267 -0.003557 0.002702 -0.001895
# 3 0.001041 -0.002267 0.016696 -0.000885 -0.009315 -0.001607
# 4 -0.004343 -0.003557 -0.000885 0.025543 -0.004387 0.001771
# 5 0.000225 0.002702 -0.009315 -0.004387 0.036117 -0.002986
# 6 -0.004071 -0.001895 -0.001607 0.001771 -0.002986 0.028485
#
#
# Mechanical properties :
#
#
# Convention : Reuss Voigt Hill
#
# Bulk Modulus (GPa) = 29.60770 45.33300 37.47035
# Shear Modulus (GPa) = 34.11648 41.16368 37.64008
#
# Velocity S-wave (km/s) = 3.84615 4.22476 4.03989
# Velocity P-wave (km/s) = 5.70629 6.59200 6.16507
#
# Compressibility (1/GPa) = 0.03377500
#
# Stress axis : x y z
#
# Youngs Moduli (GPa) = 66.34040 129.95935 59.89611
#
# Poissons Ratio (x) = 0.21029 -0.06234
# Poissons Ratio (y) = 0.10735 0.13580
# Poissons Ratio (z) = -0.06905 0.29465
#
# Static dielectric constant tensor:
#      x y z
#    x 3.960030 0.277800 -0.214030 
#    y 0.277800 4.654200 0.235360 
#    z -0.214030 0.235360 4.033560 
# 
# 
# High freq. dielectric constant tensor:
#      x y z
#    x 1.897370 0.014890 0.000740 
#    y 0.014890 1.929040 0.006420 
#    z 0.000740 0.006420 1.920470 
# 
# From -- ./inp_files/433662.got.cif
#   From: 2010.06.25/outbox.cif.g09.slc.cpg/sg2_217_cif.got.tgz:433662.got - 2010.06.27 13:26:56.
