data_PCOD8007965
_publ_section_title
;
Structure prediction by ZEFSAII (Michael W. Deem and Ramdas Pophale) SiO2 
 PCOD8007965
Probable space group: P -1
;
_chemical_formula_sum "Si O2"
_cell_formula_units_Z 14
_cell_length_a 11.917822
_cell_length_b 8.632939
_cell_length_c 9.351185
_cell_angle_alpha 67.646819
_cell_angle_beta 98.332376
_cell_angle_gamma 59.001656
_cell_volume 688.663321
_symmetry_space_group_name_H-M "P -1"
_symmetry_group_IT_number 2
_symmetry_cell_setting 'triclinic'
loop_
_space_group_symop_operation_xyz
x,y,z
-x,-y,-z
loop_
_atom_site_type_symbol
_atom_site_label
_atom_site_fract_x
_atom_site_fract_y
_atom_site_fract_z
Si Si1 0.803918 0.328077 0.789370
Si Si2 0.201000 0.486603 0.548704
Si Si3 0.666620 0.807865 0.076528
Si Si4 0.071800 0.077923 0.578280
Si Si5 0.370220 0.244211 0.226552
Si Si6 0.692571 0.916421 0.468887
Si Si7 0.131726 0.055885 0.910698
O O1 0.753400 0.401212 0.588357
O O2 0.695418 0.525859 0.803431
O O3 0.968162 0.249569 0.864603
O O4 0.796417 0.139218 0.894850
O O5 0.300286 0.378367 0.745992
O O6 0.216139 0.304359 0.523849
O O7 0.037663 0.665561 0.509714
O O8 0.770385 0.869045 0.110869
O O9 0.699913 0.720747 0.952729
O O10 0.500000 0.000000 0.000000
O O11 0.209874 0.007775 0.535777
O O12 0.122943 0.972467 0.783075
O O13 0.000000 0.000000 0.500000
O O14 0.334705 0.116523 0.362907
O O15 0.543610 0.098582 0.296710
#
# Coordination Sequence:
#
# PCOD8007965 Si02
#       7
#     2   2   2   2   2   2   2
#     4   9  22  41  63  87 124 163 198 246 311 349
#     4  10  21  40  65  85 122 165 197 248 299 361
#     4  12  23  40  64  93 121 158 206 247 301 360
#     4  11  23  38  63  91 122 158 204 249 300 359
#     4  10  22  37  65  89 121 157 203 252 292 363
#     4  10  20  42  61  90 121 158 203 248 301 353
#     4  10  22  42  63  87 128 160 197 255 301 356
#
# _framework density 20.329236999999999
#
# number of rings (size 3 to 8) (size 9 to 14) (size 15 to 20)
#    0.000    1.714    2.857    0.429    6.000    4.000 
#    2.571    2.143    0.000    0.000    0.000    0.000 
#    0.000    0.000    0.000    0.000    0.000    0.000 
#
# Total GULP energy -173554.829013 kJ/mol
# GULP energy per Si atom -12396.773501 kJ/mol
# Density = 2.028297 g / cm^3
# Si number density = 20.329237 Si / 1000 Ang^3
#
#
#
# Elastic Constant Matrix: (Units=GPa)
#
#
# Indices 1 2 3 4 5 6 
#
# 1 110.0624 47.3693 43.6914 -1.8026 2.0559 -8.2904
# 2 47.3693 85.8783 45.3296 0.2156 -0.0559 -7.8677
# 3 43.6914 45.3296 177.6599 2.6972 -11.4812 5.2532
# 4 -1.8026 0.2156 2.6972 38.3882 4.0746 2.1084
# 5 2.0559 -0.0559 -11.4812 4.0746 20.4122 2.0848
# 6 -8.2904 -7.8677 5.2532 2.1084 2.0848 20.8901
#
#
#
# Elastic Compliance Matrix: (Units=1/GPa)
#
#
# Indices 1 2 3 4 5 6 
#
# 1 0.012621 -0.005584 -0.001990 0.000879 -0.002950 0.003611
# 2 -0.005584 0.016877 -0.003188 -0.000239 -0.001661 0.005132
# 3 -0.001990 -0.003188 0.007391 -0.000888 0.004961 -0.004255
# 4 0.000879 -0.000239 -0.000888 0.026859 -0.005781 -0.001652
# 5 -0.002950 -0.001661 0.004961 -0.005781 0.054029 -0.007852
# 6 0.003611 0.005132 -0.004255 -0.001652 -0.007852 0.053256
#
#
# Mechanical properties :
#
#
# Convention : Reuss Voigt Hill
#
# Bulk Modulus (GPa) = 65.08511 71.82014 68.45262
# Shear Modulus (GPa) = 25.29348 31.75211 28.52280
#
# Velocity S-wave (km/s) = 3.53114 3.95637 3.74979
# Velocity P-wave (km/s) = 6.97927 7.50171 7.24520
#
# Compressibility (1/GPa) = 0.01536450
#
# Stress axis : x y z
#
# Youngs Moduli (GPa) = 79.23584 59.25141 135.29235
#
# Poissons Ratio (x) = 0.33088 0.26918
# Poissons Ratio (y) = 0.44248 0.43135
# Poissons Ratio (z) = 0.15765 0.18891
#
# Static dielectric constant tensor:
#      x y z
#    x 3.533180 -0.271650 -0.176650 
#    y -0.271650 3.584030 -0.025410 
#    z -0.176650 -0.025410 4.096800 
# 
# 
# High freq. dielectric constant tensor:
#      x y z
#    x 1.775430 -0.026790 -0.014080 
#    y -0.026790 1.785360 -0.004120 
#    z -0.014080 -0.004120 1.810800 
# 
# From -- ./inp_files/198703.got.cif
#   From: 2010.06.25/outbox.cif.g09.slc.cpg/sg2_100_cif.got.tgz:198703.got - 2010.06.27 13:26:56.
