data_PCOD8007518
_publ_section_title
;
Structure prediction by ZEFSAII (Michael W. Deem and Ramdas Pophale) SiO2 
 PCOD8007518
Probable space group: P -1
;
_chemical_formula_sum "Si O2"
_cell_formula_units_Z 16
_cell_length_a 11.220518
_cell_length_b 19.448677
_cell_length_c 18.928827
_cell_angle_alpha 31.463044
_cell_angle_beta 23.111444
_cell_angle_gamma 33.442423
_cell_volume 820.778981
_symmetry_space_group_name_H-M "P -1"
_symmetry_group_IT_number 2
_symmetry_cell_setting 'triclinic'
loop_
_space_group_symop_operation_xyz
x,y,z
-x,-y,-z
loop_
_atom_site_type_symbol
_atom_site_label
_atom_site_fract_x
_atom_site_fract_y
_atom_site_fract_z
Si Si1 0.282039 0.481771 0.919810
Si Si2 0.693858 0.488965 0.503063
Si Si3 0.567494 0.690223 0.516501
Si Si4 0.225591 0.092026 0.390483
Si Si5 0.131458 0.081448 0.796916
Si Si6 0.024840 0.600548 0.709268
Si Si7 0.094008 0.124146 0.278625
Si Si8 0.401324 0.747216 0.143629
O O1 0.466035 0.600883 0.712917
O O2 0.527274 0.341445 0.889452
O O3 0.000000 0.500000 0.000000
O O4 0.166188 0.475125 0.068543
O O5 0.755577 0.588071 0.444023
O O6 0.379137 0.572716 0.565313
O O7 0.974973 0.458157 0.319251
O O8 0.661585 0.343702 0.677453
O O9 0.804930 0.777244 0.334171
O O10 0.234543 0.785628 0.590129
O O11 0.302025 0.088435 0.267686
O O12 0.117016 0.238689 0.355498
O O13 0.544867 0.015164 0.323399
O O14 0.961056 0.006206 0.619439
O O15 0.890730 0.124418 0.825190
O O16 0.000000 0.000000 0.000000
O O17 0.286372 0.199721 0.054989
#
# Coordination Sequence:
#
# PCOD8007518 Si02
#       8
#     2   2   2   2   2   2   2   2
#     4  11  16  31  57  81 108 138 177 228 265 315
#     4  10  21  31  55  81 116 139 174 229 276 321
#     4  10  19  34  56  87 108 137 182 226 274 316
#     4  10  19  31  53  83 105 142 183 224 264 322
#     4  11  22  34  56  85 111 140 183 231 270 313
#     4  11  18  34  54  85 109 143 178 221 278 323
#     4  10  16  30  57  79 106 137 183 231 263 310
#     4  11  19  35  53  83 111 141 183 227 274 312
#
# _framework density 19.493677000000002
#
# number of rings (size 3 to 8) (size 9 to 14) (size 15 to 20)
#    0.000    1.500    7.500    0.000    0.000    2.000 
#    0.000    1.250    0.000    9.750    0.000    0.000 
#    0.000    0.000    0.000    0.000    0.000    0.000 
#
# Total GULP energy -198273.420859 kJ/mol
# GULP energy per Si atom -12392.088804 kJ/mol
# Density = 1.944931 g / cm^3
# Si number density = 19.493677 Si / 1000 Ang^3
#
#
#
# Elastic Constant Matrix: (Units=GPa)
#
#
# Indices 1 2 3 4 5 6 
#
# 1 45.4992 36.3021 38.6523 5.7997 18.2541 9.1431
# 2 36.3021 116.0387 42.3236 -6.5211 7.1008 0.1640
# 3 38.6523 42.3236 115.2184 -23.0673 15.8403 15.6156
# 4 5.7997 -6.5211 -23.0673 36.1257 0.3912 -3.5900
# 5 18.2541 7.1008 15.8403 0.3912 31.3855 8.1764
# 6 9.1431 0.1640 15.6156 -3.5900 8.1764 29.3353
#
#
#
# Elastic Compliance Matrix: (Units=1/GPa)
#
#
# Indices 1 2 3 4 5 6 
#
# 1 0.057017 -0.012216 -0.015213 -0.021488 -0.020773 -0.006444
# 2 -0.012216 0.012713 -0.000737 0.004107 0.003605 0.003626
# 3 -0.015213 -0.000737 0.016858 0.012766 0.001123 -0.002979
# 4 -0.021488 0.004107 0.012766 0.040362 0.003631 0.003806
# 5 -0.020773 0.003605 0.001123 0.003631 0.044075 -0.005984
# 6 -0.006444 0.003626 -0.002979 0.003806 -0.005984 0.039796
#
#
# Mechanical properties :
#
#
# Convention : Reuss Voigt Hill
#
# Bulk Modulus (GPa) = 33.04978 56.81247 44.93113
# Shear Modulus (GPa) = 18.03501 30.00121 24.01811
#
# Velocity S-wave (km/s) = 3.04496 3.92729 3.51393
# Velocity P-wave (km/s) = 5.41787 7.05494 6.28989
#
# Compressibility (1/GPa) = 0.03025739
#
# Stress axis : x y z
#
# Youngs Moduli (GPa) = 17.53874 78.65751 59.31795
#
# Poissons Ratio (x) = 0.96088 0.90239
# Poissons Ratio (y) = 0.21425 0.04370
# Poissons Ratio (z) = 0.26681 0.05795
#
# Static dielectric constant tensor:
#      x y z
#    x 3.193780 -0.104270 0.127610 
#    y -0.104270 3.887600 -0.082350 
#    z 0.127610 -0.082350 3.706170 
# 
# 
# High freq. dielectric constant tensor:
#      x y z
#    x 1.700350 -0.022660 0.002010 
#    y -0.022660 1.772610 -0.012370 
#    z 0.002010 -0.012370 1.758650 
# 
# From -- ./inp_files/387621.got.cif
#   From: 2010.06.25/outbox.cif.g09.slc.cpg/sg2_194_cif.got.tgz:387621.got - 2010.06.27 13:26:56.
