data_PCOD8007387
_publ_section_title
;
Structure prediction by ZEFSAII (Michael W. Deem and Ramdas Pophale) SiO2 
 PCOD8007387
Probable space group: P -1
;
_chemical_formula_sum "Si O2"
_cell_formula_units_Z 16
_cell_length_a 15.902317
_cell_length_b 12.442563
_cell_length_c 15.848548
_cell_angle_alpha 26.996822
_cell_angle_beta 35.875596
_cell_angle_gamma 37.246347
_cell_volume 801.246527
_symmetry_space_group_name_H-M "P -1"
_symmetry_group_IT_number 2
_symmetry_cell_setting 'triclinic'
loop_
_space_group_symop_operation_xyz
x,y,z
-x,-y,-z
loop_
_atom_site_type_symbol
_atom_site_label
_atom_site_fract_x
_atom_site_fract_y
_atom_site_fract_z
Si Si1 0.661289 0.279136 0.165523
Si Si2 0.389276 0.508785 0.317718
Si Si3 0.322473 0.060884 0.760313
Si Si4 0.406497 0.179916 0.018358
Si Si5 0.170690 0.015853 0.080195
Si Si6 0.367042 0.183494 0.235138
Si Si7 0.174575 0.411614 0.925456
Si Si8 0.822170 0.126130 0.318231
O O1 0.481521 0.334478 0.289441
O O2 0.755503 0.215221 0.219070
O O3 0.716213 0.051805 0.216514
O O4 0.691335 0.521550 0.929783
O O5 0.317295 0.346454 0.550945
O O6 0.263923 0.742831 0.222141
O O7 0.520871 0.591616 0.200055
O O8 0.483865 0.901867 0.771487
O O9 0.193232 0.053273 0.936838
O O10 0.407107 0.066718 0.190395
O O11 0.234942 0.264844 0.065787
O O12 0.500000 0.000000 0.000000
O O13 0.000674 0.039777 0.224100
O O14 0.233469 0.224910 0.930177
O O15 0.234438 0.100134 0.444936
O O16 0.226853 0.661913 0.716847
O O17 0.000000 0.500000 0.000000
#
# Coordination Sequence:
#
# PCOD8007387 Si02
#       8
#     2   2   2   2   2   2   2   2
#     4  11  23  41  69  90 126 164 216 266 301 385
#     4  11  22  39  63  94 124 163 209 264 306 372
#     4  12  23  40  68  95 120 170 217 253 323 361
#     4  11  19  38  65  94 127 156 210 263 304 363
#     4  11  25  42  61  95 133 160 206 272 308 370
#     4  11  22  39  68  94 121 170 209 256 316 373
#     4  10  20  41  62  86 131 164 195 259 311 368
#     4  11  24  43  63  94 130 167 211 253 321 376
#
# _framework density 19.968885
#
# number of rings (size 3 to 8) (size 9 to 14) (size 15 to 20)
#    0.000    1.000    7.500    0.750    0.000    2.500 
#    0.000    5.000    0.000    0.000    0.000    0.000 
#    0.000    0.000    0.000    0.000    0.000    0.000 
#
# Total GULP energy -198254.546946 kJ/mol
# GULP energy per Si atom -12390.909184 kJ/mol
# Density = 1.992343 g / cm^3
# Si number density = 19.968885 Si / 1000 Ang^3
#
#
#
# Elastic Constant Matrix: (Units=GPa)
#
#
# Indices 1 2 3 4 5 6 
#
# 1 93.6615 41.9586 32.3670 -4.1838 2.7806 3.2429
# 2 41.9586 87.4477 34.1513 1.2000 4.8296 5.1166
# 3 32.3670 34.1513 131.3454 -1.0627 5.4471 -2.5656
# 4 -4.1838 1.2000 -1.0627 26.2704 -8.4357 1.9329
# 5 2.7806 4.8296 5.4471 -8.4357 18.6728 -1.1746
# 6 3.2429 5.1166 -2.5656 1.9329 -1.1746 36.5638
#
#
#
# Elastic Compliance Matrix: (Units=1/GPa)
#
#
# Indices 1 2 3 4 5 6 
#
# 1 0.014213 -0.006133 -0.001952 0.002938 0.001326 -0.000652
# 2 -0.006133 0.015700 -0.002470 -0.002898 -0.003849 -0.001797
# 3 -0.001952 -0.002470 0.008829 -0.000501 -0.001803 0.001107
# 4 0.002938 -0.002898 -0.000501 0.045477 0.020901 -0.001623
# 5 0.001326 -0.003849 -0.001803 0.020901 0.064399 0.001259
# 6 -0.000652 -0.001797 0.001107 -0.001623 0.001259 0.027863
#
#
# Mechanical properties :
#
#
# Convention : Reuss Voigt Hill
#
# Bulk Modulus (GPa) = 56.71088 58.82314 57.76701
# Shear Modulus (GPa) = 24.57398 29.89991 27.23695
#
# Velocity S-wave (km/s) = 3.51182 3.87373 3.69720
# Velocity P-wave (km/s) = 6.70113 7.03769 6.87147
#
# Compressibility (1/GPa) = 0.01763330
#
# Stress axis : x y z
#
# Youngs Moduli (GPa) = 70.35767 63.69423 113.26297
#
# Poissons Ratio (x) = 0.39062 0.22107
# Poissons Ratio (y) = 0.43149 0.27974
# Poissons Ratio (z) = 0.13733 0.15731
#
# Static dielectric constant tensor:
#      x y z
#    x 4.537020 1.394780 0.364910 
#    y 1.394780 6.316250 0.452200 
#    z 0.364910 0.452200 3.836590 
# 
# 
# High freq. dielectric constant tensor:
#      x y z
#    x 1.788150 0.002540 0.000510 
#    y 0.002540 1.781520 -0.014540 
#    z 0.000510 -0.014540 1.763580 
# 
# From -- ./inp_files/457682.got.cif
#   From: 2010.06.25/outbox.cif.g09.slc.cpg/sg2_229_cif.got.tgz:457682.got - 2010.06.27 13:26:56.
