data_PCOD8007520
_publ_section_title
;
Structure prediction by ZEFSAII (Michael W. Deem and Ramdas Pophale) SiO2 
 PCOD8007520
Probable space group: P -1
;
_chemical_formula_sum "Si O2"
_cell_formula_units_Z 16
_cell_length_a 22.559593
_cell_length_b 11.369632
_cell_length_c 17.481584
_cell_angle_alpha 29.719973
_cell_angle_beta 160.289220
_cell_angle_gamma 141.848712
_cell_volume 736.582172
_symmetry_space_group_name_H-M "P -1"
_symmetry_group_IT_number 2
_symmetry_cell_setting 'triclinic'
loop_
_space_group_symop_operation_xyz
x,y,z
-x,-y,-z
loop_
_atom_site_type_symbol
_atom_site_label
_atom_site_fract_x
_atom_site_fract_y
_atom_site_fract_z
Si Si1 0.157682 0.118078 0.522795
Si Si2 0.433890 0.907761 0.284700
Si Si3 0.781055 0.058569 0.141994
Si Si4 0.383755 0.650442 0.002714
Si Si5 0.106512 0.761311 0.225101
Si Si6 0.508733 0.387843 0.156226
Si Si7 0.747681 0.411518 0.649695
Si Si8 0.770383 0.549496 0.934395
O O1 0.127054 0.388037 0.294962
O O2 0.972198 0.016785 0.354795
O O3 0.220776 0.123933 0.685662
O O4 0.297860 0.933367 0.746119
O O5 0.306224 0.729723 0.262697
O O6 0.641844 0.781007 0.610846
O O7 0.422830 0.146271 0.187982
O O8 0.372063 0.979252 0.082702
O O9 0.734483 0.326377 0.967515
O O10 0.389192 0.571362 0.965627
O O11 0.581255 0.597792 0.307224
O O12 0.272854 0.483105 0.010557
O O13 0.282157 0.663416 0.541633
O O14 0.165742 0.793261 0.190817
O O15 0.977638 0.566427 0.174319
O O16 0.000000 0.000000 0.000000
O O17 0.500000 0.500000 0.000000
#
# Coordination Sequence:
#
# PCOD8007520 Si02
#       8
#     2   2   2   2   2   2   2   2
#     4  10  20  41  64  95 123 174 216 252 326 382
#     4  11  24  41  62  96 130 165 211 270 326 371
#     4  10  22  38  65  95 132 163 208 270 317 381
#     4   9  22  39  66  91 124 170 213 261 311 394
#     4  11  22  41  69  90 126 174 218 263 310 396
#     4  11  26  44  63  96 132 171 213 267 328 381
#     4  10  22  39  65  94 125 167 215 264 316 380
#     4  10  20  42  66  96 120 170 220 257 321 377
#
# _framework density 21.721948999999999
#
# number of rings (size 3 to 8) (size 9 to 14) (size 15 to 20)
#    0.000    1.750    2.500    0.750    5.250    2.000 
#    4.500    1.250    0.000    0.000    0.000    0.000 
#    0.000    0.000    0.000    0.000    0.000    0.000 
#
# Total GULP energy -198344.282715 kJ/mol
# GULP energy per Si atom -12396.517670 kJ/mol
# Density = 2.167251 g / cm^3
# Si number density = 21.721949 Si / 1000 Ang^3
#
#
#
# Elastic Constant Matrix: (Units=GPa)
#
#
# Indices 1 2 3 4 5 6 
#
# 1 105.4566 31.3473 50.0971 6.0981 12.4716 -12.8360
# 2 31.3473 85.3809 29.1600 4.1320 -0.5244 -0.3116
# 3 50.0971 29.1600 76.5776 -1.8913 3.5712 -12.0702
# 4 6.0981 4.1320 -1.8913 31.1569 -9.6677 3.9663
# 5 12.4716 -0.5244 3.5712 -9.6677 37.5094 -5.9167
# 6 -12.8360 -0.3116 -12.0702 3.9663 -5.9167 38.1280
#
#
#
# Elastic Compliance Matrix: (Units=1/GPa)
#
#
# Indices 1 2 3 4 5 6 
#
# 1 0.015603 -0.002499 -0.008794 -0.005202 -0.005386 0.002154
# 2 -0.002499 0.014073 -0.004070 -0.001138 0.000843 -0.001765
# 3 -0.008794 -0.004070 0.020911 0.003826 0.002431 0.003605
# 4 -0.005202 -0.001138 0.003826 0.037101 0.010473 -0.002784
# 5 -0.005386 0.000843 0.002431 0.010473 0.031363 0.002740
# 6 0.002154 -0.001765 0.003605 -0.002784 0.002740 0.028794
#
#
# Mechanical properties :
#
#
# Convention : Reuss Voigt Hill
#
# Bulk Modulus (GPa) = 50.34723 54.29152 52.31937
# Shear Modulus (GPa) = 26.99925 31.81288 29.40607
#
# Velocity S-wave (km/s) = 3.52937 3.83110 3.68332
# Velocity P-wave (km/s) = 6.31165 6.67966 6.49826
#
# Compressibility (1/GPa) = 0.01986207
#
# Stress axis : x y z
#
# Youngs Moduli (GPa) = 64.09153 71.05569 47.82247
#
# Poissons Ratio (x) = 0.17755 0.42053
# Poissons Ratio (y) = 0.16014 0.19464
# Poissons Ratio (z) = 0.56360 0.28920
#
# Static dielectric constant tensor:
#      x y z
#    x 4.106550 0.154410 0.319670 
#    y 0.154410 4.033110 0.057410 
#    z 0.319670 0.057410 3.888390 
# 
# 
# High freq. dielectric constant tensor:
#      x y z
#    x 1.852120 0.003220 0.019580 
#    y 0.003220 1.854100 -0.005950 
#    z 0.019580 -0.005950 1.842720 
# 
# From -- ./inp_files/396920.got.cif
#   From: 2010.06.25/outbox.cif.g09.slc.cpg/sg2_199_cif.got.tgz:396920.got - 2010.06.27 13:26:56.
