data_PCOD8007111
_publ_section_title
;
Structure prediction by ZEFSAII (Michael W. Deem and Ramdas Pophale) SiO2 
 PCOD8007111
Probable space group: P -1
;
_chemical_formula_sum "Si O2"
_cell_formula_units_Z 16
_cell_length_a 8.025067
_cell_length_b 14.840344
_cell_length_c 8.188807
_cell_angle_alpha 118.170869
_cell_angle_beta 61.310371
_cell_angle_gamma 117.975340
_cell_volume 716.150378
_symmetry_space_group_name_H-M "P -1"
_symmetry_group_IT_number 2
_symmetry_cell_setting 'triclinic'
loop_
_space_group_symop_operation_xyz
x,y,z
-x,-y,-z
loop_
_atom_site_type_symbol
_atom_site_label
_atom_site_fract_x
_atom_site_fract_y
_atom_site_fract_z
Si Si1 0.476422 0.292337 0.937080
Si Si2 0.303953 0.505790 0.826551
Si Si3 0.747621 0.729843 0.661019
Si Si4 0.361886 0.878844 0.441753
Si Si5 0.114094 0.303176 0.931825
Si Si6 0.620841 0.420335 0.489043
Si Si7 0.113753 0.713408 0.650436
Si Si8 0.002053 0.119203 0.574426
O O1 0.516341 0.200345 0.732227
O O2 0.332581 0.339887 0.939667
O O3 0.674818 0.390306 0.978816
O O4 0.364115 0.237076 0.106671
O O5 0.126011 0.403115 0.889868
O O6 0.535987 0.499982 0.706664
O O7 0.245264 0.524932 0.683753
O O8 0.592548 0.658558 0.542874
O O9 0.911523 0.672580 0.600130
O O10 0.859195 0.840317 0.613101
O O11 0.244269 0.832046 0.625734
O O12 0.218001 0.877150 0.356746
O O13 0.500000 0.000000 0.500000
O O14 0.079307 0.192110 0.758245
O O15 0.938313 0.282144 0.130216
O O16 0.750195 0.366296 0.496195
O O17 0.000000 0.000000 0.500000
#
# Coordination Sequence:
#
# PCOD8007111 Si02
#       8
#     2   2   2   2   2   2   2   2
#     4  10  22  42  66  93 129 170 216 260 319 381
#     4  10  21  38  66  97 129 176 212 262 316 378
#     4   9  21  42  64  94 134 165 211 270 316 385
#     4  11  25  45  67  93 125 167 219 270 322 387
#     4  11  22  41  65  96 134 168 213 265 319 382
#     4  10  20  40  67  92 135 172 216 258 320 376
#     4  10  24  41  65  96 129 172 217 260 325 385
#     4  11  24  41  66  96 126 166 212 271 331 380
#
# _framework density 22.341678000000002
#
# number of rings (size 3 to 8) (size 9 to 14) (size 15 to 20)
#    0.000    1.750    1.250    1.875    5.250    1.500 
#    0.000   15.625    0.000    0.000    0.000    0.000 
#    0.000    0.000    0.000    0.000    0.000    0.000 
#
# Total GULP energy -198316.560553 kJ/mol
# GULP energy per Si atom -12394.785035 kJ/mol
# Density = 2.229083 g / cm^3
# Si number density = 22.341678 Si / 1000 Ang^3
#
#
#
# Elastic Constant Matrix: (Units=GPa)
#
#
# Indices 1 2 3 4 5 6 
#
# 1 80.0403 31.1229 15.0893 -10.3166 -1.1196 -5.6112
# 2 31.1229 112.3907 43.8151 1.9925 2.5404 -4.8551
# 3 15.0893 43.8151 83.0130 3.9849 4.2961 7.7087
# 4 -10.3166 1.9925 3.9849 33.5155 0.6685 2.3002
# 5 -1.1196 2.5404 4.2961 0.6685 28.0670 3.2345
# 6 -5.6112 -4.8551 7.7087 2.3002 3.2345 33.9675
#
#
#
# Elastic Compliance Matrix: (Units=1/GPa)
#
#
# Indices 1 2 3 4 5 6 
#
# 1 0.014912 -0.003684 -0.001206 0.004813 0.000790 0.001809
# 2 -0.003684 0.012428 -0.006043 -0.001326 -0.000625 0.002689
# 3 -0.001206 -0.006043 0.016018 -0.001582 -0.001401 -0.004457
# 4 0.004813 -0.001326 -0.001582 0.031667 -0.000065 -0.001174
# 5 0.000790 -0.000625 -0.001401 -0.000065 0.036290 -0.003092
# 6 0.001809 0.002689 -0.004457 -0.001174 -0.003092 0.031509
#
#
# Mechanical properties :
#
#
# Convention : Reuss Voigt Hill
#
# Bulk Modulus (GPa) = 46.53297 50.61095 48.57196
# Shear Modulus (GPa) = 29.09473 31.47112 30.28292
#
# Velocity S-wave (km/s) = 3.61260 3.75724 3.68563
# Velocity P-wave (km/s) = 6.18662 6.44397 6.31661
#
# Compressibility (1/GPa) = 0.02149014
#
# Stress axis : x y z
#
# Youngs Moduli (GPa) = 67.06093 80.46656 62.43110
#
# Poissons Ratio (x) = 0.29646 0.07528
# Poissons Ratio (y) = 0.24707 0.37729
# Poissons Ratio (z) = 0.08086 0.48629
#
# Static dielectric constant tensor:
#      x y z
#    x 4.017270 -0.025890 0.062800 
#    y -0.025890 3.951050 -0.352600 
#    z 0.062800 -0.352600 4.021600 
# 
# 
# High freq. dielectric constant tensor:
#      x y z
#    x 1.879690 -0.003160 0.003870 
#    y -0.003160 1.877620 -0.020320 
#    z 0.003870 -0.020320 1.875140 
# 
# From -- ./inp_files/203595.got.cif
#   From: 2010.06.25/outbox.cif.g09.slc.cpg/sg2_102_cif.got.tgz:203595.got - 2010.06.27 13:26:56.
