data_PCOD8007364
_publ_section_title
;
Structure prediction by ZEFSAII (Michael W. Deem and Ramdas Pophale) SiO2 
 PCOD8007364
Probable space group: P -1
;
_chemical_formula_sum "Si O2"
_cell_formula_units_Z 16
_cell_length_a 20.541842
_cell_length_b 20.289664
_cell_length_c 6.433026
_cell_angle_alpha 71.198410
_cell_angle_beta 62.897219
_cell_angle_gamma 20.094515
_cell_volume 769.631690
_symmetry_space_group_name_H-M "P -1"
_symmetry_group_IT_number 2
_symmetry_cell_setting 'triclinic'
loop_
_space_group_symop_operation_xyz
x,y,z
-x,-y,-z
loop_
_atom_site_type_symbol
_atom_site_label
_atom_site_fract_x
_atom_site_fract_y
_atom_site_fract_z
Si Si1 0.710436 0.624629 0.411091
Si Si2 0.801503 0.168863 0.464271
Si Si3 0.130259 0.414277 0.086074
Si Si4 0.971195 0.878393 0.362471
Si Si5 0.102992 0.676863 0.758319
Si Si6 0.768874 0.944116 0.311402
Si Si7 0.325518 0.578989 0.835211
Si Si8 0.919438 0.668448 0.518587
O O1 0.783768 0.482360 0.383744
O O2 0.861421 0.518852 0.479794
O O3 0.474216 0.831253 0.641895
O O4 0.698631 0.685618 0.162252
O O5 0.581320 0.354054 0.726372
O O6 0.774190 0.260830 0.269831
O O7 0.850277 0.060405 0.353370
O O8 0.000000 0.000000 0.500000
O O9 0.973230 0.598144 0.277536
O O10 0.225249 0.263223 0.232124
O O11 0.000000 0.500000 0.000000
O O12 0.824136 0.960523 0.354630
O O13 0.991193 0.833603 0.613764
O O14 0.211181 0.668220 0.131556
O O15 0.277617 0.558365 0.769160
O O16 0.919872 0.804488 0.033003
O O17 0.789929 0.855998 0.510657
#
# Coordination Sequence:
#
# PCOD8007364 Si02
#       8
#     2   2   2   2   2   2   2   2
#     4  11  22  39  63  90 121 165 202 253 309 354
#     4  11  22  43  65  92 123 160 205 251 301 362
#     4   9  20  39  65  87 126 160 198 260 301 354
#     4  11  23  42  63  90 125 164 199 253 305 357
#     4  11  22  42  60  91 127 158 206 255 297 363
#     4  11  24  39  64  91 122 162 207 249 304 367
#     4  10  24  42  63  90 125 160 202 253 303 358
#     4  10  20  41  61  90 124 158 206 254 301 363
#
# _framework density 20.789164
#
# number of rings (size 3 to 8) (size 9 to 14) (size 15 to 20)
#    0.000    1.500    3.750    1.125    0.000    3.000 
#    2.250    5.625    0.000    0.000    0.000    0.000 
#    0.000    0.000    0.000    0.000    0.000    0.000 
#
# Total GULP energy -198398.105714 kJ/mol
# GULP energy per Si atom -12399.881607 kJ/mol
# Density = 2.074185 g / cm^3
# Si number density = 20.789164 Si / 1000 Ang^3
#
#
#
# Elastic Constant Matrix: (Units=GPa)
#
#
# Indices 1 2 3 4 5 6 
#
# 1 102.6353 41.9345 27.3306 5.2697 5.8244 22.9982
# 2 41.9345 95.6869 34.5611 13.2689 -0.5160 -4.4173
# 3 27.3306 34.5611 69.6267 -4.5602 1.8779 3.4813
# 4 5.2697 13.2689 -4.5602 25.5267 0.0098 -1.6368
# 5 5.8244 -0.5160 1.8779 0.0098 29.4760 -0.6990
# 6 22.9982 -4.4173 3.4813 -1.6368 -0.6990 26.1101
#
#
#
# Elastic Compliance Matrix: (Units=1/GPa)
#
#
# Indices 1 2 3 4 5 6 
#
# 1 0.017306 -0.007364 -0.002297 -0.001203 -0.003790 -0.016360
# 2 -0.007364 0.017884 -0.007103 -0.008405 0.002461 0.009998
# 3 -0.002297 -0.007103 0.019375 0.007544 -0.000939 -0.001314
# 4 -0.001203 -0.008405 0.007544 0.045233 -0.000371 0.001457
# 5 -0.003790 0.002461 -0.000939 -0.000371 0.034891 0.004790
# 6 -0.016360 0.009998 -0.001314 0.001457 0.004790 0.054796
#
#
# Mechanical properties :
#
#
# Convention : Reuss Voigt Hill
#
# Bulk Modulus (GPa) = 47.53419 52.84459 50.18939
# Shear Modulus (GPa) = 21.73678 27.16409 24.45043
#
# Velocity S-wave (km/s) = 3.23705 3.61868 3.43317
# Velocity P-wave (km/s) = 6.07337 6.55242 6.31744
#
# Compressibility (1/GPa) = 0.02103749
#
# Stress axis : x y z
#
# Youngs Moduli (GPa) = 57.78286 55.91624 51.61329
#
# Poissons Ratio (x) = 0.41176 0.11853
# Poissons Ratio (y) = 0.42550 0.36663
# Poissons Ratio (z) = 0.13270 0.39719
#
# Static dielectric constant tensor:
#      x y z
#    x 4.036010 0.239500 -0.239230 
#    y 0.239500 3.551130 -0.150520 
#    z -0.239230 -0.150520 3.946630 
# 
# 
# High freq. dielectric constant tensor:
#      x y z
#    x 1.834410 0.016890 -0.005300 
#    y 0.016890 1.794170 -0.007700 
#    z -0.005300 -0.007700 1.816530 
# 
# From -- ./inp_files/11441.got.cif
#   From: 2010.06.25/outbox.cif.g09.slc.cpg/sg2_6_cif.got.tgz:11441.got - 2010.06.27 13:26:56.
