data_PCOD8007539
_publ_section_title
;
Structure prediction by ZEFSAII (Michael W. Deem and Ramdas Pophale) SiO2 
 PCOD8007539
Probable space group: P -1
;
_chemical_formula_sum "Si O2"
_cell_formula_units_Z 10
_cell_length_a 9.011370
_cell_length_b 10.700691
_cell_length_c 13.204795
_cell_angle_alpha 35.643880
_cell_angle_beta 33.313083
_cell_angle_gamma 42.741217
_cell_volume 401.394705
_symmetry_space_group_name_H-M "P -1"
_symmetry_group_IT_number 2
_symmetry_cell_setting 'triclinic'
loop_
_space_group_symop_operation_xyz
x,y,z
-x,-y,-z
loop_
_atom_site_type_symbol
_atom_site_label
_atom_site_fract_x
_atom_site_fract_y
_atom_site_fract_z
Si Si1 0.708036 0.691825 0.517464
Si Si2 0.241609 0.054641 0.259047
Si Si3 0.792960 0.860260 0.150423
Si Si4 0.594600 0.346057 0.952607
Si Si5 0.885979 0.098421 0.243843
O O1 0.823463 0.688154 0.339091
O O2 0.769338 0.457616 0.694457
O O3 0.377583 0.753061 0.655307
O O4 0.818939 0.860825 0.416114
O O5 0.149042 0.067454 0.187330
O O6 0.505075 0.865577 0.251855
O O7 0.322410 0.286054 0.094727
O O8 0.000000 0.000000 0.500000
O O9 0.033140 0.786713 0.980501
O O10 0.789565 0.114657 0.026230
O O11 0.500000 0.500000 0.000000
#
# Coordination Sequence:
#
# PCOD8007539 Si02
#       5
#     2   2   2   2   2
#     4  11  22  40  64  90 124 161 199 250 303 356
#     4  10  20  41  65  86 124 163 199 249 305 355
#     4  10  23  41  64  89 122 162 204 246 301 362
#     4  10  22  39  63  93 120 160 204 246 307 357
#     4  11  21  40  65  89 124 162 200 249 304 358
#
# _framework density 24.913133999999999
#
# number of rings (size 3 to 8) (size 9 to 14) (size 15 to 20)
#    1.200    0.400    2.000    4.800    0.000    1.600 
#    0.000    5.000    0.000    0.000    0.000    0.000 
#    0.000    0.000    0.000    0.000    0.000    0.000 
#
# Total GULP energy -123987.005195 kJ/mol
# GULP energy per Si atom -12398.700520 kJ/mol
# Density = 2.485643 g / cm^3
# Si number density = 24.913134 Si / 1000 Ang^3
#
#
#
# Elastic Constant Matrix: (Units=GPa)
#
#
# Indices 1 2 3 4 5 6 
#
# 1 173.4732 30.2533 57.4809 -12.4565 13.1188 -9.6038
# 2 30.2533 59.7692 28.2190 -15.4411 14.3507 -13.9079
# 3 57.4809 28.2190 206.7275 -0.1614 21.2112 4.6522
# 4 -12.4565 -15.4411 -0.1614 34.0672 -0.2592 8.2286
# 5 13.1188 14.3507 21.2112 -0.2592 46.2275 -4.9295
# 6 -9.6038 -13.9079 4.6522 8.2286 -4.9295 34.2993
#
#
#
# Elastic Compliance Matrix: (Units=1/GPa)
#
#
# Indices 1 2 3 4 5 6 
#
# 1 0.006829 -0.002032 -0.001593 0.001344 -0.000472 0.000914
# 2 -0.002032 0.023756 -0.002310 0.008369 -0.004982 0.006654
# 3 -0.001593 -0.002310 0.005822 -0.001093 -0.001739 -0.002160
# 4 0.001344 0.008369 -0.001093 0.034778 -0.002798 -0.004827
# 5 -0.000472 -0.004982 -0.001739 -0.002798 0.024335 0.002252
# 6 0.000914 0.006654 -0.002160 -0.004827 0.002252 0.033884
#
#
# Mechanical properties :
#
#
# Convention : Reuss Voigt Hill
#
# Bulk Modulus (GPa) = 40.75166 74.65293 57.70229
# Shear Modulus (GPa) = 33.45543 44.51989 38.98766
#
# Velocity S-wave (km/s) = 3.66851 4.23188 3.96023
# Velocity P-wave (km/s) = 5.85978 7.34226 6.64251
#
# Compressibility (1/GPa) = 0.02453888
#
# Stress axis : x y z
#
# Youngs Moduli (GPa) = 146.42438 42.09380 171.77384
#
# Poissons Ratio (x) = 0.08552 0.27359
# Poissons Ratio (y) = 0.29747 0.39679
# Poissons Ratio (z) = 0.23322 0.09724
#
# Static dielectric constant tensor:
#      x y z
#    x 5.029120 -0.333390 -0.144590 
#    y -0.333390 4.110200 0.140770 
#    z -0.144590 0.140770 4.717610 
# 
# 
# High freq. dielectric constant tensor:
#      x y z
#    x 2.018530 -0.033680 -0.005640 
#    y -0.033680 1.962730 0.022370 
#    z -0.005640 0.022370 2.014070 
# 
# From -- ./inp_files/147487.got.cif
#   From: 2010.06.25/outbox.cif.g09.slc.cpg/sg2_74_cif.got.tgz:147487.got - 2010.06.27 13:26:56.
