data_PCOD8007035
_publ_section_title
;
Structure prediction by ZEFSAII (Michael W. Deem and Ramdas Pophale) SiO2 
 PCOD8007035
Probable space group: P -1
;
_chemical_formula_sum "Si O2"
_cell_formula_units_Z 16
_cell_length_a 21.617120
_cell_length_b 9.239057
_cell_length_c 17.815962
_cell_angle_alpha 143.296398
_cell_angle_beta 160.093352
_cell_angle_gamma 40.374812
_cell_volume 723.548891
_symmetry_space_group_name_H-M "P -1"
_symmetry_group_IT_number 2
_symmetry_cell_setting 'triclinic'
loop_
_space_group_symop_operation_xyz
x,y,z
-x,-y,-z
loop_
_atom_site_type_symbol
_atom_site_label
_atom_site_fract_x
_atom_site_fract_y
_atom_site_fract_z
Si Si1 0.148978 0.318598 0.132906
Si Si2 0.774601 0.536830 0.968395
Si Si3 0.176333 0.896491 0.262695
Si Si4 0.771540 0.992028 0.463357
Si Si5 0.822886 0.951117 0.086630
Si Si6 0.410755 0.604077 0.654858
Si Si7 0.287112 0.524139 0.774268
Si Si8 0.174228 0.432254 0.442891
O O1 0.297796 0.456635 0.404735
O O2 0.256906 0.157932 0.126642
O O3 0.000000 0.500000 0.000000
O O4 0.039886 0.144546 0.991932
O O5 0.734149 0.328162 0.774752
O O6 0.624479 0.528545 0.860050
O O7 0.752157 0.800087 0.013391
O O8 0.975502 0.511261 0.220135
O O9 0.268047 0.920624 0.459644
O O10 0.201034 0.142493 0.347163
O O11 0.775882 0.701200 0.341531
O O12 0.618572 0.112145 0.283586
O O13 0.960395 0.084991 0.686657
O O14 0.761978 0.230313 0.136304
O O15 0.336158 0.551832 0.630804
O O16 0.187163 0.527039 0.581599
O O17 0.500000 0.500000 0.000000
#
# Coordination Sequence:
#
# PCOD8007035 Si02
#       8
#     2   2   2   2   2   2   2   2
#     4  11  18  39  69  98 134 165 214 270 323 382
#     4  12  23  39  67  99 132 175 217 258 341 390
#     4  10  20  40  66  94 135 178 204 270 330 379
#     4  10  20  43  69  94 131 171 219 270 322 380
#     4  11  21  42  69  96 130 177 218 265 328 382
#     4  12  23  40  69 102 130 172 216 270 326 394
#     4  11  26  46  67  94 126 174 226 273 318 387
#     4  11  25  47  63  89 144 167 213 278 324 383
#
# _framework density 22.113226000000001
#
# number of rings (size 3 to 8) (size 9 to 14) (size 15 to 20)
#    0.000    1.000    6.250    1.500    0.000    5.000 
#    9.000    1.250    0.000    0.000    0.000    0.000 
#    0.000    0.000    0.000    0.000    0.000    0.000 
#
# Total GULP energy -198411.618598 kJ/mol
# GULP energy per Si atom -12400.726162 kJ/mol
# Density = 2.206290 g / cm^3
# Si number density = 22.113226 Si / 1000 Ang^3
#
#
#
# Elastic Constant Matrix: (Units=GPa)
#
#
# Indices 1 2 3 4 5 6 
#
# 1 88.7466 49.2012 14.5671 2.2738 20.9301 6.9747
# 2 49.2012 132.0607 13.3579 20.8694 -0.2190 -0.0320
# 3 14.5671 13.3579 39.8111 1.2105 12.4052 0.6599
# 4 2.2738 20.8694 1.2105 29.0385 -7.2097 3.4374
# 5 20.9301 -0.2190 12.4052 -7.2097 33.4517 7.4279
# 6 6.9747 -0.0320 0.6599 3.4374 7.4279 39.2764
#
#
#
# Elastic Compliance Matrix: (Units=1/GPa)
#
#
# Indices 1 2 3 4 5 6 
#
# 1 0.017581 -0.006628 -0.001062 0.001068 -0.010134 -0.001287
# 2 -0.006628 0.011359 -0.002224 -0.006875 0.003298 0.001202
# 3 -0.001062 -0.002224 0.029872 -0.002656 -0.011463 0.002085
# 4 0.001068 -0.006875 -0.002656 0.042793 0.010814 -0.005941
# 5 -0.010134 0.003298 -0.011463 0.010814 0.044472 -0.007362
# 6 -0.001287 0.001202 0.002085 -0.005941 -0.007362 0.027567
#
#
# Mechanical properties :
#
#
# Convention : Reuss Voigt Hill
#
# Bulk Modulus (GPa) = 25.65338 46.09676 35.87507
# Shear Modulus (GPa) = 24.21671 32.58613 28.40142
#
# Velocity S-wave (km/s) = 3.31285 3.84292 3.58769
# Velocity P-wave (km/s) = 5.12440 6.37038 5.78105
#
# Compressibility (1/GPa) = 0.03898122
#
# Stress axis : x y z
#
# Youngs Moduli (GPa) = 56.87991 88.03566 33.47634
#
# Poissons Ratio (x) = 0.58354 0.03557
# Poissons Ratio (y) = 0.37702 0.07447
# Poissons Ratio (z) = 0.06043 0.19583
#
# Static dielectric constant tensor:
#      x y z
#    x 3.654820 0.635560 0.271820 
#    y 0.635560 3.472300 0.139050 
#    z 0.271820 0.139050 3.939510 
# 
# 
# High freq. dielectric constant tensor:
#      x y z
#    x 1.865000 0.005620 0.011270 
#    y 0.005620 1.873930 0.016910 
#    z 0.011270 0.016910 1.859130 
# 
# From -- ./inp_files/346221.got.cif
#   From: 2010.06.25/outbox.cif.g09.slc.cpg/sg2_174_cif.got.tgz:346221.got - 2010.06.27 13:26:56.
