data_PCOD8007168
_publ_section_title
;
Structure prediction by ZEFSAII (Michael W. Deem and Ramdas Pophale) SiO2 
 PCOD8007168
Probable space group: P -1
;
_chemical_formula_sum "Si O2"
_cell_formula_units_Z 16
_cell_length_a 9.170315
_cell_length_b 11.564245
_cell_length_c 8.469128
_cell_angle_alpha 121.045861
_cell_angle_beta 110.199680
_cell_angle_gamma 62.472513
_cell_volume 675.572539
_symmetry_space_group_name_H-M "P -1"
_symmetry_group_IT_number 2
_symmetry_cell_setting 'triclinic'
loop_
_space_group_symop_operation_xyz
x,y,z
-x,-y,-z
loop_
_atom_site_type_symbol
_atom_site_label
_atom_site_fract_x
_atom_site_fract_y
_atom_site_fract_z
Si Si1 0.312514 0.094983 0.961730
Si Si2 0.812952 0.086061 0.449623
Si Si3 0.279878 0.607699 0.950682
Si Si4 0.028172 0.150727 0.118609
Si Si5 0.535310 0.238061 0.662802
Si Si6 0.371404 0.483208 0.565212
Si Si7 0.746273 0.692783 0.179580
Si Si8 0.063155 0.692894 0.480289
O O1 0.289381 0.244858 0.967116
O O2 0.237466 0.996792 0.765039
O O3 0.211613 0.132090 0.112888
O O4 0.500000 0.000000 0.000000
O O5 0.691796 0.101528 0.567108
O O6 0.804497 0.244163 0.504039
O O7 0.000000 0.000000 0.500000
O O8 0.357483 0.581705 0.785451
O O9 0.249512 0.469791 0.918462
O O10 0.105525 0.739875 0.971415
O O11 0.406922 0.647296 0.138125
O O12 0.021964 0.210898 0.334395
O O13 0.000000 0.000000 0.000000
O O14 0.432841 0.316704 0.524162
O O15 0.405299 0.197103 0.694903
O O16 0.500000 0.500000 0.500000
O O17 0.182709 0.530339 0.457795
O O18 0.923185 0.693759 0.304944
#
# Coordination Sequence:
#
# PCOD8007168 Si02
#       8
#     2   2   2   2   2   2   2   2
#     4  12  29  46  71 110 143 187 247 307 360 422
#     4  12  24  45  72 102 139 192 243 283 364 435
#     4  10  25  46  71 103 143 194 239 289 367 435
#     4  11  25  46  74 102 142 188 235 300 360 431
#     4  11  25  44  73 100 144 191 236 297 359 431
#     4  10  20  40  68 103 133 180 234 291 349 417
#     4  11  26  48  68 104 146 187 242 297 362 438
#     4  11  24  44  73 101 141 184 242 292 364 436
#
# _framework density 23.683615
#
# number of rings (size 3 to 8) (size 9 to 14) (size 15 to 20)
#    0.000    1.000    3.750    2.250    3.500    6.500 
#    0.000    0.000    0.000    0.000    0.000    0.000 
#    0.000    0.000    0.000    0.000    0.000    0.000 
#
# Total GULP energy -198374.449682 kJ/mol
# GULP energy per Si atom -12398.403105 kJ/mol
# Density = 2.362971 g / cm^3
# Si number density = 23.683615 Si / 1000 Ang^3
#
#
#
# Elastic Constant Matrix: (Units=GPa)
#
#
# Indices 1 2 3 4 5 6 
#
# 1 127.1754 50.9176 19.3150 -4.7082 -17.1102 -15.8767
# 2 50.9176 137.3092 23.1873 -16.1596 3.8264 -13.8523
# 3 19.3150 23.1873 50.6217 -6.8835 3.3275 -5.8600
# 4 -4.7082 -16.1596 -6.8835 33.1290 -4.4865 2.2129
# 5 -17.1102 3.8264 3.3275 -4.4865 44.7594 -1.1126
# 6 -15.8767 -13.8523 -5.8600 2.2129 -1.1126 51.9015
#
#
#
# Elastic Compliance Matrix: (Units=1/GPa)
#
#
# Indices 1 2 3 4 5 6 
#
# 1 0.010468 -0.003394 -0.002521 -0.000223 0.004509 0.002118
# 2 -0.003394 0.009488 -0.002368 0.003371 -0.001569 0.001049
# 3 -0.002521 -0.002368 0.022432 0.002796 -0.002125 0.000965
# 4 -0.000223 0.003371 0.002796 0.032757 0.002698 -0.000192
# 5 0.004509 -0.001569 -0.002125 0.002698 0.024656 0.001134
# 6 0.002118 0.001049 0.000965 -0.000192 0.001134 0.020337
#
#
# Mechanical properties :
#
#
# Convention : Reuss Voigt Hill
#
# Bulk Modulus (GPa) = 38.72663 55.77178 47.24921
# Shear Modulus (GPa) = 34.40916 40.73708 37.57312
#
# Velocity S-wave (km/s) = 3.81579 4.15185 3.98736
# Velocity P-wave (km/s) = 5.98337 6.82522 6.41812
#
# Compressibility (1/GPa) = 0.02582203
#
# Stress axis : x y z
#
# Youngs Moduli (GPa) = 95.53089 105.40040 44.57862
#
# Poissons Ratio (x) = 0.35775 0.11238
# Poissons Ratio (y) = 0.32425 0.10555
# Poissons Ratio (z) = 0.24082 0.24956
#
# Static dielectric constant tensor:
#      x y z
#    x 4.501520 0.001750 -0.235010 
#    y 0.001750 4.777740 -0.096270 
#    z -0.235010 -0.096270 4.083800 
# 
# 
# High freq. dielectric constant tensor:
#      x y z
#    x 1.951420 -0.017700 -0.011620 
#    y -0.017700 1.950020 -0.011160 
#    z -0.011620 -0.011160 1.924130 
# 
# From -- ./inp_files/190276.got.cif
#   From: 2010.06.25/outbox.cif.g09.slc.cpg/sg2_96_cif.got.tgz:190276.got - 2010.06.27 13:26:56.
