data_PCOD8007462
_publ_section_title
;
Structure prediction by ZEFSAII (Michael W. Deem and Ramdas Pophale) SiO2 
 PCOD8007462
Probable space group: P -1
;
_chemical_formula_sum "Si O2"
_cell_formula_units_Z 16
_cell_length_a 13.149194
_cell_length_b 9.947490
_cell_length_c 14.568534
_cell_angle_alpha 113.495587
_cell_angle_beta 48.713026
_cell_angle_gamma 146.527156
_cell_volume 734.921784
_symmetry_space_group_name_H-M "P -1"
_symmetry_group_IT_number 2
_symmetry_cell_setting 'triclinic'
loop_
_space_group_symop_operation_xyz
x,y,z
-x,-y,-z
loop_
_atom_site_type_symbol
_atom_site_label
_atom_site_fract_x
_atom_site_fract_y
_atom_site_fract_z
Si Si1 0.937503 0.694253 0.598193
Si Si2 0.243768 0.652759 0.715490
Si Si3 0.400875 0.272530 0.443982
Si Si4 0.640806 0.443231 0.159852
Si Si5 0.102739 0.857984 0.110661
Si Si6 0.025998 0.513039 0.621387
Si Si7 0.538221 0.030642 0.154712
Si Si8 0.391332 0.380141 0.132721
O O1 0.869234 0.538391 0.505791
O O2 0.071233 0.700131 0.587549
O O3 0.698971 0.548152 0.748751
O O4 0.114365 0.988249 0.547048
O O5 0.475165 0.757760 0.593184
O O6 0.310810 0.829909 0.802048
O O7 0.015763 0.349263 0.797675
O O8 0.176246 0.674032 0.668309
O O9 0.500000 0.500000 0.500000
O O10 0.467864 0.350058 0.318051
O O11 0.586446 0.221496 0.119048
O O12 0.594143 0.489382 0.106842
O O13 0.921208 0.715803 0.094314
O O14 0.159368 0.066085 0.177497
O O15 0.358382 0.016548 0.972798
O O16 0.743040 0.239190 0.733476
O O17 0.500000 0.500000 0.000000
#
# Coordination Sequence:
#
# PCOD8007462 Si02
#       8
#     2   2   2   2   2   2   2   2
#     4  11  24  43  62  93 135 165 215 266 314 387
#     4  10  21  38  64  97 122 165 214 256 324 375
#     4  10  21  41  65  97 128 164 214 261 318 384
#     4  10  22  41  64  94 127 161 213 269 313 375
#     4  10  22  40  66  92 128 166 214 266 314 376
#     4  11  23  41  64  94 129 170 208 268 321 372
#     4  10  20  41  63  98 127 161 219 261 312 385
#     4  12  27  43  61  93 127 174 216 257 328 386
#
# _framework density 21.771023
#
# number of rings (size 3 to 8) (size 9 to 14) (size 15 to 20)
#    0.000    1.750    2.500    4.500    1.750    6.500 
#    0.000    1.250    0.000    0.000    0.000    0.000 
#    0.000    0.000    0.000    0.000    0.000    0.000 
#
# Total GULP energy -198393.990504 kJ/mol
# GULP energy per Si atom -12399.624406 kJ/mol
# Density = 2.172147 g / cm^3
# Si number density = 21.771023 Si / 1000 Ang^3
#
#
#
# Elastic Constant Matrix: (Units=GPa)
#
#
# Indices 1 2 3 4 5 6 
#
# 1 109.8016 8.1888 34.8978 9.7869 25.2181 8.3308
# 2 8.1888 43.0934 7.8662 11.2286 -3.0051 -3.2587
# 3 34.8978 7.8662 113.9740 5.7636 -11.4378 -1.8750
# 4 9.7869 11.2286 5.7636 24.9741 -3.1394 -5.7806
# 5 25.2181 -3.0051 -11.4378 -3.1394 27.2059 5.0223
# 6 8.3308 -3.2587 -1.8750 -5.7806 5.0223 16.6193
#
#
#
# Elastic Compliance Matrix: (Units=1/GPa)
#
#
# Indices 1 2 3 4 5 6 
#
# 1 0.016693 -0.001634 -0.006512 -0.008149 -0.018077 -0.006794
# 2 -0.001634 0.026659 -0.000506 -0.010537 0.002756 0.001492
# 3 -0.006512 -0.000506 0.011826 0.001843 0.010820 0.001871
# 4 -0.008149 -0.010537 0.001843 0.052878 0.010019 0.017591
# 5 -0.018077 0.002756 0.010820 0.010019 0.060242 -0.003898
# 6 -0.006794 0.001492 0.001871 0.017591 -0.003898 0.071377
#
#
# Mechanical properties :
#
#
# Convention : Reuss Voigt Hill
#
# Bulk Modulus (GPa) = 26.40371 40.97496 33.68934
# Shear Modulus (GPa) = 18.54577 28.15428 23.35002
#
# Velocity S-wave (km/s) = 2.92182 3.60001 3.27850
# Velocity P-wave (km/s) = 4.85149 6.01181 5.46255
#
# Compressibility (1/GPa) = 0.03787346
#
# Stress axis : x y z
#
# Youngs Moduli (GPa) = 59.90700 37.51098 84.55845
#
# Poissons Ratio (x) = 0.06131 0.55065
# Poissons Ratio (y) = 0.09791 0.04275
# Poissons Ratio (z) = 0.39012 0.01896
#
# Static dielectric constant tensor:
#      x y z
#    x 3.689350 0.030370 0.062630 
#    y 0.030370 3.888260 0.105080 
#    z 0.062630 0.105080 3.898780 
# 
# 
# High freq. dielectric constant tensor:
#      x y z
#    x 1.841670 0.002770 -0.001270 
#    y 0.002770 1.851720 0.005120 
#    z -0.001270 0.005120 1.860880 
# 
# From -- ./inp_files/515888.got.cif
#   From: 2010.06.25/outbox.cif.g09.slc.cpg/sg2_258_cif.got.tgz:515888.got - 2010.06.27 13:26:56.
