data_PCOD8007678
_publ_section_title
;
Structure prediction by ZEFSAII (Michael W. Deem and Ramdas Pophale) SiO2 
 PCOD8007678
Probable space group: P -1
;
_chemical_formula_sum "Si O2"
_cell_formula_units_Z 16
_cell_length_a 15.367801
_cell_length_b 8.191811
_cell_length_c 14.298634
_cell_angle_alpha 41.394255
_cell_angle_beta 131.488939
_cell_angle_gamma 101.460630
_cell_volume 711.814340
_symmetry_space_group_name_H-M "P -1"
_symmetry_group_IT_number 2
_symmetry_cell_setting 'triclinic'
loop_
_space_group_symop_operation_xyz
x,y,z
-x,-y,-z
loop_
_atom_site_type_symbol
_atom_site_label
_atom_site_fract_x
_atom_site_fract_y
_atom_site_fract_z
Si Si1 0.653586 0.234229 0.880194
Si Si2 0.488591 0.754188 0.052410
Si Si3 0.971077 0.647107 0.560883
Si Si4 0.415471 0.924144 0.408408
Si Si5 0.240088 0.912017 0.445183
Si Si6 0.709348 0.126395 0.298382
Si Si7 0.290110 0.297172 0.974462
Si Si8 0.978761 0.906482 0.266256
O O1 0.628838 0.251674 0.967246
O O2 0.521336 0.567595 0.601472
O O3 0.647487 0.965065 0.948930
O O4 0.811202 0.157821 0.005189
O O5 0.651164 0.454642 0.310974
O O6 0.433405 0.808952 0.881668
O O7 0.500000 0.000000 0.000000
O O8 0.979165 0.846057 0.402008
O O9 0.941851 0.416589 0.593913
O O10 0.849194 0.868787 0.451775
O O11 0.122218 0.451917 0.807231
O O12 0.277088 0.014744 0.333175
O O13 0.500000 0.000000 0.500000
O O14 0.368407 0.142424 0.193191
O O15 0.268050 0.017993 0.519070
O O16 0.073154 0.033221 0.263622
O O17 0.688609 0.448411 0.151267
#
# Coordination Sequence:
#
# PCOD8007678 Si02
#       8
#     2   2   2   2   2   2   2   2
#     4  10  22  42  67  90 126 173 214 264 324 385
#     4  11  22  36  59  94 131 165 208 271 323 371
#     4  10  21  36  68  99 130 165 206 269 326 382
#     4  11  26  46  63  89 133 178 216 264 324 383
#     4  11  24  39  62  96 128 166 216 268 312 383
#     4  12  22  38  65  99 128 164 216 268 319 379
#     4  11  22  40  68  96 125 168 219 261 324 385
#     4  10  20  41  66  98 128 165 213 264 328 378
#
# _framework density 22.477768999999999
#
# number of rings (size 3 to 8) (size 9 to 14) (size 15 to 20)
#    0.000    1.250    2.500    4.125    1.750    1.000 
#    0.000    6.250    0.000    0.000    0.000    0.000 
#    0.000    0.000    0.000    0.000    0.000    0.000 
#
# Total GULP energy -198331.800828 kJ/mol
# GULP energy per Si atom -12395.737552 kJ/mol
# Density = 2.242661 g / cm^3
# Si number density = 22.477769 Si / 1000 Ang^3
#
#
#
# Elastic Constant Matrix: (Units=GPa)
#
#
# Indices 1 2 3 4 5 6 
#
# 1 83.2797 6.6020 19.0473 4.4779 14.9291 -16.0707
# 2 6.6020 68.0292 2.8665 12.8746 3.2708 -11.4385
# 3 19.0473 2.8665 50.9968 7.6870 3.2828 -15.3393
# 4 4.4779 12.8746 7.6870 37.8001 -1.7526 8.7658
# 5 14.9291 3.2708 3.2828 -1.7526 29.4467 3.9399
# 6 -16.0707 -11.4385 -15.3393 8.7658 3.9399 35.3392
#
#
#
# Elastic Compliance Matrix: (Units=1/GPa)
#
#
# Indices 1 2 3 4 5 6 
#
# 1 0.016065 0.001349 -0.002077 -0.004472 -0.009535 0.009013
# 2 0.001349 0.018467 0.003707 -0.010063 -0.005257 0.011282
# 3 -0.002077 0.003707 0.026448 -0.010047 -0.004882 0.014772
# 4 -0.004472 -0.010063 -0.010047 0.037533 0.009416 -0.020012
# 5 -0.009535 -0.005257 -0.004882 0.009416 0.042520 -0.015233
# 6 0.009013 0.011282 0.014772 -0.020012 -0.015233 0.049121
#
#
# Mechanical properties :
#
#
# Convention : Reuss Voigt Hill
#
# Bulk Modulus (GPa) = 14.93944 28.81526 21.87735
# Shear Modulus (GPa) = 24.21198 32.10322 28.15760
#
# Velocity S-wave (km/s) = 3.28556 3.78328 3.54317
# Velocity P-wave (km/s) = 4.58846 5.65080 5.14711
#
# Compressibility (1/GPa) = 0.06693693
#
# Stress axis : x y z
#
# Youngs Moduli (GPa) = 62.24765 54.15171 37.80953
#
# Poissons Ratio (x) = -0.07304 0.07854
# Poissons Ratio (y) = -0.08395 -0.14016
# Poissons Ratio (z) = 0.12930 -0.20074
#
# Static dielectric constant tensor:
#      x y z
#    x 4.613580 -0.207210 -0.012900 
#    y -0.207210 4.204260 -0.019130 
#    z -0.012900 -0.019130 4.242370 
# 
# 
# High freq. dielectric constant tensor:
#      x y z
#    x 1.882090 -0.015470 0.026650 
#    y -0.015470 1.893320 0.004660 
#    z 0.026650 0.004660 1.877420 
# 
# From -- ./inp_files/529294.got.cif
#   From: 2010.06.25/outbox.cif.g09.slc.cpg/sg2_265_cif.got.tgz:529294.got - 2010.06.27 13:26:56.
