data_PCOD8007897
_publ_section_title
;
Structure prediction by ZEFSAII (Michael W. Deem and Ramdas Pophale) SiO2 
 PCOD8007897
Probable space group: P -1
;
_chemical_formula_sum "Si O2"
_cell_formula_units_Z 14
_cell_length_a 9.441735
_cell_length_b 11.790493
_cell_length_c 9.600718
_cell_angle_alpha 120.577195
_cell_angle_beta 46.352132
_cell_angle_gamma 99.941472
_cell_volume 637.914111
_symmetry_space_group_name_H-M "P -1"
_symmetry_group_IT_number 2
_symmetry_cell_setting 'triclinic'
loop_
_space_group_symop_operation_xyz
x,y,z
-x,-y,-z
loop_
_atom_site_type_symbol
_atom_site_label
_atom_site_fract_x
_atom_site_fract_y
_atom_site_fract_z
Si Si1 0.423666 0.456404 0.879433
Si Si2 0.471636 0.896901 0.068691
Si Si3 0.769290 0.766450 0.009041
Si Si4 0.219433 0.703737 0.998297
Si Si5 0.877496 0.956435 0.433639
Si Si6 0.251283 0.681641 0.643138
Si Si7 0.200108 0.960499 0.751010
O O1 0.332266 0.330191 0.892413
O O2 0.607401 0.432928 0.626179
O O3 0.500000 0.500000 0.000000
O O4 0.242119 0.578748 0.012294
O O5 0.676293 0.795788 0.934372
O O6 0.351014 0.800596 0.021778
O O7 0.355148 0.004463 0.333591
O O8 0.500000 0.000000 0.000000
O O9 0.700170 0.913407 0.228853
O O10 0.012374 0.701285 0.784503
O O11 0.980477 0.796290 0.220100
O O12 0.287625 0.647828 0.761253
O O13 0.870841 0.055633 0.368225
O O14 0.000000 0.000000 0.500000
O O15 0.329032 0.814533 0.634172
O O16 0.000000 0.000000 0.000000
#
# Coordination Sequence:
#
# PCOD8007897 Si02
#       7
#     2   2   2   2   2   2   2
#     4  12  27  47  68  98 142 186 231 280 334 419
#     4  11  24  39  68 105 137 171 229 285 348 404
#     4  11  24  45  71 105 132 180 234 274 350 407
#     4  11  23  48  63  97 140 180 223 282 342 404
#     4  10  22  39  67 100 136 177 215 278 353 398
#     4  11  25  45  74  98 138 179 228 289 345 402
#     4  10  20  41  71 101 134 166 227 287 344 396
#
# _framework density 21.946529000000002
#
# number of rings (size 3 to 8) (size 9 to 14) (size 15 to 20)
#    0.000    1.143    4.286    2.143    8.000    4.571 
#    2.571    0.000    0.000    0.000    0.000    0.000 
#    0.000    0.000    0.000    0.000    0.000    0.000 
#
# Total GULP energy -173458.896023 kJ/mol
# GULP energy per Si atom -12389.921144 kJ/mol
# Density = 2.189658 g / cm^3
# Si number density = 21.946529 Si / 1000 Ang^3
#
#
#
# Elastic Constant Matrix: (Units=GPa)
#
#
# Indices 1 2 3 4 5 6 
#
# 1 102.7800 48.1683 33.0784 -12.8069 9.7002 -17.4478
# 2 48.1683 141.3076 24.9056 -16.3213 6.7039 -19.5779
# 3 33.0784 24.9056 125.1821 -13.8281 14.4498 -6.7013
# 4 -12.8069 -16.3213 -13.8281 28.8908 -7.0321 6.5353
# 5 9.7002 6.7039 14.4498 -7.0321 38.2199 -6.0757
# 6 -17.4478 -19.5779 -6.7013 6.5353 -6.0757 45.2021
#
#
#
# Elastic Compliance Matrix: (Units=1/GPa)
#
#
# Indices 1 2 3 4 5 6 
#
# 1 0.012809 -0.003324 -0.002252 0.001844 -0.001038 0.002765
# 2 -0.003324 0.008914 -0.000498 0.002927 0.000345 0.002127
# 3 -0.002252 -0.000498 0.009231 0.002648 -0.002411 -0.000423
# 4 0.001844 0.002927 0.002648 0.040188 0.004971 -0.002770
# 5 -0.001038 0.000345 -0.002411 0.004971 0.028593 0.002516
# 6 0.002765 0.002127 -0.000423 -0.002770 0.002516 0.024787
#
#
# Mechanical properties :
#
#
# Convention : Reuss Voigt Hill
#
# Bulk Modulus (GPa) = 53.17385 64.61936 58.89661
# Shear Modulus (GPa) = 34.98006 40.00374 37.49190
#
# Velocity S-wave (km/s) = 3.99667 4.27404 4.13768
# Velocity P-wave (km/s) = 6.75124 7.33924 7.05137
#
# Compressibility (1/GPa) = 0.01880624
#
# Stress axis : x y z
#
# Youngs Moduli (GPa) = 78.06884 112.18300 108.33599
#
# Poissons Ratio (x) = 0.37291 0.24396
# Poissons Ratio (y) = 0.25951 0.05392
# Poissons Ratio (z) = 0.17580 0.05584
#
# Static dielectric constant tensor:
#      x y z
#    x 4.115380 -0.223410 -0.165300 
#    y -0.223410 2.846520 -0.912530 
#    z -0.165300 -0.912530 3.554840 
# 
# 
# High freq. dielectric constant tensor:
#      x y z
#    x 1.869630 -0.022240 0.008030 
#    y -0.022240 1.858360 -0.003700 
#    z 0.008030 -0.003700 1.866230 
# 
# From -- ./inp_files/189644.got.cif
#   From: 2010.06.25/outbox.cif.g09.slc.cpg/sg2_95_cif.got.tgz:189644.got - 2010.06.27 13:26:56.
