data_PCOD8007879
_publ_section_title
;
Structure prediction by ZEFSAII (Michael W. Deem and Ramdas Pophale) SiO2 
 PCOD8007879
Probable space group: P -1
;
_chemical_formula_sum "Si O2"
_cell_formula_units_Z 12
_cell_length_a 16.680030
_cell_length_b 11.225135
_cell_length_c 9.379863
_cell_angle_alpha 53.827989
_cell_angle_beta 54.870415
_cell_angle_gamma 20.474436
_cell_volume 494.328523
_symmetry_space_group_name_H-M "P -1"
_symmetry_group_IT_number 2
_symmetry_cell_setting 'triclinic'
loop_
_space_group_symop_operation_xyz
x,y,z
-x,-y,-z
loop_
_atom_site_type_symbol
_atom_site_label
_atom_site_fract_x
_atom_site_fract_y
_atom_site_fract_z
Si Si1 0.257211 0.308796 0.950716
Si Si2 0.602606 0.174536 0.781603
Si Si3 0.297907 0.340848 0.563049
Si Si4 0.535094 0.588307 0.559841
Si Si5 0.167569 0.646284 0.024313
Si Si6 0.983360 0.694465 0.400277
O O1 0.283124 0.290167 0.769352
O O2 0.093535 0.657177 0.945828
O O3 0.500000 0.000000 0.000000
O O4 0.190579 0.227001 0.118214
O O5 0.682650 0.235939 0.674074
O O6 0.481470 0.325235 0.644555
O O7 0.414096 0.387581 0.942728
O O8 0.339682 0.459968 0.439892
O O9 0.050210 0.647281 0.527130
O O10 0.500000 0.000000 0.500000
O O11 0.275785 0.901658 0.654282
O O12 0.171156 0.515640 0.233885
O O13 0.000000 0.000000 0.000000
O O14 0.000000 0.500000 0.500000
#
# Coordination Sequence:
#
# PCOD8007879 Si02
#       6
#     2   2   2   2   2   2
#     4  10  20  41  70  95 137 189 225 280 354 405
#     4  10  21  42  71  95 141 187 223 290 350 407
#     4  12  23  42  73 103 142 187 233 288 354 412
#     4  11  22  43  69 100 136 186 233 283 346 414
#     4  11  21  42  69 103 141 182 228 297 348 402
#     4  12  25  42  69 105 139 180 238 289 347 417
#
# _framework density 24.275354
#
# number of rings (size 3 to 8) (size 9 to 14) (size 15 to 20)
#    0.000    1.000    6.667    3.000    0.000    0.000 
#    0.000   15.833    0.000    0.000    0.000    0.000 
#    0.000    0.000    0.000    0.000    0.000    0.000 
#
# Total GULP energy -148681.533727 kJ/mol
# GULP energy per Si atom -12390.127811 kJ/mol
# Density = 2.422010 g / cm^3
# Si number density = 24.275354 Si / 1000 Ang^3
#
#
#
# Elastic Constant Matrix: (Units=GPa)
#
#
# Indices 1 2 3 4 5 6 
#
# 1 187.5256 42.2058 63.5985 -17.9937 -8.4792 38.3363
# 2 42.2058 58.9015 18.9949 0.5147 -3.8820 36.1405
# 3 63.5985 18.9949 159.9276 7.0099 -4.4296 22.9503
# 4 -17.9937 0.5147 7.0099 29.6378 8.9735 -1.4340
# 5 -8.4792 -3.8820 -4.4296 8.9735 41.0232 -6.0219
# 6 38.3363 36.1405 22.9503 -1.4340 -6.0219 55.8264
#
#
#
# Elastic Compliance Matrix: (Units=1/GPa)
#
#
# Indices 1 2 3 4 5 6 
#
# 1 0.008009 -0.003833 -0.002732 0.005640 -0.000501 -0.001805
# 2 -0.003833 0.030133 0.000596 -0.003965 0.000470 -0.017172
# 3 -0.002732 0.000596 0.007703 -0.003850 0.000920 -0.001677
# 4 0.005640 -0.003965 -0.003850 0.040730 -0.008475 0.000409
# 5 -0.000501 0.000470 0.000920 -0.008475 0.026610 0.002314
# 6 -0.001805 -0.017172 -0.001677 0.000409 0.002314 0.031218
#
#
# Mechanical properties :
#
#
# Convention : Reuss Voigt Hill
#
# Bulk Modulus (GPa) = 29.49091 72.88370 51.18730
# Shear Modulus (GPa) = 29.82515 44.06784 36.94649
#
# Velocity S-wave (km/s) = 3.50897 4.26529 3.90548
# Velocity P-wave (km/s) = 5.34715 7.37197 6.43964
#
# Compressibility (1/GPa) = 0.03390876
#
# Stress axis : x y z
#
# Youngs Moduli (GPa) = 124.85631 33.18570 129.81572
#
# Poissons Ratio (x) = 0.12720 0.35464
# Poissons Ratio (y) = 0.47857 -0.07740
# Poissons Ratio (z) = 0.34109 -0.01979
#
# Static dielectric constant tensor:
#      x y z
#    x 4.926000 0.390180 -0.449920 
#    y 0.390180 3.368960 -0.717460 
#    z -0.449920 -0.717460 4.295430 
# 
# 
# High freq. dielectric constant tensor:
#      x y z
#    x 1.969250 0.033890 -0.021180 
#    y 0.033890 1.943040 0.015210 
#    z -0.021180 0.015210 1.975000 
# 
# From -- ./inp_files/148544.got.cif
#   From: 2010.06.25/outbox.cif.g09.slc.cpg/sg2_75_cif.got.tgz:148544.got - 2010.06.27 13:26:56.
