data_PCOD8007936
_publ_section_title
;
Structure prediction by ZEFSAII (Michael W. Deem and Ramdas Pophale) SiO2 
 PCOD8007936
Probable space group: P -1
;
_chemical_formula_sum "Si O2"
_cell_formula_units_Z 16
_cell_length_a 15.139507
_cell_length_b 15.846778
_cell_length_c 11.436354
_cell_angle_alpha 62.120374
_cell_angle_beta 43.219634
_cell_angle_gamma 27.030943
_cell_volume 693.633518
_symmetry_space_group_name_H-M "P -1"
_symmetry_group_IT_number 2
_symmetry_cell_setting 'triclinic'
loop_
_space_group_symop_operation_xyz
x,y,z
-x,-y,-z
loop_
_atom_site_type_symbol
_atom_site_label
_atom_site_fract_x
_atom_site_fract_y
_atom_site_fract_z
Si Si1 0.976377 0.718687 0.122828
Si Si2 0.247903 0.979903 0.009328
Si Si3 0.815864 0.448536 0.522365
Si Si4 0.457422 0.692874 0.315038
Si Si5 0.939076 0.520123 0.679542
Si Si6 0.983444 0.854643 0.630982
Si Si7 0.160766 0.691082 0.192903
Si Si8 0.778776 0.133417 0.314148
O O1 0.858909 0.701203 0.312202
O O2 0.127550 0.685134 0.094679
O O3 0.199010 0.544257 0.912336
O O4 0.706224 0.964227 0.164514
O O5 0.037131 0.157793 0.204547
O O6 0.069954 0.009736 0.103506
O O7 0.582960 0.725306 0.900043
O O8 0.990270 0.259199 0.392304
O O9 0.869077 0.381531 0.648411
O O10 0.449373 0.699892 0.684253
O O11 0.978440 0.441337 0.351093
O O12 0.273073 0.729450 0.408717
O O13 0.430561 0.704754 0.474044
O O14 0.324418 0.883787 0.280185
O O15 0.000000 0.500000 0.500000
O O16 0.500000 0.500000 0.000000
O O17 0.911158 0.937397 0.315015
#
# Coordination Sequence:
#
# PCOD8007936 Si02
#       8
#     2   2   2   2   2   2   2   2
#     4  12  25  44  69  99 137 188 232 273 342 417
#     4  11  25  45  74  99 138 181 228 279 351 406
#     4  12  26  45  69 103 141 177 229 288 341 399
#     4  10  20  42  73 104 138 174 224 284 353 405
#     4  12  28  48  64  93 144 192 228 277 340 408
#     4  10  20  41  73 103 137 175 222 289 350 401
#     4  12  25  40  69 104 139 175 229 285 344 398
#     4  11  25  44  75 109 135 174 229 291 342 411
#
# _framework density 23.066938
#
# number of rings (size 3 to 8) (size 9 to 14) (size 15 to 20)
#    0.000    0.750    3.750    3.750    3.500    5.000 
#    0.000    1.250    0.000    0.000    0.000    0.000 
#    0.000    0.000    0.000    0.000    0.000    0.000 
#
# Total GULP energy -198397.299523 kJ/mol
# GULP energy per Si atom -12399.831220 kJ/mol
# Density = 2.301444 g / cm^3
# Si number density = 23.066938 Si / 1000 Ang^3
#
#
#
# Elastic Constant Matrix: (Units=GPa)
#
#
# Indices 1 2 3 4 5 6 
#
# 1 85.7186 40.6788 17.8231 -0.7319 -10.1821 18.0592
# 2 40.6788 94.6969 13.4312 -33.5683 -3.4349 -1.8652
# 3 17.8231 13.4312 62.8130 -13.4266 0.2267 6.4588
# 4 -0.7319 -33.5683 -13.4266 40.6180 0.6512 0.5000
# 5 -10.1821 -3.4349 0.2267 0.6512 38.0928 -2.2400
# 6 18.0592 -1.8652 6.4588 0.5000 -2.2400 37.1163
#
#
#
# Elastic Compliance Matrix: (Units=1/GPa)
#
#
# Indices 1 2 3 4 5 6 
#
# 1 0.020958 -0.012407 -0.004759 -0.011397 0.004143 -0.009589
# 2 -0.012407 0.022373 0.002118 0.018907 -0.001255 0.006462
# 3 -0.004759 0.002118 0.018604 0.007849 -0.001385 -0.001005
# 4 -0.011397 0.018907 0.007849 0.042609 -0.001855 0.004444
# 5 0.004143 -0.001255 -0.001385 -0.001855 0.027276 -0.000167
# 6 -0.009589 0.006462 -0.001005 0.004444 -0.000167 0.032038
#
#
# Mechanical properties :
#
#
# Convention : Reuss Voigt Hill
#
# Bulk Modulus (GPa) = 31.40760 43.01052 37.20906
# Shear Modulus (GPa) = 24.44175 34.58511 29.51343
#
# Velocity S-wave (km/s) = 3.25868 3.87633 3.58085
# Velocity P-wave (km/s) = 5.27296 6.22262 5.76737
#
# Compressibility (1/GPa) = 0.03183942
#
# Stress axis : x y z
#
# Youngs Moduli (GPa) = 47.71337 44.69630 53.75239
#
# Poissons Ratio (x) = 0.55454 0.25582
# Poissons Ratio (y) = 0.59197 -0.11385
# Poissons Ratio (z) = 0.22708 -0.09467
#
# Static dielectric constant tensor:
#      x y z
#    x 4.178790 -0.027580 0.172360 
#    y -0.027580 4.500710 -0.219500 
#    z 0.172360 -0.219500 4.216820 
# 
# 
# High freq. dielectric constant tensor:
#      x y z
#    x 1.905900 0.003740 0.020060 
#    y 0.003740 1.931370 -0.012070 
#    z 0.020060 -0.012070 1.894940 
# 
# From -- ./inp_files/455626.got.cif
#   From: 2010.06.25/outbox.cif.g09.slc.cpg/sg2_228_cif.got.tgz:455626.got - 2010.06.27 13:26:56.
