data_PCOD8007734
_publ_section_title
;
Structure prediction by ZEFSAII (Michael W. Deem and Ramdas Pophale) SiO2 
 PCOD8007734
Probable space group: P -1
;
_chemical_formula_sum "Si O2"
_cell_formula_units_Z 14
_cell_length_a 8.927054
_cell_length_b 20.179115
_cell_length_c 11.835985
_cell_angle_alpha 148.892762
_cell_angle_beta 39.484536
_cell_angle_gamma 121.765434
_cell_volume 639.170832
_symmetry_space_group_name_H-M "P -1"
_symmetry_group_IT_number 2
_symmetry_cell_setting 'triclinic'
loop_
_space_group_symop_operation_xyz
x,y,z
-x,-y,-z
loop_
_atom_site_type_symbol
_atom_site_label
_atom_site_fract_x
_atom_site_fract_y
_atom_site_fract_z
Si Si1 0.032298 0.658848 0.783110
Si Si2 0.832821 0.331501 0.644007
Si Si3 0.490615 0.633513 0.330317
Si Si4 0.799175 0.201177 0.703007
Si Si5 0.161120 0.051504 0.565653
Si Si6 0.233494 0.361021 0.303505
Si Si7 0.645019 0.878821 0.649240
O O1 0.287411 0.601945 0.476505
O O2 0.066242 0.529531 0.657751
O O3 0.792042 0.691969 0.886004
O O4 0.005863 0.792917 0.065580
O O5 0.619779 0.325308 0.671705
O O6 0.847632 0.222674 0.575093
O O7 0.114911 0.288632 0.359395
O O8 0.746852 0.489500 0.972652
O O9 0.536234 0.760413 0.546340
O O10 0.047811 0.197026 0.619080
O O11 0.759558 0.055430 0.530211
O O12 0.538772 0.320338 0.082950
O O13 0.396874 0.054969 0.357018
O O14 0.000000 0.000000 0.500000
O O15 0.500000 0.000000 0.000000
#
# Coordination Sequence:
#
# PCOD8007734 Si02
#       7
#     2   2   2   2   2   2   2
#     4  10  20  42  67  94 131 173 208 263 327 381
#     4  10  22  40  68  99 129 165 214 272 314 375
#     4  10  20  41  67  96 131 171 211 258 331 380
#     4  11  24  43  65  99 130 166 222 268 309 388
#     4  10  23  42  61  88 130 173 210 256 325 381
#     4  10  22  40  68  98 129 165 217 267 317 376
#     4  11  25  44  66  89 131 178 210 262 332 387
#
# _framework density 21.903378
#
# number of rings (size 3 to 8) (size 9 to 14) (size 15 to 20)
#    0.000    1.714    1.429    2.571    6.000    1.143 
#    0.000    5.714    0.000    0.000    0.000    0.000 
#    0.000    0.000    0.000    0.000    0.000    0.000 
#
# Total GULP energy -173535.698185 kJ/mol
# GULP energy per Si atom -12395.407013 kJ/mol
# Density = 2.185352 g / cm^3
# Si number density = 21.903378 Si / 1000 Ang^3
#
#
#
# Elastic Constant Matrix: (Units=GPa)
#
#
# Indices 1 2 3 4 5 6 
#
# 1 66.0316 41.0451 45.2029 10.4805 4.2654 1.9835
# 2 41.0451 131.0478 43.2416 -3.5952 -6.6246 -25.1135
# 3 45.2029 43.2416 108.5497 5.8567 13.9238 -0.0418
# 4 10.4805 -3.5952 5.8567 35.1002 10.3961 7.7504
# 5 4.2654 -6.6246 13.9238 10.3961 35.5815 2.8601
# 6 1.9835 -25.1135 -0.0418 7.7504 2.8601 41.0052
#
#
#
# Elastic Compliance Matrix: (Units=1/GPa)
#
#
# Indices 1 2 3 4 5 6 
#
# 1 0.025524 -0.006254 -0.007931 -0.006382 0.001061 -0.003941
# 2 -0.006254 0.012043 -0.002649 0.001005 0.003150 0.007266
# 3 -0.007931 -0.002649 0.014185 0.001603 -0.005469 -0.001145
# 4 -0.006382 0.001005 0.001603 0.034039 -0.009229 -0.004864
# 5 0.001061 0.003150 -0.005469 -0.009229 0.033297 0.001295
# 6 -0.003941 0.007266 -0.001145 -0.004864 0.001295 0.029855
#
#
# Mechanical properties :
#
#
# Convention : Reuss Voigt Hill
#
# Bulk Modulus (GPa) = 55.29550 62.73425 59.01488
# Shear Modulus (GPa) = 26.50608 34.08002 30.29305
#
# Velocity S-wave (km/s) = 3.48248 3.94880 3.72295
# Velocity P-wave (km/s) = 6.43973 7.03521 6.74405
#
# Compressibility (1/GPa) = 0.01808465
#
# Stress axis : x y z
#
# Youngs Moduli (GPa) = 39.17950 83.03783 70.49895
#
# Poissons Ratio (x) = 0.51931 0.55910
# Poissons Ratio (y) = 0.24503 0.18672
# Poissons Ratio (z) = 0.31072 0.21993
#
# Static dielectric constant tensor:
#      x y z
#    x 3.786890 -0.230000 -0.057440 
#    y -0.230000 4.555650 0.002500 
#    z -0.057440 0.002500 3.718740 
# 
# 
# High freq. dielectric constant tensor:
#      x y z
#    x 1.832170 -0.003860 0.002780 
#    y -0.003860 1.889320 -0.008530 
#    z 0.002780 -0.008530 1.849810 
# 
# From -- ./inp_files/243469.got.cif
#   From: 2010.06.25/outbox.cif.g09.slc.cpg/sg2_122_cif.got.tgz:243469.got - 2010.06.27 13:26:56.
