data_PCOD8007222
_publ_section_title
;
Structure prediction by ZEFSAII (Michael W. Deem and Ramdas Pophale) SiO2 
 PCOD8007222
Probable space group: P -1
;
_chemical_formula_sum "Si O2"
_cell_formula_units_Z 16
_cell_length_a 11.274759
_cell_length_b 9.535258
_cell_length_c 15.059895
_cell_angle_alpha 65.790668
_cell_angle_beta 134.264599
_cell_angle_gamma 78.854095
_cell_volume 717.974166
_symmetry_space_group_name_H-M "P -1"
_symmetry_group_IT_number 2
_symmetry_cell_setting 'triclinic'
loop_
_space_group_symop_operation_xyz
x,y,z
-x,-y,-z
loop_
_atom_site_type_symbol
_atom_site_label
_atom_site_fract_x
_atom_site_fract_y
_atom_site_fract_z
Si Si1 0.749631 0.352601 0.748396
Si Si2 0.280570 0.402144 0.936034
Si Si3 0.285936 0.066401 0.106573
Si Si4 0.610774 0.171494 0.610861
Si Si5 0.424227 0.696304 0.167210
Si Si6 0.908148 0.438201 0.399008
Si Si7 0.153477 0.970186 0.665640
Si Si8 0.969993 0.148769 0.213051
O O1 0.746851 0.237532 0.693849
O O2 0.659972 0.587594 0.620213
O O3 0.566435 0.403861 0.710886
O O4 0.024191 0.178244 0.970135
O O5 0.276494 0.251383 0.031706
O O6 0.560839 0.271028 0.115575
O O7 0.169684 0.443367 0.769125
O O8 0.111752 0.644602 0.829728
O O9 0.435199 0.925925 0.311180
O O10 0.383522 0.905498 0.113727
O O11 0.763145 0.000774 0.651186
O O12 0.676639 0.503928 0.298043
O O13 0.213561 0.762122 0.984324
O O14 0.000000 0.500000 0.500000
O O15 0.134345 0.165500 0.586857
O O16 0.024674 0.002365 0.680354
O O17 0.000000 0.000000 0.500000
#
# Coordination Sequence:
#
# PCOD8007222 Si02
#       8
#     2   2   2   2   2   2   2   2
#     4  10  20  40  68  99 127 168 229 277 320 390
#     4  12  28  43  65 100 143 175 217 281 335 397
#     4  11  23  42  62 100 138 170 216 280 335 385
#     4  10  21  39  68  98 127 174 225 272 324 396
#     4  11  21  42  73  96 127 176 228 275 328 395
#     4  12  27  44  68 104 135 174 226 280 339 390
#     4  12  25  47  71  96 134 179 223 276 331 402
#     4  12  22  44  71  94 130 179 224 271 331 396
#
# _framework density 22.284924
#
# number of rings (size 3 to 8) (size 9 to 14) (size 15 to 20)
#    0.000    0.750    5.000    3.375    1.750    5.500 
#    0.000    0.625    0.000    0.000    0.000    0.000 
#    0.000    0.000    0.000    0.000    0.000    0.000 
#
# Total GULP energy -198360.922005 kJ/mol
# GULP energy per Si atom -12397.557625 kJ/mol
# Density = 2.223420 g / cm^3
# Si number density = 22.284924 Si / 1000 Ang^3
#
#
#
# Elastic Constant Matrix: (Units=GPa)
#
#
# Indices 1 2 3 4 5 6 
#
# 1 78.8454 20.3950 13.8618 -9.4291 -24.8044 -9.6869
# 2 20.3950 105.9243 34.9232 -3.4404 -12.5300 -7.5222
# 3 13.8618 34.9232 91.9159 -9.3941 -21.5259 -6.9375
# 4 -9.4291 -3.4404 -9.3941 35.0076 1.2981 -3.8040
# 5 -24.8044 -12.5300 -21.5259 1.2981 37.0015 -8.1240
# 6 -9.6869 -7.5222 -6.9375 -3.8040 -8.1240 33.2504
#
#
#
# Elastic Compliance Matrix: (Units=1/GPa)
#
#
# Indices 1 2 3 4 5 6 
#
# 1 0.020034 -0.001918 0.003133 0.006612 0.016767 0.010909
# 2 -0.001918 0.011205 -0.003754 -0.000303 0.000623 0.001310
# 3 0.003133 -0.003754 0.015421 0.004914 0.011065 0.006547
# 4 0.006612 -0.000303 0.004914 0.032266 0.007925 0.008511
# 5 0.016767 0.000623 0.011065 0.007925 0.049078 0.020232
# 6 0.010909 0.001310 0.006547 0.008511 0.020232 0.040832
#
#
# Mechanical properties :
#
#
# Convention : Reuss Voigt Hill
#
# Bulk Modulus (GPa) = 24.04854 46.11618 35.08236
# Shear Modulus (GPa) = 26.62767 34.88561 30.75664
#
# Velocity S-wave (km/s) = 3.46044 3.96085 3.71907
# Velocity P-wave (km/s) = 5.17504 6.45419 5.84969
#
# Compressibility (1/GPa) = 0.04158257
#
# Stress axis : x y z
#
# Youngs Moduli (GPa) = 49.91506 89.24933 64.84582
#
# Poissons Ratio (x) = 0.17114 -0.20316
# Poissons Ratio (y) = 0.09571 0.24344
# Poissons Ratio (z) = -0.15639 0.33505
#
# Static dielectric constant tensor:
#      x y z
#    x 3.859000 -0.374780 0.302810 
#    y -0.374780 4.017100 -0.026040 
#    z 0.302810 -0.026040 3.858360 
# 
# 
# High freq. dielectric constant tensor:
#      x y z
#    x 1.873680 -0.011920 -0.009830 
#    y -0.011920 1.866390 -0.009630 
#    z -0.009830 -0.009630 1.892360 
# 
# From -- ./inp_files/308105.got.cif
#   From: 2010.06.25/outbox.cif.g09.slc.cpg/sg2_155_cif.got.tgz:308105.got - 2010.06.27 13:26:56.
