data_PCOD8007745
_publ_section_title
;
Structure prediction by ZEFSAII (Michael W. Deem and Ramdas Pophale) SiO2 
 PCOD8007745
Probable space group: P -1
;
_chemical_formula_sum "Si O2"
_cell_formula_units_Z 14
_cell_length_a 14.750378
_cell_length_b 11.577853
_cell_length_c 11.909059
_cell_angle_alpha 69.232360
_cell_angle_beta 49.248358
_cell_angle_gamma 28.547020
_cell_volume 586.512418
_symmetry_space_group_name_H-M "P -1"
_symmetry_group_IT_number 2
_symmetry_cell_setting 'triclinic'
loop_
_space_group_symop_operation_xyz
x,y,z
-x,-y,-z
loop_
_atom_site_type_symbol
_atom_site_label
_atom_site_fract_x
_atom_site_fract_y
_atom_site_fract_z
Si Si1 0.701675 0.691987 0.443949
Si Si2 0.529796 0.248006 0.027938
Si Si3 0.119713 0.788892 0.781901
Si Si4 0.462792 0.411426 0.418670
Si Si5 0.123957 0.653393 0.408873
Si Si6 0.793034 0.735930 0.986124
Si Si7 0.512351 0.744238 0.197015
O O1 0.513718 0.757866 0.514882
O O2 0.795441 0.561506 0.538328
O O3 0.500000 0.000000 0.500000
O O4 0.007356 0.425131 0.226953
O O5 0.221712 0.570563 0.228221
O O6 0.612136 0.028378 0.062305
O O7 0.510830 0.292624 0.895691
O O8 0.770054 0.110809 0.939929
O O9 0.251262 0.673075 0.590763
O O10 0.220800 0.818119 0.756064
O O11 0.224365 0.569217 0.841181
O O12 0.309301 0.574392 0.364619
O O13 0.779664 0.005893 0.579802
O O14 0.568806 0.836762 0.104807
O O15 0.000000 0.500000 0.000000
#
# Coordination Sequence:
#
# PCOD8007745 Si02
#       7
#     2   2   2   2   2   2   2
#     4  10  20  41  67  98 135 173 225 281 336 401
#     4  12  23  46  67 101 141 182 228 289 336 409
#     4  11  22  45  76  94 140 190 225 278 348 407
#     4   9  21  45  70 101 133 189 227 280 340 411
#     4  10  24  44  65 104 141 171 231 286 337 406
#     4  12  22  42  67  99 138 181 227 277 346 406
#     4  12  25  44  68 104 138 180 230 283 345 406
#
# _framework density 23.869910999999998
#
# number of rings (size 3 to 8) (size 9 to 14) (size 15 to 20)
#    0.857    0.286    5.714    1.286    0.000    1.714 
#    7.714    0.714    0.000    0.000    0.000    0.000 
#    0.000    0.000    0.000    0.000    0.000    0.000 
#
# Total GULP energy -173536.614678 kJ/mol
# GULP energy per Si atom -12395.472477 kJ/mol
# Density = 2.381558 g / cm^3
# Si number density = 23.869911 Si / 1000 Ang^3
#
#
#
# Elastic Constant Matrix: (Units=GPa)
#
#
# Indices 1 2 3 4 5 6 
#
# 1 114.3592 1.0862 56.1563 9.7992 -25.3261 2.7454
# 2 1.0862 31.1468 11.6059 -3.7033 7.0909 -10.5412
# 3 56.1563 11.6059 153.8751 10.4123 3.3827 -3.2944
# 4 9.7992 -3.7033 10.4123 14.4134 3.7529 -4.9422
# 5 -25.3261 7.0909 3.3827 3.7529 44.1829 -8.2225
# 6 2.7454 -10.5412 -3.2944 -4.9422 -8.2225 32.5222
#
#
#
# Elastic Compliance Matrix: (Units=1/GPa)
#
#
# Indices 1 2 3 4 5 6 
#
# 1 0.013888 -0.002678 -0.004435 -0.009904 0.009263 -0.001652
# 2 -0.002678 0.042935 -0.003288 0.022381 -0.007211 0.015387
# 3 -0.004435 -0.003288 0.008654 -0.003772 -0.002549 -0.001032
# 4 -0.009904 0.022381 -0.003772 0.094508 -0.013538 0.018647
# 5 0.009263 -0.007211 -0.002549 -0.013538 0.030887 0.002374
# 6 -0.001652 0.015387 -0.001032 0.018647 0.002374 0.039205
#
#
# Mechanical properties :
#
#
# Convention : Reuss Voigt Hill
#
# Bulk Modulus (GPa) = 22.38329 48.56420 35.47374
# Shear Modulus (GPa) = 18.81335 33.59253 26.20294
#
# Velocity S-wave (km/s) = 2.81047 3.75549 3.31681
# Velocity P-wave (km/s) = 4.46421 6.26055 5.43708
#
# Compressibility (1/GPa) = 0.04467619
#
# Stress axis : x y z
#
# Youngs Moduli (GPa) = 72.00708 23.29120 115.54718
#
# Poissons Ratio (x) = 0.06236 0.51246
# Poissons Ratio (y) = 0.19280 0.37988
# Poissons Ratio (z) = 0.31936 0.07657
#
# Static dielectric constant tensor:
#      x y z
#    x 4.310880 -0.297830 -0.237100 
#    y -0.297830 3.692910 -0.108480 
#    z -0.237100 -0.108480 4.320280 
# 
# 
# High freq. dielectric constant tensor:
#      x y z
#    x 1.947980 -0.006220 -0.009070 
#    y -0.006220 1.929860 -0.012160 
#    z -0.009070 -0.012160 1.944160 
# 
# From -- ./inp_files/449964.got.cif
#   From: 2010.06.25/outbox.cif.g09.slc.cpg/sg2_225_cif.got.tgz:449964.got - 2010.06.27 13:26:56.
