data_PCOD8007102
_publ_section_title
;
Structure prediction by ZEFSAII (Michael W. Deem and Ramdas Pophale) SiO2 
 PCOD8007102
Probable space group: P -1
;
_chemical_formula_sum "Si O2"
_cell_formula_units_Z 14
_cell_length_a 22.244803
_cell_length_b 22.636702
_cell_length_c 8.173879
_cell_angle_alpha 47.780706
_cell_angle_beta 47.225754
_cell_angle_gamma 12.553758
_cell_volume 655.617896
_symmetry_space_group_name_H-M "P -1"
_symmetry_group_IT_number 2
_symmetry_cell_setting 'triclinic'
loop_
_space_group_symop_operation_xyz
x,y,z
-x,-y,-z
loop_
_atom_site_type_symbol
_atom_site_label
_atom_site_fract_x
_atom_site_fract_y
_atom_site_fract_z
Si Si1 0.287515 0.853767 0.118864
Si Si2 0.409531 0.914303 0.688323
Si Si3 0.282398 0.636186 0.591195
Si Si4 0.305106 0.297149 0.752926
Si Si5 0.982630 0.421820 0.684262
Si Si6 0.801973 0.778663 0.996503
Si Si7 0.740704 0.254560 0.888824
O O1 0.553037 0.598640 0.228365
O O2 0.330661 0.759160 0.054547
O O3 0.259470 0.971017 0.898343
O O4 0.005156 0.088728 0.291331
O O5 0.536976 0.791658 0.498276
O O6 0.661573 0.695221 0.755749
O O7 0.175679 0.201947 0.595951
O O8 0.500000 0.500000 0.500000
O O9 0.218031 0.709326 0.381342
O O10 0.025504 0.597518 0.782466
O O11 0.501388 0.094535 0.921610
O O12 0.219036 0.297765 0.811577
O O13 0.000000 0.500000 0.500000
O O14 0.103054 0.275936 0.903504
O O15 0.500000 0.500000 0.000000
O O16 0.000000 0.000000 0.000000
#
# Coordination Sequence:
#
# PCOD8007102 Si02
#       7
#     2   2   2   2   2   2   2
#     4  11  23  42  62  92 130 169 204 251 318 381
#     4  12  25  41  62  90 127 166 208 266 325 360
#     4  10  20  40  67  91 125 167 206 242 299 385
#     4  10  21  37  60  84 116 158 197 257 318 371
#     4  12  24  40  63  91 117 163 220 271 301 369
#     4  10  21  37  59  85 113 151 212 259 306 365
#     4  11  21  38  67  99 121 159 207 253 293 368
#
# _framework density 21.353901
#
# number of rings (size 3 to 8) (size 9 to 14) (size 15 to 20)
#    0.000    1.143    1.429    7.286    4.000    0.000 
#    0.000    8.571    0.000    0.000    0.000    0.000 
#    0.000    0.000    0.000    0.000    0.000    0.000 
#
# Total GULP energy -173600.911881 kJ/mol
# GULP energy per Si atom -12400.065134 kJ/mol
# Density = 2.130530 g / cm^3
# Si number density = 21.353901 Si / 1000 Ang^3
#
#
#
# Elastic Constant Matrix: (Units=GPa)
#
#
# Indices 1 2 3 4 5 6 
#
# 1 70.0933 34.5763 44.1505 3.0516 5.2653 -1.5406
# 2 34.5763 131.8224 32.0970 8.9816 1.7230 6.9068
# 3 44.1505 32.0970 113.3942 10.3299 5.6683 7.8632
# 4 3.0516 8.9816 10.3299 41.4100 -1.6458 8.6111
# 5 5.2653 1.7230 5.6683 -1.6458 35.2203 -5.7670
# 6 -1.5406 6.9068 7.8632 8.6111 -5.7670 32.1495
#
#
#
# Elastic Compliance Matrix: (Units=1/GPa)
#
#
# Indices 1 2 3 4 5 6 
#
# 1 0.020894 -0.003902 -0.007233 0.000379 -0.001212 0.003290
# 2 -0.003902 0.008967 -0.000802 -0.001121 -0.000045 -0.001625
# 3 -0.007233 -0.000802 0.012303 -0.001804 -0.001428 -0.002956
# 4 0.000379 -0.001121 -0.001804 0.026125 0.000493 -0.006209
# 5 -0.001212 -0.000045 -0.001428 0.000493 0.029730 0.005502
# 6 0.003290 -0.001625 -0.002956 -0.006209 0.005502 0.034984
#
#
# Mechanical properties :
#
#
# Convention : Reuss Voigt Hill
#
# Bulk Modulus (GPa) = 54.67262 59.66192 57.16727
# Shear Modulus (GPa) = 30.68016 35.38835 33.03426
#
# Velocity S-wave (km/s) = 3.79456 4.07533 3.93745
# Velocity P-wave (km/s) = 6.69753 7.08129 6.89208
#
# Compressibility (1/GPa) = 0.01829069
#
# Stress axis : x y z
#
# Youngs Moduli (GPa) = 47.86060 111.52369 81.28357
#
# Poissons Ratio (x) = 0.43512 0.58791
# Poissons Ratio (y) = 0.18673 0.06518
# Poissons Ratio (z) = 0.34617 0.08943
#
# Static dielectric constant tensor:
#      x y z
#    x 3.651610 -0.068620 0.265960 
#    y -0.068620 4.121420 -0.232120 
#    z 0.265960 -0.232120 4.085870 
# 
# 
# High freq. dielectric constant tensor:
#      x y z
#    x 1.804040 -0.008090 0.023510 
#    y -0.008090 1.863350 -0.001810 
#    z 0.023510 -0.001810 1.838740 
# 
# From -- ./inp_files/343956.got.cif
#   From: 2010.06.25/outbox.cif.g09.slc.cpg/sg2_172_cif.got.tgz:343956.got - 2010.06.27 13:26:56.
