data_PCOD8007087
_publ_section_title
;
Structure prediction by ZEFSAII (Michael W. Deem and Ramdas Pophale) SiO2 
 PCOD8007087
Probable space group: P -1
;
_chemical_formula_sum "Si O2"
_cell_formula_units_Z 12
_cell_length_a 8.476341
_cell_length_b 9.730742
_cell_length_c 10.471647
_cell_angle_alpha 78.857412
_cell_angle_beta 136.572818
_cell_angle_gamma 104.610470
_cell_volume 574.478431
_symmetry_space_group_name_H-M "P -1"
_symmetry_group_IT_number 2
_symmetry_cell_setting 'triclinic'
loop_
_space_group_symop_operation_xyz
x,y,z
-x,-y,-z
loop_
_atom_site_type_symbol
_atom_site_label
_atom_site_fract_x
_atom_site_fract_y
_atom_site_fract_z
Si Si1 0.371870 0.354139 0.802244
Si Si2 0.657141 0.088749 0.261224
Si Si3 0.291223 0.062018 0.428470
Si Si4 0.799521 0.943206 0.126884
Si Si5 0.808626 0.394172 0.228457
Si Si6 0.323160 0.371729 0.477893
O O1 0.226457 0.211363 0.798668
O O2 0.218744 0.475537 0.719228
O O3 0.403709 0.339418 0.672936
O O4 0.629155 0.387675 0.006680
O O5 0.754529 0.254765 0.311581
O O6 0.750133 0.994684 0.440760
O O7 0.748047 0.056626 0.181044
O O8 0.374295 0.058553 0.095738
O O9 0.332800 0.232543 0.421850
O O10 0.500000 0.000000 0.500000
O O11 0.061784 0.997943 0.223847
O O12 0.066174 0.412396 0.318078
O O13 0.500000 0.500000 0.500000
#
# Coordination Sequence:
#
# PCOD8007087 Si02
#       6
#     2   2   2   2   2   2
#     4  10  22  41  66  91 115 153 203 248 292 348
#     4  10  20  40  67  87 111 154 205 252 292 339
#     4  12  26  39  58  90 125 159 196 242 297 355
#     4  10  20  40  67  87 111 154 205 252 292 339
#     4  10  22  41  66  91 115 153 203 248 292 348
#     4  12  26  40  58  88 127 162 191 239 302 358
#
# _framework density 20.888513
#
# number of rings (size 3 to 8) (size 9 to 14) (size 15 to 20)
#    0.000    1.333    3.333    2.000    4.667    1.333 
#    0.000    0.000    0.000    0.000    0.000    0.000 
#    0.000    0.000    0.000    0.000    0.000    0.000 
#
# Total GULP energy -148841.611797 kJ/mol
# GULP energy per Si atom -12403.467650 kJ/mol
# Density = 2.084097 g / cm^3
# Si number density = 20.888513 Si / 1000 Ang^3
#
#
#
# Elastic Constant Matrix: (Units=GPa)
#
#
# Indices 1 2 3 4 5 6 
#
# 1 68.4158 27.5228 18.8755 12.8018 34.5390 -1.1044
# 2 27.5228 142.0162 22.9445 2.6859 20.4024 -0.0944
# 3 18.8755 22.9445 71.6879 7.5721 30.2449 12.1418
# 4 12.8018 2.6859 7.5721 29.9992 4.0931 7.3201
# 5 34.5390 20.4024 30.2449 4.0931 38.1371 3.1816
# 6 -1.1044 -0.0944 12.1418 7.3201 3.1816 31.4466
#
#
#
# Elastic Compliance Matrix: (Units=1/GPa)
#
#
# Indices 1 2 3 4 5 6 
#
# 1 0.032400 -0.002448 0.006259 -0.011964 -0.032109 0.004748
# 2 -0.002448 0.007890 -0.001726 0.000754 -0.000758 0.000505
# 3 0.006259 -0.001726 0.023851 -0.004029 -0.022748 -0.005755
# 4 -0.011964 0.000754 -0.004029 0.040273 0.010077 -0.009257
# 5 -0.032109 -0.000758 -0.022748 0.010077 0.072837 -0.002062
# 6 0.004748 0.000505 -0.005755 -0.009257 -0.002062 0.036554
#
#
# Mechanical properties :
#
#
# Convention : Reuss Voigt Hill
#
# Bulk Modulus (GPa) = 14.63897 46.75617 30.69757
# Shear Modulus (GPa) = 21.51410 34.10172 27.80791
#
# Velocity S-wave (km/s) = 3.21276 4.04488 3.65259
# Velocity P-wave (km/s) = 4.55915 6.65184 5.70232
#
# Compressibility (1/GPa) = 0.06831082
#
# Stress axis : x y z
#
# Youngs Moduli (GPa) = 30.86439 126.74737 41.92611
#
# Poissons Ratio (x) = 0.31028 -0.26242
# Poissons Ratio (y) = 0.07556 0.07237
# Poissons Ratio (z) = -0.19318 0.21878
#
# Static dielectric constant tensor:
#      x y z
#    x 3.463840 -0.120390 0.215270 
#    y -0.120390 3.993460 0.140330 
#    z 0.215270 0.140330 4.164730 
# 
# 
# High freq. dielectric constant tensor:
#      x y z
#    x 1.786510 -0.009780 0.019440 
#    y -0.009780 1.835960 0.005790 
#    z 0.019440 0.005790 1.833230 
# 
# From -- ./inp_files/155515.got.cif
#   From: 2010.06.25/outbox.cif.g09.slc.cpg/sg2_78_cif.got.tgz:155515.got - 2010.06.27 13:26:56.
