data_PCOD8007465
_publ_section_title
;
Structure prediction by ZEFSAII (Michael W. Deem and Ramdas Pophale) SiO2 
 PCOD8007465
Probable space group: P -1
;
_chemical_formula_sum "Si O2"
_cell_formula_units_Z 16
_cell_length_a 14.126836
_cell_length_b 9.547399
_cell_length_c 10.095019
_cell_angle_alpha 115.387786
_cell_angle_beta 68.748323
_cell_angle_gamma 132.343682
_cell_volume 903.616164
_symmetry_space_group_name_H-M "P -1"
_symmetry_group_IT_number 2
_symmetry_cell_setting 'triclinic'
loop_
_space_group_symop_operation_xyz
x,y,z
-x,-y,-z
loop_
_atom_site_type_symbol
_atom_site_label
_atom_site_fract_x
_atom_site_fract_y
_atom_site_fract_z
Si Si1 0.773791 0.602214 0.651207
Si Si2 0.505124 0.380428 0.064216
Si Si3 0.012969 0.650821 0.452639
Si Si4 0.699402 0.995490 0.578907
Si Si5 0.299209 0.669372 0.177200
Si Si6 0.086062 0.635710 0.127993
Si Si7 0.503260 0.590767 0.397083
Si Si8 0.251143 0.078123 0.196408
O O1 0.765501 0.501036 0.750633
O O2 0.636536 0.467418 0.589951
O O3 0.812778 0.814695 0.748804
O O4 0.892152 0.651364 0.524949
O O5 0.549214 0.513515 0.228657
O O6 0.366839 0.171173 0.070855
O O7 0.500000 0.500000 0.000000
O O8 0.591995 0.317639 0.953388
O O9 0.002955 0.579529 0.279573
O O10 0.000000 0.500000 0.500000
O O11 0.152407 0.863161 0.491198
O O12 0.605483 0.829884 0.450408
O O13 0.691700 0.882494 0.668211
O O14 0.652852 0.127049 0.692294
O O15 0.196613 0.615326 0.094319
O O16 0.144302 0.850419 0.131726
O O17 0.000000 0.500000 0.000000
O O18 0.500000 0.500000 0.500000
#
# Coordination Sequence:
#
# PCOD8007465 Si02
#       8
#     2   2   2   2   2   2   2   2
#     4  11  19  39  66  86 119 162 200 243 310 354
#     4  11  20  39  62  88 122 163 193 243 314 358
#     4  10  20  41  64  84 121 163 196 245 312 355
#     4  10  21  40  62  92 123 156 204 260 294 356
#     4  10  21  39  64  85 124 162 195 244 316 354
#     4  10  23  42  58  88 124 151 203 255 288 359
#     4  11  22  40  61  94 127 148 211 263 285 358
#     4   9  20  39  62  82 125 155 193 243 312 350
#
# _framework density 17.706634000000001
#
# number of rings (size 3 to 8) (size 9 to 14) (size 15 to 20)
#    0.000    2.000    7.500    0.000    0.000    5.500 
#    6.750    0.625    0.000    0.000    0.000    0.000 
#    0.000    0.000    0.000    0.000    0.000    0.000 
#
# Total GULP energy -198297.469238 kJ/mol
# GULP energy per Si atom -12393.591827 kJ/mol
# Density = 1.766633 g / cm^3
# Si number density = 17.706634 Si / 1000 Ang^3
#
#
#
# Elastic Constant Matrix: (Units=GPa)
#
#
# Indices 1 2 3 4 5 6 
#
# 1 99.0160 50.7925 52.3828 13.2353 -23.6892 4.0847
# 2 50.7925 121.7977 66.7027 2.7507 7.1013 -2.2866
# 3 52.3828 66.7027 117.7247 6.6183 -14.2982 9.5540
# 4 13.2353 2.7507 6.6183 38.3233 5.0810 3.3187
# 5 -23.6892 7.1013 -14.2982 5.0810 46.6124 -1.7845
# 6 4.0847 -2.2866 9.5540 3.3187 -1.7845 36.8864
#
#
#
# Elastic Compliance Matrix: (Units=1/GPa)
#
#
# Indices 1 2 3 4 5 6 
#
# 1 0.018261 -0.006560 -0.002752 -0.006650 0.010136 -0.000627
# 2 -0.006560 0.015320 -0.007158 0.003231 -0.008107 0.002847
# 3 -0.002752 -0.007158 0.014651 -0.001308 0.004190 -0.003613
# 4 -0.006650 0.003231 -0.001308 0.029538 -0.007560 -0.001748
# 5 0.010136 -0.008107 0.004190 -0.007560 0.029927 -0.000582
# 6 -0.000627 0.002847 -0.003613 -0.001748 -0.000582 0.028421
#
#
# Mechanical properties :
#
#
# Convention : Reuss Voigt Hill
#
# Bulk Modulus (GPa) = 65.40683 75.36605 70.38644
# Shear Modulus (GPa) = 28.71002 35.60845 32.15924
#
# Velocity S-wave (km/s) = 4.03106 4.48931 4.26634
# Velocity P-wave (km/s) = 7.66063 8.33834 8.00666
#
# Compressibility (1/GPa) = 0.01528892
#
# Stress axis : x y z
#
# Youngs Moduli (GPa) = 54.76284 65.27600 68.25661
#
# Poissons Ratio (x) = 0.42824 0.18786
# Poissons Ratio (y) = 0.35927 0.48860
# Poissons Ratio (z) = 0.15072 0.46726
#
# Static dielectric constant tensor:
#      x y z
#    x 3.583190 -0.133940 -0.307440 
#    y -0.133940 3.591290 0.050970 
#    z -0.307440 0.050970 3.381780 
# 
# 
# High freq. dielectric constant tensor:
#      x y z
#    x 1.683580 -0.012090 -0.008380 
#    y -0.012090 1.697510 -0.012340 
#    z -0.008380 -0.012340 1.678250 
# 
# From -- ./inp_files/296052.got.cif
#   From: 2010.06.25/outbox.cif.g09.slc.cpg/sg2_149_cif.got.tgz:296052.got - 2010.06.27 13:26:56.
