data_PCOD8007944
_publ_section_title
;
Structure prediction by ZEFSAII (Michael W. Deem and Ramdas Pophale) SiO2 
 PCOD8007944
Probable space group: P -1
;
_chemical_formula_sum "Si O2"
_cell_formula_units_Z 14
_cell_length_a 7.490559
_cell_length_b 6.602056
_cell_length_c 22.559206
_cell_angle_alpha 132.950737
_cell_angle_beta 44.362331
_cell_angle_gamma 117.864188
_cell_volume 570.513783
_symmetry_space_group_name_H-M "P -1"
_symmetry_group_IT_number 2
_symmetry_cell_setting 'triclinic'
loop_
_space_group_symop_operation_xyz
x,y,z
-x,-y,-z
loop_
_atom_site_type_symbol
_atom_site_label
_atom_site_fract_x
_atom_site_fract_y
_atom_site_fract_z
Si Si1 0.163053 0.036965 0.717510
Si Si2 0.676709 0.249284 0.487839
Si Si3 0.733864 0.353609 0.040278
Si Si4 0.273280 0.692000 0.197783
Si Si5 0.406335 0.594106 0.780634
Si Si6 0.987737 0.170037 0.166580
Si Si7 0.254619 0.236792 0.361982
O O1 0.355046 0.282161 0.712352
O O2 0.876016 0.142429 0.786704
O O3 0.273672 0.781470 0.600210
O O4 0.170699 0.951505 0.766447
O O5 0.583661 0.565092 0.591919
O O6 0.955920 0.230659 0.449130
O O7 0.500000 0.000000 0.500000
O O8 0.533072 0.530195 0.081512
O O9 0.610249 0.356915 0.135727
O O10 0.000000 0.500000 0.000000
O O11 0.771481 0.036652 0.947600
O O12 0.088355 0.463712 0.222340
O O13 0.343953 0.910067 0.276738
O O14 0.683125 0.657987 0.699380
O O15 0.196928 0.803500 0.841028
#
# Coordination Sequence:
#
# PCOD8007944 Si02
#       7
#     2   2   2   2   2   2   2
#     4  10  22  44  70  97 138 179 222 285 342 407
#     4  10  20  41  74 102 134 178 226 281 346 408
#     4  12  24  43  67  99 134 185 232 279 338 401
#     4  10  25  42  66  98 138 178 229 279 342 400
#     4  11  23  43  69  96 142 176 229 284 334 403
#     4  11  24  45  66 100 139 185 229 278 339 404
#     4  10  22  42  70 101 136 178 226 283 341 407
#
# _framework density 24.539283999999999
#
# number of rings (size 3 to 8) (size 9 to 14) (size 15 to 20)
#    0.000    1.429    2.857    1.714    4.000    0.571 
#    0.000    1.429    6.286    0.000    0.000    0.000 
#    0.000    0.000    0.000    0.000    0.000    0.000 
#
# Total GULP energy -173434.373331 kJ/mol
# GULP energy per Si atom -12388.169524 kJ/mol
# Density = 2.448343 g / cm^3
# Si number density = 24.539284 Si / 1000 Ang^3
#
#
#
# Elastic Constant Matrix: (Units=GPa)
#
#
# Indices 1 2 3 4 5 6 
#
# 1 52.8811 38.7564 17.2020 -4.6302 6.4451 11.4847
# 2 38.7564 121.5253 46.4586 10.1711 5.4049 27.2206
# 3 17.2020 46.4586 102.0304 4.3180 26.3403 8.4170
# 4 -4.6302 10.1711 4.3180 52.2441 15.1110 6.3897
# 5 6.4451 5.4049 26.3403 15.1110 40.3196 -3.8304
# 6 11.4847 27.2206 8.4170 6.3897 -3.8304 38.0957
#
#
#
# Elastic Compliance Matrix: (Units=1/GPa)
#
#
# Indices 1 2 3 4 5 6 
#
# 1 0.026909 -0.008276 0.001016 0.006336 -0.006625 -0.004152
# 2 -0.008276 0.014344 -0.005502 -0.003479 0.003769 -0.005576
# 3 0.001016 -0.005502 0.014773 0.003078 -0.010343 -0.001196
# 4 0.006336 -0.003479 0.003078 0.024310 -0.012182 -0.005407
# 5 -0.006625 0.003769 -0.010343 -0.012182 0.037381 0.007392
# 6 -0.004152 -0.005576 -0.001196 -0.005407 0.007392 0.033400
#
#
# Mechanical properties :
#
#
# Convention : Reuss Voigt Hill
#
# Bulk Modulus (GPa) = 32.78264 53.47454 43.12859
# Shear Modulus (GPa) = 26.76543 37.73318 32.24931
#
# Velocity S-wave (km/s) = 3.30618 3.92556 3.62911
# Velocity P-wave (km/s) = 5.28798 6.51041 5.93077
#
# Compressibility (1/GPa) = 0.03050395
#
# Stress axis : x y z
#
# Youngs Moduli (GPa) = 37.16213 69.71578 67.68884
#
# Poissons Ratio (x) = 0.57696 -0.06879
# Poissons Ratio (y) = 0.30755 0.37241
# Poissons Ratio (z) = -0.03777 0.38356
#
# Static dielectric constant tensor:
#      x y z
#    x 4.242480 0.306530 -0.020930 
#    y 0.306530 4.581890 0.434110 
#    z -0.020930 0.434110 4.880260 
# 
# 
# High freq. dielectric constant tensor:
#      x y z
#    x 1.956660 0.032090 -0.004910 
#    y 0.032090 1.984520 0.016060 
#    z -0.004910 0.016060 1.979520 
# 
# From -- ./inp_files/605916.got.cif
#   From: 2010.06.25/outbox.cif.g09.slc.cpg/sg2_303_cif.got.tgz:605916.got - 2010.06.27 13:26:56.
