data_PCOD8007894
_publ_section_title
;
Structure prediction by ZEFSAII (Michael W. Deem and Ramdas Pophale) SiO2 
 PCOD8007894
Probable space group: P -1
;
_chemical_formula_sum "Si O2"
_cell_formula_units_Z 10
_cell_length_a 9.585286
_cell_length_b 9.769606
_cell_length_c 8.978300
_cell_angle_alpha 46.289792
_cell_angle_beta 58.122729
_cell_angle_gamma 88.636269
_cell_volume 429.051980
_symmetry_space_group_name_H-M "P -1"
_symmetry_group_IT_number 2
_symmetry_cell_setting 'triclinic'
loop_
_space_group_symop_operation_xyz
x,y,z
-x,-y,-z
loop_
_atom_site_type_symbol
_atom_site_label
_atom_site_fract_x
_atom_site_fract_y
_atom_site_fract_z
Si Si1 0.974906 0.006699 0.334502
Si Si2 0.304664 0.058332 0.939319
Si Si3 0.861551 0.241631 0.023563
Si Si4 0.706242 0.348804 0.616390
Si Si5 0.679768 0.497483 0.835477
O O1 0.864977 0.753028 0.524622
O O2 0.860733 0.131146 0.266290
O O3 0.000000 0.000000 0.500000
O O4 0.179155 0.146681 0.020537
O O5 0.535109 0.270631 0.647661
O O6 0.232771 0.967796 0.881748
O O7 0.268549 0.857951 0.219034
O O8 0.732520 0.350982 0.022071
O O9 0.085297 0.432053 0.710214
O O10 0.626241 0.389198 0.783948
O O11 0.500000 0.500000 0.000000
#
# Coordination Sequence:
#
# PCOD8007894 Si02
#       5
#     2   2   2   2   2
#     4  12  25  42  65 100 137 173 224 276 329 389
#     4  10  20  41  70  99 130 169 226 269 322 406
#     4  11  23  45  71  94 133 179 220 272 329 391
#     4  10  20  41  73  98 127 176 223 268 329 396
#     4  11  23  44  66  99 139 171 216 280 332 391
#
# _framework density 23.307202
#
# number of rings (size 3 to 8) (size 9 to 14) (size 15 to 20)
#    0.000    1.200    4.000    3.000    0.000    2.400 
#    3.600    0.000    0.000    0.000    0.000    0.000 
#    0.000    0.000    0.000    0.000    0.000    0.000 
#
# Total GULP energy -123979.958195 kJ/mol
# GULP energy per Si atom -12397.995819 kJ/mol
# Density = 2.325415 g / cm^3
# Si number density = 23.307202 Si / 1000 Ang^3
#
#
#
# Elastic Constant Matrix: (Units=GPa)
#
#
# Indices 1 2 3 4 5 6 
#
# 1 174.9493 68.7145 69.1965 -1.7350 6.7132 -1.1854
# 2 68.7145 83.0981 40.1477 -3.0878 -6.0575 -15.5738
# 3 69.1965 40.1477 38.7141 0.1195 -2.1983 11.1549
# 4 -1.7350 -3.0878 0.1195 31.7632 -1.2982 -10.6090
# 5 6.7132 -6.0575 -2.1983 -1.2982 51.8294 -8.6292
# 6 -1.1854 -15.5738 11.1549 -10.6090 -8.6292 44.7382
#
#
#
# Elastic Compliance Matrix: (Units=1/GPa)
#
#
# Indices 1 2 3 4 5 6 
#
# 1 0.051128 0.051629 -0.164567 0.031584 0.004669 0.068750
# 2 0.051629 0.107439 -0.235523 0.052563 0.016018 0.113047
# 3 -0.164567 -0.235523 0.644679 -0.130246 -0.029354 -0.283638
# 4 0.031584 0.052563 -0.130246 0.061944 0.009420 0.068116
# 5 0.004669 0.016018 -0.029354 0.009420 0.022825 0.019655
# 6 0.068750 0.113047 -0.283638 0.068116 0.019655 0.154192
#
#
# Mechanical properties :
#
#
# Convention : Reuss Voigt Hill
#
# Bulk Modulus (GPa) = 9.40529 72.54208 40.97368
# Shear Modulus (GPa) = 2.81759 33.57966 18.19862
#
# Velocity S-wave (km/s) = 1.10069 3.79983 2.79734
# Velocity P-wave (km/s) = 2.37896 7.10236 5.29636
#
# Compressibility (1/GPa) = 0.10632319
#
# Stress axis : x y z
#
# Youngs Moduli (GPa) = 19.55894 9.30762 1.55116
#
# Poissons Ratio (x) = -0.48054 0.25527
# Poissons Ratio (y) = -1.00981 0.36533
# Poissons Ratio (z) = 3.21875 2.19216
#
# Static dielectric constant tensor:
#      x y z
#    x 4.647360 -0.007250 -0.176540 
#    y -0.007250 4.409780 -0.694710 
#    z -0.176540 -0.694710 4.232940 
# 
# 
# High freq. dielectric constant tensor:
#      x y z
#    x 1.941850 -0.006050 -0.009160 
#    y -0.006050 1.913510 -0.022740 
#    z -0.009160 -0.022740 1.904940 
# 
# From -- ./inp_files/143946.got.cif
#   From: 2010.06.25/outbox.cif.g09.slc.cpg/sg2_72_cif.got.tgz:143946.got - 2010.06.27 13:26:56.
