data_PCOD8007824
_publ_section_title
;
Structure prediction by ZEFSAII (Michael W. Deem and Ramdas Pophale) SiO2 
 PCOD8007824
Probable space group: P -1
;
_chemical_formula_sum "Si O2"
_cell_formula_units_Z 16
_cell_length_a 10.793576
_cell_length_b 7.418964
_cell_length_c 9.520739
_cell_angle_alpha 89.884616
_cell_angle_beta 91.803159
_cell_angle_gamma 119.695042
_cell_volume 661.863008
_symmetry_space_group_name_H-M "P -1"
_symmetry_group_IT_number 2
_symmetry_cell_setting 'triclinic'
loop_
_space_group_symop_operation_xyz
x,y,z
-x,-y,-z
loop_
_atom_site_type_symbol
_atom_site_label
_atom_site_fract_x
_atom_site_fract_y
_atom_site_fract_z
Si Si1 0.653578 0.172110 0.141591
Si Si2 0.308395 0.458455 0.311132
Si Si3 0.165155 0.072592 0.500485
Si Si4 0.747341 0.702910 0.988091
Si Si5 0.619991 0.750490 0.254376
Si Si6 0.647752 0.978439 0.864731
Si Si7 0.936601 0.568218 0.124777
Si Si8 0.183616 0.736338 0.355649
O O1 0.516963 0.207291 0.155873
O O2 0.797421 0.376092 0.191355
O O3 0.625114 0.966501 0.222168
O O4 0.663314 0.150337 0.975566
O O5 0.245210 0.225952 0.370317
O O6 0.478793 0.598820 0.339594
O O7 0.218196 0.551484 0.387617
O O8 0.293477 0.462232 0.140243
O O9 0.242898 0.194710 0.644138
O O10 0.170316 0.856179 0.490703
O O11 0.000000 0.000000 0.500000
O O12 0.631401 0.642426 0.110584
O O13 0.894059 0.734807 0.061386
O O14 0.761384 0.907355 0.914335
O O15 0.679356 0.087326 0.717237
O O16 0.045236 0.665048 0.254993
O O17 0.000000 0.500000 0.000000
#
# Coordination Sequence:
#
# PCOD8007824 Si02
#       8
#     2   2   2   2   2   2   2   2
#     4  10  22  40  68 103 149 179 238 299 361 428
#     4  12  25  48  81 107 142 189 247 304 364 429
#     4  12  30  53  70 104 152 196 243 297 360 445
#     4  11  24  41  76 112 146 183 237 308 364 421
#     4  11  26  48  74 109 144 190 242 300 369 429
#     4  10  20  41  69 104 143 184 232 305 359 420
#     4  12  24  38  64 108 147 187 238 291 361 427
#     4  12  25  48  72 105 144 196 244 295 364 430
#
# _framework density 24.174187
#
# number of rings (size 3 to 8) (size 9 to 14) (size 15 to 20)
#    0.000    0.750    5.000    1.500    7.000    1.500 
#    2.250    0.000    0.000    0.000    0.000    0.000 
#    0.000    0.000    0.000    0.000    0.000    0.000 
#
# Total GULP energy -198256.966152 kJ/mol
# GULP energy per Si atom -12391.060385 kJ/mol
# Density = 2.411917 g / cm^3
# Si number density = 24.174187 Si / 1000 Ang^3
#
#
#
# Elastic Constant Matrix: (Units=GPa)
#
#
# Indices 1 2 3 4 5 6 
#
# 1 108.3741 28.9346 20.2925 8.7362 11.2520 2.1730
# 2 28.9346 82.8520 25.7152 5.8503 0.2726 9.6720
# 3 20.2925 25.7152 78.4982 10.8109 -1.7467 9.7387
# 4 8.7362 5.8503 10.8109 30.2826 -1.8199 4.6431
# 5 11.2520 0.2726 -1.7467 -1.8199 31.1483 4.6297
# 6 2.1730 9.6720 9.7387 4.6431 4.6297 43.4179
#
#
#
# Elastic Compliance Matrix: (Units=1/GPa)
#
#
# Indices 1 2 3 4 5 6 
#
# 1 0.011050 -0.003297 -0.001703 -0.002404 -0.004390 0.001289
# 2 -0.003297 0.014623 -0.003593 -0.000151 0.001209 -0.002399
# 3 -0.001703 -0.003593 0.015199 -0.003792 0.001618 -0.002290
# 4 -0.002404 -0.000151 -0.003792 0.035777 0.003218 -0.003165
# 5 -0.004390 0.001209 0.001618 0.003218 0.034620 -0.004448
# 6 0.001289 -0.002399 -0.002290 -0.003165 -0.004448 0.024829
#
#
# Mechanical properties :
#
#
# Convention : Reuss Voigt Hill
#
# Bulk Modulus (GPa) = 42.21742 46.62322 44.42032
# Shear Modulus (GPa) = 31.02157 33.95523 32.48840
#
# Velocity S-wave (km/s) = 3.58614 3.75187 3.66994
# Velocity P-wave (km/s) = 5.88633 6.17228 6.03100
#
# Compressibility (1/GPa) = 0.02368691
#
# Stress axis : x y z
#
# Youngs Moduli (GPa) = 90.49618 68.38591 65.79482
#
# Poissons Ratio (x) = 0.22545 0.11205
# Poissons Ratio (y) = 0.29834 0.23638
# Poissons Ratio (z) = 0.15412 0.24569
#
# Static dielectric constant tensor:
#      x y z
#    x 4.664700 -0.091250 -0.024370 
#    y -0.091250 4.273290 0.052550 
#    z -0.024370 0.052550 4.180450 
# 
# 
# High freq. dielectric constant tensor:
#      x y z
#    x 1.976890 -0.003530 -0.000240 
#    y -0.003530 1.951600 0.000040 
#    z -0.000240 0.000040 1.939930 
# 
# From -- ./inp_files/417399.got.cif
#   From: 2010.06.25/outbox.cif.g09.slc.cpg/sg2_209_cif.got.tgz:417399.got - 2010.06.27 13:26:56.
