data_PCOD8007632
_publ_section_title
;
Structure prediction by ZEFSAII (Michael W. Deem and Ramdas Pophale) SiO2 
 PCOD8007632
Probable space group: P -1
;
_chemical_formula_sum "Si O2"
_cell_formula_units_Z 16
_cell_length_a 11.907158
_cell_length_b 8.638353
_cell_length_c 9.442430
_cell_angle_alpha 74.698658
_cell_angle_beta 127.269465
_cell_angle_gamma 93.530159
_cell_volume 739.374164
_symmetry_space_group_name_H-M "P -1"
_symmetry_group_IT_number 2
_symmetry_cell_setting 'triclinic'
loop_
_space_group_symop_operation_xyz
x,y,z
-x,-y,-z
loop_
_atom_site_type_symbol
_atom_site_label
_atom_site_fract_x
_atom_site_fract_y
_atom_site_fract_z
Si Si1 0.792767 0.681523 0.430028
Si Si2 0.242023 0.839283 0.012049
Si Si3 0.205265 0.223396 0.918037
Si Si4 0.240815 0.680622 0.523193
Si Si5 0.939476 0.182281 0.879907
Si Si6 0.529909 0.786565 0.700821
Si Si7 0.467548 0.162493 0.631216
Si Si8 0.068560 0.816252 0.621015
O O1 0.792790 0.704822 0.254736
O O2 0.770878 0.499885 0.494098
O O3 0.670355 0.801628 0.384235
O O4 0.941806 0.719505 0.600898
O O5 0.128803 0.751724 0.039346
O O6 0.403158 0.774204 0.196818
O O7 0.204561 0.800824 0.832106
O O8 0.220509 0.031129 0.970233
O O9 0.058075 0.282288 0.876840
O O10 0.329522 0.287781 0.089291
O O11 0.196158 0.807121 0.331564
O O12 0.402761 0.694455 0.684773
O O13 0.127702 0.730520 0.545766
O O14 0.000000 0.000000 0.000000
O O15 0.552570 0.752084 0.558505
O O16 0.494028 0.973038 0.668299
O O17 0.000000 0.000000 0.500000
#
# Coordination Sequence:
#
# PCOD8007632 Si02
#       8
#     2   2   2   2   2   2   2   2
#     4  12  26  42  63  98 139 169 209 269 335 385
#     4  10  21  40  67  96 123 166 225 274 309 374
#     4  10  22  39  65  99 129 167 213 272 317 384
#     4  12  25  44  65  94 137 172 209 271 329 390
#     4  10  20  41  66  91 126 165 217 268 315 372
#     4  10  23  42  69  94 124 176 224 264 315 378
#     4  10  23  42  66  97 128 167 226 271 311 384
#     4  12  23  42  68  97 124 173 220 268 320 383
#
# _framework density 21.639923
#
# number of rings (size 3 to 8) (size 9 to 14) (size 15 to 20)
#    0.000    1.250    3.750    1.875    5.250    2.000 
#    0.000    0.625    0.000    0.000    0.000    0.000 
#    0.000    0.000    0.000    0.000    0.000    0.000 
#
# Total GULP energy -198334.424730 kJ/mol
# GULP energy per Si atom -12395.901546 kJ/mol
# Density = 2.159067 g / cm^3
# Si number density = 21.639923 Si / 1000 Ang^3
#
#
#
# Elastic Constant Matrix: (Units=GPa)
#
#
# Indices 1 2 3 4 5 6 
#
# 1 104.3841 19.3765 26.3770 -0.2303 4.7016 13.9821
# 2 19.3765 48.5038 24.9617 12.7695 4.4541 9.6232
# 3 26.3770 24.9617 133.9376 19.8919 5.5745 9.9409
# 4 -0.2303 12.7695 19.8919 18.7349 8.4070 4.3904
# 5 4.7016 4.4541 5.5745 8.4070 34.7086 10.9946
# 6 13.9821 9.6232 9.9409 4.3904 10.9946 23.6392
#
#
#
# Elastic Compliance Matrix: (Units=1/GPa)
#
#
# Indices 1 2 3 4 5 6 
#
# 1 0.011646 -0.004270 -0.002093 0.006807 -0.000691 -0.005213
# 2 -0.004270 0.028927 -0.001479 -0.018238 0.003731 -0.006976
# 3 -0.002093 -0.001479 0.009611 -0.009687 0.001646 -0.001168
# 4 0.006807 -0.018238 -0.009687 0.083974 -0.017348 -0.000056
# 5 -0.000691 0.003731 0.001646 -0.017348 0.037428 -0.015988
# 6 -0.005213 -0.006976 -0.001168 -0.000056 -0.015988 0.056164
#
#
# Mechanical properties :
#
#
# Convention : Reuss Voigt Hill
#
# Bulk Modulus (GPa) = 28.98577 47.58401 38.28489
# Shear Modulus (GPa) = 19.61303 29.82388 24.71845
#
# Velocity S-wave (km/s) = 3.01381 3.71642 3.38340
# Velocity P-wave (km/s) = 5.05315 6.36022 5.74399
#
# Compressibility (1/GPa) = 0.03449969
#
# Stress axis : x y z
#
# Youngs Moduli (GPa) = 85.86724 34.57027 104.04890
#
# Poissons Ratio (x) = 0.14760 0.21779
# Poissons Ratio (y) = 0.36662 0.15390
# Poissons Ratio (z) = 0.17973 0.05113
#
# Static dielectric constant tensor:
#      x y z
#    x 4.545470 0.025130 0.450460 
#    y 0.025130 3.618850 -0.064430 
#    z 0.450460 -0.064430 4.667590 
# 
# 
# High freq. dielectric constant tensor:
#      x y z
#    x 1.867290 0.004980 0.005050 
#    y 0.004980 1.812360 0.006900 
#    z 0.005050 0.006900 1.860830 
# 
# From -- ./inp_files/243703.got.cif
#   From: 2010.06.25/outbox.cif.g09.slc.cpg/sg2_122_cif.got.tgz:243703.got - 2010.06.27 13:26:56.
