data_PCOD8007302
_publ_section_title
;
Structure prediction by ZEFSAII (Michael W. Deem and Ramdas Pophale) SiO2 
 PCOD8007302
Probable space group: P -1
;
_chemical_formula_sum "Si O2"
_cell_formula_units_Z 16
_cell_length_a 18.242984
_cell_length_b 9.317120
_cell_length_c 17.385002
_cell_angle_alpha 143.940634
_cell_angle_beta 150.268323
_cell_angle_gamma 29.854313
_cell_volume 710.983439
_symmetry_space_group_name_H-M "P -1"
_symmetry_group_IT_number 2
_symmetry_cell_setting 'triclinic'
loop_
_space_group_symop_operation_xyz
x,y,z
-x,-y,-z
loop_
_atom_site_type_symbol
_atom_site_label
_atom_site_fract_x
_atom_site_fract_y
_atom_site_fract_z
Si Si1 0.263559 0.342339 0.122521
Si Si2 0.396784 0.578619 0.757596
Si Si3 0.731664 0.460733 0.948664
Si Si4 0.530516 0.998202 0.346649
Si Si5 0.910958 0.806280 0.776425
Si Si6 0.064240 0.100418 0.765001
Si Si7 0.285933 0.441008 0.447714
Si Si8 0.863040 0.022817 0.662641
O O1 0.344176 0.357000 0.120660
O O2 0.412387 0.074380 0.195168
O O3 0.197597 0.640313 0.237247
O O4 0.103468 0.298946 0.941078
O O5 0.575357 0.581059 0.922184
O O6 0.369578 0.558878 0.632969
O O7 0.237467 0.888853 0.779747
O O8 0.418283 0.317696 0.715156
O O9 0.822359 0.111889 0.872763
O O10 0.899885 0.466328 0.133997
O O11 0.429672 0.238197 0.426247
O O12 0.701540 0.999909 0.478589
O O13 0.760903 0.739656 0.617116
O O14 0.951565 0.832875 0.737154
O O15 0.894374 0.297584 0.641705
O O16 0.018675 0.900001 0.686971
#
# Coordination Sequence:
#
# PCOD8007302 Si02
#       8
#     2   2   2   2   2   2   2   2
#     4  11  24  43  69 101 130 175 224 281 325 394
#     4  12  27  45  65 101 140 179 216 274 338 402
#     4  10  22  40  68 100 130 168 223 278 332 381
#     4  12  25  43  74 101 131 174 228 281 326 391
#     4  10  20  40  71  97 125 169 230 282 313 385
#     4  12  28  44  66  98 144 179 215 271 343 399
#     4  12  22  47  69  99 128 178 231 277 322 391
#     4  11  24  43  69 102 130 177 227 276 330 387
#
# _framework density 22.504038999999999
#
# number of rings (size 3 to 8) (size 9 to 14) (size 15 to 20)
#    0.000    0.750    5.000    3.000    3.500    1.500 
#    0.000    0.000    0.000    0.000    0.000    0.000 
#    0.000    0.000    0.000    0.000    0.000    0.000 
#
# Total GULP energy -198389.924061 kJ/mol
# GULP energy per Si atom -12399.370254 kJ/mol
# Density = 2.245282 g / cm^3
# Si number density = 22.504039 Si / 1000 Ang^3
#
#
#
# Elastic Constant Matrix: (Units=GPa)
#
#
# Indices 1 2 3 4 5 6 
#
# 1 79.8637 3.3192 0.9166 0.1174 23.5599 -1.0935
# 2 3.3192 46.4332 -2.8206 -8.8550 -11.8397 -1.6051
# 3 0.9166 -2.8206 64.3785 -8.6274 8.9630 5.3667
# 4 0.1174 -8.8550 -8.6274 24.3990 7.3230 2.9122
# 5 23.5599 -11.8397 8.9630 7.3230 43.8419 -10.0066
# 6 -1.0935 -1.6051 5.3667 2.9122 -10.0066 30.2472
#
#
#
# Elastic Compliance Matrix: (Units=1/GPa)
#
#
# Indices 1 2 3 4 5 6 
#
# 1 0.015932 -0.003431 0.001978 0.003267 -0.011358 -0.004029
# 2 -0.003431 0.025266 0.000638 0.006584 0.008160 0.003169
# 3 0.001978 0.000638 0.018524 0.009941 -0.007878 -0.006745
# 4 0.003267 0.006584 0.009941 0.052092 -0.013144 -0.010660
# 5 -0.011358 0.008160 -0.007878 -0.013144 0.038438 0.015402
# 6 -0.004029 0.003169 -0.006745 -0.010660 0.015402 0.040402
#
#
# Mechanical properties :
#
#
# Convention : Reuss Voigt Hill
#
# Bulk Modulus (GPa) = 17.21412 21.50066 19.35739
# Shear Modulus (GPa) = 23.62415 32.31496 27.96955
#
# Velocity S-wave (km/s) = 3.24354 3.79352 3.52926
# Velocity P-wave (km/s) = 4.65761 5.36308 5.02274
#
# Compressibility (1/GPa) = 0.05809185
#
# Stress axis : x y z
#
# Youngs Moduli (GPa) = 62.76756 39.57850 53.98351
#
# Poissons Ratio (x) = 0.13579 -0.10677
# Poissons Ratio (y) = 0.21535 -0.03444
# Poissons Ratio (z) = -0.12414 -0.02525
#
# Static dielectric constant tensor:
#      x y z
#    x 4.184160 0.169690 0.179650 
#    y 0.169690 3.827090 -0.188570 
#    z 0.179650 -0.188570 4.240560 
# 
# 
# High freq. dielectric constant tensor:
#      x y z
#    x 1.896940 0.020550 0.015310 
#    y 0.020550 1.865960 -0.015040 
#    z 0.015310 -0.015040 1.893580 
# 
# From -- ./inp_files/207378.got.cif
#   From: 2010.06.25/outbox.cif.g09.slc.cpg/sg2_104_cif.got.tgz:207378.got - 2010.06.27 13:26:56.
