data_PCOD8007852
_publ_section_title
;
Structure prediction by ZEFSAII (Michael W. Deem and Ramdas Pophale) SiO2 
 PCOD8007852
Probable space group: P -1
;
_chemical_formula_sum "Si O2"
_cell_formula_units_Z 12
_cell_length_a 11.282522
_cell_length_b 9.056704
_cell_length_c 9.208396
_cell_angle_alpha 130.428019
_cell_angle_beta 107.618726
_cell_angle_gamma 104.693349
_cell_volume 535.533627
_symmetry_space_group_name_H-M "P -1"
_symmetry_group_IT_number 2
_symmetry_cell_setting 'triclinic'
loop_
_space_group_symop_operation_xyz
x,y,z
-x,-y,-z
loop_
_atom_site_type_symbol
_atom_site_label
_atom_site_fract_x
_atom_site_fract_y
_atom_site_fract_z
Si Si1 0.059850 0.070938 0.729454
Si Si2 0.663079 0.403057 0.818561
Si Si3 0.937577 0.588558 0.858561
Si Si4 0.395815 0.281005 0.437263
Si Si5 0.841203 0.619257 0.525411
Si Si6 0.750040 0.258655 0.021589
O O1 0.008135 0.823672 0.634647
O O2 0.000000 0.000000 0.500000
O O3 0.248791 0.300626 0.944579
O O4 0.978231 0.163910 0.853896
O O5 0.776129 0.366685 0.740597
O O6 0.496939 0.279713 0.602100
O O7 0.637187 0.276531 0.884906
O O8 0.878515 0.614273 0.700826
O O9 0.071248 0.554546 0.862806
O O10 0.500000 0.500000 0.500000
O O11 0.273642 0.307593 0.483787
O O12 0.306539 0.017272 0.155163
O O13 0.755135 0.355744 0.245963
#
# Coordination Sequence:
#
# PCOD8007852 Si02
#       6
#     2   2   2   2   2   2
#     4  10  20  41  69  98 127 169 224 268 330 387
#     4  10  23  42  68  97 134 177 215 275 336 385
#     4  10  22  41  69  96 136 169 218 285 321 382
#     4  12  25  46  67  92 142 179 218 274 328 397
#     4  12  23  44  69 102 131 176 225 270 334 394
#     4  12  25  42  69  99 133 176 224 272 333 392
#
# _framework density 22.407557000000001
#
# number of rings (size 3 to 8) (size 9 to 14) (size 15 to 20)
#    1.000    0.000    5.000    2.000    2.333    1.333 
#    0.000    0.000    0.000    0.000    0.000    0.000 
#    0.000    0.000    0.000    0.000    0.000    0.000 
#
# Total GULP energy -148670.190787 kJ/mol
# GULP energy per Si atom -12389.182566 kJ/mol
# Density = 2.235656 g / cm^3
# Si number density = 22.407557 Si / 1000 Ang^3
#
#
#
# Elastic Constant Matrix: (Units=GPa)
#
#
# Indices 1 2 3 4 5 6 
#
# 1 67.9087 16.4973 54.9232 -7.6085 -0.8680 -17.9898
# 2 16.4973 79.1294 39.3534 -8.3961 -10.0492 5.1079
# 3 54.9232 39.3534 145.1467 -6.6662 -28.7866 -2.5926
# 4 -7.6085 -8.3961 -6.6662 50.6101 -0.0772 1.0236
# 5 -0.8680 -10.0492 -28.7866 -0.0772 35.6731 -4.3377
# 6 -17.9898 5.1079 -2.5926 1.0236 -4.3377 27.1039
#
#
#
# Elastic Compliance Matrix: (Units=1/GPa)
#
#
# Indices 1 2 3 4 5 6 
#
# 1 0.029383 -0.002206 -0.011503 0.002169 -0.007043 0.017609
# 2 -0.002206 0.015264 -0.003051 0.001892 0.001240 -0.004506
# 3 -0.011503 -0.003051 0.013874 -0.000309 0.009545 -0.004193
# 4 0.002169 0.001892 -0.000309 0.020352 0.000423 0.000353
# 5 -0.007043 0.001240 0.009545 0.000423 0.036129 0.001771
# 6 0.017609 -0.004506 -0.004193 0.000353 0.001771 0.049301
#
#
# Mechanical properties :
#
#
# Convention : Reuss Voigt Hill
#
# Bulk Modulus (GPa) = 40.00060 57.08141 48.54101
# Shear Modulus (GPa) = 24.25351 34.77147 29.51249
#
# Velocity S-wave (km/s) = 3.29352 3.94353 3.63309
# Velocity P-wave (km/s) = 5.68799 6.80182 6.26969
#
# Compressibility (1/GPa) = 0.02499963
#
# Stress axis : x y z
#
# Youngs Moduli (GPa) = 34.03371 65.51332 72.07942
#
# Poissons Ratio (x) = 0.14453 0.82912
# Poissons Ratio (y) = 0.07508 0.21994
# Poissons Ratio (z) = 0.39149 0.19991
#
# Static dielectric constant tensor:
#      x y z
#    x 3.876210 0.123860 0.033700 
#    y 0.123860 3.944790 0.062070 
#    z 0.033700 0.062070 4.175130 
# 
# 
# High freq. dielectric constant tensor:
#      x y z
#    x 1.854610 0.006350 -0.001670 
#    y 0.006350 1.880410 -0.009210 
#    z -0.001670 -0.009210 1.893330 
# 
# From -- ./inp_files/146134.got.cif
#   From: 2010.06.25/outbox.cif.g09.slc.cpg/sg2_74_cif.got.tgz:146134.got - 2010.06.27 13:26:56.
