data_PCOD8007873
_publ_section_title
;
Structure prediction by ZEFSAII (Michael W. Deem and Ramdas Pophale) SiO2 
 PCOD8007873
Probable space group: P -1
;
_chemical_formula_sum "Si O2"
_cell_formula_units_Z 16
_cell_length_a 11.309407
_cell_length_b 19.318990
_cell_length_c 16.352341
_cell_angle_alpha 21.705821
_cell_angle_beta 133.087756
_cell_angle_gamma 143.958133
_cell_volume 738.358419
_symmetry_space_group_name_H-M "P -1"
_symmetry_group_IT_number 2
_symmetry_cell_setting 'triclinic'
loop_
_space_group_symop_operation_xyz
x,y,z
-x,-y,-z
loop_
_atom_site_type_symbol
_atom_site_label
_atom_site_fract_x
_atom_site_fract_y
_atom_site_fract_z
Si Si1 0.212737 0.612152 0.299432
Si Si2 0.571398 0.072460 0.334591
Si Si3 0.152705 0.758581 0.571456
Si Si4 0.634082 0.678403 0.791271
Si Si5 0.329227 0.100889 0.847633
Si Si6 0.199845 0.235265 0.793041
Si Si7 0.930812 0.908754 0.397786
Si Si8 0.605130 0.464812 0.840716
O O1 0.417550 0.689012 0.262483
O O2 0.146110 0.411431 0.556261
O O3 0.022411 0.506347 0.261362
O O4 0.265430 0.840227 0.122331
O O5 0.732570 0.254455 0.283371
O O6 0.331175 0.941268 0.389044
O O7 0.594836 0.871007 0.545935
O O8 0.624126 0.251509 0.087813
O O9 0.038262 0.863525 0.428299
O O10 0.567594 0.519187 0.853679
O O11 0.500000 0.500000 0.000000
O O12 0.883418 0.831087 0.758224
O O13 0.231520 0.157700 0.807310
O O14 0.241603 0.087748 0.730662
O O15 0.406830 0.375850 0.790984
O O16 0.000000 0.000000 0.000000
O O17 0.819843 0.701128 0.642824
#
# Coordination Sequence:
#
# PCOD8007873 Si02
#       8
#     2   2   2   2   2   2   2   2
#     4  11  23  43  70  98 126 182 221 270 329 391
#     4  10  24  42  63 103 130 175 222 270 328 398
#     4  10  20  41  70  94 132 173 225 263 332 387
#     4  11  26  44  70  99 133 177 221 273 332 394
#     4  11  25  44  68  99 130 177 229 265 328 395
#     4  12  26  43  68  99 138 171 220 277 330 389
#     4  11  23  44  70  97 136 175 220 277 326 393
#     4  12  25  44  66  99 140 171 219 276 332 392
#
# _framework density 21.669692000000001
#
# number of rings (size 3 to 8) (size 9 to 14) (size 15 to 20)
#    0.000    1.000    2.500    4.500    5.250    3.500 
#    2.250    0.000    0.000    0.000    0.000    0.000 
#    0.000    0.000    0.000    0.000    0.000    0.000 
#
# Total GULP energy -198442.476402 kJ/mol
# GULP energy per Si atom -12402.654775 kJ/mol
# Density = 2.162037 g / cm^3
# Si number density = 21.669692 Si / 1000 Ang^3
#
#
#
# Elastic Constant Matrix: (Units=GPa)
#
#
# Indices 1 2 3 4 5 6 
#
# 1 59.6044 31.1156 45.3392 3.2224 -5.7019 0.6725
# 2 31.1156 107.8066 27.6434 -8.8409 -6.7382 14.3163
# 3 45.3392 27.6434 141.3143 3.7828 -11.0745 6.4291
# 4 3.2224 -8.8409 3.7828 31.4710 6.2018 -5.3883
# 5 -5.7019 -6.7382 -11.0745 6.2018 26.0596 -7.2710
# 6 0.6725 14.3163 6.4291 -5.3883 -7.2710 30.8478
#
#
#
# Elastic Compliance Matrix: (Units=1/GPa)
#
#
# Indices 1 2 3 4 5 6 
#
# 1 0.025710 -0.006273 -0.006869 -0.003496 0.002998 0.003879
# 2 -0.006273 0.012046 -0.000249 0.003314 -0.000533 -0.004949
# 3 -0.006869 -0.000249 0.009615 -0.001237 0.002428 -0.001383
# 4 -0.003496 0.003314 -0.001237 0.035313 -0.007977 0.003084
# 5 0.002998 -0.000533 0.002428 -0.007977 0.044253 0.008713
# 6 0.003879 -0.004949 -0.001383 0.003084 0.008713 0.037510
#
#
# Mechanical properties :
#
#
# Convention : Reuss Voigt Hill
#
# Bulk Modulus (GPa) = 48.57339 57.43572 53.00456
# Shear Modulus (GPa) = 25.24069 31.31749 28.27909
#
# Velocity S-wave (km/s) = 3.41661 3.80573 3.61641
# Velocity P-wave (km/s) = 6.16671 6.77304 6.47697
#
# Compressibility (1/GPa) = 0.02058740
#
# Stress axis : x y z
#
# Youngs Moduli (GPa) = 38.89609 83.01537 104.00010
#
# Poissons Ratio (x) = 0.52078 0.71442
# Poissons Ratio (y) = 0.24401 0.02590
# Poissons Ratio (z) = 0.26719 0.02067
#
# Static dielectric constant tensor:
#      x y z
#    x 3.647350 0.089560 -0.081980 
#    y 0.089560 4.172960 -0.076890 
#    z -0.081980 -0.076890 4.001500 
# 
# 
# High freq. dielectric constant tensor:
#      x y z
#    x 1.832970 0.011070 -0.001330 
#    y 0.011070 1.868590 -0.006090 
#    z -0.001330 -0.006090 1.861620 
# 
# From -- ./inp_files/470230.got.cif
#   From: 2010.06.25/outbox.cif.g09.slc.cpg/sg2_236_cif.got.tgz:470230.got - 2010.06.27 13:26:56.
