data_PCOD8007137
_publ_section_title
;
Structure prediction by ZEFSAII (Michael W. Deem and Ramdas Pophale) SiO2 
 PCOD8007137
Probable space group: P -1
;
_chemical_formula_sum "Si O2"
_cell_formula_units_Z 16
_cell_length_a 7.470371
_cell_length_b 15.930792
_cell_length_c 10.820547
_cell_angle_alpha 137.071717
_cell_angle_beta 120.451120
_cell_angle_gamma 79.787274
_cell_volume 713.711544
_symmetry_space_group_name_H-M "P -1"
_symmetry_group_IT_number 2
_symmetry_cell_setting 'triclinic'
loop_
_space_group_symop_operation_xyz
x,y,z
-x,-y,-z
loop_
_atom_site_type_symbol
_atom_site_label
_atom_site_fract_x
_atom_site_fract_y
_atom_site_fract_z
Si Si1 0.452825 0.798002 0.334557
Si Si2 0.284969 0.379924 0.673538
Si Si3 0.459318 0.290583 0.268512
Si Si4 0.643968 0.068492 0.786516
Si Si5 0.936939 0.453058 0.062716
Si Si6 0.072420 0.033554 0.918190
Si Si7 0.161330 0.796439 0.744294
Si Si8 0.416288 0.476088 0.273361
O O1 0.635433 0.727285 0.342916
O O2 0.466054 0.853403 0.258792
O O3 0.485240 0.916436 0.572709
O O4 0.210217 0.697690 0.158424
O O5 0.191568 0.461733 0.823847
O O6 0.497946 0.484266 0.793867
O O7 0.085486 0.305308 0.428572
O O8 0.697626 0.276418 0.358169
O O9 0.446857 0.338436 0.173875
O O10 0.425013 0.402573 0.462942
O O11 0.281250 0.158001 0.104085
O O12 0.871811 0.055840 0.796715
O O13 0.702008 0.142332 0.017518
O O14 0.169521 0.463013 0.213927
O O15 0.000000 0.500000 0.000000
O O16 0.137875 0.908792 0.764233
O O17 0.000000 0.000000 0.000000
#
# Coordination Sequence:
#
# PCOD8007137 Si02
#       8
#     2   2   2   2   2   2   2   2
#     4  11  24  44  68 100 140 183 234 275 351 413
#     4  12  25  46  75 100 138 188 232 285 351 416
#     4  11  24  42  65 107 141 171 232 295 347 408
#     4  10  23  42  70 101 133 183 226 292 343 410
#     4  12  26  44  70 100 136 188 231 280 340 425
#     4  10  20  40  67  96 134 180 224 283 346 407
#     4  11  23  41  72 103 135 179 233 290 347 409
#     4  11  25  44  68 102 142 180 228 291 344 410
#
# _framework density 22.418019999999999
#
# number of rings (size 3 to 8) (size 9 to 14) (size 15 to 20)
#    0.000    1.000    3.750    3.000    3.500    1.500 
#    2.250    0.000    0.000    3.750    0.000    0.000 
#    0.000    0.000    0.000    0.000    0.000    0.000 
#
# Total GULP energy -198218.423276 kJ/mol
# GULP energy per Si atom -12388.651455 kJ/mol
# Density = 2.236700 g / cm^3
# Si number density = 22.418020 Si / 1000 Ang^3
#
#
#
# Elastic Constant Matrix: (Units=GPa)
#
#
# Indices 1 2 3 4 5 6 
#
# 1 122.9769 64.6252 44.5596 21.3591 9.0541 -8.4097
# 2 64.6252 123.4063 31.1264 18.1195 7.2982 -13.5347
# 3 44.5596 31.1264 118.9247 8.4051 21.6292 10.5225
# 4 21.3591 18.1195 8.4051 37.6331 4.7569 3.8043
# 5 9.0541 7.2982 21.6292 4.7569 34.8862 1.7719
# 6 -8.4097 -13.5347 10.5225 3.8043 1.7719 30.4218
#
#
#
# Elastic Compliance Matrix: (Units=1/GPa)
#
#
# Indices 1 2 3 4 5 6 
#
# 1 0.013004 -0.004891 -0.003617 -0.004588 0.000353 0.003223
# 2 -0.004891 0.012063 -0.001513 -0.003177 -0.000134 0.004943
# 3 -0.003617 -0.001513 0.011611 0.001489 -0.005866 -0.005534
# 4 -0.004588 -0.003177 0.001489 0.031456 -0.003004 -0.006955
# 5 0.000353 -0.000134 -0.005866 -0.003004 0.032620 0.000543
# 6 0.003223 0.004943 -0.005534 -0.006955 0.000543 0.038714
#
#
# Mechanical properties :
#
#
# Convention : Reuss Voigt Hill
#
# Bulk Modulus (GPa) = 60.11471 71.77004 65.94238
# Shear Modulus (GPa) = 30.29281 35.58801 32.94041
#
# Velocity S-wave (km/s) = 3.67995 3.98863 3.83740
# Velocity P-wave (km/s) = 6.70296 7.30042 7.00806
#
# Compressibility (1/GPa) = 0.01663486
#
# Stress axis : x y z
#
# Youngs Moduli (GPa) = 76.89940 82.89898 86.12347
#
# Poissons Ratio (x) = 0.40548 0.31154
# Poissons Ratio (y) = 0.37613 0.13031
# Poissons Ratio (z) = 0.27817 0.12543
#
# Static dielectric constant tensor:
#      x y z
#    x 4.243680 -0.480800 0.265760 
#    y -0.480800 4.417590 0.187850 
#    z 0.265760 0.187850 4.299000 
# 
# 
# High freq. dielectric constant tensor:
#      x y z
#    x 1.870530 -0.025750 0.016630 
#    y -0.025750 1.886640 0.014860 
#    z 0.016630 0.014860 1.893530 
# 
# From -- ./inp_files/399856.got.cif
#   From: 2010.06.25/outbox.cif.g09.slc.cpg/sg2_200_cif.got.tgz:399856.got - 2010.06.27 13:26:56.
