data_PCOD8007173
_publ_section_title
;
Structure prediction by ZEFSAII (Michael W. Deem and Ramdas Pophale) SiO2 
 PCOD8007173
Probable space group: P -1
;
_chemical_formula_sum "Si O2"
_cell_formula_units_Z 16
_cell_length_a 8.949796
_cell_length_b 11.548553
_cell_length_c 15.791845
_cell_angle_alpha 55.937412
_cell_angle_beta 35.030292
_cell_angle_gamma 55.949350
_cell_volume 758.339319
_symmetry_space_group_name_H-M "P -1"
_symmetry_group_IT_number 2
_symmetry_cell_setting 'triclinic'
loop_
_space_group_symop_operation_xyz
x,y,z
-x,-y,-z
loop_
_atom_site_type_symbol
_atom_site_label
_atom_site_fract_x
_atom_site_fract_y
_atom_site_fract_z
Si Si1 0.151470 0.927890 0.732054
Si Si2 0.159015 0.624519 0.383045
Si Si3 0.531196 0.632766 0.047537
Si Si4 0.855094 0.902810 0.048807
Si Si5 0.271159 0.482228 0.553358
Si Si6 0.672645 0.795108 0.468115
Si Si7 0.357178 0.061822 0.125059
Si Si8 0.116049 0.606117 0.115984
O O1 0.395283 0.800458 0.643015
O O2 0.999142 0.878741 0.901263
O O3 0.944757 0.964755 0.732447
O O4 0.297204 0.053007 0.645843
O O5 0.388183 0.616754 0.209797
O O6 0.275891 0.605851 0.430893
O O7 0.000000 0.500000 0.500000
O O8 0.930182 0.766203 0.422606
O O9 0.328484 0.664772 0.050048
O O10 0.668594 0.767775 0.930170
O O11 0.746959 0.485595 0.990590
O O12 0.889972 0.742816 0.136023
O O13 0.538925 0.977549 0.152404
O O14 0.000000 0.000000 0.000000
O O15 0.500000 0.500000 0.500000
O O16 0.309323 0.322367 0.564501
O O17 0.003324 0.503802 0.724551
O O18 0.500000 0.000000 0.000000
#
# Coordination Sequence:
#
# PCOD8007173 Si02
#       8
#     2   2   2   2   2   2   2   2
#     4  10  23  39  65  93 121 170 215 271 309 391
#     4  10  20  40  68  85 126 175 211 249 327 392
#     4  11  22  41  65  99 127 168 219 268 318 388
#     4  11  21  39  65  95 130 171 212 260 333 383
#     4  11  25  41  63  93 133 170 208 268 328 382
#     4  10  21  42  65  88 127 167 221 256 325 389
#     4  10  22  40  64  92 129 164 219 267 320 380
#     4  11  24  38  65  98 133 163 215 271 321 381
#
# _framework density 21.098734
#
# number of rings (size 3 to 8) (size 9 to 14) (size 15 to 20)
#    0.000    1.500    3.750    2.250    5.250    3.000 
#    0.000    3.125    0.000    3.750    0.000    0.000 
#    0.000    0.000    0.000    0.000    0.000    0.000 
#
# Total GULP energy -198226.478417 kJ/mol
# GULP energy per Si atom -12389.154901 kJ/mol
# Density = 2.105071 g / cm^3
# Si number density = 21.098734 Si / 1000 Ang^3
#
#
#
# Elastic Constant Matrix: (Units=GPa)
#
#
# Indices 1 2 3 4 5 6 
#
# 1 128.6418 47.2193 33.3226 11.0812 0.5094 -0.2796
# 2 47.2193 83.0296 39.1408 2.6599 -3.7038 -15.0867
# 3 33.3226 39.1408 102.3530 17.9854 1.9838 -7.9729
# 4 11.0812 2.6599 17.9854 32.5321 -4.3025 -9.3640
# 5 0.5094 -3.7038 1.9838 -4.3025 25.8104 -13.6093
# 6 -0.2796 -15.0867 -7.9729 -9.3640 -13.6093 22.2220
#
#
#
# Elastic Compliance Matrix: (Units=1/GPa)
#
#
# Indices 1 2 3 4 5 6 
#
# 1 0.013480 -0.013314 0.001544 -0.013961 -0.017885 -0.025152
# 2 -0.013314 0.036906 -0.011349 0.030956 0.043489 0.060495
# 3 0.001544 -0.011349 0.015150 -0.014894 -0.014477 -0.017392
# 4 -0.013961 0.030956 -0.014894 0.074203 0.063346 0.085559
# 5 -0.017885 0.043489 -0.014477 0.063346 0.123760 0.126592
# 6 -0.025152 0.060495 -0.017392 0.085559 0.126592 0.193096
#
#
# Mechanical properties :
#
#
# Convention : Reuss Voigt Hill
#
# Bulk Modulus (GPa) = 51.82034 61.48775 56.65405
# Shear Modulus (GPa) = 9.81806 29.06901 19.44353
#
# Velocity S-wave (km/s) = 2.15951 3.71585 3.03900
# Velocity P-wave (km/s) = 5.55267 6.90045 6.26292
#
# Compressibility (1/GPa) = 0.01929744
#
# Stress axis : x y z
#
# Youngs Moduli (GPa) = 74.18639 27.09588 66.00459
#
# Poissons Ratio (x) = 0.36076 -0.10189
# Poissons Ratio (y) = 0.98774 0.74907
# Poissons Ratio (z) = -0.11452 0.30750
#
# Static dielectric constant tensor:
#      x y z
#    x 4.841920 -1.064180 0.176290 
#    y -1.064180 4.858830 -0.127180 
#    z 0.176290 -0.127180 3.947530 
# 
# 
# High freq. dielectric constant tensor:
#      x y z
#    x 1.828950 -0.000700 -0.008770 
#    y -0.000700 1.826520 0.000440 
#    z -0.008770 0.000440 1.814060 
# 
# From -- ./inp_files/500129.got.cif
#   From: 2010.06.25/outbox.cif.g09.slc.cpg/sg2_251_cif.got.tgz:500129.got - 2010.06.27 13:26:56.
