data_PCOD8007925
_publ_section_title
;
Structure prediction by ZEFSAII (Michael W. Deem and Ramdas Pophale) SiO2 
 PCOD8007925
Probable space group: P -1
;
_chemical_formula_sum "Si O2"
_cell_formula_units_Z 14
_cell_length_a 9.820058
_cell_length_b 17.229770
_cell_length_c 13.842633
_cell_angle_alpha 23.030741
_cell_angle_beta 45.010970
_cell_angle_gamma 55.044994
_cell_volume 621.978019
_symmetry_space_group_name_H-M "P -1"
_symmetry_group_IT_number 2
_symmetry_cell_setting 'triclinic'
loop_
_space_group_symop_operation_xyz
x,y,z
-x,-y,-z
loop_
_atom_site_type_symbol
_atom_site_label
_atom_site_fract_x
_atom_site_fract_y
_atom_site_fract_z
Si Si1 0.830324 0.727315 0.150694
Si Si2 0.747741 0.131843 0.138536
Si Si3 0.186586 0.772254 0.659316
Si Si4 0.448618 0.712257 0.766890
Si Si5 0.525414 0.902562 0.199545
Si Si6 0.772665 0.766527 0.910190
Si Si7 0.334578 0.694672 0.207715
O O1 0.673480 0.763207 0.267249
O O2 0.808733 0.482016 0.450708
O O3 0.790149 0.788245 0.992854
O O4 0.046462 0.866640 0.914783
O O5 0.613158 0.217345 0.180815
O O6 0.641080 0.897440 0.424733
O O7 0.782212 0.287306 0.852424
O O8 0.273304 0.674149 0.818349
O O9 0.311765 0.761414 0.511226
O O10 0.942736 0.665158 0.896350
O O11 0.200934 0.009332 0.407471
O O12 0.500000 0.500000 0.000000
O O13 0.500000 0.000000 0.000000
O O14 0.621547 0.084901 0.015911
O O15 0.545142 0.636167 0.149089
#
# Coordination Sequence:
#
# PCOD8007925 Si02
#       7
#     2   2   2   2   2   2   2
#     4  12  24  42  71  97 137 184 224 274 349 403
#     4  11  25  45  67 101 138 183 225 279 343 405
#     4  10  20  42  69  96 133 176 223 285 337 398
#     4  11  24  44  70  99 140 178 230 284 336 406
#     4  11  23  42  66  99 137 171 226 286 337 402
#     4  10  20  41  72  94 135 177 224 282 337 402
#     4  11  24  43  68  99 139 178 226 282 339 408
#
# _framework density 22.508835000000001
#
# number of rings (size 3 to 8) (size 9 to 14) (size 15 to 20)
#    0.000    1.143    7.143    0.857    2.000    1.714 
#    0.000    0.714    0.000    0.000    0.000    0.000 
#    0.000    0.000    0.000    0.000    0.000    0.000 
#
# Total GULP energy -173555.617123 kJ/mol
# GULP energy per Si atom -12396.829794 kJ/mol
# Density = 2.245760 g / cm^3
# Si number density = 22.508835 Si / 1000 Ang^3
#
#
#
# Elastic Constant Matrix: (Units=GPa)
#
#
# Indices 1 2 3 4 5 6 
#
# 1 92.8603 8.3565 22.6519 -3.8355 22.4031 -7.9954
# 2 8.3565 96.3849 21.6496 15.6020 5.5947 -16.9389
# 3 22.6519 21.6496 81.5780 -3.0934 13.7572 -6.5726
# 4 -3.8355 15.6020 -3.0934 21.1864 -2.9846 7.1273
# 5 22.4031 5.5947 13.7572 -2.9846 41.4221 8.6010
# 6 -7.9954 -16.9389 -6.5726 7.1273 8.6010 32.3338
#
#
#
# Elastic Compliance Matrix: (Units=1/GPa)
#
#
# Indices 1 2 3 4 5 6 
#
# 1 0.013650 0.001217 -0.002309 -0.001992 -0.008204 0.006165
# 2 0.001217 0.016780 -0.003331 -0.018195 -0.006043 0.014033
# 3 -0.002309 -0.003331 0.014473 0.003509 -0.002990 0.000648
# 4 -0.001992 -0.018195 0.003509 0.072379 0.013581 -0.028878
# 5 -0.008204 -0.006043 -0.002990 0.013581 0.035134 -0.018142
# 6 0.006165 0.014033 0.000648 -0.028878 -0.018142 0.051126
#
#
# Mechanical properties :
#
#
# Convention : Reuss Voigt Hill
#
# Bulk Modulus (GPa) = 27.73342 41.79323 34.76332
# Shear Modulus (GPa) = 22.28093 33.53282 27.90687
#
# Velocity S-wave (km/s) = 3.14964 3.86393 3.52493
# Velocity P-wave (km/s) = 5.05716 6.20600 5.66080
#
# Compressibility (1/GPa) = 0.03605758
#
# Stress axis : x y z
#
# Youngs Moduli (GPa) = 73.25828 59.59472 69.09513
#
# Poissons Ratio (x) = -0.07254 0.15951
# Poissons Ratio (y) = -0.08917 0.23018
# Poissons Ratio (z) = 0.16913 0.19853
#
# Static dielectric constant tensor:
#      x y z
#    x 4.598250 1.525250 0.824270 
#    y 1.525250 9.659180 3.075950 
#    z 0.824270 3.075950 5.569810 
# 
# 
# High freq. dielectric constant tensor:
#      x y z
#    x 1.888660 -0.009240 0.009890 
#    y -0.009240 1.872270 0.012830 
#    z 0.009890 0.012830 1.892320 
# 
# From -- ./inp_files/398032.got.cif
#   From: 2010.06.25/outbox.cif.g09.slc.cpg/sg2_200_cif.got.tgz:398032.got - 2010.06.27 13:26:56.
