data_PCOD8007691
_publ_section_title
;
Structure prediction by ZEFSAII (Michael W. Deem and Ramdas Pophale) SiO2 
 PCOD8007691
Probable space group: P -1
;
_chemical_formula_sum "Si O2"
_cell_formula_units_Z 12
_cell_length_a 5.186512
_cell_length_b 22.318101
_cell_length_c 9.731320
_cell_angle_alpha 139.500952
_cell_angle_beta 49.164447
_cell_angle_gamma 125.327194
_cell_volume 545.903029
_symmetry_space_group_name_H-M "P -1"
_symmetry_group_IT_number 2
_symmetry_cell_setting 'triclinic'
loop_
_space_group_symop_operation_xyz
x,y,z
-x,-y,-z
loop_
_atom_site_type_symbol
_atom_site_label
_atom_site_fract_x
_atom_site_fract_y
_atom_site_fract_z
Si Si1 0.912559 0.208892 0.134330
Si Si2 0.224555 0.125187 0.338122
Si Si3 0.140385 0.033681 0.657170
Si Si4 0.857045 0.413290 0.494436
Si Si5 0.068155 0.417547 0.737846
Si Si6 0.748769 0.221614 0.509563
O O1 0.516122 0.150667 0.162429
O O2 0.959526 0.313599 0.235069
O O3 0.001898 0.221269 0.286848
O O4 0.162539 0.146181 0.862423
O O5 0.356729 0.180685 0.530276
O O6 0.867709 0.157749 0.475459
O O7 0.129699 0.015373 0.216986
O O8 0.500000 0.000000 0.500000
O O9 0.000000 0.000000 0.500000
O O10 0.445131 0.395862 0.603940
O O11 0.000000 0.500000 0.500000
O O12 0.012021 0.441076 0.639279
O O13 0.787279 0.329011 0.729962
O O14 0.000000 0.500000 0.000000
#
# Coordination Sequence:
#
# PCOD8007691 Si02
#       6
#     2   2   2   2   2   2
#     4   9  23  42  68  84 125 171 219 239 306 391
#     4  10  20  41  67  83 120 165 219 237 302 389
#     4  12  27  41  60  98 133 156 204 273 324 356
#     4  11  23  43  65  96 130 171 210 263 323 386
#     4  11  21  41  65  96 128 160 220 273 307 373
#     4   9  19  37  68  88 113 163 222 241 295 376
#
# _framework density 21.981926999999999
#
# number of rings (size 3 to 8) (size 9 to 14) (size 15 to 20)
#    1.000    0.667    1.667    2.500    2.333    0.667 
#    9.000    0.000    0.000    0.000    0.000    0.000 
#    0.000    0.000    0.000    0.000    0.000    0.000 
#
# Total GULP energy -148667.416076 kJ/mol
# GULP energy per Si atom -12388.951340 kJ/mol
# Density = 2.193190 g / cm^3
# Si number density = 21.981927 Si / 1000 Ang^3
#
#
#
# Elastic Constant Matrix: (Units=GPa)
#
#
# Indices 1 2 3 4 5 6 
#
# 1 145.6076 3.8533 48.8863 8.7637 -8.5574 -10.6066
# 2 3.8533 82.5404 37.8520 31.6728 -12.0192 -15.1281
# 3 48.8863 37.8520 160.9964 35.6250 -5.9034 -11.7900
# 4 8.7637 31.6728 35.6250 34.4015 -2.9142 -6.4991
# 5 -8.5574 -12.0192 -5.9034 -2.9142 26.6617 4.8914
# 6 -10.6066 -15.1281 -11.7900 -6.4991 4.8914 30.8060
#
#
#
# Elastic Compliance Matrix: (Units=1/GPa)
#
#
# Indices 1 2 3 4 5 6 
#
# 1 0.007973 0.001638 -0.002483 -0.000365 0.002312 0.002155
# 2 0.001638 0.021166 -0.000988 -0.017191 0.006895 0.005859
# 3 -0.002483 -0.000988 0.008910 -0.007607 -0.000192 0.000496
# 4 -0.000365 -0.017191 -0.007607 0.052583 -0.003845 0.000225
# 5 0.002312 0.006895 -0.000192 -0.003845 0.041499 -0.003292
# 6 0.002155 0.005859 0.000496 0.000225 -0.003292 0.036840
#
#
# Mechanical properties :
#
#
# Convention : Reuss Voigt Hill
#
# Bulk Modulus (GPa) = 29.08317 63.36974 46.22646
# Shear Modulus (GPa) = 27.15951 38.27736 32.71843
#
# Velocity S-wave (km/s) = 3.51884 4.17743 3.86220
# Velocity P-wave (km/s) = 5.45608 7.22209 6.40029
#
# Compressibility (1/GPa) = 0.03438414
#
# Stress axis : x y z
#
# Youngs Moduli (GPa) = 125.42605 47.24520 112.23216
#
# Poissons Ratio (x) = -0.07740 0.27863
# Poissons Ratio (y) = -0.20548 0.11089
# Poissons Ratio (z) = 0.31139 0.04668
#
# Static dielectric constant tensor:
#      x y z
#    x 4.246600 0.039530 -0.109270 
#    y 0.039530 3.944480 0.332120 
#    z -0.109270 0.332120 3.771100 
# 
# 
# High freq. dielectric constant tensor:
#      x y z
#    x 1.877550 -0.003630 -0.000450 
#    y -0.003630 1.854560 0.034440 
#    z -0.000450 0.034440 1.843140 
# 
# From -- ./inp_files/24873.got.cif
#   From: 2010.06.25/outbox.cif.g09.slc.cpg/sg2_13_cif.got.tgz:24873.got - 2010.06.27 13:26:56.
