data_PCOD8007249
_publ_section_title
;
Structure prediction by ZEFSAII (Michael W. Deem and Ramdas Pophale) SiO2 
 PCOD8007249
Probable space group: P -1
;
_chemical_formula_sum "Si O2"
_cell_formula_units_Z 14
_cell_length_a 8.943274
_cell_length_b 12.122393
_cell_length_c 11.363767
_cell_angle_alpha 107.827141
_cell_angle_beta 115.299664
_cell_angle_gamma 36.832555
_cell_volume 666.246754
_symmetry_space_group_name_H-M "P -1"
_symmetry_group_IT_number 2
_symmetry_cell_setting 'triclinic'
loop_
_space_group_symop_operation_xyz
x,y,z
-x,-y,-z
loop_
_atom_site_type_symbol
_atom_site_label
_atom_site_fract_x
_atom_site_fract_y
_atom_site_fract_z
Si Si1 0.624753 0.303169 0.973443
Si Si2 0.702284 0.746924 0.677661
Si Si3 0.786267 0.798391 0.495567
Si Si4 0.815410 0.642776 0.227012
Si Si5 0.640655 0.956955 0.150824
Si Si6 0.825025 0.022691 0.535106
Si Si7 0.040214 0.008438 0.828878
O O1 0.402253 0.331797 0.875028
O O2 0.500000 0.500000 0.000000
O O3 0.756385 0.191609 0.105141
O O4 0.859738 0.175024 0.915591
O O5 0.897219 0.696704 0.626939
O O6 0.477579 0.796578 0.549150
O O7 0.889869 0.565786 0.761101
O O8 0.569136 0.914488 0.772006
O O9 0.776117 0.698938 0.368220
O O10 0.500000 0.000000 0.500000
O O11 0.930193 0.831844 0.498577
O O12 0.819695 0.751276 0.179214
O O13 0.803097 0.985273 0.196518
O O14 0.500000 0.000000 0.000000
O O15 0.000000 0.000000 0.500000
O O16 0.851363 0.043625 0.687131
#
# Coordination Sequence:
#
# PCOD8007249 Si02
#       7
#     2   2   2   2   2   2   2
#     4  11  27  44  69 100 132 176 225 278 331 391
#     4  11  25  41  69 101 132 173 223 276 333 395
#     4  10  20  40  69  93 132 174 219 270 325 395
#     4  12  24  44  71 101 132 173 231 274 329 396
#     4  12  25  45  68  96 137 185 221 267 332 404
#     4  11  21  43  68  98 135 176 216 270 341 391
#     4  11  25  46  69  95 139 177 218 277 336 392
#
# _framework density 21.013233
#
# number of rings (size 3 to 8) (size 9 to 14) (size 15 to 20)
#    0.000    0.857    5.714    2.143    4.000    1.714 
#    0.000    1.429    0.000    0.000    0.000    0.000 
#    0.000    0.000    0.000    0.000    0.000    0.000 
#
# Total GULP energy -173531.207740 kJ/mol
# GULP energy per Si atom -12395.086267 kJ/mol
# Density = 2.096541 g / cm^3
# Si number density = 21.013233 Si / 1000 Ang^3
#
#
#
# Elastic Constant Matrix: (Units=GPa)
#
#
# Indices 1 2 3 4 5 6 
#
# 1 112.6067 40.6948 34.3923 -6.7032 -7.1012 20.3946
# 2 40.6948 131.2555 40.4747 -19.3362 -0.0380 23.3297
# 3 34.3923 40.4747 133.3377 -9.1927 1.1464 7.0434
# 4 -6.7032 -19.3362 -9.1927 35.0315 5.2869 0.0612
# 5 -7.1012 -0.0380 1.1464 5.2869 32.1326 -3.9750
# 6 20.3946 23.3297 7.0434 0.0612 -3.9750 30.6292
#
#
#
# Elastic Compliance Matrix: (Units=1/GPa)
#
#
# Indices 1 2 3 4 5 6 
#
# 1 0.011293 -0.001861 -0.002057 0.000325 0.001847 -0.005390
# 2 -0.001861 0.010839 -0.002059 0.005409 -0.002059 -0.006822
# 3 -0.002057 -0.002059 0.008678 0.000867 -0.000806 0.000836
# 4 0.000325 0.005409 0.000867 0.032737 -0.006005 -0.005380
# 5 0.001847 -0.002059 -0.000806 -0.006005 0.033142 0.004837
# 6 -0.005390 -0.006822 0.000836 -0.005380 0.004837 0.041880
#
#
# Mechanical properties :
#
#
# Convention : Reuss Voigt Hill
#
# Bulk Modulus (GPa) = 53.03126 67.59151 60.31139
# Shear Modulus (GPa) = 31.88609 37.00120 34.44365
#
# Velocity S-wave (km/s) = 3.89965 4.20080 4.05302
# Velocity P-wave (km/s) = 6.75042 7.46760 7.11805
#
# Compressibility (1/GPa) = 0.01885680
#
# Stress axis : x y z
#
# Youngs Moduli (GPa) = 88.54938 92.25586 115.23458
#
# Poissons Ratio (x) = 0.17165 0.23702
# Poissons Ratio (y) = 0.16475 0.23732
# Poissons Ratio (z) = 0.18213 0.18999
#
# Static dielectric constant tensor:
#      x y z
#    x 4.431510 0.543770 -0.192500 
#    y 0.543770 4.000480 -0.184320 
#    z -0.192500 -0.184320 4.112010 
# 
# 
# High freq. dielectric constant tensor:
#      x y z
#    x 1.824240 0.016310 -0.010450 
#    y 0.016310 1.813690 -0.005430 
#    z -0.010450 -0.005430 1.843070 
# 
# From -- ./inp_files/390782.got.cif
#   From: 2010.06.25/outbox.cif.g09.slc.cpg/sg2_196_cif.got.tgz:390782.got - 2010.06.27 13:26:56.
