data_PCOD8007580
_publ_section_title
;
Structure prediction by ZEFSAII (Michael W. Deem and Ramdas Pophale) SiO2 
 PCOD8007580
Probable space group: P -1
;
_chemical_formula_sum "Si O2"
_cell_formula_units_Z 16
_cell_length_a 11.584513
_cell_length_b 15.957965
_cell_length_c 8.301591
_cell_angle_alpha 76.042006
_cell_angle_beta 38.907563
_cell_angle_gamma 55.430157
_cell_volume 731.729575
_symmetry_space_group_name_H-M "P -1"
_symmetry_group_IT_number 2
_symmetry_cell_setting 'triclinic'
loop_
_space_group_symop_operation_xyz
x,y,z
-x,-y,-z
loop_
_atom_site_type_symbol
_atom_site_label
_atom_site_fract_x
_atom_site_fract_y
_atom_site_fract_z
Si Si1 0.220492 0.987077 0.207197
Si Si2 0.313188 0.242344 0.211478
Si Si3 0.277326 0.178339 0.632799
Si Si4 0.203052 0.004988 0.837323
Si Si5 0.515700 0.624774 0.987217
Si Si6 0.144689 0.658507 0.794363
Si Si7 0.526163 0.532809 0.693109
Si Si8 0.022206 0.779349 0.566096
O O1 0.188008 0.089569 0.281511
O O2 0.455378 0.870428 0.063262
O O3 0.215781 0.999724 0.016765
O O4 0.000000 0.000000 0.500000
O O5 0.272650 0.223629 0.444710
O O6 0.087736 0.281205 0.333332
O O7 0.326247 0.341764 0.142411
O O8 0.540486 0.100376 0.457467
O O9 0.165180 0.114520 0.768518
O O10 0.114457 0.283835 0.878963
O O11 0.000000 0.000000 0.000000
O O12 0.557097 0.533672 0.106890
O O13 0.241850 0.734874 0.230859
O O14 0.589891 0.579736 0.745069
O O15 0.316472 0.632976 0.766887
O O16 0.248715 0.547139 0.631171
O O17 0.122251 0.746121 0.655425
#
# Coordination Sequence:
#
# PCOD8007580 Si02
#       8
#     2   2   2   2   2   2   2   2
#     4  11  22  39  61  97 125 164 214 249 311 386
#     4  11  24  38  64  91 129 170 207 258 319 380
#     4  10  22  40  59  92 129 164 213 253 310 387
#     4  10  23  40  62  91 129 171 205 253 314 380
#     4  10  21  44  64  95 122 166 217 259 327 373
#     4  10  20  41  65  94 122 170 209 263 329 359
#     4   9  21  41  72  89 126 166 216 279 313 375
#     4  11  22  40  63  91 131 165 208 262 311 382
#
# _framework density 21.866
#
# number of rings (size 3 to 8) (size 9 to 14) (size 15 to 20)
#    0.000    1.750    2.500    1.125    1.750    3.000 
#    0.000   13.750    0.000    0.000    0.000    0.000 
#    0.000    0.000    0.000    0.000    0.000    0.000 
#
# Total GULP energy -198339.088440 kJ/mol
# GULP energy per Si atom -12396.193027 kJ/mol
# Density = 2.181623 g / cm^3
# Si number density = 21.866000 Si / 1000 Ang^3
#
#
#
# Elastic Constant Matrix: (Units=GPa)
#
#
# Indices 1 2 3 4 5 6 
#
# 1 85.4052 34.4660 27.4006 -1.7586 -9.2272 17.9650
# 2 34.4660 85.3217 25.6624 0.2064 -3.1808 12.4423
# 3 27.4006 25.6624 134.3910 19.3386 0.5437 10.8684
# 4 -1.7586 0.2064 19.3386 39.0256 7.9292 -4.1113
# 5 -9.2272 -3.1808 0.5437 7.9292 31.2569 -6.7678
# 6 17.9650 12.4423 10.8684 -4.1113 -6.7678 34.9047
#
#
#
# Elastic Compliance Matrix: (Units=1/GPa)
#
#
# Indices 1 2 3 4 5 6 
#
# 1 0.015716 -0.004912 -0.001948 0.000568 0.002926 -0.005097
# 2 -0.004912 0.014497 -0.001645 0.000392 -0.000518 -0.002182
# 3 -0.001948 -0.001645 0.008971 -0.004693 -0.000092 -0.001775
# 4 0.000568 0.000392 -0.004693 0.029642 -0.006526 0.003255
# 5 0.002926 -0.000518 -0.000092 -0.006526 0.035505 0.004823
# 6 -0.005097 -0.002182 -0.001775 0.003255 0.004823 0.033922
#
#
# Mechanical properties :
#
#
# Convention : Reuss Voigt Hill
#
# Bulk Modulus (GPa) = 45.09350 53.35287 49.22319
# Shear Modulus (GPa) = 30.74010 35.54338 33.14174
#
# Velocity S-wave (km/s) = 3.75352 4.03613 3.89739
# Velocity P-wave (km/s) = 6.28113 6.79510 6.54317
#
# Compressibility (1/GPa) = 0.02217614
#
# Stress axis : x y z
#
# Youngs Moduli (GPa) = 63.62977 68.97964 111.46500
#
# Poissons Ratio (x) = 0.33880 0.21710
# Poissons Ratio (y) = 0.31253 0.18333
# Poissons Ratio (z) = 0.12393 0.11346
#
# Static dielectric constant tensor:
#      x y z
#    x 3.698370 -0.034580 0.117070 
#    y -0.034580 4.121800 0.354200 
#    z 0.117070 0.354200 4.234310 
# 
# 
# High freq. dielectric constant tensor:
#      x y z
#    x 1.837440 -0.010150 0.011040 
#    y -0.010150 1.852540 0.015300 
#    z 0.011040 0.015300 1.875960 
# 
# From -- ./inp_files/272788.got.cif
#   From: 2010.06.25/outbox.cif.g09.slc.cpg/sg2_137_cif.got.tgz:272788.got - 2010.06.27 13:26:56.
