data_PCOD8007312
_publ_section_title
;
Structure prediction by ZEFSAII (Michael W. Deem and Ramdas Pophale) SiO2 
 PCOD8007312
Probable space group: P -1
;
_chemical_formula_sum "Si O2"
_cell_formula_units_Z 16
_cell_length_a 14.572645
_cell_length_b 9.249539
_cell_length_c 8.605624
_cell_angle_alpha 81.671962
_cell_angle_beta 72.131643
_cell_angle_gamma 39.823264
_cell_volume 699.135949
_symmetry_space_group_name_H-M "P -1"
_symmetry_group_IT_number 2
_symmetry_cell_setting 'triclinic'
loop_
_space_group_symop_operation_xyz
x,y,z
-x,-y,-z
loop_
_atom_site_type_symbol
_atom_site_label
_atom_site_fract_x
_atom_site_fract_y
_atom_site_fract_z
Si Si1 0.697423 0.581152 0.382145
Si Si2 0.048975 0.504736 0.309801
Si Si3 0.424983 0.425289 0.865600
Si Si4 0.730617 0.948386 0.913947
Si Si5 0.878783 0.286474 0.874672
Si Si6 0.267162 0.136762 0.727023
Si Si7 0.999868 0.159927 0.161595
Si Si8 0.480459 0.636250 0.627871
O O1 0.624032 0.597568 0.263225
O O2 0.659983 0.796931 0.384332
O O3 0.878319 0.351074 0.323776
O O4 0.627306 0.572085 0.566016
O O5 0.193981 0.251950 0.211690
O O6 0.103018 0.609837 0.281149
O O7 0.000000 0.500000 0.500000
O O8 0.911362 0.652734 0.238420
O O9 0.457099 0.562700 0.803924
O O10 0.572599 0.177105 0.889956
O O11 0.293470 0.565242 0.040005
O O12 0.837457 0.963747 0.871099
O O13 0.700769 0.906095 0.099984
O O14 0.939825 0.281609 0.006226
O O15 0.987562 0.028965 0.807196
O O16 0.338147 0.912242 0.638740
O O17 0.500000 0.500000 0.500000
#
# Coordination Sequence:
#
# PCOD8007312 Si02
#       8
#     2   2   2   2   2   2   2   2
#     4  10  22  42  68 100 138 185 231 276 352 408
#     4  12  28  44  70 104 144 182 227 290 351 404
#     4  10  24  43  68 104 138 184 227 294 340 402
#     4  12  24  46  72 102 143 178 241 283 338 415
#     4  10  22  42  69 100 135 182 236 275 349 405
#     4  12  24  45  74  99 137 191 231 281 342 418
#     4  10  20  40  72  97 134 185 232 284 331 421
#     4  10  24  43  69 100 143 178 226 285 352 406
#
# _framework density 22.885390999999998
#
# number of rings (size 3 to 8) (size 9 to 14) (size 15 to 20)
#    0.000    1.250    2.500    3.000    8.750    4.000 
#    4.500    1.250    0.000    0.000    0.000    0.000 
#    0.000    0.000    0.000    0.000    0.000    0.000 
#
# Total GULP energy -198400.589458 kJ/mol
# GULP energy per Si atom -12400.036841 kJ/mol
# Density = 2.283330 g / cm^3
# Si number density = 22.885391 Si / 1000 Ang^3
#
#
#
# Elastic Constant Matrix: (Units=GPa)
#
#
# Indices 1 2 3 4 5 6 
#
# 1 87.9267 48.7520 39.5825 -8.0308 -35.2603 13.7356
# 2 48.7520 158.0090 54.7103 3.3913 -17.9717 9.6023
# 3 39.5825 54.7103 101.2956 -3.0886 -39.0864 18.5214
# 4 -8.0308 3.3913 -3.0886 27.5567 12.3095 -9.1504
# 5 -35.2603 -17.9717 -39.0864 12.3095 40.5269 -7.2193
# 6 13.7356 9.6023 18.5214 -9.1504 -7.2193 49.8097
#
#
#
# Elastic Compliance Matrix: (Units=1/GPa)
#
#
# Indices 1 2 3 4 5 6 
#
# 1 0.020557 -0.004736 0.001886 -0.002212 0.017688 -0.003300
# 2 -0.004736 0.008937 -0.004827 -0.000839 -0.004454 0.000578
# 3 0.001886 -0.004827 0.020467 -0.007608 0.020550 -0.005619
# 4 -0.002212 -0.000839 -0.007608 0.048024 -0.022591 0.009149
# 5 0.017688 -0.004454 0.020550 -0.022591 0.063596 -0.006593
# 6 -0.003300 0.000578 -0.005619 0.009149 -0.006593 0.023690
#
#
# Mechanical properties :
#
#
# Convention : Reuss Voigt Hill
#
# Bulk Modulus (GPa) = 28.89430 70.36901 49.63166
# Shear Modulus (GPa) = 23.56721 37.19109 30.37915
#
# Velocity S-wave (km/s) = 3.21252 4.03563 3.64737
# Velocity P-wave (km/s) = 5.13940 7.24778 6.28266
#
# Compressibility (1/GPa) = 0.03460890
#
# Stress axis : x y z
#
# Youngs Moduli (GPa) = 48.64614 111.88940 48.85959
#
# Poissons Ratio (x) = 0.52989 -0.09217
# Poissons Ratio (y) = 0.23038 0.23582
# Poissons Ratio (z) = -0.09176 0.54003
#
# Static dielectric constant tensor:
#      x y z
#    x 4.259270 0.106010 -0.472810 
#    y 0.106010 4.326270 0.036670 
#    z -0.472810 0.036670 4.175970 
# 
# 
# High freq. dielectric constant tensor:
#      x y z
#    x 1.904500 0.014130 -0.027470 
#    y 0.014130 1.913430 0.010940 
#    z -0.027470 0.010940 1.890340 
# 
# From -- ./inp_files/298196.got.cif
#   From: 2010.06.25/outbox.cif.g09.slc.cpg/sg2_150_cif.got.tgz:298196.got - 2010.06.27 13:26:56.
