data_PCOD8007669
_publ_section_title
;
Structure prediction by ZEFSAII (Michael W. Deem and Ramdas Pophale) SiO2 
 PCOD8007669
Probable space group: P -1
;
_chemical_formula_sum "Si O2"
_cell_formula_units_Z 14
_cell_length_a 16.717828
_cell_length_b 11.275157
_cell_length_c 9.214166
_cell_angle_alpha 52.511633
_cell_angle_beta 28.491642
_cell_angle_gamma 62.143713
_cell_volume 646.833605
_symmetry_space_group_name_H-M "P -1"
_symmetry_group_IT_number 2
_symmetry_cell_setting 'triclinic'
loop_
_space_group_symop_operation_xyz
x,y,z
-x,-y,-z
loop_
_atom_site_type_symbol
_atom_site_label
_atom_site_fract_x
_atom_site_fract_y
_atom_site_fract_z
Si Si1 0.904691 0.734573 0.103562
Si Si2 0.019183 0.930612 0.265512
Si Si3 0.070239 0.354222 0.546699
Si Si4 0.565705 0.630711 0.188744
Si Si5 0.179381 0.801317 0.375699
Si Si6 0.643021 0.952276 0.906743
Si Si7 0.638031 0.460304 0.698765
O O1 0.923969 0.650200 0.286628
O O2 0.753767 0.620684 0.348387
O O3 0.073948 0.745110 0.730450
O O4 0.859005 0.904227 0.074360
O O5 0.052649 0.859760 0.420888
O O6 0.049287 0.805368 0.192348
O O7 0.828237 0.964374 0.526967
O O8 0.000000 0.500000 0.500000
O O9 0.251952 0.373000 0.167257
O O10 0.500000 0.500000 0.500000
O O11 0.437483 0.626131 0.261467
O O12 0.571963 0.775087 0.177313
O O13 0.258861 0.658575 0.297437
O O14 0.330226 0.944308 0.067751
O O15 0.500000 0.000000 0.000000
O O16 0.500000 0.500000 0.000000
#
# Coordination Sequence:
#
# PCOD8007669 Si02
#       7
#     2   2   2   2   2   2   2
#     4  11  23  42  68  96 133 172 222 274 329 397
#     4  10  24  41  69  99 131 177 224 271 330 397
#     4  11  24  43  66  96 134 175 224 272 328 397
#     4  11  26  41  66  96 133 175 220 274 331 395
#     4  11  24  44  72  98 130 179 225 271 329 401
#     4  10  20  41  66  97 129 167 221 273 323 383
#     4  12  25  44  65  98 138 171 219 277 338 389
#
# _framework density 21.643896999999999
#
# number of rings (size 3 to 8) (size 9 to 14) (size 15 to 20)
#    0.000    1.143    2.857    3.429    8.000    0.000 
#    0.000    2.143    0.000    0.000    0.000    0.000 
#    0.000    0.000    0.000    0.000    0.000    0.000 
#
# Total GULP energy -173495.685770 kJ/mol
# GULP energy per Si atom -12392.548984 kJ/mol
# Density = 2.159463 g / cm^3
# Si number density = 21.643897 Si / 1000 Ang^3
#
#
#
# Elastic Constant Matrix: (Units=GPa)
#
#
# Indices 1 2 3 4 5 6 
#
# 1 90.2744 36.8785 43.9036 1.9007 -4.6736 -6.6425
# 2 36.8785 158.7432 60.7051 -20.4036 -14.3087 -2.1629
# 3 43.9036 60.7051 90.7966 -19.8329 -3.5709 -2.3760
# 4 1.9007 -20.4036 -19.8329 38.7279 6.3747 -9.5810
# 5 -4.6736 -14.3087 -3.5709 6.3747 41.2794 -8.9026
# 6 -6.6425 -2.1629 -2.3760 -9.5810 -8.9026 43.1422
#
#
#
# Elastic Compliance Matrix: (Units=1/GPa)
#
#
# Indices 1 2 3 4 5 6 
#
# 1 0.015675 -0.001144 -0.007907 -0.005446 0.001767 0.001076
# 2 -0.001144 0.008914 -0.004821 0.002126 0.002426 0.000978
# 3 -0.007907 -0.004821 0.019903 0.008645 -0.001930 0.001159
# 4 -0.005446 0.002126 0.008645 0.033758 -0.002913 0.006640
# 5 0.001767 0.002426 -0.001930 -0.002913 0.026658 0.005142
# 6 0.001076 0.000978 0.001159 0.006640 0.005142 0.025993
#
#
# Mechanical properties :
#
#
# Convention : Reuss Voigt Hill
#
# Bulk Modulus (GPa) = 59.70655 69.19873 64.45264
# Shear Modulus (GPa) = 30.44550 37.85172 34.14861
#
# Velocity S-wave (km/s) = 3.75461 4.18645 3.97640
# Velocity P-wave (km/s) = 6.81483 7.44375 7.13622
#
# Compressibility (1/GPa) = 0.01674858
#
# Stress axis : x y z
#
# Youngs Moduli (GPa) = 63.79488 112.17981 50.24406
#
# Poissons Ratio (x) = 0.12834 0.39726
# Poissons Ratio (y) = 0.07299 0.24224
# Poissons Ratio (z) = 0.50440 0.54085
#
# Static dielectric constant tensor:
#      x y z
#    x 4.040770 0.508320 -0.421880 
#    y 0.508320 5.325600 -0.496410 
#    z -0.421880 -0.496410 3.865440 
# 
# 
# High freq. dielectric constant tensor:
#      x y z
#    x 1.850190 0.009600 -0.020980 
#    y 0.009600 1.875700 -0.023110 
#    z -0.020980 -0.023110 1.828980 
# 
# From -- ./inp_files/156692.got.cif
#   From: 2010.06.25/outbox.cif.g09.slc.cpg/sg2_79_cif.got.tgz:156692.got - 2010.06.27 13:26:56.
