data_PCOD8007452
_publ_section_title
;
Structure prediction by ZEFSAII (Michael W. Deem and Ramdas Pophale) SiO2 
 PCOD8007452
Probable space group: P -1
;
_chemical_formula_sum "Si O2"
_cell_formula_units_Z 16
_cell_length_a 14.585388
_cell_length_b 14.247688
_cell_length_c 11.727402
_cell_angle_alpha 71.254624
_cell_angle_beta 30.036461
_cell_angle_gamma 50.324881
_cell_volume 750.801051
_symmetry_space_group_name_H-M "P -1"
_symmetry_group_IT_number 2
_symmetry_cell_setting 'triclinic'
loop_
_space_group_symop_operation_xyz
x,y,z
-x,-y,-z
loop_
_atom_site_type_symbol
_atom_site_label
_atom_site_fract_x
_atom_site_fract_y
_atom_site_fract_z
Si Si1 0.186125 0.710830 0.014793
Si Si2 0.727114 0.131566 0.018251
Si Si3 0.783508 0.677002 0.150010
Si Si4 0.157356 0.343812 0.156471
Si Si5 0.300928 0.828721 0.221295
Si Si6 0.668254 0.415736 0.734113
Si Si7 0.839315 0.136155 0.209339
Si Si8 0.153809 0.322979 0.672410
O O1 0.129019 0.820788 0.125979
O O2 0.486941 0.535952 0.779645
O O3 0.189675 0.745750 0.866030
O O4 0.941143 0.729272 0.284489
O O5 0.469970 0.225976 0.344967
O O6 0.607565 0.178831 0.001758
O O7 0.957808 0.949548 0.863300
O O8 0.463129 0.773339 0.458964
O O9 0.845531 0.716600 0.181024
O O10 0.830502 0.709616 0.963406
O O11 0.000000 0.500000 0.000000
O O12 0.961794 0.356086 0.443072
O O13 0.048692 0.501023 0.203063
O O14 0.469095 0.219681 0.922766
O O15 0.274593 0.721674 0.301446
O O16 0.000000 0.000000 0.500000
O O17 0.500000 0.500000 0.000000
O O18 0.000000 0.000000 0.000000
#
# Coordination Sequence:
#
# PCOD8007452 Si02
#       8
#     2   2   2   2   2   2   2   2
#     4  11  21  39  69 103 126 170 233 279 339 399
#     4  11  23  43  67  97 141 172 229 286 340 402
#     4  10  20  41  63  93 139 175 218 279 343 407
#     4  11  24  43  67  97 141 180 224 286 349 404
#     4  12  27  45  68 100 140 186 228 280 352 412
#     4  12  24  45  73 101 134 181 237 285 333 418
#     4  10  20  41  65  92 137 173 214 290 339 391
#     4  11  21  39  69 104 126 176 230 286 339 410
#
# _framework density 21.310573000000002
#
# number of rings (size 3 to 8) (size 9 to 14) (size 15 to 20)
#    0.000    1.000    6.250    1.500    1.750    2.000 
#    4.500    1.875    0.000    0.000    0.000    0.000 
#    0.000    0.000    0.000    0.000    0.000    0.000 
#
# Total GULP energy -198300.907609 kJ/mol
# GULP energy per Si atom -12393.806726 kJ/mol
# Density = 2.126207 g / cm^3
# Si number density = 21.310573 Si / 1000 Ang^3
#
#
#
# Elastic Constant Matrix: (Units=GPa)
#
#
# Indices 1 2 3 4 5 6 
#
# 1 112.3388 43.5729 46.6251 -3.9584 -7.2453 -13.2932
# 2 43.5729 116.1688 43.2065 8.8628 -8.9459 -19.0118
# 3 46.6251 43.2065 126.2774 6.1698 -5.4083 -6.1602
# 4 -3.9584 8.8628 6.1698 37.7321 -7.2055 -7.6578
# 5 -7.2453 -8.9459 -5.4083 -7.2055 35.2708 3.4566
# 6 -13.2932 -19.0118 -6.1602 -7.6578 3.4566 35.9144
#
#
#
# Elastic Compliance Matrix: (Units=1/GPa)
#
#
# Indices 1 2 3 4 5 6 
#
# 1 0.012001 -0.002900 -0.003394 0.003391 0.001619 0.002892
# 2 -0.002900 0.011532 -0.002546 -0.001521 0.001221 0.004153
# 3 -0.003394 -0.002546 0.010064 -0.001657 -0.000018 -0.001229
# 4 0.003391 -0.001521 -0.001657 0.029760 0.005551 0.005977
# 5 0.001619 0.001221 -0.000018 0.005551 0.030172 -0.000478
# 6 0.002892 0.004153 -0.001229 0.005977 -0.000478 0.032223
#
#
# Mechanical properties :
#
#
# Convention : Reuss Voigt Hill
#
# Bulk Modulus (GPa) = 62.82499 69.06601 65.94550
# Shear Modulus (GPa) = 33.61617 36.54217 35.07917
#
# Velocity S-wave (km/s) = 3.97601 4.14544 4.06161
# Velocity P-wave (km/s) = 7.11498 7.44261 7.28064
#
# Compressibility (1/GPa) = 0.01591723
#
# Stress axis : x y z
#
# Youngs Moduli (GPa) = 83.32439 86.71149 99.36720
#
# Poissons Ratio (x) = 0.25144 0.33728
# Poissons Ratio (y) = 0.24162 0.25299
# Poissons Ratio (z) = 0.28283 0.22077
#
# Static dielectric constant tensor:
#      x y z
#    x 4.130910 -0.516160 0.039120 
#    y -0.516160 4.186410 0.017400 
#    z 0.039120 0.017400 3.776720 
# 
# 
# High freq. dielectric constant tensor:
#      x y z
#    x 1.834310 -0.028350 -0.006210 
#    y -0.028350 1.831980 0.006520 
#    z -0.006210 0.006520 1.834220 
# 
# From -- ./inp_files/454710.got.cif
#   From: 2010.06.25/outbox.cif.g09.slc.cpg/sg2_228_cif.got.tgz:454710.got - 2010.06.27 13:26:56.
