data_PCOD8007767
_publ_section_title
;
Structure prediction by ZEFSAII (Michael W. Deem and Ramdas Pophale) SiO2 
 PCOD8007767
Probable space group: P -1
;
_chemical_formula_sum "Si O2"
_cell_formula_units_Z 16
_cell_length_a 9.526088
_cell_length_b 12.859190
_cell_length_c 8.976733
_cell_angle_alpha 102.882717
_cell_angle_beta 130.922724
_cell_angle_gamma 87.191190
_cell_volume 802.898890
_symmetry_space_group_name_H-M "P -1"
_symmetry_group_IT_number 2
_symmetry_cell_setting 'triclinic'
loop_
_space_group_symop_operation_xyz
x,y,z
-x,-y,-z
loop_
_atom_site_type_symbol
_atom_site_label
_atom_site_fract_x
_atom_site_fract_y
_atom_site_fract_z
Si Si1 0.420303 0.680292 0.944662
Si Si2 0.432725 0.090201 0.582364
Si Si3 0.971483 0.915238 0.583416
Si Si4 0.733359 0.525335 0.416749
Si Si5 0.856629 0.682031 0.306555
Si Si6 0.902829 0.426759 0.780370
Si Si7 0.580362 0.326933 0.724587
Si Si8 0.368196 0.910547 0.968752
O O1 0.338747 0.585609 0.750353
O O2 0.379353 0.790869 0.873353
O O3 0.641181 0.683955 0.120310
O O4 0.330015 0.665397 0.043472
O O5 0.210702 0.064000 0.444421
O O6 0.470761 0.208920 0.576024
O O7 0.500000 0.000000 0.500000
O O8 0.557260 0.088087 0.813547
O O9 0.952222 0.797618 0.461218
O O10 0.153006 0.933153 0.822274
O O11 0.000000 0.000000 0.500000
O O12 0.875303 0.598429 0.428258
O O13 0.837492 0.503943 0.633523
O O14 0.558927 0.584639 0.360253
O O15 0.955206 0.647685 0.215343
O O16 0.734908 0.347660 0.711054
O O17 0.000000 0.500000 0.000000
O O18 0.500000 0.000000 0.000000
#
# Coordination Sequence:
#
# PCOD8007767 Si02
#       8
#     2   2   2   2   2   2   2   2
#     4  10  20  41  68  91 125 173 212 266 325 385
#     4  11  25  45  67  97 135 167 214 282 333 382
#     4  12  23  43  73  96 127 172 226 268 324 398
#     4  11  21  40  65  88 126 176 215 257 329 385
#     4  11  22  41  66  96 125 167 219 270 316 390
#     4  12  25  37  59  97 133 168 217 265 317 390
#     4  10  22  43  60  90 135 163 208 275 330 378
#     4  11  22  42  69  99 130 170 223 270 322 388
#
# _framework density 19.927788
#
# number of rings (size 3 to 8) (size 9 to 14) (size 15 to 20)
#    0.000    1.000    5.000    4.500    1.750    3.500 
#    0.000    1.250    0.000    0.000    0.000    0.000 
#    0.000    0.000    0.000    0.000    0.000    0.000 
#
# Total GULP energy -198433.093647 kJ/mol
# GULP energy per Si atom -12402.068353 kJ/mol
# Density = 1.988243 g / cm^3
# Si number density = 19.927788 Si / 1000 Ang^3
#
#
#
# Elastic Constant Matrix: (Units=GPa)
#
#
# Indices 1 2 3 4 5 6 
#
# 1 151.5959 56.0973 44.9978 1.7573 8.9661 2.2750
# 2 56.0973 147.1343 52.9539 5.6062 3.6822 3.1063
# 3 44.9978 52.9539 112.4668 -2.7273 11.7638 -2.1629
# 4 1.7573 5.6062 -2.7273 34.0706 -2.0368 -1.1087
# 5 8.9661 3.6822 11.7638 -2.0368 23.5086 4.9318
# 6 2.2750 3.1063 -2.1629 -1.1087 4.9318 36.3656
#
#
#
# Elastic Compliance Matrix: (Units=1/GPa)
#
#
# Indices 1 2 3 4 5 6 
#
# 1 0.008162 -0.002334 -0.001997 -0.000307 -0.001732 -0.000205
# 2 -0.002334 0.008996 -0.003498 -0.001596 0.001315 -0.001057
# 3 -0.001997 -0.003498 0.011922 0.001399 -0.004922 0.001843
# 4 -0.000307 -0.001596 0.001399 0.029893 0.002075 0.000869
# 5 -0.001732 0.001315 -0.004922 0.002075 0.047021 -0.006610
# 6 -0.000205 -0.001057 0.001843 0.000869 -0.006610 0.028634
#
#
# Mechanical properties :
#
#
# Convention : Reuss Voigt Hill
#
# Bulk Modulus (GPa) = 74.50959 79.92168 77.21564
# Shear Modulus (GPa) = 32.30807 35.93217 34.12012
#
# Velocity S-wave (km/s) = 4.03085 4.25092 4.14235
# Velocity P-wave (km/s) = 7.68991 8.01789 7.85561
#
# Compressibility (1/GPa) = 0.01342109
#
# Stress axis : x y z
#
# Youngs Moduli (GPa) = 122.52055 111.16583 83.87999
#
# Poissons Ratio (x) = 0.25944 0.16750
# Poissons Ratio (y) = 0.28594 0.29344
# Poissons Ratio (z) = 0.24467 0.38890
#
# Static dielectric constant tensor:
#      x y z
#    x 3.793850 0.118920 0.110400 
#    y 0.118920 4.538800 -0.229890 
#    z 0.110400 -0.229890 3.499220 
# 
# 
# High freq. dielectric constant tensor:
#      x y z
#    x 1.779200 0.000080 0.010780 
#    y 0.000080 1.797910 0.000610 
#    z 0.010780 0.000610 1.775470 
# 
# From -- ./inp_files/188942.got.cif
#   From: 2010.06.25/outbox.cif.g09.slc.cpg/sg2_95_cif.got.tgz:188942.got - 2010.06.27 13:26:56.
