data_PCOD8007527
_publ_section_title
;
Structure prediction by ZEFSAII (Michael W. Deem and Ramdas Pophale) SiO2 
 PCOD8007527
Probable space group: P -1
;
_chemical_formula_sum "Si O2"
_cell_formula_units_Z 16
_cell_length_a 11.652719
_cell_length_b 8.419932
_cell_length_c 10.973816
_cell_angle_alpha 124.130021
_cell_angle_beta 124.279667
_cell_angle_gamma 59.339769
_cell_volume 706.219684
_symmetry_space_group_name_H-M "P -1"
_symmetry_group_IT_number 2
_symmetry_cell_setting 'triclinic'
loop_
_space_group_symop_operation_xyz
x,y,z
-x,-y,-z
loop_
_atom_site_type_symbol
_atom_site_label
_atom_site_fract_x
_atom_site_fract_y
_atom_site_fract_z
Si Si1 0.548504 0.688414 0.067009
Si Si2 0.302880 0.107370 0.326194
Si Si3 0.755298 0.086526 0.031213
Si Si4 0.834794 0.413771 0.089503
Si Si5 0.860526 0.168242 0.529101
Si Si6 0.011303 0.724996 0.106988
Si Si7 0.387895 0.985471 0.590657
Si Si8 0.066410 0.504287 0.409636
O O1 0.690671 0.581972 0.025996
O O2 0.601613 0.801225 0.260071
O O3 0.500000 0.500000 0.000000
O O4 0.410516 0.842141 0.981230
O O5 0.448318 0.160163 0.388248
O O6 0.170653 0.298489 0.341002
O O7 0.320989 0.005037 0.424763
O O8 0.260043 0.965337 0.141466
O O9 0.814808 0.281611 0.139201
O O10 0.857430 0.902576 0.090649
O O11 0.936205 0.549726 0.253034
O O12 0.903340 0.256012 0.956743
O O13 0.712879 0.102175 0.417922
O O14 0.844843 0.332391 0.482972
O O15 0.888706 0.252550 0.712489
O O16 0.000000 0.000000 0.500000
O O17 0.000000 0.500000 0.000000
O O18 0.000000 0.500000 0.500000
#
# Coordination Sequence:
#
# PCOD8007527 Si02
#       8
#     2   2   2   2   2   2   2   2
#     4   9  20  40  64  97 135 173 224 274 330 403
#     4  10  20  41  64  97 130 175 226 271 333 416
#     4  10  21  38  67  94 129 176 222 270 331 407
#     4  11  21  38  66  96 130 171 226 276 325 400
#     4  12  26  43  66  97 139 176 222 287 343 397
#     4  12  24  42  65  96 136 174 221 277 339 395
#     4  10  22  39  68  95 138 178 220 277 346 396
#     4  12  25  40  65  96 131 176 231 281 337 402
#
# _framework density 22.655837999999999
#
# number of rings (size 3 to 8) (size 9 to 14) (size 15 to 20)
#    0.000    1.250    2.500    3.375    3.500    1.500 
#    0.000    0.625    2.750    0.000    0.000    0.000 
#    0.000    0.000    0.000    0.000    0.000    0.000 
#
# Total GULP energy -198210.633386 kJ/mol
# GULP energy per Si atom -12388.164587 kJ/mol
# Density = 2.260427 g / cm^3
# Si number density = 22.655838 Si / 1000 Ang^3
#
#
#
# Elastic Constant Matrix: (Units=GPa)
#
#
# Indices 1 2 3 4 5 6 
#
# 1 139.1596 45.7640 24.7689 3.4976 20.4766 -9.3736
# 2 45.7640 98.5405 8.7150 1.1755 14.9335 -21.7866
# 3 24.7689 8.7150 74.1677 11.0420 7.8064 11.7124
# 4 3.4976 1.1755 11.0420 27.7187 1.6766 3.4294
# 5 20.4766 14.9335 7.8064 1.6766 30.9933 1.3369
# 6 -9.3736 -21.7866 11.7124 3.4294 1.3369 50.0404
#
#
#
# Elastic Compliance Matrix: (Units=1/GPa)
#
#
# Indices 1 2 3 4 5 6 
#
# 1 0.009372 -0.003302 -0.002487 0.000067 -0.004021 0.001003
# 2 -0.003302 0.013692 -0.000903 -0.000241 -0.004420 0.005689
# 3 -0.002487 -0.000903 0.016049 -0.005431 -0.001489 -0.004204
# 4 0.000067 -0.000241 -0.005431 0.038455 -0.000579 -0.001441
# 5 -0.004021 -0.004420 -0.001489 -0.000579 0.037600 -0.003294
# 6 0.001003 0.005689 -0.004204 -0.001441 -0.003294 0.023819
#
#
# Mechanical properties :
#
#
# Convention : Reuss Voigt Hill
#
# Bulk Modulus (GPa) = 38.86852 52.26263 45.56558
# Shear Modulus (GPa) = 31.06578 37.25848 34.16213
#
# Velocity S-wave (km/s) = 3.70699 4.05969 3.88735
# Velocity P-wave (km/s) = 5.95951 6.71513 6.34857
#
# Compressibility (1/GPa) = 0.02572776
#
# Stress axis : x y z
#
# Youngs Moduli (GPa) = 106.69812 73.03440 62.31029
#
# Poissons Ratio (x) = 0.24119 0.15497
# Poissons Ratio (y) = 0.35236 0.05629
# Poissons Ratio (z) = 0.26536 0.06597
#
# Static dielectric constant tensor:
#      x y z
#    x 4.586050 -0.562720 0.172410 
#    y -0.562720 3.854740 -0.007670 
#    z 0.172410 -0.007670 4.216010 
# 
# 
# High freq. dielectric constant tensor:
#      x y z
#    x 1.902520 -0.024150 0.010930 
#    y -0.024150 1.878390 0.014130 
#    z 0.010930 0.014130 1.895180 
# 
# From -- ./inp_files/420131.got.cif
#   From: 2010.06.25/outbox.cif.g09.slc.cpg/sg2_211_cif.got.tgz:420131.got - 2010.06.27 13:26:56.
