data_PCOD8007997
_publ_section_title
;
Structure prediction by ZEFSAII (Michael W. Deem and Ramdas Pophale) SiO2 
 PCOD8007997
Probable space group: P -1
;
_chemical_formula_sum "Si O2"
_cell_formula_units_Z 16
_cell_length_a 6.636057
_cell_length_b 9.018865
_cell_length_c 16.795900
_cell_angle_alpha 112.600659
_cell_angle_beta 61.127402
_cell_angle_gamma 128.273795
_cell_volume 685.739584
_symmetry_space_group_name_H-M "P -1"
_symmetry_group_IT_number 2
_symmetry_cell_setting 'triclinic'
loop_
_space_group_symop_operation_xyz
x,y,z
-x,-y,-z
loop_
_atom_site_type_symbol
_atom_site_label
_atom_site_fract_x
_atom_site_fract_y
_atom_site_fract_z
Si Si1 0.691188 0.839625 0.893504
Si Si2 0.790045 0.046737 0.481616
Si Si3 0.749826 0.687470 0.454535
Si Si4 0.160284 0.777586 0.015707
Si Si5 0.697644 0.510263 0.264853
Si Si6 0.722641 0.243312 0.832322
Si Si7 0.226748 0.094895 0.282697
Si Si8 0.566437 0.562439 0.127798
O O1 0.858923 0.903086 0.792389
O O2 0.672012 0.653833 0.898286
O O3 0.820029 0.022190 0.964703
O O4 0.366421 0.757478 0.914214
O O5 0.959918 0.243754 0.542088
O O6 0.974805 0.063889 0.375212
O O7 0.500000 0.000000 0.500000
O O8 0.719030 0.866744 0.513640
O O9 0.500000 0.500000 0.500000
O O10 0.750953 0.659828 0.354644
O O11 0.304723 0.808068 0.080463
O O12 0.846414 0.604900 0.039921
O O13 0.500315 0.298197 0.291984
O O14 0.582913 0.563663 0.220950
O O15 0.996435 0.554515 0.195691
O O16 0.485706 0.275705 0.856398
O O17 0.711410 0.071235 0.749786
#
# Coordination Sequence:
#
# PCOD8007997 Si02
#       8
#     2   2   2   2   2   2   2   2
#     4   9  19  37  60  87 122 165 203 253 308 363
#     4  11  25  44  67  95 125 164 209 262 318 381
#     4  11  23  45  65  93 125 160 206 264 319 379
#     4   9  19  38  59  85 128 163 201 257 306 358
#     4  10  21  41  61  87 126 161 206 252 310 374
#     4  10  21  38  61  90 125 165 207 256 306 369
#     4  10  20  42  63  87 128 165 204 258 317 368
#     4  10  21  36  61  90 119 165 208 252 304 365
#
# _framework density 23.332471000000002
#
# number of rings (size 3 to 8) (size 9 to 14) (size 15 to 20)
#    0.000    2.000    2.500    0.375    0.000    3.000 
#    4.500    5.625    0.000    0.000    0.000    0.000 
#    0.000    0.000    0.000    0.000    0.000    0.000 
#
# Total GULP energy -198229.450668 kJ/mol
# GULP energy per Si atom -12389.340667 kJ/mol
# Density = 2.327937 g / cm^3
# Si number density = 23.332471 Si / 1000 Ang^3
#
#
#
# Elastic Constant Matrix: (Units=GPa)
#
#
# Indices 1 2 3 4 5 6 
#
# 1 90.5210 30.2024 17.6274 -7.3357 -9.3362 0.0260
# 2 30.2024 133.7086 10.2435 -16.9372 -8.2908 5.2463
# 3 17.6274 10.2435 67.5070 -13.5397 -10.4403 -3.3888
# 4 -7.3357 -16.9372 -13.5397 33.8692 7.4385 -5.4173
# 5 -9.3362 -8.2908 -10.4403 7.4385 22.2698 3.2311
# 6 0.0260 5.2463 -3.3888 -5.4173 3.2311 31.4706
#
#
#
# Elastic Compliance Matrix: (Units=1/GPa)
#
#
# Indices 1 2 3 4 5 6 
#
# 1 0.012686 -0.002491 -0.002482 -0.000267 0.003353 -0.000253
# 2 -0.002491 0.008572 0.000173 0.003394 0.001232 -0.000951
# 3 -0.002482 0.000173 0.017486 0.005833 0.004932 0.002354
# 4 -0.000267 0.003394 0.005833 0.036750 -0.009457 0.007360
# 5 0.003353 0.001232 0.004932 -0.009457 0.053222 -0.006769
# 6 -0.000253 -0.000951 0.002354 0.007360 -0.006769 0.034150
#
#
# Mechanical properties :
#
#
# Convention : Reuss Voigt Hill
#
# Bulk Modulus (GPa) = 34.31318 45.32035 39.81676
# Shear Modulus (GPa) = 27.44527 33.09946 30.27236
#
# Velocity S-wave (km/s) = 3.43340 3.77052 3.60590
# Velocity P-wave (km/s) = 5.51867 6.19852 5.86845
#
# Compressibility (1/GPa) = 0.02914332
#
# Stress axis : x y z
#
# Youngs Moduli (GPa) = 78.82671 116.65835 57.18909
#
# Poissons Ratio (x) = 0.29065 0.14196
# Poissons Ratio (y) = 0.19639 -0.00992
# Poissons Ratio (z) = 0.19567 -0.02023
#
# Static dielectric constant tensor:
#      x y z
#    x 3.753430 0.139290 0.109270 
#    y 0.139290 4.564010 -0.063150 
#    z 0.109270 -0.063150 4.382940 
# 
# 
# High freq. dielectric constant tensor:
#      x y z
#    x 1.871770 0.011880 0.003510 
#    y 0.011880 1.953710 -0.009470 
#    z 0.003510 -0.009470 1.923320 
# 
# From -- ./inp_files/548208.got.cif
#   From: 2010.06.25/outbox.cif.g09.slc.cpg/sg2_275_cif.got.tgz:548208.got - 2010.06.27 13:26:56.
