data_PCOD8007730
_publ_section_title
;
Structure prediction by ZEFSAII (Michael W. Deem and Ramdas Pophale) SiO2 
 PCOD8007730
Probable space group: P -1
;
_chemical_formula_sum "Si O2"
_cell_formula_units_Z 14
_cell_length_a 8.495045
_cell_length_b 8.787700
_cell_length_c 11.939554
_cell_angle_alpha 84.950930
_cell_angle_beta 73.485621
_cell_angle_gamma 48.375934
_cell_volume 632.436465
_symmetry_space_group_name_H-M "P -1"
_symmetry_group_IT_number 2
_symmetry_cell_setting 'triclinic'
loop_
_space_group_symop_operation_xyz
x,y,z
-x,-y,-z
loop_
_atom_site_type_symbol
_atom_site_label
_atom_site_fract_x
_atom_site_fract_y
_atom_site_fract_z
Si Si1 0.089560 0.847338 0.766847
Si Si2 0.639254 0.892970 0.590481
Si Si3 0.874559 0.357684 0.438578
Si Si4 0.879007 0.421148 0.063245
Si Si5 0.923066 0.284871 0.828168
Si Si6 0.299792 0.298581 0.729244
Si Si7 0.407650 0.419013 0.313755
O O1 0.072239 0.821239 0.639284
O O2 0.979111 0.782844 0.871367
O O3 0.348042 0.677150 0.756524
O O4 0.980163 0.075158 0.802835
O O5 0.583474 0.766667 0.662482
O O6 0.902227 0.742586 0.530775
O O7 0.500000 0.000000 0.500000
O O8 0.549243 0.083232 0.677214
O O9 0.794031 0.551499 0.368854
O O10 0.687649 0.438477 0.564082
O O11 0.680360 0.605636 0.171447
O O12 0.812852 0.369232 0.968775
O O13 0.000000 0.500000 0.000000
O O14 0.739971 0.454781 0.770325
O O15 0.142191 0.250384 0.780789
#
# Coordination Sequence:
#
# PCOD8007730 Si02
#       7
#     2   2   2   2   2   2   2
#     4  11  25  42  66  95 132 169 209 264 328 381
#     4  12  22  39  69  96 129 176 218 253 313 386
#     4  11  24  41  64  98 133 170 213 260 314 382
#     4   9  22  44  70  91 123 171 215 269 317 378
#     4  11  22  42  65  94 134 167 213 267 321 372
#     4  10  20  41  67  95 130 168 219 262 309 378
#     4  12  24  39  65  99 133 169 213 262 320 378
#
# _framework density 22.136610000000001
#
# number of rings (size 3 to 8) (size 9 to 14) (size 15 to 20)
#    0.000    1.143    4.286    2.143    0.000    3.429 
#    0.000    3.571    0.000    0.000    0.000    0.000 
#    0.000    0.000    0.000    0.000    0.000    0.000 
#
# Total GULP energy -173508.439941 kJ/mol
# GULP energy per Si atom -12393.459996 kJ/mol
# Density = 2.208623 g / cm^3
# Si number density = 22.136610 Si / 1000 Ang^3
#
#
#
# Elastic Constant Matrix: (Units=GPa)
#
#
# Indices 1 2 3 4 5 6 
#
# 1 45.0050 36.8938 2.6777 -4.0065 8.3739 6.9408
# 2 36.8938 139.1713 59.6113 1.6918 15.0801 14.2542
# 3 2.6777 59.6113 119.6167 0.1198 32.1877 3.3911
# 4 -4.0065 1.6918 0.1198 31.2556 10.4597 2.9552
# 5 8.3739 15.0801 32.1877 10.4597 31.4459 8.3944
# 6 6.9408 14.2542 3.3911 2.9552 8.3944 38.5960
#
#
#
# Elastic Compliance Matrix: (Units=1/GPa)
#
#
# Indices 1 2 3 4 5 6 
#
# 1 0.035625 -0.011902 0.009843 0.011038 -0.017552 0.000097
# 2 -0.011902 0.013534 -0.008464 -0.004497 0.007762 -0.003458
# 3 0.009843 -0.008464 0.017731 0.008131 -0.020379 0.003608
# 4 0.011038 -0.004497 0.008131 0.041257 -0.023046 0.000815
# 5 -0.017552 0.007762 -0.020379 -0.023046 0.063966 -0.010067
# 6 0.000097 -0.003458 0.003608 0.000815 -0.010067 0.028979
#
#
# Mechanical properties :
#
#
# Convention : Reuss Voigt Hill
#
# Bulk Modulus (GPa) = 21.81350 55.79540 38.80445
# Shear Modulus (GPa) = 21.05967 33.90017 27.47992
#
# Velocity S-wave (km/s) = 3.08774 3.91757 3.52714
# Velocity P-wave (km/s) = 4.75265 6.76187 5.84425
#
# Compressibility (1/GPa) = 0.04584316
#
# Stress axis : x y z
#
# Youngs Moduli (GPa) = 28.07025 73.88764 56.39685
#
# Poissons Ratio (x) = 0.87945 -0.55513
# Poissons Ratio (y) = 0.33411 0.47737
# Poissons Ratio (z) = -0.27630 0.62542
#
# Static dielectric constant tensor:
#      x y z
#    x 3.903620 0.228710 0.060270 
#    y 0.228710 3.620730 0.567290 
#    z 0.060270 0.567290 4.436780 
# 
# 
# High freq. dielectric constant tensor:
#      x y z
#    x 1.854600 0.024890 0.003540 
#    y 0.024890 1.880970 0.005850 
#    z 0.003540 0.005850 1.884710 
# 
# From -- ./inp_files/27194.got.cif
#   From: 2010.06.25/outbox.cif.g09.slc.cpg/sg2_14_cif.got.tgz:27194.got - 2010.06.27 13:26:56.
