data_PCOD8007408
_publ_section_title
;
Structure prediction by ZEFSAII (Michael W. Deem and Ramdas Pophale) SiO2 
 PCOD8007408
Probable space group: P -1
;
_chemical_formula_sum "Si O2"
_cell_formula_units_Z 12
_cell_length_a 9.087048
_cell_length_b 17.936672
_cell_length_c 24.216763
_cell_angle_alpha 18.973993
_cell_angle_beta 150.208564
_cell_angle_gamma 150.994549
_cell_volume 601.110634
_symmetry_space_group_name_H-M "P -1"
_symmetry_group_IT_number 2
_symmetry_cell_setting 'triclinic'
loop_
_space_group_symop_operation_xyz
x,y,z
-x,-y,-z
loop_
_atom_site_type_symbol
_atom_site_label
_atom_site_fract_x
_atom_site_fract_y
_atom_site_fract_z
Si Si1 0.210974 0.531284 0.800305
Si Si2 0.308077 0.847588 0.882029
Si Si3 0.303601 0.053725 0.166022
Si Si4 0.316503 0.000517 0.574681
Si Si5 0.367144 0.328608 0.258702
Si Si6 0.338169 0.921988 0.060217
O O1 0.268545 0.731629 0.725481
O O2 0.337020 0.653918 0.696333
O O3 0.838866 0.371114 0.789002
O O4 0.405560 0.346405 0.006008
O O5 0.529378 0.991259 0.803679
O O6 0.952788 0.828786 0.766059
O O7 0.404376 0.002027 0.861118
O O8 0.344996 0.587599 0.086814
O O9 0.409861 0.928120 0.340285
O O10 0.925660 0.945104 0.110968
O O11 0.421243 0.199616 0.421874
O O12 0.000000 0.000000 0.500000
O O13 0.500000 0.000000 0.000000
#
# Coordination Sequence:
#
# PCOD8007408 Si02
#       6
#     2   2   2   2   2   2
#     4   9  23  40  62  90 118 168 200 246 305 355
#     4  10  20  41  62  92 117 164 203 242 309 358
#     4   9  21  39  64  88 119 163 196 253 294 364
#     4  12  22  38  62  97 125 150 207 253 303 352
#     4  10  22  36  68  88 124 159 199 255 296 361
#     4  10  23  38  67  86 120 162 211 245 292 369
#
# _framework density 19.963045999999999
#
# number of rings (size 3 to 8) (size 9 to 14) (size 15 to 20)
#    1.000    1.000    1.667    1.500    4.667    0.000 
#    0.000    1.667    0.000    0.000    0.000    0.000 
#    0.000    0.000    0.000    0.000    0.000    0.000 
#
# Total GULP energy -148757.216808 kJ/mol
# GULP energy per Si atom -12396.434734 kJ/mol
# Density = 1.991761 g / cm^3
# Si number density = 19.963046 Si / 1000 Ang^3
#
#
#
# Elastic Constant Matrix: (Units=GPa)
#
#
# Indices 1 2 3 4 5 6 
#
# 1 150.3569 46.2906 34.7302 -1.9386 -31.6068 8.8742
# 2 46.2906 78.7080 17.0679 9.7881 -29.6585 1.8792
# 3 34.7302 17.0679 61.3043 15.6348 -29.2569 -6.8019
# 4 -1.9386 9.7881 15.6348 18.0634 -8.6863 -5.1346
# 5 -31.6068 -29.6585 -29.2569 -8.6863 35.1684 1.5752
# 6 8.8742 1.8792 -6.8019 -5.1346 1.5752 39.1292
#
#
#
# Elastic Compliance Matrix: (Units=1/GPa)
#
#
# Indices 1 2 3 4 5 6 
#
# 1 0.010330 -0.004927 -0.005845 0.009586 0.002722 -0.001974
# 2 -0.004927 0.022107 0.008046 -0.010899 0.018249 -0.000710
# 3 -0.005845 0.008046 0.035679 -0.022737 0.025458 0.003133
# 4 0.009586 -0.010899 -0.022737 0.083991 0.001013 0.005378
# 5 0.002722 0.018249 0.025458 0.001013 0.067685 0.000340
# 6 -0.001974 -0.000710 0.003133 0.005378 0.000340 0.027275
#
#
# Mechanical properties :
#
#
# Convention : Reuss Voigt Hill
#
# Bulk Modulus (GPa) = 15.95783 54.06075 35.00929
# Shear Modulus (GPa) = 18.28771 31.29089 24.78930
#
# Velocity S-wave (km/s) = 3.02996 3.96339 3.52768
# Velocity P-wave (km/s) = 4.50022 6.93425 5.84533
#
# Compressibility (1/GPa) = 0.06266514
#
# Stress axis : x y z
#
# Youngs Moduli (GPa) = 96.80285 45.23443 28.02749
#
# Poissons Ratio (x) = 0.22288 0.16382
# Poissons Ratio (y) = 0.47696 -0.22552
# Poissons Ratio (z) = 0.56582 -0.36398
#
# Static dielectric constant tensor:
#      x y z
#    x 3.683260 0.098240 -0.095070 
#    y 0.098240 3.445380 0.035630 
#    z -0.095070 0.035630 3.455910 
# 
# 
# High freq. dielectric constant tensor:
#      x y z
#    x 1.793260 0.004830 -0.010240 
#    y 0.004830 1.761880 0.005980 
#    z -0.010240 0.005980 1.756170 
# 
# From -- ./inp_files/157163.got.cif
#   From: 2010.06.25/outbox.cif.g09.slc.cpg/sg2_79_cif.got.tgz:157163.got - 2010.06.27 13:26:56.
