data_PCOD8007085
_publ_section_title
;
Structure prediction by ZEFSAII (Michael W. Deem and Ramdas Pophale) SiO2 
 PCOD8007085
Probable space group: P -1
;
_chemical_formula_sum "Si O2"
_cell_formula_units_Z 16
_cell_length_a 16.168116
_cell_length_b 9.375346
_cell_length_c 11.078084
_cell_angle_alpha 106.381464
_cell_angle_beta 80.701093
_cell_angle_gamma 151.083381
_cell_volume 765.732175
_symmetry_space_group_name_H-M "P -1"
_symmetry_group_IT_number 2
_symmetry_cell_setting 'triclinic'
loop_
_space_group_symop_operation_xyz
x,y,z
-x,-y,-z
loop_
_atom_site_type_symbol
_atom_site_label
_atom_site_fract_x
_atom_site_fract_y
_atom_site_fract_z
Si Si1 0.714398 0.236433 0.716521
Si Si2 0.647138 0.173672 0.281811
Si Si3 0.399361 0.429372 0.405253
Si Si4 0.191988 0.834826 0.888736
Si Si5 0.274281 0.912083 0.558687
Si Si6 0.194281 0.870602 0.170431
Si Si7 0.909483 0.127406 0.288639
Si Si8 0.173412 0.252281 0.595009
O O1 0.704632 0.087985 0.586777
O O2 0.714942 0.145885 0.820415
O O3 0.893142 0.602459 0.733367
O O4 0.557150 0.107738 0.721446
O O5 0.664942 0.067976 0.155534
O O6 0.733696 0.254517 0.406492
O O7 0.757454 0.490379 0.296351
O O8 0.500000 0.500000 0.500000
O O9 0.304027 0.410662 0.496175
O O10 0.547656 0.727611 0.353360
O O11 0.266235 0.123263 0.286661
O O12 0.197842 0.986693 0.832938
O O13 0.009061 0.463678 0.832456
O O14 0.228641 0.953651 0.041269
O O15 0.106225 0.755761 0.587865
O O16 0.834606 0.870575 0.317241
O O17 0.000000 0.000000 0.500000
#
# Coordination Sequence:
#
# PCOD8007085 Si02
#       8
#     2   2   2   2   2   2   2   2
#     4  11  20  35  61  89 123 155 194 255 306 354
#     4  11  23  38  59  89 127 158 193 249 307 366
#     4  12  21  37  62  96 120 154 199 257 306 350
#     4   9  22  43  63  85 116 171 212 237 290 361
#     4  11  21  37  59  89 124 157 199 243 304 368
#     4  10  20  40  67  86 117 162 214 248 284 362
#     4  10  22  38  60  86 122 162 207 242 294 361
#     4  12  23  36  60  94 127 155 192 253 317 359
#
# _framework density 20.895033000000002
#
# number of rings (size 3 to 8) (size 9 to 14) (size 15 to 20)
#    0.000    1.250    3.750    2.250    1.750    2.500 
#    0.000    2.500    2.750    3.000    0.000    0.000 
#    0.000    0.000    0.000    0.000    0.000    0.000 
#
# Total GULP energy -198287.132457 kJ/mol
# GULP energy per Si atom -12392.945779 kJ/mol
# Density = 2.084747 g / cm^3
# Si number density = 20.895033 Si / 1000 Ang^3
#
#
#
# Elastic Constant Matrix: (Units=GPa)
#
#
# Indices 1 2 3 4 5 6 
#
# 1 117.3498 29.4474 23.3264 -14.0353 5.5399 -1.2619
# 2 29.4474 59.3859 21.0092 -9.8539 -1.3184 -13.2719
# 3 23.3264 21.0092 90.4249 -14.7052 11.4402 -13.9621
# 4 -14.0353 -9.8539 -14.7052 28.3735 -3.4301 -0.0356
# 5 5.5399 -1.3184 11.4402 -3.4301 17.9666 -5.7836
# 6 -1.2619 -13.2719 -13.9621 -0.0356 -5.7836 43.6631
#
#
#
# Elastic Compliance Matrix: (Units=1/GPa)
#
#
# Indices 1 2 3 4 5 6 
#
# 1 0.010371 -0.004843 -0.001051 0.002537 -0.003013 -0.001905
# 2 -0.004843 0.022945 -0.003285 0.004898 0.008426 0.006904
# 3 -0.001051 -0.003285 0.014184 0.004823 -0.007205 0.002556
# 4 0.002537 0.004898 0.004823 0.041389 0.005659 0.003888
# 5 -0.003013 0.008426 -0.007205 0.005659 0.065734 0.008882
# 6 -0.001905 0.006904 0.002556 0.003888 0.008882 0.026943
#
#
# Mechanical properties :
#
#
# Convention : Reuss Voigt Hill
#
# Bulk Modulus (GPa) = 34.31380 46.08073 40.19727
# Shear Modulus (GPa) = 23.85084 30.89249 27.37166
#
# Velocity S-wave (km/s) = 3.38221 3.84925 3.62326
# Velocity P-wave (km/s) = 5.63118 6.46969 6.06494
#
# Compressibility (1/GPa) = 0.02914279
#
# Stress axis : x y z
#
# Youngs Moduli (GPa) = 96.42521 43.58189 70.50342
#
# Poissons Ratio (x) = 0.21105 0.07407
# Poissons Ratio (y) = 0.46694 0.23163
# Poissons Ratio (z) = 0.10130 0.14318
#
# Static dielectric constant tensor:
#      x y z
#    x 3.999700 -0.372040 0.056880 
#    y -0.372040 4.420230 0.094670 
#    z 0.056880 0.094670 3.590310 
# 
# 
# High freq. dielectric constant tensor:
#      x y z
#    x 1.824090 0.005030 0.011300 
#    y 0.005030 1.828000 -0.012990 
#    z 0.011300 -0.012990 1.788070 
# 
# From -- ./inp_files/190363.got.cif
#   From: 2010.06.25/outbox.cif.g09.slc.cpg/sg2_96_cif.got.tgz:190363.got - 2010.06.27 13:26:56.
