data_PCOD8007991
_publ_section_title
;
Structure prediction by ZEFSAII (Michael W. Deem and Ramdas Pophale) SiO2 
 PCOD8007991
Probable space group: P -1
;
_chemical_formula_sum "Si O2"
_cell_formula_units_Z 12
_cell_length_a 19.271392
_cell_length_b 6.845056
_cell_length_c 4.944489
_cell_angle_alpha 106.680758
_cell_angle_beta 90.847543
_cell_angle_gamma 73.623148
_cell_volume 597.895273
_symmetry_space_group_name_H-M "P -1"
_symmetry_group_IT_number 2
_symmetry_cell_setting 'triclinic'
loop_
_space_group_symop_operation_xyz
x,y,z
-x,-y,-z
loop_
_atom_site_type_symbol
_atom_site_label
_atom_site_fract_x
_atom_site_fract_y
_atom_site_fract_z
Si Si1 0.582593 0.892564 0.893758
Si Si2 0.089304 0.833979 0.708160
Si Si3 0.017035 0.717051 0.159088
Si Si4 0.252556 0.788261 0.713883
Si Si5 0.298081 0.977292 0.274331
Si Si6 0.658187 0.670798 0.344885
O O1 0.591456 0.723493 0.579211
O O2 0.619867 0.075443 0.869623
O O3 0.627153 0.764230 0.094285
O O4 0.500000 0.000000 0.000000
O O5 0.051512 0.704972 0.453311
O O6 0.174074 0.771675 0.625108
O O7 0.076253 0.761570 0.978358
O O8 0.056903 0.089055 0.776982
O O9 0.000000 0.500000 0.000000
O O10 0.292234 0.820824 0.454034
O O11 0.302495 0.577507 0.777973
O O12 0.244728 0.969831 0.017152
O O13 0.281689 0.215625 0.495534
#
# Coordination Sequence:
#
# PCOD8007991 Si02
#       6
#     2   2   2   2   2   2
#     4  10  20  42  63  81 121 159 194 250 297 341
#     4  10  23  37  60  89 118 154 194 248 280 346
#     4  10  21  41  60  86 120 153 202 233 286 350
#     4  12  22  39  61  89 123 154 197 244 304 344
#     4  10  22  38  59  85 121 153 195 248 291 358
#     4  10  22  38  59  86 119 152 198 246 294 356
#
# _framework density 20.070405000000001
#
# number of rings (size 3 to 8) (size 9 to 14) (size 15 to 20)
#    1.000    0.667    1.667    3.000    0.000    2.667 
#    0.000    5.000    0.000    0.000    0.000    0.000 
#    0.000    0.000    0.000    0.000    0.000    0.000 
#
# Total GULP energy -148692.616344 kJ/mol
# GULP energy per Si atom -12391.051362 kJ/mol
# Density = 2.002472 g / cm^3
# Si number density = 20.070405 Si / 1000 Ang^3
#
#
#
# Elastic Constant Matrix: (Units=GPa)
#
#
# Indices 1 2 3 4 5 6 
#
# 1 97.0173 50.1546 20.3698 -11.2242 -14.2916 2.9364
# 2 50.1546 77.5218 35.3269 -11.2369 -8.1456 1.6814
# 3 20.3698 35.3269 95.7280 -18.1398 -3.1303 3.3068
# 4 -11.2242 -11.2369 -18.1398 36.1060 7.0454 2.8317
# 5 -14.2916 -8.1456 -3.1303 7.0454 28.4768 2.5494
# 6 2.9364 1.6814 3.3068 2.8317 2.5494 17.5798
#
#
#
# Elastic Compliance Matrix: (Units=1/GPa)
#
#
# Indices 1 2 3 4 5 6 
#
# 1 0.016441 -0.010164 0.000823 0.001556 0.005314 -0.002950
# 2 -0.010164 0.022317 -0.005949 0.000676 0.000416 0.000513
# 3 0.000823 -0.005949 0.013607 0.005650 -0.000931 -0.002903
# 4 0.001556 0.000676 0.005650 0.032858 -0.006014 -0.005808
# 5 0.005314 0.000416 -0.000931 -0.006014 0.039785 -0.005553
# 6 -0.002950 0.000513 -0.002903 -0.005808 -0.005553 0.059614
#
#
# Mechanical properties :
#
#
# Convention : Reuss Voigt Hill
#
# Bulk Modulus (GPa) = 45.90412 53.55220 49.72816
# Shear Modulus (GPa) = 22.47558 27.39358 24.93458
#
# Velocity S-wave (km/s) = 3.35003 3.69843 3.52853
# Velocity P-wave (km/s) = 6.15506 6.70656 6.43672
#
# Compressibility (1/GPa) = 0.02178454
#
# Stress axis : x y z
#
# Youngs Moduli (GPa) = 60.82277 44.80887 73.49156
#
# Poissons Ratio (x) = 0.45545 -0.06048
# Poissons Ratio (y) = 0.61822 0.43720
# Poissons Ratio (z) = -0.05005 0.26657
#
# Static dielectric constant tensor:
#      x y z
#    x 3.395400 0.154270 -0.021840 
#    y 0.154270 3.453440 -0.077240 
#    z -0.021840 -0.077240 3.890210 
# 
# 
# High freq. dielectric constant tensor:
#      x y z
#    x 1.761430 0.014800 0.001100 
#    y 0.014800 1.766760 -0.014720 
#    z 0.001100 -0.014720 1.808820 
# 
# From -- ./inp_files/102062.got.cif
#   From: 2010.06.25/outbox.cif.g09.slc.cpg/sg2_52_cif.got.tgz:102062.got - 2010.06.27 13:26:56.
