data_PCOD8007388
_publ_section_title
;
Structure prediction by ZEFSAII (Michael W. Deem and Ramdas Pophale) SiO2 
 PCOD8007388
Probable space group: P -1
;
_chemical_formula_sum "Si O2"
_cell_formula_units_Z 12
_cell_length_a 11.056964
_cell_length_b 8.104868
_cell_length_c 13.986253
_cell_angle_alpha 116.765465
_cell_angle_beta 33.760331
_cell_angle_gamma 123.598719
_cell_volume 580.034758
_symmetry_space_group_name_H-M "P -1"
_symmetry_group_IT_number 2
_symmetry_cell_setting 'triclinic'
loop_
_space_group_symop_operation_xyz
x,y,z
-x,-y,-z
loop_
_atom_site_type_symbol
_atom_site_label
_atom_site_fract_x
_atom_site_fract_y
_atom_site_fract_z
Si Si1 0.262478 0.349420 0.258037
Si Si2 0.454519 0.087277 0.648980
Si Si3 0.803301 0.261894 0.624789
Si Si4 0.410563 0.052677 0.974322
Si Si5 0.682017 0.547061 0.171042
Si Si6 0.206655 0.752019 0.873726
O O1 0.182929 0.515541 0.303625
O O2 0.512636 0.439357 0.167769
O O3 0.060086 0.244899 0.443790
O O4 0.285046 0.209118 0.120367
O O5 0.693052 0.200052 0.576495
O O6 0.342589 0.246735 0.732021
O O7 0.289712 0.908493 0.774968
O O8 0.500000 0.000000 0.500000
O O9 0.642944 0.125179 0.775646
O O10 0.500000 0.000000 0.000000
O O11 0.220393 0.869269 0.996261
O O12 0.948623 0.606497 0.977240
O O13 0.642538 0.391598 0.245540
#
# Coordination Sequence:
#
# PCOD8007388 Si02
#       6
#     2   2   2   2   2   2
#     4  10  20  41  62  87 122 157 198 250 302 351
#     4  10  22  40  60  89 120 160 200 244 305 355
#     4   9  22  40  60  90 121 152 204 253 290 362
#     4  11  21  38  63  89 117 161 198 240 309 356
#     4  10  21  41  61  87 124 154 199 252 297 357
#     4  10  22  41  61  89 120 155 204 248 294 365
#
# _framework density 20.688414999999999
#
# number of rings (size 3 to 8) (size 9 to 14) (size 15 to 20)
#    0.000    2.000    1.667    1.000    2.333    1.333 
#    9.000    0.000    0.000    0.000    0.000    0.000 
#    0.000    0.000    0.000    0.000    0.000    0.000 
#
# Total GULP energy -148702.554702 kJ/mol
# GULP energy per Si atom -12391.879559 kJ/mol
# Density = 2.064133 g / cm^3
# Si number density = 20.688415 Si / 1000 Ang^3
#
#
#
# Elastic Constant Matrix: (Units=GPa)
#
#
# Indices 1 2 3 4 5 6 
#
# 1 91.8293 43.6494 55.5742 8.2399 2.9081 -1.0543
# 2 43.6494 120.2421 51.9877 11.7539 -0.4713 -11.9369
# 3 55.5742 51.9877 93.5757 0.5963 4.9576 2.2699
# 4 8.2399 11.7539 0.5963 30.4481 8.3344 -15.9788
# 5 2.9081 -0.4713 4.9576 8.3344 30.7062 -1.9491
# 6 -1.0543 -11.9369 2.2699 -15.9788 -1.9491 21.5826
#
#
#
# Elastic Compliance Matrix: (Units=1/GPa)
#
#
# Indices 1 2 3 4 5 6 
#
# 1 0.018171 -0.002280 -0.009456 -0.006215 0.001212 -0.003871
# 2 -0.002280 0.012452 -0.005831 -0.001092 0.002074 0.006768
# 3 -0.009456 -0.005831 0.019792 0.003609 -0.003586 -0.003421
# 4 -0.006215 -0.001092 0.003609 0.061068 -0.013878 0.042672
# 5 0.001212 0.002074 -0.003586 -0.013878 0.036487 -0.005396
# 6 -0.003871 0.006768 -0.003421 0.042672 -0.005396 0.081353
#
#
# Mechanical properties :
#
#
# Convention : Reuss Voigt Hill
#
# Bulk Modulus (GPa) = 65.43925 67.56329 66.50127
# Shear Modulus (GPa) = 18.54952 26.84311 22.69631
#
# Velocity S-wave (km/s) = 2.99760 3.60598 3.31577
# Velocity P-wave (km/s) = 6.60911 7.07573 6.84640
#
# Compressibility (1/GPa) = 0.01528135
#
# Stress axis : x y z
#
# Youngs Moduli (GPa) = 55.03332 80.30817 50.52648
#
# Poissons Ratio (x) = 0.18310 0.47776
# Poissons Ratio (y) = 0.12548 0.29462
# Poissons Ratio (z) = 0.52037 0.46827
#
# Static dielectric constant tensor:
#      x y z
#    x 3.913530 0.051080 -0.396010 
#    y 0.051080 4.155310 0.230490 
#    z -0.396010 0.230490 3.738400 
# 
# 
# High freq. dielectric constant tensor:
#      x y z
#    x 1.800800 0.002250 -0.014260 
#    y 0.002250 1.832230 0.002680 
#    z -0.014260 0.002680 1.791100 
# 
# From -- ./inp_files/257831.got.cif
#   From: 2010.06.25/outbox.cif.g09.slc.cpg/sg2_129_cif.got.tgz:257831.got - 2010.06.27 13:26:56.
