data_PCOD8007516
_publ_section_title
;
Structure prediction by ZEFSAII (Michael W. Deem and Ramdas Pophale) SiO2 
 PCOD8007516
Probable space group: P -1
;
_chemical_formula_sum "Si O2"
_cell_formula_units_Z 16
_cell_length_a 12.832959
_cell_length_b 5.095320
_cell_length_c 22.402032
_cell_angle_alpha 96.473531
_cell_angle_beta 151.016422
_cell_angle_gamma 88.714174
_cell_volume 696.383291
_symmetry_space_group_name_H-M "P -1"
_symmetry_group_IT_number 2
_symmetry_cell_setting 'triclinic'
loop_
_space_group_symop_operation_xyz
x,y,z
-x,-y,-z
loop_
_atom_site_type_symbol
_atom_site_label
_atom_site_fract_x
_atom_site_fract_y
_atom_site_fract_z
Si Si1 0.390179 0.052573 0.280899
Si Si2 0.825177 0.657966 0.389852
Si Si3 0.633354 0.608330 0.127425
Si Si4 0.861396 0.041860 0.524457
Si Si5 0.987610 0.904105 0.823315
Si Si6 0.219689 0.469254 0.988840
Si Si7 0.359146 0.495298 0.185631
Si Si8 0.917499 0.161354 0.264054
O O1 0.640314 0.165269 0.429411
O O2 0.303795 0.232305 0.191292
O O3 0.246486 0.056662 0.268081
O O4 0.360920 0.749727 0.235155
O O5 0.588562 0.479996 0.266371
O O6 0.000000 0.500000 0.500000
O O7 0.913209 0.748457 0.369150
O O8 0.806946 0.907019 0.429618
O O9 0.469718 0.582897 0.100693
O O10 0.721121 0.918754 0.168023
O O11 0.830893 0.442101 0.232084
O O12 0.500000 0.500000 0.000000
O O13 0.903904 0.844749 0.594115
O O14 0.962274 0.862743 0.738873
O O15 0.058610 0.642013 0.881082
O O16 0.165937 0.162394 0.933407
O O17 0.186694 0.487534 0.044664
#
# Coordination Sequence:
#
# PCOD8007516 Si02
#       8
#     2   2   2   2   2   2   2   2
#     4  11  25  44  64  91 130 170 216 266 308 370
#     4  10  20  41  64  94 129 160 203 267 321 382
#     4  12  23  43  65  94 132 164 203 264 320 377
#     4  10  24  39  66  96 129 166 208 260 322 374
#     4  12  25  44  63  91 130 174 218 259 306 372
#     4  12  25  41  68  95 127 167 212 265 322 379
#     4  11  24  41  67  96 125 165 213 264 327 375
#     4  12  25  41  67  98 128 171 210 257 318 384
#
# _framework density 22.975854999999999
#
# number of rings (size 3 to 8) (size 9 to 14) (size 15 to 20)
#    0.000    0.750    3.750    3.375    3.500    3.500 
#    0.000    0.000    0.000    5.250    0.000    0.000 
#    0.000    0.000    0.000    0.000    0.000    0.000 
#
# Total GULP energy -198423.102335 kJ/mol
# GULP energy per Si atom -12401.443896 kJ/mol
# Density = 2.292356 g / cm^3
# Si number density = 22.975855 Si / 1000 Ang^3
#
#
#
# Elastic Constant Matrix: (Units=GPa)
#
#
# Indices 1 2 3 4 5 6 
#
# 1 140.7361 14.7688 47.1329 -19.4530 9.9625 1.4192
# 2 14.7688 78.5020 5.4651 -15.9254 2.6534 3.2414
# 3 47.1329 5.4651 55.5853 -18.3877 -10.2668 6.5944
# 4 -19.4530 -15.9254 -18.3877 35.8596 8.3433 -4.2129
# 5 9.9625 2.6534 -10.2668 8.3433 40.4495 -3.1729
# 6 1.4192 3.2414 6.5944 -4.2129 -3.1729 32.4104
#
#
#
# Elastic Compliance Matrix: (Units=1/GPa)
#
#
# Indices 1 2 3 4 5 6 
#
# 1 0.011167 -0.000866 -0.009885 0.002045 -0.005520 0.001334
# 2 -0.000866 0.014312 0.001384 0.006919 -0.001877 -0.000959
# 3 -0.009885 0.001384 0.031149 0.008858 0.008101 -0.004099
# 4 0.002045 0.006919 0.008858 0.038325 -0.006476 0.001764
# 5 -0.005520 -0.001877 0.008101 -0.006476 0.029663 0.000843
# 6 0.001334 -0.000959 -0.004099 0.001764 0.000843 0.032038
#
#
# Mechanical properties :
#
#
# Convention : Reuss Voigt Hill
#
# Bulk Modulus (GPa) = 26.39043 45.50635 35.94839
# Shear Modulus (GPa) = 26.59302 35.57433 31.08367
#
# Velocity S-wave (km/s) = 3.40580 3.93916 3.68215
# Velocity P-wave (km/s) = 5.19394 6.36698 5.81014
#
# Compressibility (1/GPa) = 0.03789253
#
# Stress axis : x y z
#
# Youngs Moduli (GPa) = 89.55079 69.87167 32.10396
#
# Poissons Ratio (x) = 0.06053 0.31734
# Poissons Ratio (y) = 0.07758 -0.04442
# Poissons Ratio (z) = 0.88519 -0.09667
#
# Static dielectric constant tensor:
#      x y z
#    x -0.041230 2.151280 1.174500 
#    y 2.151280 3.153190 -0.497460 
#    z 1.174500 -0.497460 3.929850 
# 
# 
# High freq. dielectric constant tensor:
#      x y z
#    x 1.919450 0.005620 -0.002270 
#    y 0.005620 1.907390 -0.009680 
#    z -0.002270 -0.009680 1.902200 
# 
# From -- ./inp_files/95016.got.cif
#   From: 2010.06.25/outbox.cif.g09.slc.cpg/sg2_48_cif.got.tgz:95016.got - 2010.06.27 13:26:56.
