data_PCOD8007681
_publ_section_title
;
Structure prediction by ZEFSAII (Michael W. Deem and Ramdas Pophale) SiO2 
 PCOD8007681
Probable space group: P -1
;
_chemical_formula_sum "Si O2"
_cell_formula_units_Z 16
_cell_length_a 11.179712
_cell_length_b 9.425264
_cell_length_c 9.330454
_cell_angle_alpha 50.273808
_cell_angle_beta 95.958882
_cell_angle_gamma 85.039117
_cell_volume 736.912678
_symmetry_space_group_name_H-M "P -1"
_symmetry_group_IT_number 2
_symmetry_cell_setting 'triclinic'
loop_
_space_group_symop_operation_xyz
x,y,z
-x,-y,-z
loop_
_atom_site_type_symbol
_atom_site_label
_atom_site_fract_x
_atom_site_fract_y
_atom_site_fract_z
Si Si1 0.881439 0.579573 0.343997
Si Si2 0.702922 0.329102 0.386165
Si Si3 0.907642 0.654934 0.974236
Si Si4 0.544943 0.138836 0.026705
Si Si5 0.357401 0.386224 0.042465
Si Si6 0.875748 0.954466 0.572659
Si Si7 0.273046 0.188150 0.597274
Si Si8 0.563404 0.543155 0.687455
O O1 0.802900 0.419195 0.422768
O O2 0.800838 0.756194 0.301084
O O3 0.000000 0.500000 0.500000
O O4 0.923822 0.641398 0.154966
O O5 0.576464 0.367928 0.439369
O O6 0.762501 0.114809 0.502949
O O7 0.671824 0.415423 0.169797
O O8 0.771137 0.658182 0.899008
O O9 0.928807 0.852963 0.791708
O O10 0.000000 0.500000 0.000000
O O11 0.426649 0.225710 0.049379
O O12 0.643394 0.016049 0.225939
O O13 0.593006 0.311739 0.838113
O O14 0.500000 0.000000 0.000000
O O15 0.437047 0.400330 0.182628
O O16 0.821644 0.827288 0.531871
O O17 0.000000 0.000000 0.500000
O O18 0.346251 0.355766 0.459339
#
# Coordination Sequence:
#
# PCOD8007681 Si02
#       8
#     2   2   2   2   2   2   2   2
#     4  11  25  48  68  96 142 182 229 285 349 412
#     4  10  22  40  67 100 138 176 231 287 337 415
#     4  11  23  42  71  95 131 182 228 285 345 408
#     4  11  24  41  67 103 148 178 224 285 346 419
#     4  10  20  41  66  99 136 177 228 283 343 410
#     4  12  24  43  71 103 133 176 242 289 342 417
#     4  12  25  45  72 103 141 183 228 292 349 419
#     4  11  23  42  69 103 139 184 228 280 355 408
#
# _framework density 21.712204
#
# number of rings (size 3 to 8) (size 9 to 14) (size 15 to 20)
#    0.000    1.000    1.250    8.250    1.750    3.000 
#    2.250    1.250    0.000    0.000    0.000    0.000 
#    0.000    0.000    0.000    0.000    0.000    0.000 
#
# Total GULP energy -198298.628447 kJ/mol
# GULP energy per Si atom -12393.664278 kJ/mol
# Density = 2.166279 g / cm^3
# Si number density = 21.712204 Si / 1000 Ang^3
#
#
#
# Elastic Constant Matrix: (Units=GPa)
#
#
# Indices 1 2 3 4 5 6 
#
# 1 133.2621 39.1675 68.6673 -2.7238 -2.5176 2.4379
# 2 39.1675 125.7495 68.7320 0.8270 -3.5089 -13.7007
# 3 68.6673 68.7320 149.2821 -9.3522 1.0342 -5.6663
# 4 -2.7238 0.8270 -9.3522 37.3604 6.1972 11.9414
# 5 -2.5176 -3.5089 1.0342 6.1972 31.6656 -2.8208
# 6 2.4379 -13.7007 -5.6663 11.9414 -2.8208 37.7381
#
#
#
# Elastic Compliance Matrix: (Units=1/GPa)
#
#
# Indices 1 2 3 4 5 6 
#
# 1 0.010005 -0.000971 -0.004215 0.000102 0.000662 -0.001614
# 2 -0.000971 0.011569 -0.004935 -0.003515 0.002483 0.004820
# 3 -0.004215 -0.004935 0.011087 0.003231 -0.001968 -0.001024
# 4 0.000102 -0.003515 0.003231 0.032732 -0.007939 -0.011748
# 5 0.000662 0.002483 -0.001968 -0.007939 0.034026 0.005619
# 6 -0.001614 0.004820 -0.001024 -0.011748 0.005619 0.032336
#
#
# Mechanical properties :
#
#
# Convention : Reuss Voigt Hill
#
# Bulk Modulus (GPa) = 80.50947 84.60303 82.55625
# Shear Modulus (GPa) = 32.02318 36.80126 34.41222
#
# Velocity S-wave (km/s) = 3.84460 4.12145 3.98543
# Velocity P-wave (km/s) = 7.54113 7.85485 7.69959
#
# Compressibility (1/GPa) = 0.01242090
#
# Stress axis : x y z
#
# Youngs Moduli (GPa) = 99.94773 86.43510 90.19900
#
# Poissons Ratio (x) = 0.08391 0.38017
# Poissons Ratio (y) = 0.09703 0.44510
# Poissons Ratio (z) = 0.42125 0.42653
#
# Static dielectric constant tensor:
#      x y z
#    x 4.253440 -0.048010 0.027040 
#    y -0.048010 3.952840 0.032390 
#    z 0.027040 0.032390 4.189140 
# 
# 
# High freq. dielectric constant tensor:
#      x y z
#    x 1.867880 -0.003380 0.005830 
#    y -0.003380 1.852330 0.002470 
#    z 0.005830 0.002470 1.858490 
# 
# From -- ./inp_files/207180.got.cif
#   From: 2010.06.25/outbox.cif.g09.slc.cpg/sg2_104_cif.got.tgz:207180.got - 2010.06.27 13:26:56.
