data_PCOD8007359
_publ_section_title
;
Structure prediction by ZEFSAII (Michael W. Deem and Ramdas Pophale) SiO2 
 PCOD8007359
Probable space group: P -1
;
_chemical_formula_sum "Si O2"
_cell_formula_units_Z 16
_cell_length_a 11.052141
_cell_length_b 13.968614
_cell_length_c 13.814328
_cell_angle_alpha 51.450996
_cell_angle_beta 134.956409
_cell_angle_gamma 149.322162
_cell_volume 769.295712
_symmetry_space_group_name_H-M "P -1"
_symmetry_group_IT_number 2
_symmetry_cell_setting 'triclinic'
loop_
_space_group_symop_operation_xyz
x,y,z
-x,-y,-z
loop_
_atom_site_type_symbol
_atom_site_label
_atom_site_fract_x
_atom_site_fract_y
_atom_site_fract_z
Si Si1 0.688516 0.310159 0.269625
Si Si2 0.973921 0.546348 0.106514
Si Si3 0.130409 0.721239 0.281082
Si Si4 0.071830 0.918585 0.653974
Si Si5 0.245090 0.470708 0.202258
Si Si6 0.707774 0.044488 0.428485
Si Si7 0.096738 0.980527 0.156683
Si Si8 0.827060 0.853267 0.277267
O O1 0.745027 0.199756 0.393494
O O2 0.723457 0.355498 0.144861
O O3 0.901703 0.506342 0.326426
O O4 0.396354 0.182475 0.220568
O O5 0.137454 0.717465 0.168969
O O6 0.154676 0.533065 0.180113
O O7 0.877566 0.577813 0.943440
O O8 0.065502 0.820509 0.219090
O O9 0.412569 0.834956 0.413163
O O10 0.258296 0.937239 0.680522
O O11 0.829977 0.701149 0.686178
O O12 0.214763 0.041633 0.755081
O O13 0.000000 0.000000 0.500000
O O14 0.559025 0.632458 0.271844
O O15 0.924064 0.081333 0.579230
O O16 0.902330 0.920211 0.168082
O O17 0.000000 0.000000 0.000000
#
# Coordination Sequence:
#
# PCOD8007359 Si02
#       8
#     2   2   2   2   2   2   2   2
#     4   9  20  40  65  84 117 167 204 253 305 356
#     4   9  20  40  65  91 120 168 206 253 311 368
#     4   9  21  39  63  85 115 166 205 243 307 357
#     4  10  22  38  61  91 127 166 198 251 316 367
#     4  11  21  40  61  95 131 155 208 261 310 372
#     4  10  20  41  61  89 123 155 209 257 303 372
#     4  11  24  41  60  90 126 162 206 255 303 369
#     4  11  26  37  60  97 126 164 204 252 313 370
#
# _framework density 20.798244
#
# number of rings (size 3 to 8) (size 9 to 14) (size 15 to 20)
#    0.750    1.250    1.250    1.500    1.750    7.500 
#    0.000    3.125    0.000    0.000    0.000    0.000 
#    0.000    0.000    0.000    0.000    0.000    0.000 
#
# Total GULP energy -198241.098661 kJ/mol
# GULP energy per Si atom -12390.068666 kJ/mol
# Density = 2.075091 g / cm^3
# Si number density = 20.798244 Si / 1000 Ang^3
#
#
#
# Elastic Constant Matrix: (Units=GPa)
#
#
# Indices 1 2 3 4 5 6 
#
# 1 52.8505 32.5855 16.8628 -0.1359 -8.0432 8.9831
# 2 32.5855 171.2214 44.9693 7.7648 10.2333 12.4777
# 3 16.8628 44.9693 67.0003 3.7085 3.4349 -7.0948
# 4 -0.1359 7.7648 3.7085 24.9500 5.5521 -5.1203
# 5 -8.0432 10.2333 3.4349 5.5521 26.9467 2.1980
# 6 8.9831 12.4777 -7.0948 -5.1203 2.1980 22.5466
#
#
#
# Elastic Compliance Matrix: (Units=1/GPa)
#
#
# Indices 1 2 3 4 5 6 
#
# 1 0.026829 -0.003000 -0.006533 -0.003211 0.011698 -0.012955
# 2 -0.003000 0.008436 -0.005220 -0.002425 -0.002492 -0.005424
# 3 -0.006533 -0.005220 0.021569 0.002017 -0.004205 0.013147
# 4 -0.003211 -0.002425 0.002017 0.045991 -0.010975 0.014770
# 5 0.011698 -0.002492 -0.004205 -0.010975 0.045285 -0.011512
# 6 -0.012955 -0.005424 0.013147 0.014770 -0.011512 0.061130
#
#
# Mechanical properties :
#
#
# Convention : Reuss Voigt Hill
#
# Bulk Modulus (GPa) = 36.58998 53.32305 44.95652
# Shear Modulus (GPa) = 20.17312 27.99896 24.08604
#
# Velocity S-wave (km/s) = 3.11777 3.67306 3.40675
# Velocity P-wave (km/s) = 5.53097 6.60927 6.09402
#
# Compressibility (1/GPa) = 0.02732989
#
# Stress axis : x y z
#
# Youngs Moduli (GPa) = 37.27277 118.53536 46.36276
#
# Poissons Ratio (x) = 0.35556 0.30289
# Poissons Ratio (y) = 0.11180 0.24200
# Poissons Ratio (z) = 0.24350 0.61872
#
# Static dielectric constant tensor:
#      x y z
#    x 7.893960 -0.045120 0.714350 
#    y -0.045120 3.762530 0.042100 
#    z 0.714350 0.042100 3.641880 
# 
# 
# High freq. dielectric constant tensor:
#      x y z
#    x 1.825230 0.000960 -0.005230 
#    y 0.000960 1.816400 0.002790 
#    z -0.005230 0.002790 1.791900 
# 
# From -- ./inp_files/521569.got.cif
#   From: 2010.06.25/outbox.cif.g09.slc.cpg/sg2_261_cif.got.tgz:521569.got - 2010.06.27 13:26:56.
