data_PCOD8007787
_publ_section_title
;
Structure prediction by ZEFSAII (Michael W. Deem and Ramdas Pophale) SiO2 
 PCOD8007787
Probable space group: P -1
;
_chemical_formula_sum "Si O2"
_cell_formula_units_Z 16
_cell_length_a 14.178541
_cell_length_b 9.526446
_cell_length_c 11.941230
_cell_angle_alpha 73.315735
_cell_angle_beta 148.236790
_cell_angle_gamma 95.767845
_cell_volume 779.633161
_symmetry_space_group_name_H-M "P -1"
_symmetry_group_IT_number 2
_symmetry_cell_setting 'triclinic'
loop_
_space_group_symop_operation_xyz
x,y,z
-x,-y,-z
loop_
_atom_site_type_symbol
_atom_site_label
_atom_site_fract_x
_atom_site_fract_y
_atom_site_fract_z
Si Si1 0.328523 0.820989 0.279180
Si Si2 0.665655 0.149583 0.471377
Si Si3 0.612758 0.827485 0.166738
Si Si4 0.620054 0.330564 0.170569
Si Si5 0.035541 0.319427 0.593369
Si Si6 0.652698 0.833061 0.461265
Si Si7 0.075458 0.159269 0.901797
Si Si8 0.999830 0.326601 0.016248
O O1 0.413427 0.806561 0.493986
O O2 0.506238 0.760130 0.391871
O O3 0.198822 0.708126 0.156656
O O4 0.233539 0.999758 0.114453
O O5 0.587159 0.288228 0.274959
O O6 0.889214 0.105930 0.716252
O O7 0.592697 0.014916 0.376777
O O8 0.808784 0.777701 0.311012
O O9 0.659659 0.783245 0.351909
O O10 0.462654 0.749174 0.990413
O O11 0.500000 0.000000 0.000000
O O12 0.839228 0.289272 0.374589
O O13 0.500000 0.500000 0.000000
O O14 0.105508 0.257095 0.802258
O O15 0.000000 0.500000 0.500000
O O16 0.860170 0.772969 0.730534
O O17 0.069287 0.272963 0.973507
O O18 0.000000 0.500000 0.000000
#
# Coordination Sequence:
#
# PCOD8007787 Si02
#       8
#     2   2   2   2   2   2   2   2
#     4  11  22  42  70  98 122 171 224 263 327 397
#     4  10  20  41  68  96 128 167 224 274 317 399
#     4  12  26  43  64  99 138 172 222 279 328 391
#     4  11  24  44  68  99 134 176 224 276 330 397
#     4  11  25  44  71 100 130 182 228 269 337 399
#     4  12  24  40  67  98 130 169 218 268 330 390
#     4  10  21  42  70  96 124 169 227 267 320 402
#     4  11  25  42  64  97 137 164 206 280 336 378
#
# _framework density 20.522473000000002
#
# number of rings (size 3 to 8) (size 9 to 14) (size 15 to 20)
#    0.000    1.000    5.000    1.875    1.750    3.000 
#    0.000    0.000    0.000    0.000    0.000    0.000 
#    0.000    0.000    0.000    0.000    0.000    0.000 
#
# Total GULP energy -198348.740213 kJ/mol
# GULP energy per Si atom -12396.796263 kJ/mol
# Density = 2.047576 g / cm^3
# Si number density = 20.522473 Si / 1000 Ang^3
#
#
#
# Elastic Constant Matrix: (Units=GPa)
#
#
# Indices 1 2 3 4 5 6 
#
# 1 155.5349 46.9320 67.5314 10.7796 -19.6930 -4.4757
# 2 46.9320 138.9525 51.5531 5.9603 -7.6655 -1.7338
# 3 67.5314 51.5531 116.7099 12.6050 -20.8317 -4.0045
# 4 10.7796 5.9603 12.6050 38.2299 -3.2942 -4.0818
# 5 -19.6930 -7.6655 -20.8317 -3.2942 41.6229 -0.9966
# 6 -4.4757 -1.7338 -4.0045 -4.0818 -0.9966 27.7604
#
#
#
# Elastic Compliance Matrix: (Units=1/GPa)
#
#
# Indices 1 2 3 4 5 6 
#
# 1 0.008940 -0.001339 -0.004147 -0.000707 0.001869 0.000723
# 2 -0.001339 0.008813 -0.003237 -0.000001 -0.000634 -0.000155
# 3 -0.004147 -0.003237 0.013386 -0.002305 0.003980 0.000864
# 4 -0.000707 -0.000001 -0.002305 0.027572 0.000781 0.003636
# 5 0.001869 -0.000634 0.003980 0.000781 0.026892 0.001916
# 6 0.000723 -0.000155 0.000864 0.003636 0.001916 0.036857
#
#
# Mechanical properties :
#
#
# Convention : Reuss Voigt Hill
#
# Bulk Modulus (GPa) = 73.01957 82.58115 77.80036
# Shear Modulus (GPa) = 34.60892 37.86805 36.23849
#
# Velocity S-wave (km/s) = 4.11102 4.30024 4.20670
# Velocity P-wave (km/s) = 7.62834 8.06119 7.84775
#
# Compressibility (1/GPa) = 0.01369496
#
# Stress axis : x y z
#
# Youngs Moduli (GPa) = 111.85160 113.47168 74.70219
#
# Poissons Ratio (x) = 0.15189 0.30980
# Poissons Ratio (y) = 0.14972 0.24178
# Poissons Ratio (z) = 0.46386 0.36727
#
# Static dielectric constant tensor:
#      x y z
#    x 3.790160 0.172750 -0.125570 
#    y 0.172750 3.914950 0.126920 
#    z -0.125570 0.126920 3.982180 
# 
# 
# High freq. dielectric constant tensor:
#      x y z
#    x 1.803970 0.011840 -0.006880 
#    y 0.011840 1.800490 0.006730 
#    z -0.006880 0.006730 1.821660 
# 
# From -- ./inp_files/246060.got.cif
#   From: 2010.06.25/outbox.cif.g09.slc.cpg/sg2_124_cif.got.tgz:246060.got - 2010.06.27 13:26:56.
