data_PCOD8007109
_publ_section_title
;
Structure prediction by ZEFSAII (Michael W. Deem and Ramdas Pophale) SiO2 
 PCOD8007109
Probable space group: P -1
;
_chemical_formula_sum "Si O2"
_cell_formula_units_Z 16
_cell_length_a 12.244376
_cell_length_b 17.599599
_cell_length_c 9.023245
_cell_angle_alpha 148.216125
_cell_angle_beta 120.655257
_cell_angle_gamma 48.588507
_cell_volume 761.330448
_symmetry_space_group_name_H-M "P -1"
_symmetry_group_IT_number 2
_symmetry_cell_setting 'triclinic'
loop_
_space_group_symop_operation_xyz
x,y,z
-x,-y,-z
loop_
_atom_site_type_symbol
_atom_site_label
_atom_site_fract_x
_atom_site_fract_y
_atom_site_fract_z
Si Si1 0.093495 0.336955 0.391343
Si Si2 0.070293 0.847694 0.085338
Si Si3 0.866652 0.212615 0.631568
Si Si4 0.381542 0.346765 0.147979
Si Si5 0.464491 0.617417 0.307214
Si Si6 0.359666 0.645870 0.776984
Si Si7 0.859165 0.538577 0.060211
Si Si8 0.386798 0.186211 0.187809
O O1 0.143626 0.372569 0.641538
O O2 0.232101 0.217241 0.188908
O O3 0.000000 0.500000 0.500000
O O4 0.004281 0.241260 0.201479
O O5 0.082079 0.797089 0.180622
O O6 0.229228 0.785185 0.017569
O O7 0.973920 0.047706 0.337868
O O8 0.704215 0.236729 0.558170
O O9 0.867517 0.364932 0.807484
O O10 0.303697 0.543812 0.468338
O O11 0.556888 0.271672 0.113857
O O12 0.375985 0.227840 0.074427
O O13 0.289792 0.339541 0.932116
O O14 0.504168 0.499863 0.280921
O O15 0.569209 0.695389 0.496522
O O16 0.500000 0.500000 0.000000
O O17 0.000000 0.500000 0.000000
O O18 0.500000 0.000000 0.000000
#
# Coordination Sequence:
#
# PCOD8007109 Si02
#       8
#     2   2   2   2   2   2   2   2
#     4  12  23  43  69  97 133 178 223 260 328 403
#     4  11  23  40  64 102 133 174 213 279 328 384
#     4  11  23  39  65  98 135 167 224 273 328 386
#     4  10  23  41  68  97 127 176 224 272 324 394
#     4  11  19  38  68  96 119 172 224 263 312 393
#     4  10  20  40  67  92 132 166 225 270 321 387
#     4  12  24  43  67  98 133 178 222 273 326 402
#     4  11  25  44  67  96 134 170 212 278 335 389
#
# _framework density 21.015841000000002
#
# number of rings (size 3 to 8) (size 9 to 14) (size 15 to 20)
#    0.000    1.000    3.750    4.500    0.000    0.000 
#    2.250    1.875    0.000    0.000    0.000    0.000 
#    0.000    0.000    0.000    0.000    0.000    0.000 
#
# Total GULP energy -198402.251636 kJ/mol
# GULP energy per Si atom -12400.140727 kJ/mol
# Density = 2.096801 g / cm^3
# Si number density = 21.015841 Si / 1000 Ang^3
#
#
#
# Elastic Constant Matrix: (Units=GPa)
#
#
# Indices 1 2 3 4 5 6 
#
# 1 120.5032 37.5303 30.5054 9.3818 -17.3170 -6.1141
# 2 37.5303 121.0961 57.5978 -6.7504 -5.1729 -4.2845
# 3 30.5054 57.5978 98.8417 -5.5676 -11.2915 -0.8487
# 4 9.3818 -6.7504 -5.5676 39.1616 -9.9791 -5.4092
# 5 -17.3170 -5.1729 -11.2915 -9.9791 34.6634 4.2668
# 6 -6.1141 -4.2845 -0.8487 -5.4092 4.2668 35.6611
#
#
#
# Elastic Compliance Matrix: (Units=1/GPa)
#
#
# Indices 1 2 3 4 5 6 
#
# 1 0.010109 -0.002391 -0.001429 -0.002037 0.003558 0.000677
# 2 -0.002391 0.012103 -0.006342 0.001644 -0.001138 0.001279
# 3 -0.001429 -0.006342 0.014820 0.002244 0.003910 -0.000782
# 4 -0.002037 0.001644 0.002244 0.029110 0.007925 0.003369
# 5 0.003558 -0.001138 0.003910 0.007925 0.034299 -0.002335
# 6 0.000677 0.001279 -0.000782 0.003369 -0.002335 0.029083
#
#
# Mechanical properties :
#
#
# Convention : Reuss Voigt Hill
#
# Bulk Modulus (GPa) = 59.84632 65.74534 62.79583
# Shear Modulus (GPa) = 32.17118 36.21771 34.19445
#
# Velocity S-wave (km/s) = 3.91680 4.15583 4.03808
# Velocity P-wave (km/s) = 6.99955 7.37425 7.18934
#
# Compressibility (1/GPa) = 0.01670946
#
# Stress axis : x y z
#
# Youngs Moduli (GPa) = 98.91926 82.62108 67.47635
#
# Poissons Ratio (x) = 0.19754 0.09644
# Poissons Ratio (y) = 0.23650 0.42790
# Poissons Ratio (z) = 0.14138 0.52394
#
# Static dielectric constant tensor:
#      x y z
#    x 3.403570 -0.022450 -0.099720 
#    y -0.022450 3.907460 -0.007480 
#    z -0.099720 -0.007480 3.530740 
# 
# 
# High freq. dielectric constant tensor:
#      x y z
#    x 1.837060 -0.005740 -0.001920 
#    y -0.005740 1.825170 -0.014370 
#    z -0.001920 -0.014370 1.811820 
# 
# From -- ./inp_files/207301.got.cif
#   From: 2010.06.25/outbox.cif.g09.slc.cpg/sg2_104_cif.got.tgz:207301.got - 2010.06.27 13:26:56.
