data_PCOD8007838
_publ_section_title
;
Structure prediction by ZEFSAII (Michael W. Deem and Ramdas Pophale) SiO2 
 PCOD8007838
Probable space group: P -1
;
_chemical_formula_sum "Si O2"
_cell_formula_units_Z 16
_cell_length_a 20.966807
_cell_length_b 17.554746
_cell_length_c 6.187096
_cell_angle_alpha 97.479054
_cell_angle_beta 96.522885
_cell_angle_gamma 19.430919
_cell_volume 750.844006
_symmetry_space_group_name_H-M "P -1"
_symmetry_group_IT_number 2
_symmetry_cell_setting 'triclinic'
loop_
_space_group_symop_operation_xyz
x,y,z
-x,-y,-z
loop_
_atom_site_type_symbol
_atom_site_label
_atom_site_fract_x
_atom_site_fract_y
_atom_site_fract_z
Si Si1 0.417497 0.283093 0.678522
Si Si2 0.173236 0.658861 0.421272
Si Si3 0.279560 0.835231 0.636619
Si Si4 0.738169 0.826791 0.467111
Si Si5 0.333598 0.230360 0.896870
Si Si6 0.083226 0.456464 0.203578
Si Si7 0.616599 0.447218 0.297288
Si Si8 0.542716 0.631806 0.952873
O O1 0.242633 0.513324 0.556619
O O2 0.357288 0.285824 0.822863
O O3 0.517452 0.236495 0.843947
O O4 0.563223 0.083328 0.483468
O O5 0.226060 0.681305 0.555464
O O6 0.281526 0.533939 0.185593
O O7 0.946091 0.902068 0.399031
O O8 0.403632 0.694875 0.411646
O O9 0.313463 0.718873 0.738465
O O10 0.357896 0.817933 0.805832
O O11 0.723888 0.763929 0.309204
O O12 0.759626 0.775297 0.703880
O O13 0.924128 0.663566 0.391097
O O14 0.178532 0.420171 0.100187
O O15 0.500000 0.000000 0.000000
O O16 0.000000 0.500000 0.000000
O O17 0.612337 0.478666 0.057838
#
# Coordination Sequence:
#
# PCOD8007838 Si02
#       8
#     2   2   2   2   2   2   2   2
#     4  11  24  40  60  87 129 166 202 261 316 373
#     4  10  23  40  61  95 133 166 206 254 319 369
#     4  10  20  41  69  93 128 166 210 256 303 374
#     4  10  21  40  62  84 119 153 204 265 313 374
#     4  11  22  38  68  87 109 157 216 259 314 373
#     4   9  20  38  60  93 112 142 208 262 316 373
#     4   9  20  40  67  98 125 164 212 258 302 364
#     4  10  23  40  60  93 131 168 207 251 317 371
#
# _framework density 21.309352000000001
#
# number of rings (size 3 to 8) (size 9 to 14) (size 15 to 20)
#    0.000    2.000    1.250    1.125    1.750    2.500 
#    0.000   21.250    0.000    0.000    0.000    0.000 
#    0.000    0.000    0.000    0.000    0.000    0.000 
#
# Total GULP energy -198259.570535 kJ/mol
# GULP energy per Si atom -12391.223158 kJ/mol
# Density = 2.126085 g / cm^3
# Si number density = 21.309352 Si / 1000 Ang^3
#
#
#
# Elastic Constant Matrix: (Units=GPa)
#
#
# Indices 1 2 3 4 5 6 
#
# 1 115.2055 68.7720 46.0574 -1.8305 -26.0474 3.7899
# 2 68.7720 132.5421 46.5385 -9.8254 -6.9802 -12.2092
# 3 46.0574 46.5385 99.0808 -10.8149 -20.3745 -0.9237
# 4 -1.8305 -9.8254 -10.8149 27.1463 -2.0619 1.7041
# 5 -26.0474 -6.9802 -20.3745 -2.0619 44.3715 -2.9608
# 6 3.7899 -12.2092 -0.9237 1.7041 -2.9608 30.5617
#
#
#
# Elastic Compliance Matrix: (Units=1/GPa)
#
#
# Indices 1 2 3 4 5 6 
#
# 1 0.015785 -0.007412 -0.002786 -0.001971 0.006444 -0.004268
# 2 -0.007412 0.012961 -0.002986 0.002410 -0.003200 0.005563
# 3 -0.002786 -0.002986 0.014267 0.004783 0.004653 -0.000232
# 4 -0.001971 0.002410 0.004783 0.039762 0.003229 -0.000553
# 5 0.006444 -0.003200 0.004653 0.003229 0.028144 0.000610
# 6 -0.004268 0.005563 -0.000232 -0.000553 0.000610 0.035555
#
#
# Mechanical properties :
#
#
# Convention : Reuss Voigt Hill
#
# Bulk Modulus (GPa) = 60.07385 74.39602 67.23494
# Shear Modulus (GPa) = 28.02856 32.77993 30.40424
#
# Velocity S-wave (km/s) = 3.63066 3.92636 3.78140
# Velocity P-wave (km/s) = 6.76965 7.45273 7.11939
#
# Compressibility (1/GPa) = 0.01664618
#
# Stress axis : x y z
#
# Youngs Moduli (GPa) = 63.35328 77.15191 70.09263
#
# Poissons Ratio (x) = 0.57184 0.19526
# Poissons Ratio (y) = 0.46957 0.20928
# Poissons Ratio (z) = 0.17648 0.23036
#
# Static dielectric constant tensor:
#      x y z
#    x 4.291280 -0.465510 -0.518700 
#    y -0.465510 3.957140 0.270000 
#    z -0.518700 0.270000 4.330970 
# 
# 
# High freq. dielectric constant tensor:
#      x y z
#    x 1.837650 -0.011650 -0.014900 
#    y -0.011650 1.818470 -0.005800 
#    z -0.014900 -0.005800 1.851660 
# 
# From -- ./inp_files/120084.got.cif
#   From: 2010.06.25/outbox.cif.g09.slc.cpg/sg2_61_cif.got.tgz:120084.got - 2010.06.27 13:26:56.
