data_PCOD8007216
_publ_section_title
;
Structure prediction by ZEFSAII (Michael W. Deem and Ramdas Pophale) SiO2 
 PCOD8007216
Probable space group: P -1
;
_chemical_formula_sum "Si O2"
_cell_formula_units_Z 16
_cell_length_a 11.180631
_cell_length_b 12.566081
_cell_length_c 13.872628
_cell_angle_alpha 58.603711
_cell_angle_beta 146.870818
_cell_angle_gamma 97.925758
_cell_volume 698.949765
_symmetry_space_group_name_H-M "P -1"
_symmetry_group_IT_number 2
_symmetry_cell_setting 'triclinic'
loop_
_space_group_symop_operation_xyz
x,y,z
-x,-y,-z
loop_
_atom_site_type_symbol
_atom_site_label
_atom_site_fract_x
_atom_site_fract_y
_atom_site_fract_z
Si Si1 0.734989 0.679636 0.705296
Si Si2 0.035194 0.581920 0.766868
Si Si3 0.656170 0.755956 0.252582
Si Si4 0.716212 0.253044 0.134596
Si Si5 0.890873 0.171936 0.808492
Si Si6 0.857302 0.896212 0.196371
Si Si7 0.249078 0.917972 0.583349
Si Si8 0.762450 0.763969 0.881661
O O1 0.809114 0.708021 0.637096
O O2 0.447979 0.702784 0.493043
O O3 0.697780 0.799773 0.706086
O O4 0.000000 0.500000 0.000000
O O5 0.875578 0.618168 0.541293
O O6 0.276546 0.601205 0.911530
O O7 0.186825 0.399176 0.983508
O O8 0.828531 0.769242 0.281690
O O9 0.488019 0.703658 0.113472
O O10 0.446572 0.924593 0.088951
O O11 0.607451 0.219986 0.171673
O O12 0.040904 0.093145 0.409192
O O13 0.046697 0.153424 0.824637
O O14 0.969517 0.246762 0.906585
O O15 0.000000 0.000000 0.000000
O O16 0.088308 0.888546 0.414442
O O17 0.490669 0.905915 0.694099
#
# Coordination Sequence:
#
# PCOD8007216 Si02
#       8
#     2   2   2   2   2   2   2   2
#     4  10  25  46  66  93 136 183 222 278 334 400
#     4  11  24  42  65  96 129 177 219 268 333 406
#     4  10  21  39  66 101 132 171 213 272 335 402
#     4  10  22  38  68  95 130 172 213 267 333 399
#     4  12  26  43  70 102 131 176 229 284 332 395
#     4  10  20  40  68  97 135 167 219 276 331 393
#     4  10  20  41  66  97 129 172 214 267 333 393
#     4  11  26  44  68  94 137 173 222 280 332 398
#
# _framework density 22.891486
#
# number of rings (size 3 to 8) (size 9 to 14) (size 15 to 20)
#    0.000    1.500    2.500    1.500    5.250    8.000 
#    0.000    1.250    0.000    0.000    0.000    0.000 
#    0.000    0.000    0.000    0.000    0.000    0.000 
#
# Total GULP energy -198443.282979 kJ/mol
# GULP energy per Si atom -12402.705186 kJ/mol
# Density = 2.283938 g / cm^3
# Si number density = 22.891486 Si / 1000 Ang^3
#
#
#
# Elastic Constant Matrix: (Units=GPa)
#
#
# Indices 1 2 3 4 5 6 
#
# 1 108.7676 7.9047 20.8303 8.8294 0.3582 -9.4213
# 2 7.9047 89.8519 22.0706 27.2344 -8.0911 8.0760
# 3 20.8303 22.0706 81.4975 26.3675 2.3984 6.5085
# 4 8.8294 27.2344 26.3675 38.7767 -0.8313 -2.8350
# 5 0.3582 -8.0911 2.3984 -0.8313 35.0292 0.8765
# 6 -9.4213 8.0760 6.5085 -2.8350 0.8765 30.6601
#
#
#
# Elastic Compliance Matrix: (Units=1/GPa)
#
#
# Indices 1 2 3 4 5 6 
#
# 1 0.010094 -0.000675 -0.002830 0.000383 -0.000154 0.003920
# 2 -0.000675 0.015281 -0.000153 -0.010788 0.003423 -0.005295
# 3 -0.002830 -0.000153 0.017190 -0.011367 -0.001316 -0.005492
# 4 0.000383 -0.010788 -0.011367 0.041663 -0.000960 0.009252
# 5 -0.000154 0.003423 -0.001316 -0.000960 0.029447 -0.001601
# 6 0.003920 -0.005295 -0.005492 0.009252 -0.001601 0.037282
#
#
# Mechanical properties :
#
#
# Convention : Reuss Voigt Hill
#
# Bulk Modulus (GPa) = 28.37028 42.41424 35.39226
# Shear Modulus (GPa) = 29.40789 36.18062 32.79425
#
# Velocity S-wave (km/s) = 3.58811 3.97990 3.78907
# Velocity P-wave (km/s) = 5.43933 6.29985 5.88534
#
# Compressibility (1/GPa) = 0.03524816
#
# Stress axis : x y z
#
# Youngs Moduli (GPa) = 99.07027 65.44255 58.17397
#
# Poissons Ratio (x) = 0.04420 0.16461
# Poissons Ratio (y) = 0.06692 0.00890
# Poissons Ratio (z) = 0.28033 0.01002
#
# Static dielectric constant tensor:
#      x y z
#    x 4.601780 -0.296130 -0.008500 
#    y -0.296130 3.993980 0.249830 
#    z -0.008500 0.249830 4.021710 
# 
# 
# High freq. dielectric constant tensor:
#      x y z
#    x 1.916060 -0.008160 -0.003110 
#    y -0.008160 1.895730 0.019790 
#    z -0.003110 0.019790 1.898210 
# 
# From -- ./inp_files/315509.got.cif
#   From: 2010.06.25/outbox.cif.g09.slc.cpg/sg2_158_cif.got.tgz:315509.got - 2010.06.27 13:26:56.
