data_PCOD8007801
_publ_section_title
;
Structure prediction by ZEFSAII (Michael W. Deem and Ramdas Pophale) SiO2 
 PCOD8007801
Probable space group: P -1
;
_chemical_formula_sum "Si O2"
_cell_formula_units_Z 16
_cell_length_a 8.680515
_cell_length_b 8.246759
_cell_length_c 22.308258
_cell_angle_alpha 53.390919
_cell_angle_beta 41.372680
_cell_angle_gamma 81.058705
_cell_volume 707.324403
_symmetry_space_group_name_H-M "P -1"
_symmetry_group_IT_number 2
_symmetry_cell_setting 'triclinic'
loop_
_space_group_symop_operation_xyz
x,y,z
-x,-y,-z
loop_
_atom_site_type_symbol
_atom_site_label
_atom_site_fract_x
_atom_site_fract_y
_atom_site_fract_z
Si Si1 0.938841 0.516746 0.141120
Si Si2 0.744764 0.531951 0.520985
Si Si3 0.911549 0.490283 0.683931
Si Si4 0.686105 0.644350 0.970110
Si Si5 0.501089 0.608426 0.793833
Si Si6 0.359316 0.715116 0.602746
Si Si7 0.318794 0.905308 0.313669
Si Si8 0.527657 0.960878 0.896102
O O1 0.779979 0.562946 0.124823
O O2 0.707874 0.370213 0.290839
O O3 0.028921 0.345210 0.123390
O O4 0.194286 0.766246 0.040440
O O5 0.888681 0.504027 0.426424
O O6 0.552341 0.629291 0.537766
O O7 0.570016 0.267536 0.663041
O O8 0.981640 0.729407 0.453340
O O9 0.076539 0.588971 0.675670
O O10 0.776482 0.643651 0.674118
O O11 0.629065 0.222687 0.834082
O O12 0.715026 0.898758 0.896526
O O13 0.500000 0.500000 0.000000
O O14 0.536912 0.517014 0.103429
O O15 0.562902 0.877103 0.721630
O O16 0.500000 0.000000 0.500000
O O17 0.410339 0.026736 0.195287
#
# Coordination Sequence:
#
# PCOD8007801 Si02
#       8
#     2   2   2   2   2   2   2   2
#     4  11  26  41  69 107 136 180 231 284 345 407
#     4  10  25  45  69 101 138 182 230 283 347 401
#     4  11  26  45  71 101 135 185 233 284 347 402
#     4  10  20  41  68  98 137 178 226 281 342 398
#     4  12  24  41  70 105 137 184 231 277 345 413
#     4  12  28  47  72 102 139 178 233 284 341 420
#     4  10  22  42  72  96 142 178 227 283 346 400
#     4  10  23  45  72  98 140 180 228 291 344 403
#
# _framework density 22.620456999999998
#
# number of rings (size 3 to 8) (size 9 to 14) (size 15 to 20)
#    0.000    1.250    2.500    3.000   10.500    4.000 
#    0.000    0.000    0.000    0.000    0.000    0.000 
#    0.000    0.000    0.000    0.000    0.000    0.000 
#
# Total GULP energy -198310.647896 kJ/mol
# GULP energy per Si atom -12394.415493 kJ/mol
# Density = 2.256897 g / cm^3
# Si number density = 22.620457 Si / 1000 Ang^3
#
#
#
# Elastic Constant Matrix: (Units=GPa)
#
#
# Indices 1 2 3 4 5 6 
#
# 1 135.2831 51.6579 42.5313 -3.8202 -11.5944 -13.1389
# 2 51.6579 117.1763 50.0346 -3.6659 -8.9592 -13.4123
# 3 42.5313 50.0346 100.0704 -6.6645 9.5540 -1.8861
# 4 -3.8202 -3.6659 -6.6645 43.8068 -0.7041 -6.2998
# 5 -11.5944 -8.9592 9.5540 -0.7041 38.3398 -0.9578
# 6 -13.1389 -13.4123 -1.8861 -6.2998 -0.9578 39.0154
#
#
#
# Elastic Compliance Matrix: (Units=1/GPa)
#
#
# Indices 1 2 3 4 5 6 
#
# 1 0.009869 -0.002422 -0.003212 0.000583 0.003292 0.002511
# 2 -0.002422 0.012672 -0.005558 0.000560 0.003710 0.003453
# 3 -0.003212 -0.005558 0.014737 0.001077 -0.005979 -0.002253
# 4 0.000583 0.000560 0.001077 0.023714 0.000581 0.004284
# 5 0.003292 0.003710 -0.005979 0.000581 0.029519 0.002914
# 6 0.002511 0.003453 -0.002253 0.004284 0.002914 0.028318
#
#
# Mechanical properties :
#
#
# Convention : Reuss Voigt Hill
#
# Bulk Modulus (GPa) = 67.14113 71.21973 69.18043
# Shear Modulus (GPa) = 34.20505 38.11948 36.16226
#
# Velocity S-wave (km/s) = 3.89283 4.10954 4.00265
# Velocity P-wave (km/s) = 7.06764 7.35329 7.21188
#
# Compressibility (1/GPa) = 0.01489400
#
# Stress axis : x y z
#
# Youngs Moduli (GPa) = 101.32826 78.91529 67.85599
#
# Poissons Ratio (x) = 0.19114 0.21792
# Poissons Ratio (y) = 0.24543 0.37716
# Poissons Ratio (z) = 0.32542 0.43863
#
# Static dielectric constant tensor:
#      x y z
#    x 5.243410 -1.310930 0.458590 
#    y -1.310930 5.368730 -0.607810 
#    z 0.458590 -0.607810 4.107180 
# 
# 
# High freq. dielectric constant tensor:
#      x y z
#    x 1.898570 -0.003530 0.005960 
#    y -0.003530 1.897280 -0.004920 
#    z 0.005960 -0.004920 1.880390 
# 
# From -- ./inp_files/307895.got.cif
#   From: 2010.06.25/outbox.cif.g09.slc.cpg/sg2_154_cif.got.tgz:307895.got - 2010.06.27 13:26:56.
