data_PCOD8007883
_publ_section_title
;
Structure prediction by ZEFSAII (Michael W. Deem and Ramdas Pophale) SiO2 
 PCOD8007883
Probable space group: P -1
;
_chemical_formula_sum "Si O2"
_cell_formula_units_Z 16
_cell_length_a 19.371354
_cell_length_b 11.736763
_cell_length_c 8.432091
_cell_angle_alpha 49.603534
_cell_angle_beta 129.675741
_cell_angle_gamma 149.577538
_cell_volume 723.391880
_symmetry_space_group_name_H-M "P -1"
_symmetry_group_IT_number 2
_symmetry_cell_setting 'triclinic'
loop_
_space_group_symop_operation_xyz
x,y,z
-x,-y,-z
loop_
_atom_site_type_symbol
_atom_site_label
_atom_site_fract_x
_atom_site_fract_y
_atom_site_fract_z
Si Si1 0.319443 0.861836 0.225565
Si Si2 0.756397 0.175305 0.206556
Si Si3 0.821010 0.704552 0.197405
Si Si4 0.036232 0.385610 0.346451
Si Si5 0.511007 0.680484 0.415160
Si Si6 0.444219 0.705454 0.622866
Si Si7 0.251252 0.496188 0.062013
Si Si8 0.006442 0.138023 0.256843
O O1 0.169898 0.662225 0.271703
O O2 0.395659 0.799201 0.390140
O O3 0.413630 0.098287 0.246787
O O4 0.305230 0.899558 0.992241
O O5 0.915766 0.324521 0.309970
O O6 0.666118 0.944381 0.385414
O O7 0.753351 0.334162 0.141239
O O8 0.923757 0.704871 0.405903
O O9 0.671839 0.508041 0.238860
O O10 0.804495 0.672825 0.013650
O O11 0.890604 0.954457 0.118205
O O12 0.982245 0.262705 0.203059
O O13 0.500000 0.500000 0.500000
O O14 0.471403 0.625568 0.591918
O O15 0.409127 0.655222 0.186920
O O16 0.159466 0.342067 0.220873
O O17 0.000000 0.000000 0.500000
#
# Coordination Sequence:
#
# PCOD8007883 Si02
#       8
#     2   2   2   2   2   2   2   2
#     4  10  20  41  70  97 130 172 228 279 322 409
#     4  12  25  41  69  97 139 174 229 281 325 407
#     4  10  23  41  72  95 139 177 227 274 330 408
#     4  10  22  41  64 102 132 177 220 275 348 380
#     4  12  28  45  66  97 139 176 222 279 346 401
#     4  10  22  43  69  96 130 179 225 272 344 384
#     4  12  24  45  68 102 129 180 234 272 334 395
#     4  10  21  41  70  96 138 176 215 278 336 404
#
# _framework density 22.118027000000001
#
# number of rings (size 3 to 8) (size 9 to 14) (size 15 to 20)
#    0.000    1.250    2.500    3.375   10.500    0.500 
#    2.250    1.250    0.000    0.000    0.000    0.000 
#    0.000    0.000    0.000    0.000    0.000    0.000 
#
# Total GULP energy -198470.556964 kJ/mol
# GULP energy per Si atom -12404.409810 kJ/mol
# Density = 2.206769 g / cm^3
# Si number density = 22.118027 Si / 1000 Ang^3
#
#
#
# Elastic Constant Matrix: (Units=GPa)
#
#
# Indices 1 2 3 4 5 6 
#
# 1 115.2973 46.7313 14.0487 5.0922 4.4207 1.4736
# 2 46.7313 132.3833 13.6682 3.6303 17.7578 0.2433
# 3 14.0487 13.6682 30.1911 -1.0766 -6.2390 8.2516
# 4 5.0922 3.6303 -1.0766 36.0183 -2.1809 -8.7822
# 5 4.4207 17.7578 -6.2390 -2.1809 25.3793 4.7506
# 6 1.4736 0.2433 8.2516 -8.7822 4.7506 36.6003
#
#
#
# Elastic Compliance Matrix: (Units=1/GPa)
#
#
# Indices 1 2 3 4 5 6 
#
# 1 0.010497 -0.003209 -0.003663 -0.001258 -0.000630 0.000204
# 2 -0.003209 0.010446 -0.005671 -0.000735 -0.008635 0.002283
# 3 -0.003663 -0.005671 0.044372 0.000570 0.017808 -0.011993
# 4 -0.001258 -0.000735 0.000570 0.029822 0.002163 0.006802
# 5 -0.000630 -0.008635 0.017808 0.002163 0.052020 -0.010165
# 6 0.000204 0.002283 -0.011993 0.006802 -0.010165 0.032954
#
#
# Mechanical properties :
#
#
# Convention : Reuss Voigt Hill
#
# Bulk Modulus (GPa) = 24.85628 47.41866 36.13747
# Shear Modulus (GPa) = 22.87213 33.16114 28.01664
#
# Velocity S-wave (km/s) = 3.21922 3.87626 3.56292
# Velocity P-wave (km/s) = 5.00802 6.44355 5.77060
#
# Compressibility (1/GPa) = 0.04023128
#
# Stress axis : x y z
#
# Youngs Moduli (GPa) = 95.26361 95.72908 22.53661
#
# Poissons Ratio (x) = 0.30716 0.08255
# Poissons Ratio (y) = 0.30567 0.12780
# Poissons Ratio (z) = 0.34895 0.54284
#
# Static dielectric constant tensor:
#      x y z
#    x 4.083620 -0.236590 -0.121460 
#    y -0.236590 4.441630 0.143880 
#    z -0.121460 0.143880 3.671650 
# 
# 
# High freq. dielectric constant tensor:
#      x y z
#    x 1.871320 -0.001470 -0.013330 
#    y -0.001470 1.888420 0.002650 
#    z -0.013330 0.002650 1.845050 
# 
# From -- ./inp_files/205160.got.cif
#   From: 2010.06.25/outbox.cif.g09.slc.cpg/sg2_103_cif.got.tgz:205160.got - 2010.06.27 13:26:56.
