data_PCOD8007071
_publ_section_title
;
Structure prediction by ZEFSAII (Michael W. Deem and Ramdas Pophale) SiO2 
 PCOD8007071
Probable space group: P -1
;
_chemical_formula_sum "Si O2"
_cell_formula_units_Z 16
_cell_length_a 6.953679
_cell_length_b 22.974253
_cell_length_c 17.006654
_cell_angle_alpha 159.925095
_cell_angle_beta 74.977141
_cell_angle_gamma 92.572144
_cell_volume 721.234742
_symmetry_space_group_name_H-M "P -1"
_symmetry_group_IT_number 2
_symmetry_cell_setting 'triclinic'
loop_
_space_group_symop_operation_xyz
x,y,z
-x,-y,-z
loop_
_atom_site_type_symbol
_atom_site_label
_atom_site_fract_x
_atom_site_fract_y
_atom_site_fract_z
Si Si1 0.839948 0.741507 0.346302
Si Si2 0.103264 0.883941 0.597957
Si Si3 0.927416 0.779658 0.059663
Si Si4 0.493508 0.413204 0.546942
Si Si5 0.557155 0.636740 0.336522
Si Si6 0.956625 0.823228 0.285304
Si Si7 0.400880 0.745124 0.819030
Si Si8 0.219842 0.404895 0.292271
O O1 0.010862 0.773022 0.419371
O O2 0.614112 0.792408 0.489589
O O3 0.761503 0.878135 0.446385
O O4 0.000000 0.500000 0.000000
O O5 0.313369 0.696988 0.393938
O O6 0.199219 0.980794 0.651250
O O7 0.893215 0.083887 0.925956
O O8 0.854525 0.793126 0.176570
O O9 0.828912 0.678219 0.886513
O O10 0.228576 0.642951 0.851843
O O11 0.504137 0.312460 0.500782
O O12 0.527134 0.243512 0.264137
O O13 0.718254 0.436378 0.543683
O O14 0.777871 0.390420 0.989061
O O15 0.000000 0.000000 0.500000
O O16 0.500000 0.500000 0.500000
O O17 0.538218 0.782677 0.921120
O O18 0.000000 0.500000 0.500000
#
# Coordination Sequence:
#
# PCOD8007071 Si02
#       8
#     2   2   2   2   2   2   2   2
#     4  10  24  47  69  94 138 175 224 281 354 401
#     4  12  23  42  67  98 140 180 224 282 341 404
#     4  11  21  38  70 102 133 177 229 277 336 398
#     4  10  21  43  63  98 142 175 225 280 322 412
#     4  10  26  42  70  98 139 181 221 273 357 400
#     4  10  21  45  73  99 132 175 230 294 332 399
#     4  10  20  40  66  99 139 175 222 286 327 397
#     4  11  20  36  68 101 129 175 228 276 331 390
#
# _framework density 22.184176999999998
#
# number of rings (size 3 to 8) (size 9 to 14) (size 15 to 20)
#    0.000    1.500    5.000    0.750    1.750    5.500 
#    0.000    2.500    0.000    0.000    0.000    0.000 
#    0.000    0.000    0.000    0.000    0.000    0.000 
#
# Total GULP energy -198225.626695 kJ/mol
# GULP energy per Si atom -12389.101668 kJ/mol
# Density = 2.213369 g / cm^3
# Si number density = 22.184177 Si / 1000 Ang^3
#
#
#
# Elastic Constant Matrix: (Units=GPa)
#
#
# Indices 1 2 3 4 5 6 
#
# 1 114.2976 80.2432 28.4542 -9.0533 16.2995 -19.0338
# 2 80.2432 208.9524 48.7420 -20.7641 9.6207 -3.4166
# 3 28.4542 48.7420 58.1975 3.9443 10.5177 -13.4413
# 4 -9.0533 -20.7641 3.9443 28.9076 -8.7765 3.5224
# 5 16.2995 9.6207 10.5177 -8.7765 33.5966 -3.3055
# 6 -19.0338 -3.4166 -13.4413 3.5224 -3.3055 46.2113
#
#
#
# Elastic Compliance Matrix: (Units=1/GPa)
#
#
# Indices 1 2 3 4 5 6 
#
# 1 0.013813 -0.005036 -0.000397 -0.001359 -0.005003 0.004947
# 2 -0.005036 0.008835 -0.006948 0.007271 0.003620 -0.003737
# 3 -0.000397 -0.006948 0.027411 -0.012488 -0.008912 0.007610
# 4 -0.001359 0.007271 -0.012488 0.046071 0.013914 -0.006171
# 5 -0.005003 0.003620 -0.008912 0.013914 0.037307 -0.002777
# 6 0.004947 -0.003737 0.007610 -0.006171 -0.002777 0.025886
#
#
# Mechanical properties :
#
#
# Convention : Reuss Voigt Hill
#
# Bulk Modulus (GPa) = 39.52922 77.36960 58.44941
# Shear Modulus (GPa) = 25.97175 36.67696 31.32436
#
# Velocity S-wave (km/s) = 3.42531 4.07048 3.76175
# Velocity P-wave (km/s) = 5.78800 7.55272 6.72847
#
# Compressibility (1/GPa) = 0.02529774
#
# Stress axis : x y z
#
# Youngs Moduli (GPa) = 72.39539 113.18454 36.48227
#
# Poissons Ratio (x) = 0.56997 0.01448
# Poissons Ratio (y) = 0.36456 0.25347
# Poissons Ratio (z) = 0.02874 0.78638
#
# Static dielectric constant tensor:
#      x y z
#    x 4.032470 -0.033310 -0.049810 
#    y -0.033310 4.972780 -0.152390 
#    z -0.049810 -0.152390 2.899730 
# 
# 
# High freq. dielectric constant tensor:
#      x y z
#    x 1.862560 -0.008950 0.000490 
#    y -0.008950 1.895170 -0.018070 
#    z 0.000490 -0.018070 1.852910 
# 
# From -- ./inp_files/551266.got.cif
#   From: 2010.06.25/outbox.cif.g09.slc.cpg/sg2_276_cif.got.tgz:551266.got - 2010.06.27 13:26:56.
