data_PCOD8007791
_publ_section_title
;
Structure prediction by ZEFSAII (Michael W. Deem and Ramdas Pophale) SiO2 
 PCOD8007791
Probable space group: P -1
;
_chemical_formula_sum "Si O2"
_cell_formula_units_Z 14
_cell_length_a 9.592069
_cell_length_b 11.693597
_cell_length_c 8.487631
_cell_angle_alpha 104.360694
_cell_angle_beta 61.832334
_cell_angle_gamma 65.409847
_cell_volume 635.112543
_symmetry_space_group_name_H-M "P -1"
_symmetry_group_IT_number 2
_symmetry_cell_setting 'triclinic'
loop_
_space_group_symop_operation_xyz
x,y,z
-x,-y,-z
loop_
_atom_site_type_symbol
_atom_site_label
_atom_site_fract_x
_atom_site_fract_y
_atom_site_fract_z
Si Si1 0.340197 0.029753 0.724159
Si Si2 0.383857 0.673157 0.178724
Si Si3 0.434388 0.267054 0.319452
Si Si4 0.058227 0.744224 0.162616
Si Si5 0.044890 0.454597 0.778296
Si Si6 0.336026 0.246865 0.036269
Si Si7 0.541624 0.472032 0.288568
O O1 0.120199 0.110087 0.790660
O O2 0.500000 0.000000 0.500000
O O3 0.397490 0.876844 0.714899
O O4 0.334540 0.125934 0.901504
O O5 0.164696 0.781855 0.246813
O O6 0.383095 0.640413 0.353802
O O7 0.500000 0.500000 0.000000
O O8 0.495059 0.745538 0.124583
O O9 0.263749 0.391258 0.575985
O O10 0.366195 0.211146 0.195320
O O11 0.513628 0.346777 0.211625
O O12 0.960068 0.683710 0.293153
O O13 0.224807 0.609174 0.908599
O O14 0.882585 0.592655 0.803181
O O15 0.000000 0.500000 0.000000
O O16 0.500000 0.500000 0.500000
#
# Coordination Sequence:
#
# PCOD8007791 Si02
#       7
#     2   2   2   2   2   2   2
#     4  12  27  45  68  94 141 186 225 270 340 414
#     4  10  20  41  68  96 134 168 214 287 339 385
#     4  12  25  43  66 105 137 177 228 278 334 407
#     4  11  21  44  66  94 134 179 218 269 345 394
#     4  12  21  39  73 100 128 175 231 278 333 392
#     4  12  23  44  70 100 134 176 227 286 334 398
#     4  11  23  40  72 105 135 167 228 285 339 393
#
# _framework density 22.043336
#
# number of rings (size 3 to 8) (size 9 to 14) (size 15 to 20)
#    0.000    0.571    8.571    1.714    2.000    0.571 
#    0.000    0.714    0.000    0.000    0.000    0.000 
#    0.000    0.000    0.000    0.000    0.000    0.000 
#
# Total GULP energy -173514.605555 kJ/mol
# GULP energy per Si atom -12393.900397 kJ/mol
# Density = 2.199316 g / cm^3
# Si number density = 22.043336 Si / 1000 Ang^3
#
#
#
# Elastic Constant Matrix: (Units=GPa)
#
#
# Indices 1 2 3 4 5 6 
#
# 1 103.2669 44.9347 32.2326 10.0803 -12.3874 -29.5204
# 2 44.9347 118.4259 28.1767 4.1223 -14.2243 -26.5968
# 3 32.2326 28.1767 68.1411 -8.9981 2.2316 -24.5695
# 4 10.0803 4.1223 -8.9981 28.6527 -5.8408 -1.7843
# 5 -12.3874 -14.2243 2.2316 -5.8408 33.1266 -4.6520
# 6 -29.5204 -26.5968 -24.5695 -1.7843 -4.6520 50.4173
#
#
#
# Elastic Compliance Matrix: (Units=1/GPa)
#
#
# Indices 1 2 3 4 5 6 
#
# 1 0.014886 -0.002573 -0.004935 -0.005152 0.004615 0.005197
# 2 -0.002573 0.011377 -0.002313 -0.000294 0.004558 0.003778
# 3 -0.004935 -0.002313 0.021557 0.008878 -0.001807 0.006543
# 4 -0.005152 -0.000294 0.008878 0.040745 0.004962 0.003055
# 5 0.004615 0.004558 -0.001807 0.004962 0.035951 0.007719
# 6 0.005197 0.003778 0.006543 0.003055 0.007719 0.028879
#
#
# Mechanical properties :
#
#
# Convention : Reuss Voigt Hill
#
# Bulk Modulus (GPa) = 35.48940 55.61354 45.55147
# Shear Modulus (GPa) = 27.40777 34.73865 31.07321
#
# Velocity S-wave (km/s) = 3.52995 3.97410 3.75859
# Velocity P-wave (km/s) = 5.72266 6.80749 6.28851
#
# Compressibility (1/GPa) = 0.02817743
#
# Stress axis : x y z
#
# Youngs Moduli (GPa) = 67.17761 87.89762 46.38878
#
# Poissons Ratio (x) = 0.22617 0.22893
# Poissons Ratio (y) = 0.17285 0.10730
# Poissons Ratio (z) = 0.33152 0.20331
#
# Static dielectric constant tensor:
#      x y z
#    x 4.560110 0.064730 -0.011730 
#    y 0.064730 5.772340 -0.493160 
#    z -0.011730 -0.493160 3.863910 
# 
# 
# High freq. dielectric constant tensor:
#      x y z
#    x 1.877400 -0.011740 0.005930 
#    y -0.011740 1.870470 -0.020580 
#    z 0.005930 -0.020580 1.847660 
# 
# From -- ./inp_files/159208.got.cif
#   From: 2010.06.25/outbox.cif.g09.slc.cpg/sg2_80_cif.got.tgz:159208.got - 2010.06.27 13:26:56.
