data_PCOD8007551
_publ_section_title
;
Structure prediction by ZEFSAII (Michael W. Deem and Ramdas Pophale) SiO2 
 PCOD8007551
Probable space group: P -1
;
_chemical_formula_sum "Si O2"
_cell_formula_units_Z 16
_cell_length_a 15.038783
_cell_length_b 11.960464
_cell_length_c 9.630044
_cell_angle_alpha 117.103772
_cell_angle_beta 60.649091
_cell_angle_gamma 149.846308
_cell_volume 756.411563
_symmetry_space_group_name_H-M "P -1"
_symmetry_group_IT_number 2
_symmetry_cell_setting 'triclinic'
loop_
_space_group_symop_operation_xyz
x,y,z
-x,-y,-z
loop_
_atom_site_type_symbol
_atom_site_label
_atom_site_fract_x
_atom_site_fract_y
_atom_site_fract_z
Si Si1 0.556233 0.990830 0.259142
Si Si2 0.875875 0.548571 0.051939
Si Si3 0.586627 0.609272 0.846631
Si Si4 0.271238 0.909667 0.370813
Si Si5 0.908536 0.012546 0.986616
Si Si6 0.530072 0.822341 0.905721
Si Si7 0.614515 0.829505 0.309965
Si Si8 0.067905 0.512563 0.744797
O O1 0.728178 0.247992 0.324290
O O2 0.378729 0.894605 0.325029
O O3 0.510688 0.842245 0.328359
O O4 0.608752 0.975408 0.065800
O O5 0.661156 0.312809 0.066324
O O6 0.924662 0.585952 0.197538
O O7 0.934712 0.743173 0.060005
O O8 0.972934 0.541523 0.885780
O O9 0.506787 0.651342 0.858263
O O10 0.531262 0.430477 0.698163
O O11 0.500000 0.500000 0.000000
O O12 0.801676 0.842649 0.840965
O O13 0.054904 0.662616 0.388109
O O14 0.330708 0.016670 0.234235
O O15 0.301815 0.051156 0.537861
O O16 0.775012 0.956432 0.154130
O O17 0.000000 0.000000 0.000000
#
# Coordination Sequence:
#
# PCOD8007551 Si02
#       8
#     2   2   2   2   2   2   2   2
#     4  12  22  44  64  97 129 174 219 256 312 390
#     4  11  20  37  64  97 121 162 219 269 301 371
#     4  10  20  41  65  88 120 167 213 266 311 370
#     4  12  26  41  63  99 135 172 204 264 332 377
#     4  11  22  39  65  96 120 164 222 266 311 380
#     4  12  21  40  72  92 125 171 220 263 314 379
#     4  11  25  44  62  93 134 167 212 263 328 383
#     4  11  22  37  63  91 132 162 210 265 311 370
#
# _framework density 21.152505999999999
#
# number of rings (size 3 to 8) (size 9 to 14) (size 15 to 20)
#    0.000    0.750    6.250    4.500    0.000    1.000 
#    2.250    0.000    0.000    3.000    0.000    0.000 
#    0.000    0.000    0.000    0.000    0.000    0.000 
#
# Total GULP energy -198437.821333 kJ/mol
# GULP energy per Si atom -12402.363833 kJ/mol
# Density = 2.110436 g / cm^3
# Si number density = 21.152506 Si / 1000 Ang^3
#
#
#
# Elastic Constant Matrix: (Units=GPa)
#
#
# Indices 1 2 3 4 5 6 
#
# 1 119.6793 33.6726 9.9860 8.5364 14.0773 -6.0483
# 2 33.6726 110.1312 34.5964 27.9435 5.8030 4.5357
# 3 9.9860 34.5964 77.2689 33.1060 11.1736 2.4955
# 4 8.5364 27.9435 33.1060 34.5046 5.4279 4.8948
# 5 14.0773 5.8030 11.1736 5.4279 14.4434 7.1221
# 6 -6.0483 4.5357 2.4955 4.8948 7.1221 40.8602
#
#
#
# Elastic Compliance Matrix: (Units=1/GPa)
#
#
# Indices 1 2 3 4 5 6 
#
# 1 0.010852 -0.003320 0.001994 -0.000507 -0.012624 0.004114
# 2 -0.003320 0.012624 -0.002578 -0.007289 0.003635 -0.001496
# 3 0.001994 -0.002578 0.024387 -0.020140 -0.014165 0.003973
# 4 -0.000507 -0.007289 -0.020140 0.054894 0.000709 -0.004735
# 5 -0.012624 0.003635 -0.014165 0.000709 0.100112 -0.018942
# 6 0.004114 -0.001496 0.003973 -0.004735 -0.018942 0.028875
#
#
# Mechanical properties :
#
#
# Convention : Reuss Voigt Hill
#
# Bulk Modulus (GPa) = 24.96503 51.50994 38.23749
# Shear Modulus (GPa) = 19.77030 33.21659 26.49344
#
# Velocity S-wave (km/s) = 3.06053 3.96705 3.54290
# Velocity P-wave (km/s) = 4.93124 6.73705 5.90360
#
# Compressibility (1/GPa) = 0.04005604
#
# Stress axis : x y z
#
# Youngs Moduli (GPa) = 92.14511 79.21129 41.00496
#
# Poissons Ratio (x) = 0.26299 -0.08176
# Poissons Ratio (y) = 0.30593 0.10570
# Poissons Ratio (z) = -0.18372 0.20419
#
# Static dielectric constant tensor:
#      x y z
#    x 4.032220 -0.016250 0.141310 
#    y -0.016250 4.372680 0.377290 
#    z 0.141310 0.377290 3.704730 
# 
# 
# High freq. dielectric constant tensor:
#      x y z
#    x 1.841170 -0.001650 0.018240 
#    y -0.001650 1.840810 0.014450 
#    z 0.018240 0.014450 1.796740 
# 
# From -- ./inp_files/272486.got.cif
#   From: 2010.06.25/outbox.cif.g09.slc.cpg/sg2_137_cif.got.tgz:272486.got - 2010.06.27 13:26:56.
