data_PCOD8007899
_publ_section_title
;
Structure prediction by ZEFSAII (Michael W. Deem and Ramdas Pophale) SiO2 
 PCOD8007899
Probable space group: P -1
;
_chemical_formula_sum "Si O2"
_cell_formula_units_Z 16
_cell_length_a 9.164490
_cell_length_b 16.653537
_cell_length_c 17.948131
_cell_angle_alpha 31.545362
_cell_angle_beta 142.269030
_cell_angle_gamma 147.571086
_cell_volume 743.086194
_symmetry_space_group_name_H-M "P -1"
_symmetry_group_IT_number 2
_symmetry_cell_setting 'triclinic'
loop_
_space_group_symop_operation_xyz
x,y,z
-x,-y,-z
loop_
_atom_site_type_symbol
_atom_site_label
_atom_site_fract_x
_atom_site_fract_y
_atom_site_fract_z
Si Si1 0.836489 0.859221 0.257753
Si Si2 0.245891 0.488446 0.572888
Si Si3 0.151638 0.313660 0.115668
Si Si4 0.386354 0.715834 0.305582
Si Si5 0.686276 0.466509 0.848682
Si Si6 0.520470 0.090833 0.042144
Si Si7 0.443928 0.137612 0.326992
Si Si8 0.945439 0.469819 0.198127
O O1 0.871002 0.710891 0.347270
O O2 0.689481 0.778167 0.342348
O O3 0.626454 0.907979 0.094881
O O4 0.152176 0.032554 0.247379
O O5 0.391142 0.636121 0.449856
O O6 0.462439 0.525208 0.697763
O O7 0.000000 0.500000 0.500000
O O8 0.137805 0.423276 0.094867
O O9 0.390678 0.264345 0.261180
O O10 0.837943 0.136364 0.118899
O O11 0.217830 0.433868 0.972550
O O12 0.130979 0.566332 0.269810
O O13 0.353169 0.889259 0.168829
O O14 0.861486 0.517767 0.802284
O O15 0.537423 0.249282 0.975967
O O16 0.713692 0.260866 0.287091
O O17 0.500000 0.000000 0.500000
#
# Coordination Sequence:
#
# PCOD8007899 Si02
#       8
#     2   2   2   2   2   2   2   2
#     4  11  22  45  70  97 133 172 226 275 321 395
#     4  11  26  44  64  98 137 181 216 270 335 394
#     4  11  22  45  68  96 139 172 220 271 338 391
#     4  12  21  41  78  94 126 173 233 269 322 393
#     4  10  24  43  68  93 141 178 214 268 342 402
#     4  10  20  41  71 102 118 171 233 275 316 386
#     4  12  27  40  64 104 139 171 220 278 326 388
#     4  11  23  43  70 100 128 178 221 274 335 385
#
# _framework density 21.531821999999998
#
# number of rings (size 3 to 8) (size 9 to 14) (size 15 to 20)
#    0.000    1.000    5.000    4.125    5.250    0.000 
#    4.500    2.500    0.000    0.000    0.000    0.000 
#    0.000    0.000    0.000    0.000    0.000    0.000 
#
# Total GULP energy -198327.299442 kJ/mol
# GULP energy per Si atom -12395.456215 kJ/mol
# Density = 2.148281 g / cm^3
# Si number density = 21.531822 Si / 1000 Ang^3
#
#
#
# Elastic Constant Matrix: (Units=GPa)
#
#
# Indices 1 2 3 4 5 6 
#
# 1 59.6321 22.9246 17.8120 -3.5192 20.7513 -0.8777
# 2 22.9246 123.2028 30.1842 -10.6625 -6.5261 5.3071
# 3 17.8120 30.1842 103.9321 -9.2574 16.5408 4.9468
# 4 -3.5192 -10.6625 -9.2574 32.7454 5.1371 0.6631
# 5 20.7513 -6.5261 16.5408 5.1371 33.5250 7.3708
# 6 -0.8777 5.3071 4.9468 0.6631 7.3708 24.6233
#
#
#
# Elastic Compliance Matrix: (Units=1/GPa)
#
#
# Indices 1 2 3 4 5 6 
#
# 1 0.026302 -0.006061 0.000410 0.003950 -0.020038 0.008053
# 2 -0.006061 0.010692 -0.003097 0.000756 0.008207 -0.004375
# 3 0.000410 -0.003097 0.011922 0.003554 -0.007371 0.000398
# 4 0.003950 0.000756 0.003554 0.033676 -0.009474 0.001193
# 5 -0.020038 0.008207 -0.007371 -0.009474 0.052540 -0.016475
# 6 0.008053 -0.004375 0.000398 0.001193 -0.016475 0.046662
#
#
# Mechanical properties :
#
#
# Convention : Reuss Voigt Hill
#
# Bulk Modulus (GPa) = 31.82749 47.62319 39.72534
# Shear Modulus (GPa) = 23.83662 32.56851 28.20256
#
# Velocity S-wave (km/s) = 3.33083 3.89340 3.62305
# Velocity P-wave (km/s) = 5.44117 6.50977 5.99931
#
# Compressibility (1/GPa) = 0.03141938
#
# Stress axis : x y z
#
# Youngs Moduli (GPa) = 38.02030 93.52912 83.88206
#
# Poissons Ratio (x) = 0.56689 -0.03441
# Poissons Ratio (y) = 0.23044 0.25978
# Poissons Ratio (z) = -0.01560 0.28966
#
# Static dielectric constant tensor:
#      x y z
#    x 3.709260 -0.038200 0.253250 
#    y -0.038200 4.118750 -0.060830 
#    z 0.253250 -0.060830 4.173580 
# 
# 
# High freq. dielectric constant tensor:
#      x y z
#    x 1.824430 -0.004710 0.025080 
#    y -0.004710 1.853060 0.000330 
#    z 0.025080 0.000330 1.857200 
# 
# From -- ./inp_files/562062.got.cif
#   From: 2010.06.25/outbox.cif.g09.slc.cpg/sg2_282_cif.got.tgz:562062.got - 2010.06.27 13:26:56.
