data_PCOD8007454
_publ_section_title
;
Structure prediction by ZEFSAII (Michael W. Deem and Ramdas Pophale) SiO2 
 PCOD8007454
Probable space group: P -1
;
_chemical_formula_sum "Si O2"
_cell_formula_units_Z 16
_cell_length_a 13.707992
_cell_length_b 14.895363
_cell_length_c 5.871716
_cell_angle_alpha 55.704196
_cell_angle_beta 61.274507
_cell_angle_gamma 44.208419
_cell_volume 684.476584
_symmetry_space_group_name_H-M "P -1"
_symmetry_group_IT_number 2
_symmetry_cell_setting 'triclinic'
loop_
_space_group_symop_operation_xyz
x,y,z
-x,-y,-z
loop_
_atom_site_type_symbol
_atom_site_label
_atom_site_fract_x
_atom_site_fract_y
_atom_site_fract_z
Si Si1 0.220274 0.587616 0.857624
Si Si2 0.350766 0.213742 0.708073
Si Si3 0.092382 0.850784 0.346439
Si Si4 0.973650 0.572269 0.177691
Si Si5 0.464905 0.310412 0.107454
Si Si6 0.287357 0.723527 0.922001
Si Si7 0.190723 0.967172 0.392150
Si Si8 0.571371 0.057505 0.066349
O O1 0.200879 0.693176 0.542669
O O2 0.276082 0.609415 0.997638
O O3 0.346636 0.425147 0.894885
O O4 0.070857 0.619909 0.010261
O O5 0.187838 0.297533 0.827020
O O6 0.381270 0.311423 0.416697
O O7 0.428779 0.154356 0.944927
O O8 0.405451 0.080611 0.673813
O O9 0.111754 0.957760 0.282947
O O10 0.137676 0.834844 0.057717
O O11 0.929293 0.913410 0.472473
O O12 0.000000 0.500000 0.500000
O O13 0.000000 0.500000 0.000000
O O14 0.569852 0.347998 0.989239
O O15 0.563731 0.153333 0.131577
O O16 0.294605 0.814029 0.598270
O O17 0.289557 0.006337 0.152165
#
# Coordination Sequence:
#
# PCOD8007454 Si02
#       8
#     2   2   2   2   2   2   2   2
#     4  11  26  43  67 103 135 183 235 285 358 433
#     4  11  25  44  71 101 137 184 244 296 358 431
#     4  10  22  40  65  95 133 179 224 284 353 424
#     4  12  27  51  76 106 146 193 239 299 365 427
#     4  12  23  44  67  98 141 181 232 293 357 428
#     4  11  23  41  66 103 134 180 227 287 363 425
#     4  10  20  41  63  94 134 171 230 284 351 425
#     4  11  23  43  68 100 134 186 239 298 362 424
#
# _framework density 23.375527999999999
#
# number of rings (size 3 to 8) (size 9 to 14) (size 15 to 20)
#    0.000    1.000    3.750    2.625    1.750    1.500 
#    2.250    0.000    0.000    0.000    0.000    0.000 
#    0.000    0.000    0.000    0.000    0.000    0.000 
#
# Total GULP energy -198258.935482 kJ/mol
# GULP energy per Si atom -12391.183468 kJ/mol
# Density = 2.332232 g / cm^3
# Si number density = 23.375528 Si / 1000 Ang^3
#
#
#
# Elastic Constant Matrix: (Units=GPa)
#
#
# Indices 1 2 3 4 5 6 
#
# 1 131.6173 36.6980 22.0565 5.2629 -19.9702 -10.8352
# 2 36.6980 96.6047 13.3938 1.5078 -5.9664 -10.5043
# 3 22.0565 13.3938 55.3052 -3.5998 -3.3485 3.2854
# 4 5.2629 1.5078 -3.5998 35.4502 -2.1335 -1.9429
# 5 -19.9702 -5.9664 -3.3485 -2.1335 33.5572 2.2808
# 6 -10.8352 -10.5043 3.2854 -1.9429 2.2808 44.6395
#
#
#
# Elastic Compliance Matrix: (Units=1/GPa)
#
#
# Indices 1 2 3 4 5 6 
#
# 1 0.009825 -0.002800 -0.003128 -0.001275 0.004843 0.001653
# 2 -0.002800 0.011934 -0.001912 -0.000156 0.000102 0.002257
# 3 -0.003128 -0.001912 0.020114 0.002455 0.000138 -0.002590
# 4 -0.001275 -0.000156 0.002455 0.028765 0.001242 0.000662
# 5 0.004843 0.000102 0.000138 0.001242 0.032822 -0.000434
# 6 0.001653 0.002257 -0.002590 0.000662 -0.000434 0.023576
#
#
# Mechanical properties :
#
#
# Convention : Reuss Voigt Hill
#
# Bulk Modulus (GPa) = 38.17724 47.53598 42.85661
# Shear Modulus (GPa) = 33.01506 36.82131 34.91819
#
# Velocity S-wave (km/s) = 3.76224 3.97319 3.86915
# Velocity P-wave (km/s) = 5.93634 6.43648 6.19146
#
# Compressibility (1/GPa) = 0.02619362
#
# Stress axis : x y z
#
# Youngs Moduli (GPa) = 101.78574 83.79255 49.71671
#
# Poissons Ratio (x) = 0.23459 0.15552
# Poissons Ratio (y) = 0.28496 0.09505
# Poissons Ratio (z) = 0.31840 0.16020
#
# Static dielectric constant tensor:
#      x y z
#    x 4.301890 -0.006750 -0.067080 
#    y -0.006750 4.269610 0.009650 
#    z -0.067080 0.009650 4.111360 
# 
# 
# High freq. dielectric constant tensor:
#      x y z
#    x 1.929690 -0.012630 -0.014960 
#    y -0.012630 1.928550 -0.004180 
#    z -0.014960 -0.004180 1.915520 
# 
# From -- ./inp_files/70645.got.cif
#   From: 2010.06.25/outbox.cif.g09.slc.cpg/sg2_36_cif.got.tgz:70645.got - 2010.06.27 13:26:56.
