data_PCOD8007450
_publ_section_title
;
Structure prediction by ZEFSAII (Michael W. Deem and Ramdas Pophale) SiO2 
 PCOD8007450
Probable space group: P -1
;
_chemical_formula_sum "Si O2"
_cell_formula_units_Z 16
_cell_length_a 8.487881
_cell_length_b 12.433116
_cell_length_c 8.780421
_cell_angle_alpha 50.784946
_cell_angle_beta 79.153871
_cell_angle_gamma 88.567536
_cell_volume 699.691650
_symmetry_space_group_name_H-M "P -1"
_symmetry_group_IT_number 2
_symmetry_cell_setting 'triclinic'
loop_
_space_group_symop_operation_xyz
x,y,z
-x,-y,-z
loop_
_atom_site_type_symbol
_atom_site_label
_atom_site_fract_x
_atom_site_fract_y
_atom_site_fract_z
Si Si1 0.164814 0.005163 0.150455
Si Si2 0.973189 0.461366 0.866980
Si Si3 0.811976 0.279886 0.440362
Si Si4 0.701282 0.251065 0.160220
Si Si5 0.239277 0.286298 0.036848
Si Si6 0.788293 0.991091 0.210286
Si Si7 0.466718 0.527533 0.654552
Si Si8 0.644253 0.724056 0.659797
O O1 0.203410 0.853132 0.329297
O O2 0.975849 0.012020 0.197889
O O3 0.254624 0.126342 0.132381
O O4 0.233140 0.032636 0.944336
O O5 0.032102 0.608023 0.636615
O O6 0.092631 0.342620 0.920011
O O7 0.000000 0.500000 0.000000
O O8 0.788446 0.392808 0.932216
O O9 0.812837 0.229639 0.308474
O O10 0.655525 0.357770 0.417109
O O11 0.519097 0.264454 0.225891
O O12 0.704241 0.124135 0.157291
O O13 0.404010 0.381332 0.875733
O O14 0.221571 0.297081 0.215751
O O15 0.696062 0.861451 0.431310
O O16 0.500000 0.500000 0.500000
O O17 0.624129 0.593790 0.662626
#
# Coordination Sequence:
#
# PCOD8007450 Si02
#       8
#     2   2   2   2   2   2   2   2
#     4  11  24  42  64  96 127 171 219 262 325 380
#     4   9  19  37  64  89 125 163 208 264 312 368
#     4   9  21  39  65  95 122 169 218 258 315 384
#     4  10  20  41  63  93 132 163 211 267 320 373
#     4  11  22  41  68  94 126 170 218 261 315 380
#     4  11  24  40  63  93 136 166 212 271 323 379
#     4  10  22  43  65  93 137 172 206 262 328 384
#     4  11  24  39  65 102 128 163 219 266 318 379
#
# _framework density 22.867213
#
# number of rings (size 3 to 8) (size 9 to 14) (size 15 to 20)
#    0.000    1.750    1.250    3.000    3.500    3.000 
#    0.000    4.375    0.000    0.000    0.000    0.000 
#    0.000    0.000    0.000    0.000    0.000    0.000 
#
# Total GULP energy -198336.171476 kJ/mol
# GULP energy per Si atom -12396.010717 kJ/mol
# Density = 2.281517 g / cm^3
# Si number density = 22.867213 Si / 1000 Ang^3
#
#
#
# Elastic Constant Matrix: (Units=GPa)
#
#
# Indices 1 2 3 4 5 6 
#
# 1 23.0136 34.0066 19.3466 3.9784 -1.8970 1.5710
# 2 34.0066 143.3219 66.0738 -6.2581 -12.7199 20.0139
# 3 19.3466 66.0738 131.0845 -22.6969 -2.5804 10.1335
# 4 3.9784 -6.2581 -22.6969 40.7691 1.4809 -0.9012
# 5 -1.8970 -12.7199 -2.5804 1.4809 28.0128 0.7202
# 6 1.5710 20.0139 10.1335 -0.9012 0.7202 25.6052
#
#
#
# Elastic Compliance Matrix: (Units=1/GPa)
#
#
# Indices 1 2 3 4 5 6 
#
# 1 0.075406 -0.017845 -0.005240 -0.012659 -0.003093 0.011037
# 2 -0.017845 0.014724 -0.003719 0.001539 0.005286 -0.009037
# 3 -0.005240 -0.003719 0.011426 0.006326 -0.001299 -0.001035
# 4 -0.012659 0.001539 0.006326 0.029520 -0.001088 -0.001861
# 5 -0.003093 0.005286 -0.001299 -0.001088 0.037943 -0.004533
# 6 0.011037 -0.009037 -0.001035 -0.001861 -0.004533 0.045912
#
#
# Mechanical properties :
#
#
# Convention : Reuss Voigt Hill
#
# Bulk Modulus (GPa) = 20.85545 59.58601 40.22073
# Shear Modulus (GPa) = 17.57324 30.74360 24.15842
#
# Velocity S-wave (km/s) = 2.77517 3.67064 3.25386
# Velocity P-wave (km/s) = 4.40555 6.63918 5.63416
#
# Compressibility (1/GPa) = 0.04794909
#
# Stress axis : x y z
#
# Youngs Moduli (GPa) = 13.26146 67.91596 87.51666
#
# Poissons Ratio (x) = 1.21193 0.45863
# Poissons Ratio (y) = 0.23665 0.32547
# Poissons Ratio (z) = 0.06950 0.25257
#
# Static dielectric constant tensor:
#      x y z
#    x 8.898370 0.886130 -1.190380 
#    y 0.886130 4.524040 -0.244840 
#    z -1.190380 -0.244840 4.487370 
# 
# 
# High freq. dielectric constant tensor:
#      x y z
#    x 1.893910 0.001950 -0.016790 
#    y 0.001950 1.906110 -0.017040 
#    z -0.016790 -0.017040 1.901800 
# 
# From -- ./inp_files/184149.got.cif
#   From: 2010.06.25/outbox.cif.g09.slc.cpg/sg2_93_cif.got.tgz:184149.got - 2010.06.27 13:26:56.
