data_PCOD8007933
_publ_section_title
;
Structure prediction by ZEFSAII (Michael W. Deem and Ramdas Pophale) SiO2 
 PCOD8007933
Probable space group: P -1
;
_chemical_formula_sum "Si O2"
_cell_formula_units_Z 16
_cell_length_a 11.235929
_cell_length_b 13.953732
_cell_length_c 9.463855
_cell_angle_alpha 38.841756
_cell_angle_beta 108.721398
_cell_angle_gamma 127.076611
_cell_volume 708.946182
_symmetry_space_group_name_H-M "P -1"
_symmetry_group_IT_number 2
_symmetry_cell_setting 'triclinic'
loop_
_space_group_symop_operation_xyz
x,y,z
-x,-y,-z
loop_
_atom_site_type_symbol
_atom_site_label
_atom_site_fract_x
_atom_site_fract_y
_atom_site_fract_z
Si Si1 0.404334 0.281148 0.092414
Si Si2 0.466888 0.872227 0.502290
Si Si3 0.593566 0.474039 0.682469
Si Si4 0.069033 0.213366 0.453798
Si Si5 0.192392 0.869298 0.357803
Si Si6 0.931438 0.302928 0.774009
Si Si7 0.380310 0.860534 0.997575
Si Si8 0.106608 0.227628 0.133454
O O1 0.505887 0.281838 0.259168
O O2 0.286519 0.312194 0.086156
O O3 0.311643 0.090024 0.184358
O O4 0.516551 0.450785 0.832437
O O5 0.287468 0.775969 0.497265
O O6 0.500000 0.000000 0.500000
O O7 0.593157 0.007598 0.275902
O O8 0.500000 0.500000 0.500000
O O9 0.770393 0.662408 0.540574
O O10 0.588117 0.290996 0.856990
O O11 0.086251 0.282473 0.219592
O O12 0.945346 0.235561 0.458576
O O13 0.011026 0.997541 0.679916
O O14 0.126773 0.851901 0.195272
O O15 0.795575 0.247920 0.893866
O O16 0.000000 0.500000 0.500000
O O17 0.069271 0.326308 0.888577
O O18 0.500000 0.000000 0.000000
#
# Coordination Sequence:
#
# PCOD8007933 Si02
#       8
#     2   2   2   2   2   2   2   2
#     4  10  23  43  72  98 139 183 238 287 360 416
#     4  10  20  41  72  99 131 180 239 281 344 425
#     4  12  27  43  71 109 144 186 237 298 353 422
#     4  10  25  45  71 100 139 184 244 282 356 420
#     4  10  21  44  69  97 133 185 225 290 350 417
#     4  12  27  43  66 103 140 177 239 292 352 413
#     4  12  25  46  72 103 141 189 237 290 356 419
#     4  10  26  46  70 100 138 194 230 287 359 426
#
# _framework density 22.568711
#
# number of rings (size 3 to 8) (size 9 to 14) (size 15 to 20)
#    0.000    1.250    3.750    0.750   14.000    2.500 
#    0.000    1.875    0.000    0.000    0.000    0.000 
#    0.000    0.000    0.000    0.000    0.000    0.000 
#
# Total GULP energy -198425.126499 kJ/mol
# GULP energy per Si atom -12401.570406 kJ/mol
# Density = 2.251734 g / cm^3
# Si number density = 22.568711 Si / 1000 Ang^3
#
#
#
# Elastic Constant Matrix: (Units=GPa)
#
#
# Indices 1 2 3 4 5 6 
#
# 1 162.5541 29.4630 71.8279 21.5866 -22.3532 19.3786
# 2 29.4630 78.9612 24.0707 13.4618 -1.5852 3.6353
# 3 71.8279 24.0707 143.4671 32.4396 -9.5596 8.3452
# 4 21.5866 13.4618 32.4396 41.6201 6.5239 -2.2693
# 5 -22.3532 -1.5852 -9.5596 6.5239 44.7956 8.6008
# 6 19.3786 3.6353 8.3452 -2.2693 8.6008 34.1015
#
#
#
# Elastic Compliance Matrix: (Units=1/GPa)
#
#
# Indices 1 2 3 4 5 6 
#
# 1 0.009870 -0.001740 -0.003114 -0.003405 0.005920 -0.006381
# 2 -0.001740 0.014099 -0.000761 -0.003098 0.000023 -0.000540
# 3 -0.003114 -0.000761 0.010372 -0.006609 0.001904 -0.001607
# 4 -0.003405 -0.003098 -0.006609 0.033955 -0.009819 0.008618
# 5 0.005920 0.000023 0.001904 -0.009819 0.029400 -0.011901
# 6 -0.006381 -0.000540 -0.001607 0.008618 -0.011901 0.036976
#
#
# Mechanical properties :
#
#
# Convention : Reuss Voigt Hill
#
# Bulk Modulus (GPa) = 43.27066 70.63395 56.95231
# Shear Modulus (GPa) = 32.55079 41.41150 36.98114
#
# Velocity S-wave (km/s) = 3.80188 4.28823 4.05236
# Velocity P-wave (km/s) = 6.20378 7.47555 6.86916
#
# Compressibility (1/GPa) = 0.02311035
#
# Stress axis : x y z
#
# Youngs Moduli (GPa) = 101.31447 70.92599 96.41735
#
# Poissons Ratio (x) = 0.12345 0.30024
# Poissons Ratio (y) = 0.17634 0.07336
# Poissons Ratio (z) = 0.31549 0.05396
#
# Static dielectric constant tensor:
#      x y z
#    x 5.470940 -0.554160 -0.943680 
#    y -0.554160 5.314470 1.585130 
#    z -0.943680 1.585130 5.805720 
# 
# 
# High freq. dielectric constant tensor:
#      x y z
#    x 1.899020 0.004570 -0.016100 
#    y 0.004570 1.899340 0.010450 
#    z -0.016100 0.010450 1.885680 
# 
# From -- ./inp_files/271598.got.cif
#   From: 2010.06.25/outbox.cif.g09.slc.cpg/sg2_136_cif.got.tgz:271598.got - 2010.06.27 13:26:56.
