data_PCOD8007880
_publ_section_title
;
Structure prediction by ZEFSAII (Michael W. Deem and Ramdas Pophale) SiO2 
 PCOD8007880
Probable space group: P -1
;
_chemical_formula_sum "Si O2"
_cell_formula_units_Z 10
_cell_length_a 8.948330
_cell_length_b 8.010395
_cell_length_c 17.089617
_cell_angle_alpha 31.852056
_cell_angle_beta 128.184739
_cell_angle_gamma 107.709651
_cell_volume 430.071754
_symmetry_space_group_name_H-M "P -1"
_symmetry_group_IT_number 2
_symmetry_cell_setting 'triclinic'
loop_
_space_group_symop_operation_xyz
x,y,z
-x,-y,-z
loop_
_atom_site_type_symbol
_atom_site_label
_atom_site_fract_x
_atom_site_fract_y
_atom_site_fract_z
Si Si1 0.439130 0.980275 0.676034
Si Si2 0.083744 0.465067 0.953548
Si Si3 0.441921 0.403348 0.796566
Si Si4 0.331807 0.401841 0.322626
Si Si5 0.042315 0.175162 0.586143
O O1 0.519006 0.591926 0.810576
O O2 0.347152 0.340781 0.445492
O O3 0.251931 0.064642 0.644021
O O4 0.664053 0.901624 0.824571
O O5 0.925043 0.417016 0.860750
O O6 0.090996 0.826746 0.791866
O O7 0.000000 0.500000 0.000000
O O8 0.571643 0.349301 0.777171
O O9 0.175456 0.688602 0.591521
O O10 0.500000 0.000000 0.000000
O O11 0.500000 0.000000 0.500000
O O12 0.000000 0.500000 0.500000
#
# Coordination Sequence:
#
# PCOD8007880 Si02
#       5
#     2   2   2   2   2
#     4  11  23  45  70  96 134 178 218 266 334 394
#     4  12  21  41  73  96 132 174 216 271 337 392
#     4  11  22  42  70  97 134 170 216 274 333 392
#     4  10  20  41  70  96 130 175 216 268 334 396
#     4  12  26  43  65  99 137 175 226 274 316 388
#
# _framework density 23.251935
#
# number of rings (size 3 to 8) (size 9 to 14) (size 15 to 20)
#    0.000    0.800    8.000    2.400    0.000    0.000 
#    0.000    7.000    0.000    0.000    0.000    0.000 
#    0.000    0.000    0.000    0.000    0.000    0.000 
#
# Total GULP energy -124004.985511 kJ/mol
# GULP energy per Si atom -12400.498551 kJ/mol
# Density = 2.319901 g / cm^3
# Si number density = 23.251935 Si / 1000 Ang^3
#
#
#
# Elastic Constant Matrix: (Units=GPa)
#
#
# Indices 1 2 3 4 5 6 
#
# 1 224.3943 26.7049 104.8847 1.5424 -15.0084 16.5497
# 2 26.7049 30.2752 39.6334 2.6654 2.6160 8.1663
# 3 104.8847 39.6334 170.9807 38.8464 -9.6993 17.9437
# 4 1.5424 2.6654 38.8464 36.1973 24.8852 6.7494
# 5 -15.0084 2.6160 -9.6993 24.8852 57.1329 6.3950
# 6 16.5497 8.1663 17.9437 6.7494 6.3950 30.5978
#
#
#
# Elastic Compliance Matrix: (Units=1/GPa)
#
#
# Indices 1 2 3 4 5 6 
#
# 1 0.007655 0.004145 -0.008415 0.011914 -0.004575 -0.001984
# 2 0.004145 0.068201 -0.029398 0.045735 -0.026067 -0.007845
# 3 -0.008415 -0.029398 0.029594 -0.045833 0.024111 0.000113
# 4 0.011914 0.045735 -0.045833 0.111505 -0.054762 -0.004923
# 5 -0.004575 -0.026067 0.024111 -0.054762 0.045684 -0.002176
# 6 -0.001984 -0.007845 0.000113 -0.004923 -0.002176 0.037323
#
#
# Mechanical properties :
#
#
# Convention : Reuss Voigt Hill
#
# Bulk Modulus (GPa) = 26.23658 85.34402 55.79030
# Shear Modulus (GPa) = 13.15780 41.74741 27.45261
#
# Velocity S-wave (km/s) = 2.38140 4.24186 3.43980
# Velocity P-wave (km/s) = 4.34391 7.79582 6.31048
#
# Compressibility (1/GPa) = 0.03811473
#
# Stress axis : x y z
#
# Youngs Moduli (GPa) = 130.63902 14.66247 33.79064
#
# Poissons Ratio (x) = -0.06078 0.28434
# Poissons Ratio (y) = -0.54153 0.99338
# Poissons Ratio (z) = 1.09929 0.43105
#
# Static dielectric constant tensor:
#      x y z
#    x 5.515840 0.101930 -0.281790 
#    y 0.101930 2.554160 0.055060 
#    z -0.281790 0.055060 4.481630 
# 
# 
# High freq. dielectric constant tensor:
#      x y z
#    x 1.942820 0.018500 -0.007270 
#    y 0.018500 1.890380 0.019750 
#    z -0.007270 0.019750 1.934520 
# 
# From -- ./inp_files/143977.got.cif
#   From: 2010.06.25/outbox.cif.g09.slc.cpg/sg2_72_cif.got.tgz:143977.got - 2010.06.27 13:26:56.
