data_PCOD8007013
_publ_section_title
;
Structure prediction by ZEFSAII (Michael W. Deem and Ramdas Pophale) SiO2 
 PCOD8007013
Probable space group: P -1
;
_chemical_formula_sum "Si O2"
_cell_formula_units_Z 12
_cell_length_a 11.451747
_cell_length_b 11.759150
_cell_length_c 9.155010
_cell_angle_alpha 55.863900
_cell_angle_beta 41.014061
_cell_angle_gamma 37.549863
_cell_volume 490.951293
_symmetry_space_group_name_H-M "P -1"
_symmetry_group_IT_number 2
_symmetry_cell_setting 'triclinic'
loop_
_space_group_symop_operation_xyz
x,y,z
-x,-y,-z
loop_
_atom_site_type_symbol
_atom_site_label
_atom_site_fract_x
_atom_site_fract_y
_atom_site_fract_z
Si Si1 0.545998 0.167661 0.598382
Si Si2 0.924537 0.085787 0.667594
Si Si3 0.304390 0.380708 0.403717
Si Si4 0.516860 0.588840 0.283370
Si Si5 0.911822 0.378471 0.822556
Si Si6 0.685014 0.991578 0.166624
O O1 0.459709 0.329781 0.441320
O O2 0.491725 0.253104 0.750599
O O3 0.396015 0.107516 0.761701
O O4 0.832492 0.986746 0.430918
O O5 0.714387 0.311254 0.679781
O O6 0.000000 0.000000 0.500000
O O7 0.806124 0.022274 0.910025
O O8 0.258002 0.534874 0.226605
O O9 0.042791 0.458204 0.642042
O O10 0.456027 0.182901 0.318952
O O11 0.500000 0.500000 0.500000
O O12 0.760289 0.442331 0.067959
O O13 0.109923 0.151963 0.800674
#
# Coordination Sequence:
#
# PCOD8007013 Si02
#       6
#     2   2   2   2   2   2
#     4  10  23  42  69  97 127 181 220 256 349 384
#     4  10  22  42  63  93 134 169 217 275 319 387
#     4  10  22  42  65 101 133 169 221 273 321 398
#     4  11  23  44  62  98 138 169 221 282 318 392
#     4  10  20  40  66  92 137 168 213 275 321 379
#     4  11  22  44  70  95 136 171 217 278 322 393
#
# _framework density 24.442346000000001
#
# number of rings (size 3 to 8) (size 9 to 14) (size 15 to 20)
#    0.000    1.667    1.667    4.000    0.000    6.000 
#   12.000    3.333    0.000    0.000    0.000    0.000 
#    0.000    0.000    0.000    0.000    0.000    0.000 
#
# Total GULP energy -148698.889479 kJ/mol
# GULP energy per Si atom -12391.574123 kJ/mol
# Density = 2.438671 g / cm^3
# Si number density = 24.442346 Si / 1000 Ang^3
#
#
#
# Elastic Constant Matrix: (Units=GPa)
#
#
# Indices 1 2 3 4 5 6 
#
# 1 86.6559 31.1483 29.4335 1.4491 6.8062 -37.0905
# 2 31.1483 99.1407 31.5999 -14.0337 -8.2404 -59.4456
# 3 29.4335 31.5999 163.6864 -4.9438 2.7126 -22.1543
# 4 1.4491 -14.0337 -4.9438 38.5594 -9.9780 12.2404
# 5 6.8062 -8.2404 2.7126 -9.9780 27.5359 0.7427
# 6 -37.0905 -59.4456 -22.1543 12.2404 0.7427 46.9644
#
#
#
# Elastic Compliance Matrix: (Units=1/GPa)
#
#
# Indices 1 2 3 4 5 6 
#
# 1 0.024914 0.015549 -0.002125 -0.010173 -0.006091 0.041102
# 2 0.015549 0.055612 -0.002663 -0.004468 0.009219 0.082434
# 3 -0.002125 -0.002663 0.006766 0.000407 -0.000738 -0.001951
# 4 -0.010173 -0.004468 0.000407 0.035892 0.014766 -0.023087
# 5 -0.006091 0.009219 -0.000738 0.014766 0.045952 0.001935
# 6 0.041102 0.082434 -0.001951 -0.023087 0.001935 0.163161
#
#
# Mechanical properties :
#
#
# Convention : Reuss Voigt Hill
#
# Bulk Modulus (GPa) = 9.18996 59.31625 34.25311
# Shear Modulus (GPa) = 14.40734 39.76538 27.08636
#
# Velocity S-wave (km/s) = 2.43048 4.03787 3.33254
# Velocity P-wave (km/s) = 3.41237 6.78673 5.37140
#
# Compressibility (1/GPa) = 0.10881435
#
# Stress axis : x y z
#
# Youngs Moduli (GPa) = 40.13840 17.98170 147.80228
#
# Poissons Ratio (x) = -0.27959 0.31407
# Poissons Ratio (y) = -0.62410 0.39353
# Poissons Ratio (z) = 0.08529 0.04788
#
# Static dielectric constant tensor:
#      x y z
#    x 4.155090 -0.284160 -0.201250 
#    y -0.284160 4.553730 0.382040 
#    z -0.201250 0.382040 4.319200 
# 
# 
# High freq. dielectric constant tensor:
#      x y z
#    x 1.969720 -0.032620 0.009220 
#    y -0.032620 1.978610 0.004520 
#    z 0.009220 0.004520 1.978380 
# 
# From -- ./inp_files/166790.got.cif
#   From: 2010.06.25/outbox.cif.g09.slc.cpg/sg2_84_cif.got.tgz:166790.got - 2010.06.27 13:26:56.
