data_PCOD8007306
_publ_section_title
;
Structure prediction by ZEFSAII (Michael W. Deem and Ramdas Pophale) SiO2 
 PCOD8007306
Probable space group: P -1
;
_chemical_formula_sum "Si O2"
_cell_formula_units_Z 16
_cell_length_a 24.352179
_cell_length_b 18.253852
_cell_length_c 5.300718
_cell_angle_alpha 98.800253
_cell_angle_beta 72.984275
_cell_angle_gamma 160.003458
_cell_volume 714.852501
_symmetry_space_group_name_H-M "P -1"
_symmetry_group_IT_number 2
_symmetry_cell_setting 'triclinic'
loop_
_space_group_symop_operation_xyz
x,y,z
-x,-y,-z
loop_
_atom_site_type_symbol
_atom_site_label
_atom_site_fract_x
_atom_site_fract_y
_atom_site_fract_z
Si Si1 0.627717 0.902550 0.434579
Si Si2 0.312395 0.758475 0.999658
Si Si3 0.070720 0.290871 0.521061
Si Si4 0.808036 0.241813 0.034400
Si Si5 0.049955 0.706707 0.469959
Si Si6 0.288097 0.564450 0.860087
Si Si7 0.714615 0.791802 0.587441
Si Si8 0.449772 0.346495 0.764875
O O1 0.471610 0.743249 0.741544
O O2 0.537976 0.727412 0.299894
O O3 0.687812 0.046732 0.274713
O O4 0.806457 0.085648 0.414192
O O5 0.300725 0.815210 0.867030
O O6 0.317273 0.686362 0.808756
O O7 0.140221 0.551922 0.304774
O O8 0.500000 0.000000 0.000000
O O9 0.167825 0.384538 0.698002
O O10 0.981294 0.263632 0.668791
O O11 0.202468 0.456771 0.194066
O O12 0.923051 0.049104 0.517993
O O13 0.844095 0.235830 0.738198
O O14 0.000000 0.500000 0.000000
O O15 0.644857 0.621513 0.597159
O O16 0.683935 0.787047 0.345117
O O17 0.608632 0.707600 0.900131
#
# Coordination Sequence:
#
# PCOD8007306 Si02
#       8
#     2   2   2   2   2   2   2   2
#     4  12  26  43  64  96 135 169 225 278 332 394
#     4  11  25  44  63  93 132 175 226 276 335 398
#     4  11  23  45  67  97 133 178 218 270 337 399
#     4  12  25  40  65  92 124 174 227 281 328 387
#     4  11  24  41  66  92 127 171 226 280 331 388
#     4  11  28  43  65  96 135 181 217 274 338 397
#     4  10  20  40  72 100 138 164 226 265 333 395
#     4  10  22  39  68 109 128 176 212 282 324 392
#
# _framework density 22.382238999999998
#
# number of rings (size 3 to 8) (size 9 to 14) (size 15 to 20)
#    0.000    1.000    2.500    3.375   10.500    0.500 
#    0.000    1.250    0.000    0.000    0.000    0.000 
#    0.000    0.000    0.000    0.000    0.000    0.000 
#
# Total GULP energy -198267.161080 kJ/mol
# GULP energy per Si atom -12391.697568 kJ/mol
# Density = 2.233130 g / cm^3
# Si number density = 22.382239 Si / 1000 Ang^3
#
#
#
# Elastic Constant Matrix: (Units=GPa)
#
#
# Indices 1 2 3 4 5 6 
#
# 1 40.3779 23.8440 3.3007 -14.3549 -6.0225 3.3461
# 2 23.8440 138.3228 17.9979 -12.9135 -8.6145 -1.3855
# 3 3.3007 17.9979 56.7372 3.5623 -8.2239 2.7443
# 4 -14.3549 -12.9135 3.5623 33.4125 5.8967 2.5004
# 5 -6.0225 -8.6145 -8.2239 5.8967 28.3417 1.4038
# 6 3.3461 -1.3855 2.7443 2.5004 1.4038 44.9832
#
#
#
# Elastic Compliance Matrix: (Units=1/GPa)
#
#
# Indices 1 2 3 4 5 6 
#
# 1 0.032305 -0.004196 -0.000706 0.012039 0.003041 -0.003253
# 2 -0.004196 0.008467 -0.002484 0.001582 0.000601 0.000618
# 3 -0.000706 -0.002484 0.019610 -0.004279 0.005733 -0.001161
# 4 0.012039 0.001582 -0.004279 0.037389 -0.005858 -0.002481
# 5 0.003041 0.000601 0.005733 -0.005858 0.039067 -0.001451
# 6 -0.003253 0.000618 -0.001161 -0.002481 -0.001451 0.022746
#
#
# Mechanical properties :
#
#
# Convention : Reuss Voigt Hill
#
# Bulk Modulus (GPa) = 21.92498 36.19145 29.05821
# Shear Modulus (GPa) = 26.37702 34.03382 30.20542
#
# Velocity S-wave (km/s) = 3.43662 3.90368 3.67758
# Velocity P-wave (km/s) = 5.05610 6.04344 5.57168
#
# Compressibility (1/GPa) = 0.04561008
#
# Stress axis : x y z
#
# Youngs Moduli (GPa) = 30.95502 118.10086 50.99454
#
# Poissons Ratio (x) = 0.49556 0.03601
# Poissons Ratio (y) = 0.12989 0.12667
# Poissons Ratio (z) = 0.02186 0.29335
#
# Static dielectric constant tensor:
#      x y z
#    x 3.994590 -0.209330 -0.012320 
#    y -0.209330 4.516260 -0.040880 
#    z -0.012320 -0.040880 3.937700 
# 
# 
# High freq. dielectric constant tensor:
#      x y z
#    x 1.865210 -0.011700 0.002750 
#    y -0.011700 1.904510 -0.005150 
#    z 0.002750 -0.005150 1.873970 
# 
# From -- ./inp_files/116681.got.cif
#   From: 2010.06.25/outbox.cif.g09.slc.cpg/sg2_59_cif.got.tgz:116681.got - 2010.06.27 13:26:56.
