data_PCOD8007103
_publ_section_title
;
Structure prediction by ZEFSAII (Michael W. Deem and Ramdas Pophale) SiO2 
 PCOD8007103
Probable space group: P -1
;
_chemical_formula_sum "Si O2"
_cell_formula_units_Z 16
_cell_length_a 9.387223
_cell_length_b 21.933936
_cell_length_c 11.832379
_cell_angle_alpha 42.405666
_cell_angle_beta 71.195656
_cell_angle_gamma 36.958855
_cell_volume 741.942014
_symmetry_space_group_name_H-M "P -1"
_symmetry_group_IT_number 2
_symmetry_cell_setting 'triclinic'
loop_
_space_group_symop_operation_xyz
x,y,z
-x,-y,-z
loop_
_atom_site_type_symbol
_atom_site_label
_atom_site_fract_x
_atom_site_fract_y
_atom_site_fract_z
Si Si1 0.705401 0.807898 0.726506
Si Si2 0.410596 0.463433 0.993473
Si Si3 0.352505 0.167541 0.036387
Si Si4 0.700065 0.671190 0.757427
Si Si5 0.833668 0.752145 0.440913
Si Si6 0.536944 0.401355 0.795852
Si Si7 0.348189 0.804657 0.132201
Si Si8 0.862139 0.409324 0.645135
O O1 0.750437 0.754944 0.916094
O O2 0.506901 0.839912 0.658251
O O3 0.040988 0.658898 0.790342
O O4 0.500000 0.000000 0.500000
O O5 0.612424 0.360354 0.966865
O O6 0.500000 0.500000 0.000000
O O7 0.475149 0.331532 0.218584
O O8 0.551267 0.969853 0.245459
O O9 0.550111 0.146105 0.970266
O O10 0.021481 0.337364 0.823955
O O11 0.775924 0.683260 0.604616
O O12 0.000000 0.500000 0.000000
O O13 0.166173 0.616682 0.582202
O O14 0.863485 0.722867 0.338319
O O15 0.640216 0.252828 0.913226
O O16 0.724160 0.381367 0.711794
O O17 0.578524 0.630750 0.398580
O O18 0.000000 0.000000 0.000000
#
# Coordination Sequence:
#
# PCOD8007103 Si02
#       8
#     2   2   2   2   2   2   2   2
#     4  11  21  39  68  96 125 175 226 263 324 401
#     4  11  23  40  66  95 132 172 218 280 337 382
#     4  12  23  40  64 100 137 165 221 280 328 396
#     4  10  20  40  67  91 126 170 228 263 326 392
#     4  11  21  41  70  93 130 178 222 265 329 410
#     4  11  21  44  66  93 133 177 219 271 327 402
#     4  11  24  42  67  98 130 175 228 266 328 406
#     4  11  25  40  66  96 137 175 214 275 344 379
#
# _framework density 21.565028999999999
#
# number of rings (size 3 to 8) (size 9 to 14) (size 15 to 20)
#    0.000    1.000    3.750    5.250    5.250    0.000 
#    2.250    0.625    5.500    0.000    0.000    0.000 
#    0.000    0.000    0.000    0.000    0.000    0.000 
#
# Total GULP energy -198243.555079 kJ/mol
# GULP energy per Si atom -12390.222192 kJ/mol
# Density = 2.151595 g / cm^3
# Si number density = 21.565029 Si / 1000 Ang^3
#
#
#
# Elastic Constant Matrix: (Units=GPa)
#
#
# Indices 1 2 3 4 5 6 
#
# 1 135.3601 41.7670 49.4146 12.2067 -22.8755 9.3272
# 2 41.7670 106.3810 45.5137 2.3707 -0.8257 -0.1179
# 3 49.4146 45.5137 94.4103 2.4959 -25.4378 -4.0284
# 4 12.2067 2.3707 2.4959 38.2306 1.1651 -9.0565
# 5 -22.8755 -0.8257 -25.4378 1.1651 37.6786 5.8228
# 6 9.3272 -0.1179 -4.0284 -9.0565 5.8228 27.4560
#
#
#
# Elastic Compliance Matrix: (Units=1/GPa)
#
#
# Indices 1 2 3 4 5 6 
#
# 1 0.011450 -0.003031 -0.003060 -0.005199 0.006118 -0.007364
# 2 -0.003031 0.013273 -0.006441 0.001194 -0.006222 0.001855
# 3 -0.003060 -0.006441 0.018032 0.000288 0.009911 0.001651
# 4 -0.005199 0.001194 0.000288 0.031062 -0.005955 0.013323
# 5 0.006118 -0.006222 0.009911 -0.005955 0.038665 -0.010815
# 6 -0.007364 0.001855 0.001651 0.013323 -0.010815 0.045862
#
#
# Mechanical properties :
#
#
# Convention : Reuss Voigt Hill
#
# Bulk Modulus (GPa) = 56.52619 67.72690 62.12655
# Shear Modulus (GPa) = 26.41221 33.97011 30.19116
#
# Velocity S-wave (km/s) = 3.50347 3.97324 3.74572
# Velocity P-wave (km/s) = 6.52952 7.24727 6.89773
#
# Compressibility (1/GPa) = 0.01769091
#
# Stress axis : x y z
#
# Youngs Moduli (GPa) = 87.33262 75.34034 55.45684
#
# Poissons Ratio (x) = 0.22837 0.16971
# Poissons Ratio (y) = 0.26472 0.35720
# Poissons Ratio (z) = 0.26726 0.48526
#
# Static dielectric constant tensor:
#      x y z
#    x 4.059920 0.165260 -0.454250 
#    y 0.165260 3.892150 0.068160 
#    z -0.454250 0.068160 4.109340 
# 
# 
# High freq. dielectric constant tensor:
#      x y z
#    x 1.842840 0.009610 -0.024180 
#    y 0.009610 1.856930 0.010160 
#    z -0.024180 0.010160 1.844120 
# 
# From -- ./inp_files/405396.got.cif
#   From: 2010.06.25/outbox.cif.g09.slc.cpg/sg2_203_cif.got.tgz:405396.got - 2010.06.27 13:26:56.
