data_PCOD8007521
_publ_section_title
;
Structure prediction by ZEFSAII (Michael W. Deem and Ramdas Pophale) SiO2 
 PCOD8007521
Probable space group: P -1
;
_chemical_formula_sum "Si O2"
_cell_formula_units_Z 16
_cell_length_a 16.228388
_cell_length_b 9.153871
_cell_length_c 11.104291
_cell_angle_alpha 119.165159
_cell_angle_beta 83.061464
_cell_angle_gamma 142.719881
_cell_volume 753.206838
_symmetry_space_group_name_H-M "P -1"
_symmetry_group_IT_number 2
_symmetry_cell_setting 'triclinic'
loop_
_space_group_symop_operation_xyz
x,y,z
-x,-y,-z
loop_
_atom_site_type_symbol
_atom_site_label
_atom_site_fract_x
_atom_site_fract_y
_atom_site_fract_z
Si Si1 0.914241 0.507675 0.579088
Si Si2 0.866724 0.740604 0.517875
Si Si3 0.741382 0.112299 0.921655
Si Si4 0.605622 0.813364 0.444098
Si Si5 0.442803 0.633434 0.636860
Si Si6 0.917505 0.032835 0.049181
Si Si7 0.406793 0.401672 0.090879
Si Si8 0.050721 0.809678 0.154798
O O1 0.871888 0.566064 0.504623
O O2 0.000000 0.500000 0.500000
O O3 0.029495 0.791859 0.766720
O O4 0.766824 0.190568 0.554775
O O5 0.696591 0.468802 0.374348
O O6 0.000000 0.000000 0.500000
O O7 0.886295 0.911453 0.688685
O O8 0.822962 0.123009 0.814201
O O9 0.595708 0.953340 0.815379
O O10 0.674608 0.903083 0.964537
O O11 0.872089 0.465849 0.091749
O O12 0.492668 0.704400 0.517826
O O13 0.631542 0.664737 0.416460
O O14 0.521881 0.685912 0.279140
O O15 0.960466 0.213757 0.997384
O O16 0.727463 0.692071 0.957022
O O17 0.000000 0.000000 0.000000
O O18 0.500000 0.500000 0.000000
#
# Coordination Sequence:
#
# PCOD8007521 Si02
#       8
#     2   2   2   2   2   2   2   2
#     4  12  26  43  66  99 131 175 221 268 331 389
#     4  12  26  41  61  92 137 169 217 275 327 377
#     4   9  20  38  70  92 123 162 215 259 322 395
#     4  10  21  39  67  91 129 167 213 262 326 393
#     4  10  20  41  64  95 124 167 215 269 325 383
#     4  11  22  42  68  91 126 170 219 268 317 385
#     4  10  21  37  61  94 129 170 208 262 323 390
#     4  10  20  41  66  96 120 170 218 263 317 394
#
# _framework density 21.242504
#
# number of rings (size 3 to 8) (size 9 to 14) (size 15 to 20)
#    0.000    1.500    1.250    5.250    0.000    7.500 
#    2.250    0.625    0.000    0.000    0.000    0.000 
#    0.000    0.000    0.000    0.000    0.000    0.000 
#
# Total GULP energy -198370.561298 kJ/mol
# GULP energy per Si atom -12398.160081 kJ/mol
# Density = 2.119416 g / cm^3
# Si number density = 21.242504 Si / 1000 Ang^3
#
#
#
# Elastic Constant Matrix: (Units=GPa)
#
#
# Indices 1 2 3 4 5 6 
#
# 1 148.0494 44.2553 50.4965 1.7603 15.5646 22.3148
# 2 44.2553 104.7487 30.5362 -3.6611 7.3840 10.9178
# 3 50.4965 30.5362 90.5725 -2.3179 12.4563 13.3437
# 4 1.7603 -3.6611 -2.3179 32.4027 0.3659 -2.7574
# 5 15.5646 7.3840 12.4563 0.3659 33.5577 3.9351
# 6 22.3148 10.9178 13.3437 -2.7574 3.9351 30.1490
#
#
#
# Elastic Compliance Matrix: (Units=1/GPa)
#
#
# Indices 1 2 3 4 5 6 
#
# 1 0.009637 -0.002447 -0.003641 -0.001420 -0.002037 -0.004499
# 2 -0.002447 0.011423 -0.002225 0.001169 -0.000427 -0.001178
# 3 -0.003641 -0.002225 0.014619 0.000812 -0.002963 -0.002509
# 4 -0.001420 0.001169 0.000812 0.031410 -0.000620 0.003222
# 5 -0.002037 -0.000427 -0.002963 -0.000620 0.032094 -0.001272
# 6 -0.004499 -0.001178 -0.002509 0.003222 -0.001272 0.038496
#
#
# Mechanical properties :
#
#
# Convention : Reuss Voigt Hill
#
# Bulk Modulus (GPa) = 52.48603 65.99405 59.24004
# Shear Modulus (GPa) = 31.12240 33.76072 32.44156
#
# Velocity S-wave (km/s) = 3.83182 3.99093 3.91218
# Velocity P-wave (km/s) = 6.65873 7.23679 6.95377
#
# Compressibility (1/GPa) = 0.01905269
#
# Stress axis : x y z
#
# Youngs Moduli (GPa) = 103.76512 87.54385 68.40511
#
# Poissons Ratio (x) = 0.21424 0.24908
# Poissons Ratio (y) = 0.25394 0.15217
# Poissons Ratio (z) = 0.37784 0.19475
#
# Static dielectric constant tensor:
#      x y z
#    x 4.069670 0.053350 0.318360 
#    y 0.053350 3.965560 0.102680 
#    z 0.318360 0.102680 3.783710 
# 
# 
# High freq. dielectric constant tensor:
#      x y z
#    x 1.826450 0.009960 0.022520 
#    y 0.009960 1.839850 0.000970 
#    z 0.022520 0.000970 1.829250 
# 
# From -- ./inp_files/448054.got.cif
#   From: 2010.06.25/outbox.cif.g09.slc.cpg/sg2_225_cif.got.tgz:448054.got - 2010.06.27 13:26:56.
