data_PCOD8007911
_publ_section_title
;
Structure prediction by ZEFSAII (Michael W. Deem and Ramdas Pophale) SiO2 
 PCOD8007911
Probable space group: P -1
;
_chemical_formula_sum "Si O2"
_cell_formula_units_Z 14
_cell_length_a 15.174493
_cell_length_b 7.539638
_cell_length_c 8.294225
_cell_angle_alpha 96.624210
_cell_angle_beta 104.941727
_cell_angle_gamma 42.144745
_cell_volume 610.996263
_symmetry_space_group_name_H-M "P -1"
_symmetry_group_IT_number 2
_symmetry_cell_setting 'triclinic'
loop_
_space_group_symop_operation_xyz
x,y,z
-x,-y,-z
loop_
_atom_site_type_symbol
_atom_site_label
_atom_site_fract_x
_atom_site_fract_y
_atom_site_fract_z
Si Si1 0.911855 0.357258 0.634615
Si Si2 0.928146 0.567957 0.139707
Si Si3 0.469984 0.461614 0.212986
Si Si4 0.376055 0.082310 0.367271
Si Si5 0.987724 0.873549 0.675050
Si Si6 0.683762 0.216976 0.539556
Si Si7 0.380507 0.918502 0.021640
O O1 0.759563 0.604171 0.650472
O O2 0.002940 0.402159 0.694614
O O3 0.906479 0.307493 0.440104
O O4 0.978197 0.096679 0.740515
O O5 0.957203 0.319213 0.169059
O O6 0.769514 0.832807 0.089330
O O7 0.000000 0.500000 0.000000
O O8 0.604232 0.358716 0.347664
O O9 0.370181 0.560309 0.327323
O O10 0.517581 0.221951 0.101032
O O11 0.390391 0.707119 0.079982
O O12 0.500000 0.000000 0.500000
O O13 0.347966 0.932635 0.419899
O O14 0.414594 0.009949 0.187967
O O15 0.841237 0.015715 0.560850
#
# Coordination Sequence:
#
# PCOD8007911 Si02
#       7
#     2   2   2   2   2   2   2
#     4  11  25  44  68 103 133 182 230 284 330 407
#     4  12  22  44  69  99 140 175 224 280 348 406
#     4   9  20  36  63  98 121 171 227 260 340 398
#     4  11  24  43  65  96 137 176 229 279 339 409
#     4  11  25  43  70 102 134 179 236 275 340 404
#     4  10  20  41  71  95 131 183 222 280 333 406
#     4  10  21  40  63  95 134 174 215 281 340 400
#
# _framework density 22.913395999999999
#
# number of rings (size 3 to 8) (size 9 to 14) (size 15 to 20)
#    0.000    1.429    2.857    2.143    8.000    0.571 
#    2.571    0.714    0.000    0.000    0.000    0.000 
#    0.000    0.000    0.000    0.000    0.000    0.000 
#
# Total GULP energy -173533.741265 kJ/mol
# GULP energy per Si atom -12395.267233 kJ/mol
# Density = 2.286124 g / cm^3
# Si number density = 22.913396 Si / 1000 Ang^3
#
#
#
# Elastic Constant Matrix: (Units=GPa)
#
#
# Indices 1 2 3 4 5 6 
#
# 1 60.8042 29.8442 19.0921 3.8806 -3.6594 6.0891
# 2 29.8442 155.5916 59.7076 7.2978 -13.4012 -8.3625
# 3 19.0921 59.7076 100.5531 15.6117 -6.1301 -11.9480
# 4 3.8806 7.2978 15.6117 55.6041 -3.5617 -10.3967
# 5 -3.6594 -13.4012 -6.1301 -3.5617 34.5139 -9.8054
# 6 6.0891 -8.3625 -11.9480 -10.3967 -9.8054 26.8338
#
#
#
# Elastic Compliance Matrix: (Units=1/GPa)
#
#
# Indices 1 2 3 4 5 6 
#
# 1 0.019697 -0.003329 -0.002576 -0.001884 -0.002180 -0.008180
# 2 -0.003329 0.009176 -0.004374 0.001113 0.003508 0.003381
# 3 -0.002576 -0.004374 0.014105 -0.002085 0.001844 0.005368
# 4 -0.001884 0.001113 -0.002085 0.020645 0.004710 0.009566
# 5 -0.002180 0.003508 0.001844 0.004710 0.035842 0.017331
# 6 -0.008180 0.003381 0.005368 0.009566 0.017331 0.052606
#
#
# Mechanical properties :
#
#
# Convention : Reuss Voigt Hill
#
# Bulk Modulus (GPa) = 44.60017 59.35964 51.97990
# Shear Modulus (GPa) = 27.76221 37.27736 32.51979
#
# Velocity S-wave (km/s) = 3.48460 4.03784 3.77138
# Velocity P-wave (km/s) = 5.97469 6.90660 6.45748
#
# Compressibility (1/GPa) = 0.02242144
#
# Stress axis : x y z
#
# Youngs Moduli (GPa) = 50.76906 108.98494 70.89717
#
# Poissons Ratio (x) = 0.36278 0.18261
# Poissons Ratio (y) = 0.16900 0.31007
# Poissons Ratio (z) = 0.13077 0.47665
#
# Static dielectric constant tensor:
#      x y z
#    x 3.494710 0.098510 -0.220800 
#    y 0.098510 4.697050 0.238140 
#    z -0.220800 0.238140 4.250490 
# 
# 
# High freq. dielectric constant tensor:
#      x y z
#    x 1.871890 -0.005580 -0.016000 
#    y -0.005580 1.934040 0.004880 
#    z -0.016000 0.004880 1.900270 
# 
# From -- ./inp_files/255232.got.cif
#   From: 2010.06.25/outbox.cif.g09.slc.cpg/sg2_128_cif.got.tgz:255232.got - 2010.06.27 13:26:56.
