data_PCOD8007337
_publ_section_title
;
Structure prediction by ZEFSAII (Michael W. Deem and Ramdas Pophale) SiO2 
 PCOD8007337
Probable space group: P -1
;
_chemical_formula_sum "Si O2"
_cell_formula_units_Z 16
_cell_length_a 18.521542
_cell_length_b 7.839154
_cell_length_c 18.753698
_cell_angle_alpha 52.747058
_cell_angle_beta 158.415672
_cell_angle_gamma 130.043561
_cell_volume 766.597323
_symmetry_space_group_name_H-M "P -1"
_symmetry_group_IT_number 2
_symmetry_cell_setting 'triclinic'
loop_
_space_group_symop_operation_xyz
x,y,z
-x,-y,-z
loop_
_atom_site_type_symbol
_atom_site_label
_atom_site_fract_x
_atom_site_fract_y
_atom_site_fract_z
Si Si1 0.869149 0.061231 0.716489
Si Si2 0.291912 0.469849 0.777120
Si Si3 0.709352 0.937668 0.218604
Si Si4 0.103090 0.173420 0.445739
Si Si5 0.100175 0.775540 0.448287
Si Si6 0.442109 0.722891 0.405364
Si Si7 0.101024 0.562343 0.249835
Si Si8 0.887038 0.295404 0.996162
O O1 0.859283 0.211768 0.601259
O O2 0.961276 0.230033 0.823522
O O3 0.640028 0.916669 0.560584
O O4 0.015948 0.907770 0.873520
O O5 0.271015 0.280166 0.747970
O O6 0.284507 0.698538 0.673889
O O7 0.111767 0.411251 0.684671
O O8 0.500000 0.500000 0.000000
O O9 0.729557 0.884543 0.333971
O O10 0.893166 0.141214 0.306152
O O11 0.500000 0.000000 0.000000
O O12 0.172359 0.421748 0.413727
O O13 0.081726 0.011253 0.399706
O O14 0.500000 0.500000 0.500000
O O15 0.286154 0.676915 0.339101
O O16 0.344961 0.787024 0.225679
O O17 0.912232 0.393210 0.075810
O O18 0.000000 0.500000 0.000000
#
# Coordination Sequence:
#
# PCOD8007337 Si02
#       8
#     2   2   2   2   2   2   2   2
#     4  12  23  42  66  95 128 167 215 262 315 381
#     4  10  21  37  61  89 123 161 208 257 310 370
#     4  10  21  37  60  90 120 164 206 252 312 371
#     4  10  20  41  60  84 128 161 205 259 310 370
#     4  10  21  39  62  86 124 169 200 260 317 361
#     4  11  22  44  66  90 130 166 207 265 320 376
#     4  11  23  42  66  95 125 170 213 261 320 374
#     4  10  22  43  64  89 127 164 209 262 321 369
#
# _framework density 20.871452999999999
#
# number of rings (size 3 to 8) (size 9 to 14) (size 15 to 20)
#    0.000    1.500    3.750    1.875    0.000    6.000 
#    6.750    0.000    0.000    0.000    0.000    0.000 
#    0.000    0.000    0.000    0.000    0.000    0.000 
#
# Total GULP energy -198351.143663 kJ/mol
# GULP energy per Si atom -12396.946479 kJ/mol
# Density = 2.082395 g / cm^3
# Si number density = 20.871453 Si / 1000 Ang^3
#
#
#
# Elastic Constant Matrix: (Units=GPa)
#
#
# Indices 1 2 3 4 5 6 
#
# 1 104.1706 43.5272 33.4867 -5.1071 -14.8306 -9.2757
# 2 43.5272 93.8285 37.7285 -12.2973 -7.9137 -12.8710
# 3 33.4867 37.7285 142.7583 -8.5527 -8.3370 -1.3562
# 4 -5.1071 -12.2973 -8.5527 27.0756 -0.7938 -5.6726
# 5 -14.8306 -7.9137 -8.3370 -0.7938 25.5891 -2.6890
# 6 -9.2757 -12.8710 -1.3562 -5.6726 -2.6890 38.7539
#
#
#
# Elastic Compliance Matrix: (Units=1/GPa)
#
#
# Indices 1 2 3 4 5 6 
#
# 1 0.013040 -0.004632 -0.001442 0.000494 0.005882 0.002013
# 2 -0.004632 0.015514 -0.002456 0.006515 0.002046 0.005053
# 3 -0.001442 -0.002456 0.008109 0.001068 0.001011 -0.000651
# 4 0.000494 0.006515 0.001068 0.042322 0.004892 0.008854
# 5 0.005882 0.002046 0.001011 0.004892 0.044223 0.005907
# 6 0.002013 0.005053 -0.000651 0.008854 0.005907 0.029647
#
#
# Mechanical properties :
#
#
# Convention : Reuss Voigt Hill
#
# Bulk Modulus (GPa) = 51.01477 63.36025 57.18751
# Shear Modulus (GPa) = 28.33694 33.35139 30.84417
#
# Velocity S-wave (km/s) = 3.68868 4.00176 3.84841
# Velocity P-wave (km/s) = 6.52972 7.19552 6.87069
#
# Compressibility (1/GPa) = 0.01960216
#
# Stress axis : x y z
#
# Youngs Moduli (GPa) = 76.68930 64.45887 123.32042
#
# Poissons Ratio (x) = 0.29859 0.17786
# Poissons Ratio (y) = 0.35525 0.30282
# Poissons Ratio (z) = 0.11061 0.15828
#
# Static dielectric constant tensor:
#      x y z
#    x 3.585580 -0.129290 -0.338690 
#    y -0.129290 3.696560 -0.111920 
#    z -0.338690 -0.111920 3.853060 
# 
# 
# High freq. dielectric constant tensor:
#      x y z
#    x 1.818850 -0.007720 -0.013220 
#    y -0.007720 1.819030 -0.013890 
#    z -0.013220 -0.013890 1.811760 
# 
# From -- ./inp_files/575529.got.cif
#   From: 2010.06.25/outbox.cif.g09.slc.cpg/sg2_288_cif.got.tgz:575529.got - 2010.06.27 13:26:56.
