data_PCOD8007406
_publ_section_title
;
Structure prediction by ZEFSAII (Michael W. Deem and Ramdas Pophale) SiO2 
 PCOD8007406
Probable space group: P -1
;
_chemical_formula_sum "Si O2"
_cell_formula_units_Z 14
_cell_length_a 15.640425
_cell_length_b 15.690305
_cell_length_c 10.532889
_cell_angle_alpha 37.404064
_cell_angle_beta 52.745142
_cell_angle_gamma 26.716952
_cell_volume 652.481797
_symmetry_space_group_name_H-M "P -1"
_symmetry_group_IT_number 2
_symmetry_cell_setting 'triclinic'
loop_
_space_group_symop_operation_xyz
x,y,z
-x,-y,-z
loop_
_atom_site_type_symbol
_atom_site_label
_atom_site_fract_x
_atom_site_fract_y
_atom_site_fract_z
Si Si1 0.864056 0.461461 0.956510
Si Si2 0.545127 0.190868 0.994340
Si Si3 0.615487 0.724742 0.383605
Si Si4 0.770605 0.715523 0.487467
Si Si5 0.152880 0.908075 0.379661
Si Si6 0.434483 0.506542 0.393198
Si Si7 0.252338 0.175393 0.002329
O O1 0.696688 0.578833 0.060954
O O2 0.757714 0.667983 0.695998
O O3 0.017496 0.389500 0.985265
O O4 0.013215 0.170910 0.111218
O O5 0.645355 0.999426 0.250909
O O6 0.641568 0.035607 0.957512
O O7 0.581391 0.314492 0.848212
O O8 0.663883 0.719358 0.488210
O O9 0.651564 0.515667 0.599000
O O10 0.758623 0.651134 0.242702
O O11 0.381246 0.021996 0.198654
O O12 0.000000 0.500000 0.500000
O O13 0.290202 0.648239 0.480062
O O14 0.326447 0.800665 0.431116
O O15 0.000000 0.000000 0.500000
#
# Coordination Sequence:
#
# PCOD8007406 Si02
#       7
#     2   2   2   2   2   2   2
#     4  12  21  39  69  89 120 168 211 242 304 378
#     4  11  22  38  68  93 120 166 208 248 306 377
#     4  10  21  37  65  90 125 162 200 263 308 353
#     4  11  22  44  64  84 127 171 206 248 309 371
#     4  11  21  36  64  95 125 162 203 250 306 372
#     4  11  20  38  62  95 125 155 202 258 310 351
#     4  10  20  41  62  91 124 159 207 258 304 354
#
# _framework density 21.456537999999998
#
# number of rings (size 3 to 8) (size 9 to 14) (size 15 to 20)
#    0.000    1.143    7.143    1.286    0.000    0.000 
#    0.000   12.857    0.000    0.000    0.000    0.000 
#    0.000    0.000    0.000    0.000    0.000    0.000 
#
# Total GULP energy -173438.487152 kJ/mol
# GULP energy per Si atom -12388.463368 kJ/mol
# Density = 2.140770 g / cm^3
# Si number density = 21.456538 Si / 1000 Ang^3
#
#
#
# Elastic Constant Matrix: (Units=GPa)
#
#
# Indices 1 2 3 4 5 6 
#
# 1 134.7468 33.9205 54.2152 6.6018 -14.8504 -21.3369
# 2 33.9205 103.9181 29.9851 2.6145 -4.4484 -37.7895
# 3 54.2152 29.9851 112.2189 -2.0616 -10.2487 -10.2910
# 4 6.6018 2.6145 -2.0616 27.1292 -4.7875 1.3110
# 5 -14.8504 -4.4484 -10.2487 -4.7875 45.0788 6.0855
# 6 -21.3369 -37.7895 -10.2910 1.3110 6.0855 27.8318
#
#
#
# Elastic Compliance Matrix: (Units=1/GPa)
#
#
# Indices 1 2 3 4 5 6 
#
# 1 0.010495 0.000558 -0.004522 -0.003076 0.001211 0.007012
# 2 0.000558 0.020593 -0.003549 -0.004233 -0.002805 0.027890
# 3 -0.004522 -0.003549 0.011852 0.002867 0.001756 -0.004422
# 4 -0.003076 -0.004233 0.002867 0.039557 0.004765 -0.009951
# 5 0.001211 -0.002805 0.001756 0.004765 0.024258 -0.007760
# 6 0.007012 0.027890 -0.004422 -0.009951 -0.007760 0.079704
#
#
# Mechanical properties :
#
#
# Convention : Reuss Voigt Hill
#
# Bulk Modulus (GPa) = 35.82402 65.23615 50.53008
# Shear Modulus (GPa) = 23.72041 35.52550 29.62295
#
# Velocity S-wave (km/s) = 3.32853 4.07344 3.71968
# Velocity P-wave (km/s) = 5.61288 7.25215 6.48453
#
# Compressibility (1/GPa) = 0.02791423
#
# Stress axis : x y z
#
# Youngs Moduli (GPa) = 95.28488 48.56008 84.37608
#
# Poissons Ratio (x) = -0.02711 0.38158
# Poissons Ratio (y) = -0.05319 0.29942
# Poissons Ratio (z) = 0.43091 0.17232
#
# Static dielectric constant tensor:
#      x y z
#    x 3.996640 -0.446320 -0.196660 
#    y -0.446320 3.753980 -0.092310 
#    z -0.196660 -0.092310 4.248100 
# 
# 
# High freq. dielectric constant tensor:
#      x y z
#    x 1.823850 -0.041200 -0.017500 
#    y -0.041200 1.830420 -0.002050 
#    z -0.017500 -0.002050 1.851980 
# 
# From -- ./inp_files/455453.got.cif
#   From: 2010.06.25/outbox.cif.g09.slc.cpg/sg2_228_cif.got.tgz:455453.got - 2010.06.27 13:26:56.
