data_PCOD8007022
_publ_section_title
;
Structure prediction by ZEFSAII (Michael W. Deem and Ramdas Pophale) SiO2 
 PCOD8007022
Probable space group: P -1
;
_chemical_formula_sum "Si O2"
_cell_formula_units_Z 14
_cell_length_a 9.495832
_cell_length_b 23.008308
_cell_length_c 17.946815
_cell_angle_alpha 158.185873
_cell_angle_beta 28.979226
_cell_angle_gamma 138.268205
_cell_volume 656.963357
_symmetry_space_group_name_H-M "P -1"
_symmetry_group_IT_number 2
_symmetry_cell_setting 'triclinic'
loop_
_space_group_symop_operation_xyz
x,y,z
-x,-y,-z
loop_
_atom_site_type_symbol
_atom_site_label
_atom_site_fract_x
_atom_site_fract_y
_atom_site_fract_z
Si Si1 0.768354 0.395331 0.385425
Si Si2 0.822259 0.060545 0.578791
Si Si3 0.300337 0.553303 0.918601
Si Si4 0.874724 0.379962 0.553917
Si Si5 0.892236 0.888969 0.769030
Si Si6 0.859032 0.860445 0.980070
Si Si7 0.217289 0.909978 0.082299
O O1 0.457135 0.499141 0.700061
O O2 0.912883 0.507890 0.404854
O O3 0.701273 0.267814 0.208188
O O4 0.035663 0.303754 0.211949
O O5 0.496764 0.037506 0.714081
O O6 0.804486 0.246917 0.787807
O O7 0.000000 0.000000 0.500000
O O8 0.980192 0.932386 0.286420
O O9 0.538524 0.466605 0.773422
O O10 0.000000 0.500000 0.000000
O O11 0.867119 0.300439 0.545470
O O12 0.086858 0.207782 0.209576
O O13 0.945440 0.932951 0.711513
O O14 0.533728 0.912512 0.973507
O O15 0.935898 0.027813 0.968216
#
# Coordination Sequence:
#
# PCOD8007022 Si02
#       7
#     2   2   2   2   2   2   2
#     4  10  21  44  66  91 130 174 209 263 320 380
#     4  12  25  43  66  96 127 169 218 267 320 382
#     4  11  25  41  66  97 133 165 218 273 314 369
#     4  11  20  42  67  97 124 174 216 259 316 384
#     4  10  23  39  65  94 129 175 211 255 318 389
#     4  10  20  40  66  93 128 167 218 256 315 382
#     4  10  25  43  64  95 133 171 209 264 323 381
#
# _framework density 21.310168999999998
#
# number of rings (size 3 to 8) (size 9 to 14) (size 15 to 20)
#    0.000    1.429    2.857    2.143   10.000    2.857 
#    0.000    0.714    0.000    0.000    0.000    0.000 
#    0.000    0.000    0.000    0.000    0.000    0.000 
#
# Total GULP energy -173550.771178 kJ/mol
# GULP energy per Si atom -12396.483656 kJ/mol
# Density = 2.126167 g / cm^3
# Si number density = 21.310169 Si / 1000 Ang^3
#
#
#
# Elastic Constant Matrix: (Units=GPa)
#
#
# Indices 1 2 3 4 5 6 
#
# 1 88.1390 61.6250 38.4289 11.6310 -6.7466 2.3336
# 2 61.6250 92.6358 29.9622 7.4884 -16.8096 18.2433
# 3 38.4289 29.9622 74.2646 -0.7585 3.6395 2.4701
# 4 11.6310 7.4884 -0.7585 38.4902 -7.0456 -9.3799
# 5 -6.7466 -16.8096 3.6395 -7.0456 32.5820 5.8201
# 6 2.3336 18.2433 2.4701 -9.3799 5.8201 39.7135
#
#
#
# Elastic Compliance Matrix: (Units=1/GPa)
#
#
# Indices 1 2 3 4 5 6 
#
# 1 0.026182 -0.017033 -0.006704 -0.004010 -0.004634 0.006435
# 2 -0.017033 0.028467 -0.002884 -0.001407 0.013721 -0.014240
# 3 -0.006704 -0.002884 0.018292 0.002542 -0.004704 0.001871
# 4 -0.004010 -0.001407 0.002542 0.029903 0.003322 0.007300
# 5 -0.004634 0.013721 -0.004704 0.003322 0.039987 -0.010814
# 6 0.006435 -0.014240 0.001871 0.007300 -0.010814 0.034536
#
#
# Mechanical properties :
#
#
# Convention : Reuss Voigt Hill
#
# Bulk Modulus (GPa) = 50.76515 57.23019 53.99767
# Shear Modulus (GPa) = 21.08147 30.49202 25.78674
#
# Velocity S-wave (km/s) = 3.14868 3.78678 3.48238
# Velocity P-wave (km/s) = 6.09037 6.78482 6.44695
#
# Compressibility (1/GPa) = 0.01969855
#
# Stress axis : x y z
#
# Youngs Moduli (GPa) = 38.19448 35.12885 54.66769
#
# Poissons Ratio (x) = 0.59834 0.36649
# Poissons Ratio (y) = 0.65056 0.15768
# Poissons Ratio (z) = 0.25606 0.10132
#
# Static dielectric constant tensor:
#      x y z
#    x 3.981460 -0.157770 -0.184880 
#    y -0.157770 4.361180 -0.130260 
#    z -0.184880 -0.130260 3.947330 
# 
# 
# High freq. dielectric constant tensor:
#      x y z
#    x 1.843720 0.002010 -0.009950 
#    y 0.002010 1.845680 0.012700 
#    z -0.009950 0.012700 1.818690 
# 
# From -- ./inp_files/175488.got.cif
#   From: 2010.06.25/outbox.cif.g09.slc.cpg/sg2_88_cif.got.tgz:175488.got - 2010.06.27 13:26:56.
