data_PCOD8007699
_publ_section_title
;
Structure prediction by ZEFSAII (Michael W. Deem and Ramdas Pophale) SiO2 
 PCOD8007699
Probable space group: P -1
;
_chemical_formula_sum "Si O2"
_cell_formula_units_Z 16
_cell_length_a 17.093035
_cell_length_b 8.696551
_cell_length_c 8.643753
_cell_angle_alpha 122.289942
_cell_angle_beta 132.236809
_cell_angle_gamma 52.672751
_cell_volume 738.763720
_symmetry_space_group_name_H-M "P -1"
_symmetry_group_IT_number 2
_symmetry_cell_setting 'triclinic'
loop_
_space_group_symop_operation_xyz
x,y,z
-x,-y,-z
loop_
_atom_site_type_symbol
_atom_site_label
_atom_site_fract_x
_atom_site_fract_y
_atom_site_fract_z
Si Si1 0.670139 0.220173 0.845479
Si Si2 0.708831 0.238730 0.556571
Si Si3 0.005446 0.595343 0.312383
Si Si4 0.708786 0.819756 0.820663
Si Si5 0.900710 0.388197 0.865297
Si Si6 0.238532 0.162929 0.761128
Si Si7 0.755962 0.510806 0.267933
Si Si8 0.587606 0.606892 0.384464
O O1 0.653280 0.260434 0.662547
O O2 0.543430 0.323134 0.808833
O O3 0.725989 0.986476 0.828131
O O4 0.753004 0.314245 0.081269
O O5 0.831408 0.256144 0.747638
O O6 0.623764 0.404736 0.420262
O O7 0.727209 0.028290 0.400563
O O8 0.025454 0.700724 0.239083
O O9 0.114700 0.528916 0.532420
O O10 0.898223 0.751409 0.345733
O O11 0.978393 0.403561 0.121491
O O12 0.817824 0.614182 0.833433
O O13 0.597173 0.781364 0.597477
O O14 0.692606 0.891099 0.014980
O O15 0.280504 0.317328 0.815616
O O16 0.670242 0.576867 0.332596
#
# Coordination Sequence:
#
# PCOD8007699 Si02
#       8
#     2   2   2   2   2   2   2   2
#     4  12  25  41  67  93 124 171 210 257 314 370
#     4  11  23  43  63  96 128 162 212 257 309 373
#     4  10  20  41  67  89 128 166 204 251 322 362
#     4  10  21  42  64  93 127 160 211 260 309 367
#     4   9  20  41  67  91 128 164 201 259 313 371
#     4  11  25  40  66  96 128 166 206 256 311 379
#     4  12  23  43  64  94 128 164 211 260 308 370
#     4  11  23  45  66  90 127 165 210 264 315 361
#
# _framework density 21.657803999999999
#
# number of rings (size 3 to 8) (size 9 to 14) (size 15 to 20)
#    0.000    1.250    2.500    5.250    0.000    0.500 
#    4.500    3.125    0.000    0.000    0.000    0.000 
#    0.000    0.000    0.000    0.000    0.000    0.000 
#
# Total GULP energy -198435.803327 kJ/mol
# GULP energy per Si atom -12402.237708 kJ/mol
# Density = 2.160851 g / cm^3
# Si number density = 21.657804 Si / 1000 Ang^3
#
#
#
# Elastic Constant Matrix: (Units=GPa)
#
#
# Indices 1 2 3 4 5 6 
#
# 1 79.6606 39.8514 20.9385 -5.4340 -11.6785 9.3521
# 2 39.8514 75.7053 27.3761 12.6853 5.7306 18.2078
# 3 20.9385 27.3761 94.3529 6.7595 7.8646 -0.3290
# 4 -5.4340 12.6853 6.7595 31.4981 8.4748 -3.5371
# 5 -11.6785 5.7306 7.8646 8.4748 29.8936 7.6173
# 6 9.3521 18.2078 -0.3290 -3.5371 7.6173 32.1929
#
#
#
# Elastic Compliance Matrix: (Units=1/GPa)
#
#
# Indices 1 2 3 4 5 6 
#
# 1 0.021000 -0.011609 -0.002539 0.006111 0.009665 -0.001176
# 2 -0.011609 0.025930 -0.003945 -0.012495 -0.001796 -0.012281
# 3 -0.002539 -0.003945 0.012702 0.000165 -0.004702 0.004230
# 4 0.006111 -0.012495 0.000165 0.041956 -0.010300 0.012340
# 5 0.009665 -0.001796 -0.004702 -0.010300 0.045212 -0.013669
# 6 -0.001176 -0.012281 0.004230 0.012340 -0.013669 0.042984
#
#
# Mechanical properties :
#
#
# Convention : Reuss Voigt Hill
#
# Bulk Modulus (GPa) = 42.65367 47.33898 44.99633
# Shear Modulus (GPa) = 21.38714 29.48710 25.43712
#
# Velocity S-wave (km/s) = 3.14587 3.69385 3.43082
# Velocity P-wave (km/s) = 5.73868 6.33229 6.04278
#
# Compressibility (1/GPa) = 0.02344464
#
# Stress axis : x y z
#
# Youngs Moduli (GPa) = 47.61902 38.56540 78.73015
#
# Poissons Ratio (x) = 0.44769 0.19993
# Poissons Ratio (y) = 0.55280 0.31061
# Poissons Ratio (z) = 0.12093 0.15215
#
# Static dielectric constant tensor:
#      x y z
#    x 3.942680 0.095430 0.054910 
#    y 0.095430 3.619090 0.040560 
#    z 0.054910 0.040560 4.329770 
# 
# 
# High freq. dielectric constant tensor:
#      x y z
#    x 1.858750 0.006720 -0.001840 
#    y 0.006720 1.826680 0.007200 
#    z -0.001840 0.007200 1.867090 
# 
# From -- ./inp_files/215599.got.cif
#   From: 2010.06.25/outbox.cif.g09.slc.cpg/sg2_108_cif.got.tgz:215599.got - 2010.06.27 13:26:56.
