data_PCOD8007291
_publ_section_title
;
Structure prediction by ZEFSAII (Michael W. Deem and Ramdas Pophale) SiO2 
 PCOD8007291
Probable space group: P -1
;
_chemical_formula_sum "Si O2"
_cell_formula_units_Z 14
_cell_length_a 5.066171
_cell_length_b 8.826986
_cell_length_c 24.601412
_cell_angle_alpha 41.941925
_cell_angle_beta 69.807143
_cell_angle_gamma 61.254144
_cell_volume 644.548826
_symmetry_space_group_name_H-M "P -1"
_symmetry_group_IT_number 2
_symmetry_cell_setting 'triclinic'
loop_
_space_group_symop_operation_xyz
x,y,z
-x,-y,-z
loop_
_atom_site_type_symbol
_atom_site_label
_atom_site_fract_x
_atom_site_fract_y
_atom_site_fract_z
Si Si1 0.245644 0.734936 0.560454
Si Si2 0.627833 0.595284 0.779443
Si Si3 0.092002 0.300589 0.501982
Si Si4 0.161906 0.512907 0.897861
Si Si5 0.856605 0.223519 0.325867
Si Si6 0.392324 0.278622 0.053579
Si Si7 0.091748 0.160150 0.907371
O O1 0.209865 0.634177 0.649547
O O2 0.157127 0.587486 0.558004
O O3 0.425335 0.252759 0.469901
O O4 0.000000 0.000000 0.500000
O O5 0.398096 0.649542 0.833166
O O6 0.441276 0.660503 0.719785
O O7 0.846763 0.749195 0.729169
O O8 0.823759 0.305599 0.846237
O O9 0.000000 0.500000 0.500000
O O10 0.073750 0.058993 0.594437
O O11 0.165013 0.367404 0.880623
O O12 0.845389 0.719121 0.882807
O O13 0.250507 0.320307 0.992172
O O14 0.648396 0.012551 0.104263
O O15 0.500000 0.500000 0.000000
O O16 0.000000 0.000000 0.000000
#
# Coordination Sequence:
#
# PCOD8007291 Si02
#       7
#     2   2   2   2   2   2   2
#     4  10  20  40  70  99 128 172 227 261 313 410
#     4  12  24  41  68  95 137 180 227 280 354 395
#     4  11  22  41  74 105 133 174 222 273 327 398
#     4  11  23  41  67  98 130 176 228 292 352 396
#     4  11  23  42  69 100 135 181 219 273 341 403
#     4  11  23  40  69  99 125 169 240 299 339 398
#     4  12  23  42  70  95 128 182 241 284 335 416
#
# _framework density 21.72062
#
# number of rings (size 3 to 8) (size 9 to 14) (size 15 to 20)
#    0.000    0.857    4.286    5.143    0.000    0.000 
#    0.000    1.429   12.571    0.000    0.000    0.000 
#    0.000    0.000    0.000    0.000    0.000    0.000 
#
# Total GULP energy -173504.946639 kJ/mol
# GULP energy per Si atom -12393.210474 kJ/mol
# Density = 2.167118 g / cm^3
# Si number density = 21.720620 Si / 1000 Ang^3
#
#
#
# Elastic Constant Matrix: (Units=GPa)
#
#
# Indices 1 2 3 4 5 6 
#
# 1 137.1330 52.0998 55.9933 1.6709 -1.2471 -11.1509
# 2 52.0998 150.1549 47.5372 3.9364 -6.8471 -13.5933
# 3 55.9933 47.5372 98.7633 5.3640 -4.8224 -14.4950
# 4 1.6709 3.9364 5.3640 16.3758 -10.2518 -4.4846
# 5 -1.2471 -6.8471 -4.8224 -10.2518 50.2480 13.5895
# 6 -11.1509 -13.5933 -14.4950 -4.4846 13.5895 45.1631
#
#
#
# Elastic Compliance Matrix: (Units=1/GPa)
#
#
# Indices 1 2 3 4 5 6 
#
# 1 0.009993 -0.001969 -0.004701 0.000871 -0.000453 0.000589
# 2 -0.001969 0.008318 -0.002702 -0.000339 0.000494 0.000967
# 3 -0.004701 -0.002702 0.014616 -0.003233 -0.000424 0.002524
# 4 0.000871 -0.000339 -0.003233 0.071217 0.013643 0.002042
# 5 -0.000453 0.000494 -0.000424 0.013643 0.024342 -0.006069
# 6 0.000589 0.000967 0.002524 0.002042 -0.006069 0.025417
#
#
# Mechanical properties :
#
#
# Convention : Reuss Voigt Hill
#
# Bulk Modulus (GPa) = 70.51170 77.47910 73.99540
# Shear Modulus (GPa) = 28.18891 37.71880 32.95386
#
# Velocity S-wave (km/s) = 3.60640 4.17171 3.89931
# Velocity P-wave (km/s) = 7.06222 7.67804 7.37656
#
# Compressibility (1/GPa) = 0.01418204
#
# Stress axis : x y z
#
# Youngs Moduli (GPa) = 100.07211 120.22601 68.41740
#
# Poissons Ratio (x) = 0.23676 0.32160
# Poissons Ratio (y) = 0.19707 0.18490
# Poissons Ratio (z) = 0.47039 0.32491
#
# Static dielectric constant tensor:
#      x y z
#    x 4.273320 0.020760 0.176150 
#    y 0.020760 4.284570 0.306420 
#    z 0.176150 0.306420 4.020120 
# 
# 
# High freq. dielectric constant tensor:
#      x y z
#    x 1.878560 -0.008140 0.004330 
#    y -0.008140 1.839620 0.023190 
#    z 0.004330 0.023190 1.838470 
# 
# From -- ./inp_files/615138.got.cif
#   From: 2010.06.25/outbox.cif.g09.slc.cpg/sg2_308_cif.got.tgz:615138.got - 2010.06.27 13:26:56.
