data_PCOD8007630
_publ_section_title
;
Structure prediction by ZEFSAII (Michael W. Deem and Ramdas Pophale) SiO2 
 PCOD8007630
Probable space group: P -1
;
_chemical_formula_sum "Si O2"
_cell_formula_units_Z 16
_cell_length_a 11.415837
_cell_length_b 8.868916
_cell_length_c 8.663503
_cell_angle_alpha 115.172594
_cell_angle_beta 82.877806
_cell_angle_gamma 99.507726
_cell_volume 781.519521
_symmetry_space_group_name_H-M "P -1"
_symmetry_group_IT_number 2
_symmetry_cell_setting 'triclinic'
loop_
_space_group_symop_operation_xyz
x,y,z
-x,-y,-z
loop_
_atom_site_type_symbol
_atom_site_label
_atom_site_fract_x
_atom_site_fract_y
_atom_site_fract_z
Si Si1 0.017421 0.311351 0.855669
Si Si2 0.735359 0.548982 0.840038
Si Si3 0.512960 0.477571 0.668866
Si Si4 0.543966 0.865959 0.321131
Si Si5 0.001850 0.482375 0.312482
Si Si6 0.837444 0.185618 0.060383
Si Si7 0.381150 0.706887 0.009874
Si Si8 0.775111 0.869072 0.125069
O O1 0.010752 0.334082 0.681056
O O2 0.140638 0.242904 0.843175
O O3 0.000000 0.500000 0.000000
O O4 0.912166 0.179573 0.886379
O O5 0.653745 0.478048 0.679246
O O6 0.707050 0.430289 0.941786
O O7 0.873880 0.573603 0.786689
O O8 0.702679 0.735359 0.962993
O O9 0.500000 0.500000 0.500000
O O10 0.444055 0.301162 0.656373
O O11 0.465845 0.620851 0.842795
O O12 0.457802 0.830552 0.171163
O O13 0.677550 0.940247 0.280708
O O14 0.500000 0.000000 0.500000
O O15 0.892509 0.345217 0.221359
O O16 0.000000 0.500000 0.500000
O O17 0.849395 0.020229 0.086409
O O18 0.699792 0.190355 0.040812
#
# Coordination Sequence:
#
# PCOD8007630 Si02
#       8
#     2   2   2   2   2   2   2   2
#     4  10  20  41  66  91 122 168 218 264 322 398
#     4  11  20  43  67  91 129 178 219 273 326 400
#     4  11  25  40  70 101 128 172 235 273 329 402
#     4  11  26  44  66  98 139 175 221 281 338 392
#     4  11  24  40  66  96 131 169 224 272 328 396
#     4  11  24  37  68  97 127 171 220 265 335 399
#     4  11  22  45  69  94 131 183 225 269 334 404
#     4  12  22  41  69  94 134 169 219 277 341 388
#
# _framework density 20.472936000000001
#
# number of rings (size 3 to 8) (size 9 to 14) (size 15 to 20)
#    0.000    1.000    6.250    1.875    3.500    2.500 
#    0.000    0.625    0.000    0.000    0.000    0.000 
#    0.000    0.000    0.000    0.000    0.000    0.000 
#
# Total GULP energy -198323.032403 kJ/mol
# GULP energy per Si atom -12395.189525 kJ/mol
# Density = 2.042634 g / cm^3
# Si number density = 20.472936 Si / 1000 Ang^3
#
#
#
# Elastic Constant Matrix: (Units=GPa)
#
#
# Indices 1 2 3 4 5 6 
#
# 1 117.7759 45.5095 48.6632 -6.9853 -4.3154 -10.8887
# 2 45.5095 115.4740 47.8520 -20.4742 3.1014 -5.3373
# 3 48.6632 47.8520 131.3790 -16.5077 0.6774 -9.5117
# 4 -6.9853 -20.4742 -16.5077 34.0722 -7.6028 2.0636
# 5 -4.3154 3.1014 0.6774 -7.6028 31.1589 -5.4148
# 6 -10.8887 -5.3373 -9.5117 2.0636 -5.4148 29.4603
#
#
#
# Elastic Compliance Matrix: (Units=1/GPa)
#
#
# Indices 1 2 3 4 5 6 
#
# 1 0.011278 -0.003312 -0.002849 -0.000730 0.002319 0.003126
# 2 -0.003312 0.011912 -0.002477 0.005215 -0.000370 -0.000299
# 3 -0.002849 -0.002477 0.010041 0.002829 0.000611 0.001655
# 4 -0.000730 0.005215 0.002829 0.035470 0.008075 0.000588
# 5 0.002319 -0.000370 0.000611 0.008075 0.035620 0.006969
# 6 0.003126 -0.000299 0.001655 0.000588 0.006969 0.036819
#
#
# Mechanical properties :
#
#
# Convention : Reuss Voigt Hill
#
# Bulk Modulus (GPa) = 62.66665 72.07535 67.37100
# Shear Modulus (GPa) = 30.53764 33.77855 32.15809
#
# Velocity S-wave (km/s) = 3.86633 4.06632 3.96758
# Velocity P-wave (km/s) = 7.11388 7.57154 7.34627
#
# Compressibility (1/GPa) = 0.01595745
#
# Stress axis : x y z
#
# Youngs Moduli (GPa) = 88.66847 83.94826 99.59358
#
# Poissons Ratio (x) = 0.27800 0.28370
# Poissons Ratio (y) = 0.29363 0.24666
# Poissons Ratio (z) = 0.25258 0.20791
#
# Static dielectric constant tensor:
#      x y z
#    x 3.839520 -0.220170 0.193460 
#    y -0.220170 8.230100 -4.310830 
#    z 0.193460 -4.310830 7.430550 
# 
# 
# High freq. dielectric constant tensor:
#      x y z
#    x 1.815510 0.000090 -0.001390 
#    y 0.000090 1.800640 -0.016590 
#    z -0.001390 -0.016590 1.778350 
# 
# From -- ./inp_files/240955.got.cif
#   From: 2010.06.25/outbox.cif.g09.slc.cpg/sg2_121_cif.got.tgz:240955.got - 2010.06.27 13:26:56.
