data_PCOD8007389
_publ_section_title
;
Structure prediction by ZEFSAII (Michael W. Deem and Ramdas Pophale) SiO2 
 PCOD8007389
Probable space group: P -1
;
_chemical_formula_sum "Si O2"
_cell_formula_units_Z 16
_cell_length_a 15.477079
_cell_length_b 10.304901
_cell_length_c 13.975523
_cell_angle_alpha 94.572548
_cell_angle_beta 32.093234
_cell_angle_gamma 117.689130
_cell_volume 780.985204
_symmetry_space_group_name_H-M "P -1"
_symmetry_group_IT_number 2
_symmetry_cell_setting 'triclinic'
loop_
_space_group_symop_operation_xyz
x,y,z
-x,-y,-z
loop_
_atom_site_type_symbol
_atom_site_label
_atom_site_fract_x
_atom_site_fract_y
_atom_site_fract_z
Si Si1 0.481731 0.850653 0.457998
Si Si2 0.603994 0.494606 0.809232
Si Si3 0.874721 0.267554 0.718190
Si Si4 0.706463 0.589588 0.066466
Si Si5 0.916190 0.981377 0.971977
Si Si6 0.551159 0.655782 0.524192
Si Si7 0.109861 0.639207 0.630987
Si Si8 0.453496 0.834649 0.150010
O O1 0.484244 0.743700 0.531971
O O2 0.229848 0.689195 0.625393
O O3 0.500000 0.000000 0.500000
O O4 0.705670 0.965525 0.178468
O O5 0.524020 0.528975 0.794027
O O6 0.486583 0.280767 0.899743
O O7 0.900241 0.667092 0.543947
O O8 0.500000 0.500000 0.000000
O O9 0.713905 0.250227 0.791881
O O10 0.978228 0.427235 0.710331
O O11 0.711664 0.062614 0.912488
O O12 0.620351 0.450842 0.228314
O O13 0.917974 0.640912 0.815285
O O14 0.805691 0.788899 0.015205
O O15 0.163711 0.176791 0.697463
O O16 0.000000 0.000000 0.000000
O O17 0.500000 0.500000 0.500000
O O18 0.311616 0.804653 0.373646
#
# Coordination Sequence:
#
# PCOD8007389 Si02
#       8
#     2   2   2   2   2   2   2   2
#     4  11  24  43  64  93 129 170 214 269 326 378
#     4  11  23  41  65  96 130 167 211 261 322 384
#     4  10  22  41  66  94 127 165 214 264 319 387
#     4  12  24  41  64  95 125 173 213 262 327 382
#     4  10  20  41  62  87 127 160 208 266 315 372
#     4  11  24  42  66  91 126 170 214 266 317 381
#     4  11  23  41  64  91 129 167 215 263 322 385
#     4  10  22  42  65  94 127 167 209 268 323 377
#
# _framework density 20.486944000000001
#
# number of rings (size 3 to 8) (size 9 to 14) (size 15 to 20)
#    0.000    1.250    2.500    6.000    0.000    5.000 
#    0.000    0.000    0.000    0.000    0.000    0.000 
#    0.000    0.000    0.000    0.000    0.000    0.000 
#
# Total GULP energy -198431.136650 kJ/mol
# GULP energy per Si atom -12401.946041 kJ/mol
# Density = 2.044031 g / cm^3
# Si number density = 20.486944 Si / 1000 Ang^3
#
#
#
# Elastic Constant Matrix: (Units=GPa)
#
#
# Indices 1 2 3 4 5 6 
#
# 1 98.4777 44.2260 33.0563 -6.8859 -1.7506 -1.6176
# 2 44.2260 131.1172 80.8265 9.8260 6.8259 0.7745
# 3 33.0563 80.8265 138.3480 -0.2723 6.9570 0.6558
# 4 -6.8859 9.8260 -0.2723 42.5602 1.1830 -1.8590
# 5 -1.7506 6.8259 6.9570 1.1830 39.2997 -1.1632
# 6 -1.6176 0.7745 0.6558 -1.8590 -1.1632 34.7308
#
#
#
# Elastic Compliance Matrix: (Units=1/GPa)
#
#
# Indices 1 2 3 4 5 6 
#
# 1 0.012457 -0.004099 -0.000646 0.002960 0.001318 0.000886
# 2 -0.004099 0.013638 -0.006931 -0.003849 -0.001227 -0.000611
# 3 -0.000646 -0.006931 0.011481 0.001593 -0.000906 -0.000037
# 4 0.002960 -0.003849 0.001593 0.024945 -0.000187 0.001523
# 5 0.001318 -0.001227 -0.000906 -0.000187 0.025912 0.000964
# 6 0.000886 -0.000611 -0.000037 0.001523 0.000964 0.028962
#
#
# Mechanical properties :
#
#
# Convention : Reuss Voigt Hill
#
# Bulk Modulus (GPa) = 70.30957 76.01784 73.16371
# Shear Modulus (GPa) = 34.36650 37.30709 35.83680
#
# Velocity S-wave (km/s) = 4.10015 4.27197 4.18694
# Velocity P-wave (km/s) = 7.53716 7.84341 7.69180
#
# Compressibility (1/GPa) = 0.01422281
#
# Stress axis : x y z
#
# Youngs Moduli (GPa) = 80.27342 73.32429 87.10114
#
# Poissons Ratio (x) = 0.30057 0.05630
# Poissons Ratio (y) = 0.32905 0.60372
# Poissons Ratio (z) = 0.05189 0.50823
#
# Static dielectric constant tensor:
#      x y z
#    x 4.429680 1.232010 -1.456510 
#    y 1.232010 4.421340 -1.301810 
#    z -1.456510 -1.301810 6.049210 
# 
# 
# High freq. dielectric constant tensor:
#      x y z
#    x 1.805790 0.006190 -0.007910 
#    y 0.006190 1.799570 0.004210 
#    z -0.007910 0.004210 1.812520 
# 
# From -- ./inp_files/529770.got.cif
#   From: 2010.06.25/outbox.cif.g09.slc.cpg/sg2_265_cif.got.tgz:529770.got - 2010.06.27 13:26:56.
