data_PCOD8007399
_publ_section_title
;
Structure prediction by ZEFSAII (Michael W. Deem and Ramdas Pophale) SiO2 
 PCOD8007399
Probable space group: P -1
;
_chemical_formula_sum "Si O2"
_cell_formula_units_Z 16
_cell_length_a 8.105358
_cell_length_b 12.437407
_cell_length_c 9.950282
_cell_angle_alpha 93.318717
_cell_angle_beta 92.103170
_cell_angle_gamma 47.853648
_cell_volume 742.469664
_symmetry_space_group_name_H-M "P -1"
_symmetry_group_IT_number 2
_symmetry_cell_setting 'triclinic'
loop_
_space_group_symop_operation_xyz
x,y,z
-x,-y,-z
loop_
_atom_site_type_symbol
_atom_site_label
_atom_site_fract_x
_atom_site_fract_y
_atom_site_fract_z
Si Si1 0.505380 0.061891 0.141355
Si Si2 0.713359 0.201035 0.165469
Si Si3 0.452040 0.100212 0.625966
Si Si4 0.950945 0.635189 0.782601
Si Si5 0.754001 0.496908 0.762606
Si Si6 0.757267 0.368621 0.003589
Si Si7 0.065780 0.058488 0.398275
Si Si8 0.011465 0.323133 0.509382
O O1 0.644008 0.109938 0.123784
O O2 0.258162 0.193495 0.196399
O O3 0.618451 0.936418 0.246779
O O4 0.500000 0.000000 0.000000
O O5 0.508428 0.361088 0.229452
O O6 0.803013 0.223685 0.035117
O O7 0.913381 0.112393 0.268467
O O8 0.237969 0.265118 0.587922
O O9 0.500000 0.000000 0.500000
O O10 0.676912 0.071971 0.650852
O O11 0.889977 0.542005 0.818590
O O12 0.022880 0.599793 0.626000
O O13 0.147111 0.592575 0.878296
O O14 0.803454 0.440922 0.607428
O O15 0.840199 0.364242 0.856246
O O16 0.500000 0.500000 0.000000
O O17 0.025990 0.190198 0.475498
O O18 0.000000 0.000000 0.500000
#
# Coordination Sequence:
#
# PCOD8007399 Si02
#       8
#     2   2   2   2   2   2   2   2
#     4  11  23  40  68  93 120 171 221 257 314 388
#     4  10  21  43  66  91 133 166 207 272 325 367
#     4  10  20  41  62  89 129 164 209 258 312 376
#     4  11  21  43  65  87 130 170 210 265 319 373
#     4  10  24  38  68  95 124 172 217 258 313 385
#     4  10  21  43  61  90 130 168 205 262 324 374
#     4  11  22  40  68  91 131 169 201 265 333 364
#     4  11  22  41  64  96 129 168 218 257 308 393
#
# _framework density 21.549703000000001
#
# number of rings (size 3 to 8) (size 9 to 14) (size 15 to 20)
#    0.000    1.500    3.750    2.250    3.500    0.500 
#    2.250    1.250    0.000    0.000    0.000    0.000 
#    0.000    0.000    0.000    0.000    0.000    0.000 
#
# Total GULP energy -198361.393491 kJ/mol
# GULP energy per Si atom -12397.587093 kJ/mol
# Density = 2.150066 g / cm^3
# Si number density = 21.549703 Si / 1000 Ang^3
#
#
#
# Elastic Constant Matrix: (Units=GPa)
#
#
# Indices 1 2 3 4 5 6 
#
# 1 117.7242 30.0446 42.3030 -17.7691 6.8742 8.3394
# 2 30.0446 40.0804 26.3762 -11.3670 -1.7443 1.0122
# 3 42.3030 26.3762 138.8247 -16.5724 -8.4928 -3.0491
# 4 -17.7691 -11.3670 -16.5724 40.7362 1.8064 -4.0634
# 5 6.8742 -1.7443 -8.4928 1.8064 43.3247 -13.4240
# 6 8.3394 1.0122 -3.0491 -4.0634 -13.4240 29.5141
#
#
#
# Elastic Compliance Matrix: (Units=1/GPa)
#
#
# Indices 1 2 3 4 5 6 
#
# 1 0.012078 -0.006892 -0.002512 0.002004 -0.004364 -0.005145
# 2 -0.006892 0.033956 -0.003556 0.005136 0.002209 0.002127
# 3 -0.002512 -0.003556 0.009122 0.001828 0.003021 0.003400
# 4 0.002004 0.005136 0.001828 0.027928 0.000120 0.003346
# 5 -0.004364 0.002209 0.003021 0.000120 0.028997 0.014675
# 6 -0.005145 0.002127 0.003400 0.003346 0.014675 0.042749
#
#
# Mechanical properties :
#
#
# Convention : Reuss Voigt Hill
#
# Bulk Modulus (GPa) = 34.20560 54.89744 44.55152
# Shear Modulus (GPa) = 26.24748 35.90872 31.07810
#
# Velocity S-wave (km/s) = 3.49377 4.08649 3.80170
# Velocity P-wave (km/s) = 5.67297 6.91346 6.32371
#
# Compressibility (1/GPa) = 0.02923498
#
# Stress axis : x y z
#
# Youngs Moduli (GPa) = 82.79769 29.45004 109.62442
#
# Poissons Ratio (x) = 0.20298 0.27533
# Poissons Ratio (y) = 0.57068 0.38985
# Poissons Ratio (z) = 0.20795 0.10473
#
# Static dielectric constant tensor:
#      x y z
#    x 4.396770 -0.164620 -0.170920 
#    y -0.164620 3.968290 -0.402340 
#    z -0.170920 -0.402340 4.064810 
# 
# 
# High freq. dielectric constant tensor:
#      x y z
#    x 1.860310 0.001040 -0.006100 
#    y 0.001040 1.831060 -0.024800 
#    z -0.006100 -0.024800 1.847310 
# 
# From -- ./inp_files/188664.got.cif
#   From: 2010.06.25/outbox.cif.g09.slc.cpg/sg2_95_cif.got.tgz:188664.got - 2010.06.27 13:26:56.
