data_PCOD8007682
_publ_section_title
;
Structure prediction by ZEFSAII (Michael W. Deem and Ramdas Pophale) SiO2 
 PCOD8007682
Probable space group: P -1
;
_chemical_formula_sum "Si O2"
_cell_formula_units_Z 16
_cell_length_a 8.243478
_cell_length_b 5.239311
_cell_length_c 15.854488
_cell_angle_alpha 108.117414
_cell_angle_beta 100.219272
_cell_angle_gamma 61.689057
_cell_volume 572.596084
_symmetry_space_group_name_H-M "P -1"
_symmetry_group_IT_number 2
_symmetry_cell_setting 'triclinic'
loop_
_space_group_symop_operation_xyz
x,y,z
-x,-y,-z
loop_
_atom_site_type_symbol
_atom_site_label
_atom_site_fract_x
_atom_site_fract_y
_atom_site_fract_z
Si Si1 0.305488 0.207019 0.463735
Si Si2 0.407807 0.573822 0.907388
Si Si3 0.630682 0.914891 0.233063
Si Si4 0.702242 0.591626 0.818581
Si Si5 0.170942 0.925747 0.068690
Si Si6 0.827260 0.294008 0.629737
Si Si7 0.072610 0.966053 0.794680
Si Si8 0.848754 0.587132 0.360396
O O1 0.311659 0.399074 0.402138
O O2 0.192301 0.453146 0.550602
O O3 0.500000 0.000000 0.500000
O O4 0.207877 0.992963 0.417081
O O5 0.424774 0.242700 0.864455
O O6 0.606972 0.536557 0.888240
O O7 0.235469 0.793980 0.859478
O O8 0.360059 0.691359 0.013568
O O9 0.649023 0.768948 0.312810
O O10 0.467721 0.248456 0.247711
O O11 0.841828 0.855443 0.232776
O O12 0.829236 0.323209 0.737083
O O13 0.815430 0.773584 0.874641
O O14 0.110663 0.818729 0.141814
O O15 0.000000 0.000000 0.000000
O O16 0.030515 0.228821 0.610427
O O17 0.037311 0.736342 0.707558
#
# Coordination Sequence:
#
# PCOD8007682 Si02
#       8
#     2   2   2   2   2   2   2   2
#     4  12  29  48  75 110 146 188 243 300 356 434
#     4   9  21  39  64  93 137 182 232 293 356 429
#     4  10  23  40  68  99 138 188 232 297 363 425
#     4  11  23  42  68  99 140 187 238 296 361 437
#     4  10  20  41  66  99 136 182 240 298 362 425
#     4  12  28  46  74 109 144 195 239 297 363 431
#     4   9  20  39  66  97 136 183 228 292 358 426
#     4  11  24  45  70 101 143 185 232 296 359 428
#
# _framework density 27.942907000000002
#
# number of rings (size 3 to 8) (size 9 to 14) (size 15 to 20)
#    0.000    1.500    1.250    2.250   10.500    1.000 
#    0.000    1.250    0.000    0.000    0.000    0.000 
#    0.000    0.000    0.000    0.000    0.000    0.000 
#
# Total GULP energy -198319.797951 kJ/mol
# GULP energy per Si atom -12394.987372 kJ/mol
# Density = 2.787931 g / cm^3
# Si number density = 27.942907 Si / 1000 Ang^3
#
#
#
# Elastic Constant Matrix: (Units=GPa)
#
#
# Indices 1 2 3 4 5 6 
#
# 1 134.8562 24.3348 64.9868 6.7455 -5.3887 -6.0315
# 2 24.3348 76.3114 54.1000 -3.9718 -2.6955 5.0137
# 3 64.9868 54.1000 197.7906 -14.8388 -16.4793 5.4775
# 4 6.7455 -3.9718 -14.8388 59.0990 0.9600 7.2103
# 5 -5.3887 -2.6955 -16.4793 0.9600 49.6416 -2.5363
# 6 -6.0315 5.0137 5.4775 7.2103 -2.5363 55.2459
#
#
#
# Elastic Compliance Matrix: (Units=1/GPa)
#
#
# Indices 1 2 3 4 5 6 
#
# 1 0.009198 -0.001076 -0.002921 -0.002060 0.000095 0.001665
# 2 -0.001076 0.016463 -0.004143 0.000356 -0.000670 -0.001278
# 3 -0.002921 -0.004143 0.007478 0.002007 0.001858 -0.000861
# 4 -0.002060 0.000356 0.002007 0.018027 -0.000030 -0.002810
# 5 0.000095 -0.000670 0.001858 -0.000030 0.020779 0.000845
# 6 0.001665 -0.001278 -0.000861 -0.002810 0.000845 0.018890
#
#
# Mechanical properties :
#
#
# Convention : Reuss Voigt Hill
#
# Bulk Modulus (GPa) = 59.31250 77.31127 68.31189
# Shear Modulus (GPa) = 44.35180 50.49974 47.42577
#
# Velocity S-wave (km/s) = 3.98833 4.25578 4.12422
# Velocity P-wave (km/s) = 6.51778 7.20254 6.86870
#
# Compressibility (1/GPa) = 0.01685985
#
# Stress axis : x y z
#
# Youngs Moduli (GPa) = 108.71680 60.74043 133.72577
#
# Poissons Ratio (x) = 0.06535 0.39056
# Poissons Ratio (y) = 0.11697 0.55408
# Poissons Ratio (z) = 0.31752 0.25167
#
# Static dielectric constant tensor:
#      x y z
#    x 5.516010 -0.239810 -0.192060 
#    y -0.239810 5.160570 -0.487950 
#    z -0.192060 -0.487950 5.778250 
# 
# 
# High freq. dielectric constant tensor:
#      x y z
#    x 2.156120 -0.032800 0.009820 
#    y -0.032800 2.144990 -0.040950 
#    z 0.009820 -0.040950 2.167920 
# 
# From -- ./inp_files/112906.got.cif
#   From: 2010.06.25/outbox.cif.g09.slc.cpg/sg2_57_cif.got.tgz:112906.got - 2010.06.27 13:26:56.
