data_PCOD8007464
_publ_section_title
;
Structure prediction by ZEFSAII (Michael W. Deem and Ramdas Pophale) SiO2 
 PCOD8007464
Probable space group: P -1
;
_chemical_formula_sum "Si O2"
_cell_formula_units_Z 12
_cell_length_a 9.246286
_cell_length_b 9.712624
_cell_length_c 11.754068
_cell_angle_alpha 51.120458
_cell_angle_beta 142.782500
_cell_angle_gamma 116.660620
_cell_volume 494.079614
_symmetry_space_group_name_H-M "P -1"
_symmetry_group_IT_number 2
_symmetry_cell_setting 'triclinic'
loop_
_space_group_symop_operation_xyz
x,y,z
-x,-y,-z
loop_
_atom_site_type_symbol
_atom_site_label
_atom_site_fract_x
_atom_site_fract_y
_atom_site_fract_z
Si Si1 0.843250 0.172858 0.350217
Si Si2 0.370079 0.238896 0.301524
Si Si3 0.143712 0.387619 0.293224
Si Si4 0.031481 0.769971 0.115086
Si Si5 0.118950 0.677858 0.464882
Si Si6 0.487121 0.934286 0.301688
O O1 0.936626 0.206445 0.517751
O O2 0.884239 0.332800 0.205402
O O3 0.567995 0.119027 0.206024
O O4 0.000000 0.000000 0.500000
O O5 0.173223 0.372177 0.181742
O O6 0.590440 0.351772 0.351676
O O7 0.456494 0.067119 0.524587
O O8 0.231760 0.183333 0.130267
O O9 0.168719 0.582684 0.255714
O O10 0.354732 0.245416 0.554162
O O11 0.999088 0.771744 0.229375
O O12 0.203220 0.921911 0.108102
O O13 0.000000 0.500000 0.500000
#
# Coordination Sequence:
#
# PCOD8007464 Si02
#       6
#     2   2   2   2   2   2
#     4  10  20  41  64  84 121 160 194 243 299 352
#     4   9  22  35  60  91 120 153 199 244 293 349
#     4   9  18  37  62  86 121 161 194 240 292 350
#     4  11  19  37  62  90 120 154 202 242 291 354
#     4  11  23  39  63  89 117 157 199 247 297 343
#     4   8  20  35  61  83 115 162 191 234 294 345
#
# _framework density 24.287583999999999
#
# number of rings (size 3 to 8) (size 9 to 14) (size 15 to 20)
#    1.000    1.333    1.667    1.000    0.000    3.333 
#    0.000    4.167    0.000    0.000    0.000    0.000 
#    0.000    0.000    0.000    0.000    0.000    0.000 
#
# Total GULP energy -148684.317666 kJ/mol
# GULP energy per Si atom -12390.359806 kJ/mol
# Density = 2.423230 g / cm^3
# Si number density = 24.287584 Si / 1000 Ang^3
#
#
#
# Elastic Constant Matrix: (Units=GPa)
#
#
# Indices 1 2 3 4 5 6 
#
# 1 179.2638 79.4108 54.0783 33.6633 1.1135 24.0735
# 2 79.4108 113.8794 43.1305 35.2681 -7.5195 22.8036
# 3 54.0783 43.1305 120.0196 29.7307 13.6091 9.5040
# 4 33.6633 35.2681 29.7307 32.3075 1.5042 10.5636
# 5 1.1135 -7.5195 13.6091 1.5042 26.6493 20.4569
# 6 24.0735 22.8036 9.5040 10.5636 20.4569 58.0813
#
#
#
# Elastic Compliance Matrix: (Units=1/GPa)
#
#
# Indices 1 2 3 4 5 6 
#
# 1 0.008629 -0.004400 -0.001699 -0.002215 0.000394 -0.001307
# 2 -0.004400 0.019033 -0.002934 -0.011543 0.013788 -0.007926
# 3 -0.001699 -0.002934 0.012986 -0.008110 -0.010768 0.004999
# 4 -0.002215 -0.011543 -0.008110 0.054371 0.000406 -0.003254
# 5 0.000394 0.013788 -0.010768 0.000406 0.068335 -0.027957
# 6 -0.001307 -0.007926 0.004999 -0.003254 -0.027957 0.030491
#
#
# Mechanical properties :
#
#
# Convention : Reuss Voigt Hill
#
# Bulk Modulus (GPa) = 44.28200 85.15580 64.71890
# Shear Modulus (GPa) = 22.78538 39.17716 30.98127
#
# Velocity S-wave (km/s) = 3.06625 4.02064 3.57543
# Velocity P-wave (km/s) = 5.55047 7.52938 6.61436
#
# Compressibility (1/GPa) = 0.02258254
#
# Stress axis : x y z
#
# Youngs Moduli (GPa) = 115.88589 52.54069 77.00560
#
# Poissons Ratio (x) = 0.23117 0.13086
# Poissons Ratio (y) = 0.50988 0.22590
# Poissons Ratio (z) = 0.19693 0.15413
#
# Static dielectric constant tensor:
#      x y z
#    x 4.456290 0.134720 0.260690 
#    y 0.134720 4.619490 0.264770 
#    z 0.260690 0.264770 3.819680 
# 
# 
# High freq. dielectric constant tensor:
#      x y z
#    x 1.984860 -0.008180 0.017200 
#    y -0.008180 1.986700 0.007100 
#    z 0.017200 0.007100 1.923360 
# 
# From -- ./inp_files/378510.got.cif
#   From: 2010.06.25/outbox.cif.g09.slc.cpg/sg2_190_cif.got.tgz:378510.got - 2010.06.27 13:26:56.
