data_PCOD8007099
_publ_section_title
;
Structure prediction by ZEFSAII (Michael W. Deem and Ramdas Pophale) SiO2 
 PCOD8007099
Probable space group: P -1
;
_chemical_formula_sum "Si O2"
_cell_formula_units_Z 12
_cell_length_a 15.186992
_cell_length_b 14.345259
_cell_length_c 8.579213
_cell_angle_alpha 42.993692
_cell_angle_beta 149.012778
_cell_angle_gamma 149.826774
_cell_volume 483.322155
_symmetry_space_group_name_H-M "P -1"
_symmetry_group_IT_number 2
_symmetry_cell_setting 'triclinic'
loop_
_space_group_symop_operation_xyz
x,y,z
-x,-y,-z
loop_
_atom_site_type_symbol
_atom_site_label
_atom_site_fract_x
_atom_site_fract_y
_atom_site_fract_z
Si Si1 0.733338 0.053049 0.185231
Si Si2 0.774617 0.970465 0.678753
Si Si3 0.215255 0.619952 0.061598
Si Si4 0.589715 0.360444 0.240715
Si Si5 0.710811 0.239759 0.310947
Si Si6 0.743877 0.614385 0.430414
O O1 0.711638 0.939665 0.437976
O O2 0.001693 0.197556 0.360424
O O3 0.648866 0.162708 0.967646
O O4 0.565804 0.913119 0.963786
O O5 0.822328 0.149135 0.599182
O O6 0.562283 0.791787 0.669890
O O7 0.000000 0.000000 0.000000
O O8 0.351659 0.552483 0.388991
O O9 0.154393 0.594153 0.816842
O O10 0.000000 0.500000 0.000000
O O11 0.736575 0.326435 0.411601
O O12 0.762087 0.558165 0.350995
O O13 0.434723 0.357001 0.882049
#
# Coordination Sequence:
#
# PCOD8007099 Si02
#       6
#     2   2   2   2   2   2
#     4  10  20  40  67  91 119 169 213 251 314 377
#     4  11  21  41  65  91 127 172 206 253 326 378
#     4   9  19  38  63  87 122 166 207 245 320 376
#     4  11  23  39  63  95 131 158 215 262 313 366
#     4  11  23  39  67  99 120 160 221 270 293 366
#     4  10  21  40  63  88 130 176 196 252 329 381
#
# _framework density 24.828161000000001
#
# number of rings (size 3 to 8) (size 9 to 14) (size 15 to 20)
#    0.000    1.667    1.667    4.500    0.000    1.333 
#    0.000   10.833    0.000    0.000    0.000    0.000 
#    0.000    0.000    0.000    0.000    0.000    0.000 
#
# Total GULP energy -148724.517118 kJ/mol
# GULP energy per Si atom -12393.709760 kJ/mol
# Density = 2.477165 g / cm^3
# Si number density = 24.828161 Si / 1000 Ang^3
#
#
#
# Elastic Constant Matrix: (Units=GPa)
#
#
# Indices 1 2 3 4 5 6 
#
# 1 94.5724 33.1233 8.2193 -5.8097 10.4972 0.4611
# 2 33.1233 86.8536 44.2506 -16.8712 -8.7189 16.0587
# 3 8.2193 44.2506 132.1243 -22.7757 9.5778 3.6094
# 4 -5.8097 -16.8712 -22.7757 52.0750 4.6205 -10.1286
# 5 10.4972 -8.7189 9.5778 4.6205 25.6563 -11.2529
# 6 0.4611 16.0587 3.6094 -10.1286 -11.2529 41.0984
#
#
#
# Elastic Compliance Matrix: (Units=1/GPa)
#
#
# Indices 1 2 3 4 5 6 
#
# 1 0.014031 -0.007353 0.002447 0.001121 -0.009247 0.000245
# 2 -0.007353 0.019618 -0.006576 0.000982 0.010213 -0.003967
# 3 0.002447 -0.006576 0.010796 0.003623 -0.007760 0.000362
# 4 0.001121 0.000982 0.003623 0.022298 -0.003860 0.003724
# 5 -0.009247 0.010213 -0.007760 -0.003860 0.054551 0.010779
# 6 0.000245 -0.003967 0.000362 0.003724 0.010779 0.029717
#
#
# Mechanical properties :
#
#
# Convention : Reuss Voigt Hill
#
# Bulk Modulus (GPa) = 46.55482 53.85964 50.20723
# Shear Modulus (GPa) = 27.60384 38.96309 33.28346
#
# Velocity S-wave (km/s) = 3.33798 3.96575 3.66533
# Velocity P-wave (km/s) = 5.80066 6.53526 6.17889
#
# Compressibility (1/GPa) = 0.02148005
#
# Stress axis : x y z
#
# Youngs Moduli (GPa) = 71.27142 50.97451 92.62763
#
# Poissons Ratio (x) = 0.37484 -0.22665
# Poissons Ratio (y) = 0.52409 0.60909
# Poissons Ratio (z) = -0.17440 0.33519
#
# Static dielectric constant tensor:
#      x y z
#    x 3.981500 0.210610 -0.110960 
#    y 0.210610 4.697340 -0.432610 
#    z -0.110960 -0.432610 5.005910 
# 
# 
# High freq. dielectric constant tensor:
#      x y z
#    x 1.945930 0.018740 -0.003550 
#    y 0.018740 1.998190 -0.005880 
#    z -0.003550 -0.005880 2.008410 
# 
# From -- ./inp_files/314550.got.cif
#   From: 2010.06.25/outbox.cif.g09.slc.cpg/sg2_158_cif.got.tgz:314550.got - 2010.06.27 13:26:56.
