data_PCOD8007696
_publ_section_title
;
Structure prediction by ZEFSAII (Michael W. Deem and Ramdas Pophale) SiO2 
 PCOD8007696
Probable space group: P -1
;
_chemical_formula_sum "Si O2"
_cell_formula_units_Z 14
_cell_length_a 8.198776
_cell_length_b 13.669185
_cell_length_c 9.967047
_cell_angle_alpha 57.553839
_cell_angle_beta 134.089751
_cell_angle_gamma 123.621305
_cell_volume 646.368472
_symmetry_space_group_name_H-M "P -1"
_symmetry_group_IT_number 2
_symmetry_cell_setting 'triclinic'
loop_
_space_group_symop_operation_xyz
x,y,z
-x,-y,-z
loop_
_atom_site_type_symbol
_atom_site_label
_atom_site_fract_x
_atom_site_fract_y
_atom_site_fract_z
Si Si1 0.431537 0.773788 0.039366
Si Si2 0.631419 0.061733 0.339926
Si Si3 0.651066 0.449356 0.017695
Si Si4 0.907121 0.380377 0.450366
Si Si5 0.116105 0.312693 0.179615
Si Si6 0.456734 0.177185 0.400739
Si Si7 0.147643 0.231122 0.550247
O O1 0.446424 0.898005 0.877026
O O2 0.492970 0.673319 0.051938
O O3 0.164664 0.721080 0.982102
O O4 0.620660 0.807645 0.244762
O O5 0.480068 0.109237 0.327695
O O6 0.914818 0.115214 0.487190
O O7 0.567447 0.915838 0.419464
O O8 0.847845 0.410975 0.243110
O O9 0.500000 0.500000 0.000000
O O10 0.769893 0.549455 0.902340
O O11 0.683659 0.294244 0.466844
O O12 0.000000 0.500000 0.500000
O O13 0.107232 0.314068 0.589855
O O14 0.222488 0.221641 0.222022
O O15 0.194748 0.304822 0.384256
#
# Coordination Sequence:
#
# PCOD8007696 Si02
#       7
#     2   2   2   2   2   2   2
#     4  11  22  40  62  91 126 165 207 254 314 371
#     4   9  20  44  67  87 122 162 218 255 310 364
#     4  12  21  40  62  88 128 165 205 256 309 371
#     4  11  22  40  62  95 125 164 214 254 307 370
#     4  11  23  39  61  94 128 164 204 254 324 367
#     4  10  20  41  67  88 123 168 203 266 312 362
#     4  10  23  40  61  93 125 166 206 259 309 369
#
# _framework density 21.659469999999999
#
# number of rings (size 3 to 8) (size 9 to 14) (size 15 to 20)
#    0.000    1.429    5.714    1.286    0.000    4.000 
#    0.000   12.143    0.000    0.000    0.000    0.000 
#    0.000    0.000    0.000    0.000    0.000    0.000 
#
# Total GULP energy -173565.540950 kJ/mol
# GULP energy per Si atom -12397.538639 kJ/mol
# Density = 2.161017 g / cm^3
# Si number density = 21.659470 Si / 1000 Ang^3
#
#
#
# Elastic Constant Matrix: (Units=GPa)
#
#
# Indices 1 2 3 4 5 6 
#
# 1 74.3364 29.5191 41.2452 -0.0306 5.0947 21.1497
# 2 29.5191 109.5505 58.1139 -22.2706 -12.3936 20.2917
# 3 41.2452 58.1139 157.9543 2.9192 -0.4578 29.3966
# 4 -0.0306 -22.2706 2.9192 36.6930 5.4146 -9.2910
# 5 5.0947 -12.3936 -0.4578 5.4146 36.1465 -12.9309
# 6 21.1497 20.2917 29.3966 -9.2910 -12.9309 24.1040
#
#
#
# Elastic Compliance Matrix: (Units=1/GPa)
#
#
# Indices 1 2 3 4 5 6 
#
# 1 0.024097 -0.004980 0.001076 -0.008361 -0.014261 -0.029136
# 2 -0.004980 0.015092 -0.005459 0.010075 0.006296 0.005583
# 3 0.001076 -0.005459 0.011246 -0.007399 -0.006674 -0.016496
# 4 -0.008361 0.010075 -0.007399 0.039722 0.008520 0.027761
# 5 -0.014261 0.006296 -0.006674 0.008520 0.045960 0.043292
# 6 -0.029136 0.005583 -0.016496 0.027761 0.043292 0.116395
#
#
# Mechanical properties :
#
#
# Convention : Reuss Voigt Hill
#
# Bulk Modulus (GPa) = 31.53798 66.62196 49.07997
# Shear Modulus (GPa) = 17.74254 33.58622 25.66438
#
# Velocity S-wave (km/s) = 2.86520 3.94210 3.44598
# Velocity P-wave (km/s) = 5.05354 7.17954 6.20822
#
# Compressibility (1/GPa) = 0.03170780
#
# Stress axis : x y z
#
# Youngs Moduli (GPa) = 41.49968 66.25839 88.92001
#
# Poissons Ratio (x) = 0.32996 -0.09565
# Poissons Ratio (y) = 0.20667 0.48545
# Poissons Ratio (z) = -0.04464 0.36173
#
# Static dielectric constant tensor:
#      x y z
#    x 4.384220 -0.135510 -0.007980 
#    y -0.135510 4.177400 -0.296850 
#    z -0.007980 -0.296850 4.071310 
# 
# 
# High freq. dielectric constant tensor:
#      x y z
#    x 1.861760 0.004890 0.008630 
#    y 0.004890 1.836940 -0.027390 
#    z 0.008630 -0.027390 1.847310 
# 
# From -- ./inp_files/253358.got.cif
#   From: 2010.06.25/outbox.cif.g09.slc.cpg/sg2_127_cif.got.tgz:253358.got - 2010.06.27 13:26:56.
