data_PCOD8007954
_publ_section_title
;
Structure prediction by ZEFSAII (Michael W. Deem and Ramdas Pophale) SiO2 
 PCOD8007954
Probable space group: P -1
;
_chemical_formula_sum "Si O2"
_cell_formula_units_Z 16
_cell_length_a 8.816863
_cell_length_b 19.866134
_cell_length_c 11.076126
_cell_angle_alpha 131.914081
_cell_angle_beta 99.498121
_cell_angle_gamma 44.670260
_cell_volume 817.494792
_symmetry_space_group_name_H-M "P -1"
_symmetry_group_IT_number 2
_symmetry_cell_setting 'triclinic'
loop_
_space_group_symop_operation_xyz
x,y,z
-x,-y,-z
loop_
_atom_site_type_symbol
_atom_site_label
_atom_site_fract_x
_atom_site_fract_y
_atom_site_fract_z
Si Si1 0.250251 0.200365 0.093375
Si Si2 0.500028 0.106918 0.268060
Si Si3 0.320094 0.528372 0.756566
Si Si4 0.522215 0.624801 0.917010
Si Si5 0.766893 0.507807 0.052710
Si Si6 0.277936 0.815027 0.690875
Si Si7 0.675512 0.131648 0.982050
Si Si8 0.108125 0.356495 0.701399
O O1 0.299675 0.194146 0.233263
O O2 0.451481 0.161716 0.991113
O O3 0.946464 0.373760 0.231444
O O4 0.289288 0.075957 0.918639
O O5 0.662656 0.121737 0.298609
O O6 0.325245 0.187781 0.464448
O O7 0.396737 0.593427 0.810190
O O8 0.273853 0.548914 0.919879
O O9 0.561053 0.346432 0.534784
O O10 0.356910 0.790251 0.046154
O O11 0.829728 0.485647 0.744177
O O12 0.521578 0.626075 0.065658
O O13 0.779094 0.596359 0.231362
O O14 0.045756 0.357117 0.833416
O O15 0.352637 0.790781 0.811711
O O16 0.963455 0.944060 0.791090
#
# Coordination Sequence:
#
# PCOD8007954 Si02
#       8
#     2   2   2   2   2   2   2   2
#     4  10  24  36  65  86 126 148 199 242 293 362
#     4  10  20  42  59  90 118 159 191 243 302 342
#     4  12  22  38  60  93 115 159 195 244 296 346
#     4  10  22  36  62  81 123 153 197 241 286 349
#     4   9  20  38  60  87 116 155 200 249 283 347
#     4  10  23  37  62  83 128 150 196 244 296 354
#     4  10  22  41  55  91 117 161 192 244 296 346
#     4   9  19  36  65  82 116 155 194 245 289 344
#
# _framework density 19.57199
#
# number of rings (size 3 to 8) (size 9 to 14) (size 15 to 20)
#    0.750    1.250    1.250    1.875    3.500    2.500 
#    0.000    1.250    2.750    0.000    0.000    0.000 
#    0.000    0.000    0.000    0.000    0.000    0.000 
#
# Total GULP energy -198362.302449 kJ/mol
# GULP energy per Si atom -12397.643903 kJ/mol
# Density = 1.952744 g / cm^3
# Si number density = 19.571990 Si / 1000 Ang^3
#
#
#
# Elastic Constant Matrix: (Units=GPa)
#
#
# Indices 1 2 3 4 5 6 
#
# 1 102.9636 33.9421 34.9015 11.1881 8.6903 -8.3803
# 2 33.9421 54.5449 17.7450 2.8062 -0.8513 4.6651
# 3 34.9015 17.7450 98.2661 -1.9295 -5.0424 2.4556
# 4 11.1881 2.8062 -1.9295 23.4549 1.5868 -5.6781
# 5 8.6903 -0.8513 -5.0424 1.5868 18.5364 3.8604
# 6 -8.3803 4.6651 2.4556 -5.6781 3.8604 33.9182
#
#
#
# Elastic Compliance Matrix: (Units=1/GPa)
#
#
# Indices 1 2 3 4 5 6 
#
# 1 0.016173 -0.008876 -0.004906 -0.004943 -0.010130 0.005897
# 2 -0.008876 0.024826 -0.000853 -0.000798 0.006474 -0.006416
# 3 -0.004906 -0.000853 0.012482 0.002525 0.005908 -0.002248
# 4 -0.004943 -0.000798 0.002525 0.047131 -0.002500 0.006880
# 5 -0.010130 0.006474 0.005908 -0.002500 0.063196 -0.011432
# 6 0.005897 -0.006416 -0.002248 0.006880 -0.011432 0.034438
#
#
# Mechanical properties :
#
#
# Convention : Reuss Voigt Hill
#
# Bulk Modulus (GPa) = 41.30588 47.66130 44.48359
# Shear Modulus (GPa) = 21.22362 26.46097 23.84229
#
# Velocity S-wave (km/s) = 3.29658 3.68092 3.49404
# Velocity P-wave (km/s) = 5.96995 6.51692 6.24942
#
# Compressibility (1/GPa) = 0.02420963
#
# Stress axis : x y z
#
# Youngs Moduli (GPa) = 61.83053 40.28091 80.11647
#
# Poissons Ratio (x) = 0.35755 0.39302
# Poissons Ratio (y) = 0.54884 0.06838
# Poissons Ratio (z) = 0.30332 0.03438
#
# Static dielectric constant tensor:
#      x y z
#    x 3.574720 -0.023420 -0.101360 
#    y -0.023420 3.369700 -0.059950 
#    z -0.101360 -0.059950 3.322450 
# 
# 
# High freq. dielectric constant tensor:
#      x y z
#    x 1.770730 -0.003570 -0.006330 
#    y -0.003570 1.747230 -0.004360 
#    z -0.006330 -0.004360 1.744960 
# 
# From -- ./inp_files/225765.got.cif
#   From: 2010.06.25/outbox.cif.g09.slc.cpg/sg2_113_cif.got.tgz:225765.got - 2010.06.27 13:26:56.
