data_PCOD8007814
_publ_section_title
;
Structure prediction by ZEFSAII (Michael W. Deem and Ramdas Pophale) SiO2 
 PCOD8007814
Probable space group: P -1
;
_chemical_formula_sum "Si O2"
_cell_formula_units_Z 16
_cell_length_a 24.753453
_cell_length_b 8.718584
_cell_length_c 9.085984
_cell_angle_alpha 67.495218
_cell_angle_beta 141.652980
_cell_angle_gamma 139.166548
_cell_volume 679.854349
_symmetry_space_group_name_H-M "P -1"
_symmetry_group_IT_number 2
_symmetry_cell_setting 'triclinic'
loop_
_space_group_symop_operation_xyz
x,y,z
-x,-y,-z
loop_
_atom_site_type_symbol
_atom_site_label
_atom_site_fract_x
_atom_site_fract_y
_atom_site_fract_z
Si Si1 0.730150 0.345909 0.776005
Si Si2 0.797359 0.793165 0.846259
Si Si3 0.091701 0.705829 0.754535
Si Si4 0.526514 0.495714 0.228819
Si Si5 0.334157 0.729821 0.786823
Si Si6 0.295948 0.316887 0.975555
Si Si7 0.553281 0.987876 0.794066
Si Si8 0.046240 0.406565 0.212243
O O1 0.829395 0.659385 0.894687
O O2 0.608871 0.186291 0.444848
O O3 0.626519 0.209452 0.745027
O O4 0.818746 0.309268 0.971235
O O5 0.696188 0.744296 0.536594
O O6 0.722210 0.684110 0.887999
O O7 0.953562 0.112699 0.062595
O O8 0.000000 0.500000 0.500000
O O9 0.978288 0.608994 0.661346
O O10 0.192841 0.012260 0.808248
O O11 0.457137 0.514757 0.193544
O O12 0.455898 0.211212 0.213232
O O13 0.500000 0.500000 0.000000
O O14 0.215624 0.629584 0.459888
O O15 0.270442 0.450056 0.786190
O O16 0.500000 0.000000 0.000000
O O17 0.334459 0.837813 0.896645
O O18 0.000000 0.500000 0.000000
#
# Coordination Sequence:
#
# PCOD8007814 Si02
#       8
#     2   2   2   2   2   2   2   2
#     4  10  20  41  69 101 129 179 230 288 342 400
#     4  10  24  44  72  99 141 182 235 295 343 424
#     4  11  25  43  75  99 141 184 237 292 348 419
#     4  11  23  40  67 104 143 185 231 287 347 414
#     4  12  27  45  71 100 144 184 233 288 349 426
#     4  11  24  41  71 104 135 186 244 279 352 412
#     4  10  21  39  66  98 139 173 231 284 335 406
#     4  11  29  48  68 102 144 186 228 290 367 413
#
# _framework density 23.534452999999999
#
# number of rings (size 3 to 8) (size 9 to 14) (size 15 to 20)
#    0.000    1.250    2.500    1.875    7.000    2.000 
#    0.000    0.625    0.000    0.000    0.000    0.000 
#    0.000    0.000    0.000    0.000    0.000    0.000 
#
# Total GULP energy -198219.614105 kJ/mol
# GULP energy per Si atom -12388.725882 kJ/mol
# Density = 2.348089 g / cm^3
# Si number density = 23.534453 Si / 1000 Ang^3
#
#
#
# Elastic Constant Matrix: (Units=GPa)
#
#
# Indices 1 2 3 4 5 6 
#
# 1 53.1661 17.3062 21.3735 11.9075 21.4940 -4.3030
# 2 17.3062 106.1923 62.5746 8.4761 6.0817 -8.4397
# 3 21.3735 62.5746 156.7592 8.3601 19.1733 -9.7912
# 4 11.9075 8.4761 8.3601 39.8760 -6.1747 -1.0810
# 5 21.4940 6.0817 19.1733 -6.1747 31.4895 4.2709
# 6 -4.3030 -8.4397 -9.7912 -1.0810 4.2709 34.0791
#
#
#
# Elastic Compliance Matrix: (Units=1/GPa)
#
#
# Indices 1 2 3 4 5 6 
#
# 1 0.033719 -0.002924 0.000969 -0.013590 -0.026617 0.006717
# 2 -0.002924 0.012761 -0.004882 -0.000435 0.002270 0.001090
# 3 0.000969 -0.004882 0.009180 -0.002047 -0.006014 0.002240
# 4 -0.013590 -0.000435 -0.002047 0.032258 0.017416 -0.003571
# 5 -0.026617 0.002270 -0.006014 0.017416 0.058090 -0.011254
# 6 0.006717 0.001090 0.002240 -0.003571 -0.011254 0.032402
#
#
# Mechanical properties :
#
#
# Convention : Reuss Voigt Hill
#
# Bulk Modulus (GPa) = 23.81573 57.62514 40.72044
# Shear Modulus (GPa) = 24.26260 35.41313 29.83787
#
# Velocity S-wave (km/s) = 3.21431 3.88330 3.56453
# Velocity P-wave (km/s) = 4.89052 6.68171 5.85502
#
# Compressibility (1/GPa) = 0.04198905
#
# Stress axis : x y z
#
# Youngs Moduli (GPa) = 29.65673 78.36193 108.92867
#
# Poissons Ratio (x) = 0.22909 -0.10560
# Poissons Ratio (y) = 0.08670 0.53176
# Poissons Ratio (z) = -0.02875 0.38254
#
# Static dielectric constant tensor:
#      x y z
#    x 4.131330 -0.085810 0.205040 
#    y -0.085810 4.368750 -0.100160 
#    z 0.205040 -0.100160 4.792030 
# 
# 
# High freq. dielectric constant tensor:
#      x y z
#    x 1.930140 -0.009230 -0.002670 
#    y -0.009230 1.937320 0.004130 
#    z -0.002670 0.004130 1.936210 
# 
# From -- ./inp_files/356603.got.cif
#   From: 2010.06.25/outbox.cif.g09.slc.cpg/sg2_179_cif.got.tgz:356603.got - 2010.06.27 13:26:56.
