data_PCOD8007300
_publ_section_title
;
Structure prediction by ZEFSAII (Michael W. Deem and Ramdas Pophale) SiO2 
 PCOD8007300
Probable space group: P -1
;
_chemical_formula_sum "Si O2"
_cell_formula_units_Z 12
_cell_length_a 9.141179
_cell_length_b 5.056952
_cell_length_c 13.796227
_cell_angle_alpha 109.906409
_cell_angle_beta 111.877506
_cell_angle_gamma 74.747496
_cell_volume 549.639502
_symmetry_space_group_name_H-M "P -1"
_symmetry_group_IT_number 2
_symmetry_cell_setting 'triclinic'
loop_
_space_group_symop_operation_xyz
x,y,z
-x,-y,-z
loop_
_atom_site_type_symbol
_atom_site_label
_atom_site_fract_x
_atom_site_fract_y
_atom_site_fract_z
Si Si1 0.854594 0.485084 0.176744
Si Si2 0.347950 0.411703 0.403055
Si Si3 0.689088 0.937406 0.043759
Si Si4 0.868495 0.878358 0.894093
Si Si5 0.244322 0.848493 0.288159
Si Si6 0.964103 0.217317 0.605613
O O1 0.768142 0.209459 0.131425
O O2 0.040375 0.405521 0.172983
O O3 0.881234 0.635551 0.305883
O O4 0.744780 0.691593 0.103479
O O5 0.500000 0.500000 0.500000
O O6 0.333573 0.533457 0.302480
O O7 0.186659 0.550104 0.437177
O O8 0.633251 0.927272 0.635400
O O9 0.500000 0.000000 0.000000
O O10 0.737524 0.821848 0.933022
O O11 0.800551 0.126925 0.832568
O O12 0.000000 0.000000 0.000000
O O13 0.088573 0.942069 0.330291
O O14 0.000000 0.000000 0.500000
#
# Coordination Sequence:
#
# PCOD8007300 Si02
#       6
#     2   2   2   2   2   2
#     4  11  22  43  66  97 127 176 221 260 317 403
#     4  10  22  41  63  88 130 161 215 267 319 376
#     4  11  25  43  66  99 137 164 212 274 334 379
#     4  10  20  40  71  92 125 170 215 262 317 391
#     4  10  21  39  63  92 125 161 221 252 317 387
#     4  10  23  41  67  92 129 167 222 268 318 371
#
# _framework density 21.832491000000001
#
# number of rings (size 3 to 8) (size 9 to 14) (size 15 to 20)
#    1.000    0.667    1.667    3.500    0.000    4.667 
#    3.000    0.000    0.000    0.000    0.000    0.000 
#    0.000    0.000    0.000    0.000    0.000    0.000 
#
# Total GULP energy -148660.059607 kJ/mol
# GULP energy per Si atom -12388.338301 kJ/mol
# Density = 2.178280 g / cm^3
# Si number density = 21.832491 Si / 1000 Ang^3
#
#
#
# Elastic Constant Matrix: (Units=GPa)
#
#
# Indices 1 2 3 4 5 6 
#
# 1 77.9184 10.9302 28.5399 5.1532 14.7384 -8.7921
# 2 10.9302 76.9052 1.1917 -1.7693 2.8151 6.6262
# 3 28.5399 1.1917 111.9628 10.4307 4.9541 -7.1824
# 4 5.1532 -1.7693 10.4307 42.3746 -3.8728 7.2629
# 5 14.7384 2.8151 4.9541 -3.8728 33.0403 2.3838
# 6 -8.7921 6.6262 -7.1824 7.2629 2.3838 29.3946
#
#
#
# Elastic Compliance Matrix: (Units=1/GPa)
#
#
# Indices 1 2 3 4 5 6 
#
# 1 0.016717 -0.002655 -0.003212 -0.003106 -0.007560 0.006194
# 2 -0.002655 0.013772 0.000074 0.001669 0.000508 -0.004334
# 3 -0.003212 0.000074 0.010148 -0.002527 -0.000548 0.002171
# 4 -0.003106 0.001669 -0.002527 0.026697 0.005398 -0.008957
# 5 -0.007560 0.000508 -0.000548 0.005398 0.034791 -0.006665
# 6 0.006194 -0.004334 0.002171 -0.008957 -0.006665 0.040134
#
#
# Mechanical properties :
#
#
# Convention : Reuss Voigt Hill
#
# Bulk Modulus (GPa) = 34.41947 38.67890 36.54919
# Shear Modulus (GPa) = 30.57577 36.03687 33.30632
#
# Velocity S-wave (km/s) = 3.74635 4.06717 3.91005
# Velocity P-wave (km/s) = 5.87477 6.30956 6.09604
#
# Compressibility (1/GPa) = 0.02905332
#
# Stress axis : x y z
#
# Youngs Moduli (GPa) = 59.81887 72.60909 98.53820
#
# Poissons Ratio (x) = 0.19275 0.31648
# Poissons Ratio (y) = 0.15879 -0.00730
# Poissons Ratio (z) = 0.19213 -0.00538
#
# Static dielectric constant tensor:
#      x y z
#    x 5.522930 -1.529100 -2.491030 
#    y -1.529100 5.408370 2.345890 
#    z -2.491030 2.345890 7.724370 
# 
# 
# High freq. dielectric constant tensor:
#      x y z
#    x 1.824420 0.019520 0.020770 
#    y 0.019520 1.859900 0.000640 
#    z 0.020770 0.000640 1.873250 
# 
# From -- ./inp_files/488716.got.cif
#   From: 2010.06.25/outbox.cif.g09.slc.cpg/sg2_245_cif.got.tgz:488716.got - 2010.06.27 13:26:56.
