data_PCOD8007807
_publ_section_title
;
Structure prediction by ZEFSAII (Michael W. Deem and Ramdas Pophale) SiO2 
 PCOD8007807
Probable space group: P -1
;
_chemical_formula_sum "Si O2"
_cell_formula_units_Z 16
_cell_length_a 12.809458
_cell_length_b 9.146757
_cell_length_c 21.307172
_cell_angle_alpha 73.579453
_cell_angle_beta 161.560745
_cell_angle_gamma 106.510018
_cell_volume 756.364191
_symmetry_space_group_name_H-M "P -1"
_symmetry_group_IT_number 2
_symmetry_cell_setting 'triclinic'
loop_
_space_group_symop_operation_xyz
x,y,z
-x,-y,-z
loop_
_atom_site_type_symbol
_atom_site_label
_atom_site_fract_x
_atom_site_fract_y
_atom_site_fract_z
Si Si1 0.774420 0.190182 0.023359
Si Si2 0.310479 0.100965 0.426391
Si Si3 0.727365 0.037961 0.890310
Si Si4 0.081084 0.052528 0.672183
Si Si5 0.169281 0.242313 0.501560
Si Si6 0.153954 0.482763 0.020931
Si Si7 0.559128 0.381782 0.603902
Si Si8 0.700877 0.250914 0.340577
O O1 0.893167 0.089517 0.044358
O O2 0.461811 0.107877 0.889800
O O3 0.686685 0.356243 0.930093
O O4 0.074665 0.210356 0.240691
O O5 0.562814 0.209932 0.598036
O O6 0.500000 0.000000 0.500000
O O7 0.085049 0.980295 0.351963
O O8 0.516062 0.178600 0.729967
O O9 0.497588 0.888300 0.790001
O O10 0.000000 0.000000 0.000000
O O11 0.888699 0.188444 0.515013
O O12 0.059955 0.898228 0.638272
O O13 0.254096 0.372617 0.481349
O O14 0.970771 0.318819 0.435746
O O15 0.895603 0.419377 0.828759
O O16 0.457947 0.374569 0.211778
O O17 0.000000 0.500000 0.000000
O O18 0.500000 0.500000 0.500000
#
# Coordination Sequence:
#
# PCOD8007807 Si02
#       8
#     2   2   2   2   2   2   2   2
#     4  12  23  44  64  99 140 175 231 278 340 411
#     4  11  27  43  71 100 130 183 234 278 342 404
#     4  11  21  37  69 101 132 173 228 288 337 392
#     4  10  22  42  69  98 137 172 224 295 335 397
#     4  10  20  41  69 100 131 175 226 285 341 393
#     4  12  28  44  69 103 141 184 226 280 343 412
#     4  11  24  49  67  93 143 185 220 280 340 411
#     4  11  22  42  69 104 134 176 228 279 355 394
#
# _framework density 21.153831
#
# number of rings (size 3 to 8) (size 9 to 14) (size 15 to 20)
#    0.000    1.000    3.750    3.375    8.750    0.500 
#    2.250    0.625    0.000    0.000    0.000    0.000 
#    0.000    0.000    0.000    0.000    0.000    0.000 
#
# Total GULP energy -198379.771283 kJ/mol
# GULP energy per Si atom -12398.735705 kJ/mol
# Density = 2.110568 g / cm^3
# Si number density = 21.153831 Si / 1000 Ang^3
#
#
#
# Elastic Constant Matrix: (Units=GPa)
#
#
# Indices 1 2 3 4 5 6 
#
# 1 162.8893 50.9605 48.1196 -12.4671 22.7826 3.4309
# 2 50.9605 78.0111 30.0597 -1.8256 9.9033 7.7676
# 3 48.1196 30.0597 90.9044 -2.7612 7.7654 -10.3031
# 4 -12.4671 -1.8256 -2.7612 37.5008 -6.2019 -1.9105
# 5 22.7826 9.9033 7.7654 -6.2019 39.6590 2.2919
# 6 3.4309 7.7676 -10.3031 -1.9105 2.2919 39.2595
#
#
#
# Elastic Compliance Matrix: (Units=1/GPa)
#
#
# Indices 1 2 3 4 5 6 
#
# 1 0.008961 -0.004166 -0.003090 0.002001 -0.003161 -0.000488
# 2 -0.004166 0.017631 -0.004035 -0.001230 -0.001170 -0.004175
# 3 -0.003090 -0.004035 0.014558 0.000041 -0.000345 0.004911
# 4 0.002001 -0.001230 0.000041 0.027907 0.003442 0.001236
# 5 -0.003161 -0.001170 -0.000345 0.003442 0.027990 -0.001049
# 6 -0.000488 -0.004175 0.004911 0.001236 -0.001049 0.027750
#
#
# Mechanical properties :
#
#
# Convention : Reuss Voigt Hill
#
# Bulk Modulus (GPa) = 53.86101 65.56492 59.71297
# Shear Modulus (GPa) = 32.55872 36.79487 34.67680
#
# Velocity S-wave (km/s) = 3.92744 4.17513 4.05318
# Velocity P-wave (km/s) = 6.78847 7.36912 7.08474
#
# Compressibility (1/GPa) = 0.01856631
#
# Stress axis : x y z
#
# Youngs Moduli (GPa) = 111.59391 56.71958 68.69053
#
# Poissons Ratio (x) = 0.23631 0.21227
# Poissons Ratio (y) = 0.46494 0.27718
# Poissons Ratio (z) = 0.34485 0.22887
#
# Static dielectric constant tensor:
#      x y z
#    x 4.107320 0.117860 -0.020430 
#    y 0.117860 3.801910 0.208390 
#    z -0.020430 0.208390 3.901830 
# 
# 
# High freq. dielectric constant tensor:
#      x y z
#    x 1.843090 0.007900 0.000190 
#    y 0.007900 1.822170 0.016050 
#    z 0.000190 0.016050 1.824490 
# 
# From -- ./inp_files/379441.got.cif
#   From: 2010.06.25/outbox.cif.g09.slc.cpg/sg2_190_cif.got.tgz:379441.got - 2010.06.27 13:26:56.
