data_PCOD8007281
_publ_section_title
;
Structure prediction by ZEFSAII (Michael W. Deem and Ramdas Pophale) SiO2 
 PCOD8007281
Probable space group: P -1
;
_chemical_formula_sum "Si O2"
_cell_formula_units_Z 14
_cell_length_a 12.073981
_cell_length_b 20.132603
_cell_length_c 14.758825
_cell_angle_alpha 29.631273
_cell_angle_beta 30.493856
_cell_angle_gamma 29.440658
_cell_volume 786.767630
_symmetry_space_group_name_H-M "P -1"
_symmetry_group_IT_number 2
_symmetry_cell_setting 'triclinic'
loop_
_space_group_symop_operation_xyz
x,y,z
-x,-y,-z
loop_
_atom_site_type_symbol
_atom_site_label
_atom_site_fract_x
_atom_site_fract_y
_atom_site_fract_z
Si Si1 0.845852 0.452738 0.097596
Si Si2 0.996160 0.110321 0.449255
Si Si3 0.869847 0.813007 0.413927
Si Si4 0.599668 0.953579 0.622639
Si Si5 0.393518 0.753623 0.092798
Si Si6 0.360954 0.723402 0.355055
Si Si7 0.125033 0.529867 0.673285
O O1 0.548991 0.569354 0.182462
O O2 0.913917 0.277211 0.267547
O O3 0.000000 0.500000 0.000000
O O4 0.931656 0.478817 0.908135
O O5 0.266877 0.030749 0.400466
O O6 0.796785 0.128968 0.645330
O O7 0.000000 0.000000 0.500000
O O8 0.781770 0.897724 0.473413
O O9 0.097833 0.831235 0.189563
O O10 0.986118 0.629795 0.563781
O O11 0.639712 0.880727 0.426202
O O12 0.505956 0.831942 0.854921
O O13 0.424710 0.774469 0.153725
O O14 0.195293 0.635533 0.565199
O O15 0.613735 0.619251 0.356116
#
# Coordination Sequence:
#
# PCOD8007281 Si02
#       7
#     2   2   2   2   2   2   2
#     4  12  17  32  58  81 104 142 185 236 266 309
#     4  12  23  36  53  81 120 146 175 227 284 330
#     4  10  20  31  55  85 114 139 177 240 267 319
#     4  11  20  35  51  83 116 146 178 220 284 321
#     4  11  18  32  59  85 109 135 192 235 266 316
#     4  10  17  30  53  80 107 137 180 232 270 313
#     4  10  16  30  55  82 104 132 186 233 267 308
#
# _framework density 17.794326000000002
#
# number of rings (size 3 to 8) (size 9 to 14) (size 15 to 20)
#    0.000    1.143    8.571    2.143    0.000    0.000 
#    0.000    2.857    0.000    4.286    0.000    0.000 
#    0.000    0.000    0.000    0.000    0.000    0.000 
#
# Total GULP energy -173467.084923 kJ/mol
# GULP energy per Si atom -12390.506066 kJ/mol
# Density = 1.775383 g / cm^3
# Si number density = 17.794326 Si / 1000 Ang^3
#
#
#
# Elastic Constant Matrix: (Units=GPa)
#
#
# Indices 1 2 3 4 5 6 
#
# 1 81.4596 58.4509 28.1298 -0.8887 1.9008 -22.3572
# 2 58.4509 113.3725 36.9388 10.8174 -4.6220 -20.3772
# 3 28.1298 36.9388 68.1883 7.8284 6.1935 -0.8629
# 4 -0.8887 10.8174 7.8284 25.8264 -5.8026 -0.7522
# 5 1.9008 -4.6220 6.1935 -5.8026 17.8583 -1.7720
# 6 -22.3572 -20.3772 -0.8629 -0.7522 -1.7720 39.6518
#
#
#
# Elastic Compliance Matrix: (Units=1/GPa)
#
#
# Indices 1 2 3 4 5 6 
#
# 1 0.023099 -0.009421 -0.005041 0.006454 -0.000239 0.008185
# 2 -0.009421 0.016587 -0.005112 -0.004277 0.006005 0.003288
# 3 -0.005041 -0.005112 0.021262 -0.007120 -0.011033 -0.005635
# 4 0.006454 -0.004277 -0.007120 0.046594 0.016102 0.002889
# 5 -0.000239 0.006005 -0.011033 0.016102 0.067232 0.006021
# 6 0.008185 0.003288 -0.005635 0.002889 0.006021 0.031725
#
#
# Mechanical properties :
#
#
# Convention : Reuss Voigt Hill
#
# Bulk Modulus (GPa) = 45.87032 56.67328 51.27180
# Shear Modulus (GPa) = 19.76949 25.96737 22.86843
#
# Velocity S-wave (km/s) = 3.33678 3.82423 3.58879
# Velocity P-wave (km/s) = 6.37805 7.17063 6.78592
#
# Compressibility (1/GPa) = 0.02180059
#
# Stress axis : x y z
#
# Youngs Moduli (GPa) = 43.29150 60.28769 47.03141
#
# Poissons Ratio (x) = 0.56798 0.23709
# Poissons Ratio (y) = 0.40785 0.24042
# Poissons Ratio (z) = 0.21824 0.30818
#
# Static dielectric constant tensor:
#      x y z
#    x 3.127520 -0.490410 0.332840 
#    y -0.490410 3.573130 0.284170 
#    z 0.332840 0.284170 3.437820 
# 
# 
# High freq. dielectric constant tensor:
#      x y z
#    x 1.643680 -0.045590 0.035710 
#    y -0.045590 1.688150 0.033070 
#    z 0.035710 0.033070 1.683060 
# 
# From -- ./inp_files/337151.got.cif
#   From: 2010.06.25/outbox.cif.g09.slc.cpg/sg2_169_cif.got.tgz:337151.got - 2010.06.27 13:26:56.
