data_PCOD8007405
_publ_section_title
;
Structure prediction by ZEFSAII (Michael W. Deem and Ramdas Pophale) SiO2 
 PCOD8007405
Probable space group: P -1
;
_chemical_formula_sum "Si O2"
_cell_formula_units_Z 10
_cell_length_a 6.312630
_cell_length_b 11.976763
_cell_length_c 12.168704
_cell_angle_alpha 144.512808
_cell_angle_beta 83.825599
_cell_angle_gamma 82.576275
_cell_volume 492.109454
_symmetry_space_group_name_H-M "P -1"
_symmetry_group_IT_number 2
_symmetry_cell_setting 'triclinic'
loop_
_space_group_symop_operation_xyz
x,y,z
-x,-y,-z
loop_
_atom_site_type_symbol
_atom_site_label
_atom_site_fract_x
_atom_site_fract_y
_atom_site_fract_z
Si Si1 0.358144 0.859051 0.420034
Si Si2 0.679788 0.458889 0.202861
Si Si3 0.136976 0.285830 0.439273
Si Si4 0.355244 0.431587 0.367336
Si Si5 0.099477 0.912077 0.256244
O O1 0.525640 0.635660 0.271344
O O2 0.231036 0.823687 0.290873
O O3 0.500000 0.000000 0.500000
O O4 0.171408 0.970093 0.613407
O O5 0.812829 0.550204 0.353405
O O6 0.517364 0.355331 0.190114
O O7 0.869805 0.279415 0.979343
O O8 0.277090 0.260201 0.295087
O O9 0.867758 0.370275 0.495485
O O10 0.208899 0.065306 0.317782
O O11 0.500000 0.500000 0.500000
#
# Coordination Sequence:
#
# PCOD8007405 Si02
#       5
#     2   2   2   2   2
#     4  11  23  42  60  89 127 158 198 255 293 348
#     4  11  22  40  64  91 121 161 198 244 303 354
#     4  10  20  41  62  91 123 155 201 249 294 360
#     4   9  20  39  65  87 125 156 193 256 299 349
#     4  11  24  39  64  91 120 160 205 241 298 364
#
# _framework density 20.320682000000001
#
# number of rings (size 3 to 8) (size 9 to 14) (size 15 to 20)
#    0.000    1.600    4.000    0.600    0.000    3.200 
#    0.000    9.000    0.000    0.000    0.000    0.000 
#    0.000    0.000    0.000    0.000    0.000    0.000 
#
# Total GULP energy -123975.738834 kJ/mol
# GULP energy per Si atom -12397.573883 kJ/mol
# Density = 2.027443 g / cm^3
# Si number density = 20.320682 Si / 1000 Ang^3
#
#
#
# Elastic Constant Matrix: (Units=GPa)
#
#
# Indices 1 2 3 4 5 6 
#
# 1 85.7255 32.9765 30.0827 2.5419 -5.1257 3.5246
# 2 32.9765 121.7101 48.1458 -1.7190 -7.0834 12.7861
# 3 30.0827 48.1458 114.2556 2.7895 -2.0881 15.1599
# 4 2.5419 -1.7190 2.7895 16.7976 -0.0586 -3.7023
# 5 -5.1257 -7.0834 -2.0881 -0.0586 21.9594 -3.8315
# 6 3.5246 12.7861 15.1599 -3.7023 -3.8315 42.1960
#
#
#
# Elastic Compliance Matrix: (Units=1/GPa)
#
#
# Indices 1 2 3 4 5 6 
#
# 1 0.013733 -0.002704 -0.002472 -0.001804 0.002198 0.000602
# 2 -0.002704 0.010675 -0.003611 0.001812 0.002238 -0.001349
# 3 -0.002472 -0.003611 0.011380 -0.002578 -0.001212 -0.003124
# 4 -0.001804 0.001812 -0.002578 0.061756 0.001139 0.006050
# 5 0.002198 0.002238 -0.001212 0.001139 0.047355 0.003973
# 6 0.000602 -0.001349 -0.003124 0.006050 0.003973 0.026072
#
#
# Mechanical properties :
#
#
# Convention : Reuss Voigt Hill
#
# Bulk Modulus (GPa) = 54.90032 60.45571 57.67801
# Shear Modulus (GPa) = 25.69184 30.22303 27.95744
#
# Velocity S-wave (km/s) = 3.55959 3.86074 3.71322
# Velocity P-wave (km/s) = 6.63097 7.04906 6.84321
#
# Compressibility (1/GPa) = 0.01821483
#
# Stress axis : x y z
#
# Youngs Moduli (GPa) = 72.81792 93.67979 87.87372
#
# Poissons Ratio (x) = 0.25328 0.21723
# Poissons Ratio (y) = 0.19688 0.31728
# Poissons Ratio (z) = 0.18001 0.33824
#
# Static dielectric constant tensor:
#      x y z
#    x 3.866950 0.239740 -0.268950 
#    y 0.239740 4.255220 -0.293780 
#    z -0.268950 -0.293780 3.359730 
# 
# 
# High freq. dielectric constant tensor:
#      x y z
#    x 1.802040 0.002560 -0.014150 
#    y 0.002560 1.820680 -0.013260 
#    z -0.014150 -0.013260 1.759350 
# 
# From -- ./inp_files/1437.got.cif
#   From: 2010.06.25/outbox.cif.g09.slc.cpg/sg2_1_cif.got.tgz:1437.got - 2010.06.27 13:26:56.
