data_PCOD8007413
_publ_section_title
;
Structure prediction by ZEFSAII (Michael W. Deem and Ramdas Pophale) SiO2 
 PCOD8007413
Probable space group: P -1
;
_chemical_formula_sum "Si O2"
_cell_formula_units_Z 12
_cell_length_a 10.373175
_cell_length_b 7.885203
_cell_length_c 9.422679
_cell_angle_alpha 70.156894
_cell_angle_beta 84.514901
_cell_angle_gamma 43.702107
_cell_volume 487.393285
_symmetry_space_group_name_H-M "P -1"
_symmetry_group_IT_number 2
_symmetry_cell_setting 'triclinic'
loop_
_space_group_symop_operation_xyz
x,y,z
-x,-y,-z
loop_
_atom_site_type_symbol
_atom_site_label
_atom_site_fract_x
_atom_site_fract_y
_atom_site_fract_z
Si Si1 0.635907 0.501893 0.291959
Si Si2 0.847011 0.804618 0.471748
Si Si3 0.769294 0.945432 0.758765
Si Si4 0.537278 0.687263 0.734194
Si Si5 0.851843 0.244872 0.628434
Si Si6 0.322927 0.281799 0.005685
O O1 0.547888 0.426347 0.234274
O O2 0.765370 0.298668 0.464951
O O3 0.460863 0.794561 0.295289
O O4 0.760777 0.501863 0.171369
O O5 0.841549 0.807311 0.639345
O O6 0.000000 0.500000 0.500000
O O7 0.933306 0.902172 0.369625
O O8 0.633897 0.996405 0.376359
O O9 0.822381 0.727931 0.924384
O O10 0.866181 0.036714 0.765922
O O11 0.715512 0.522030 0.652150
O O12 0.612917 0.654696 0.890793
O O13 0.500000 0.000000 0.000000
#
# Coordination Sequence:
#
# PCOD8007413 Si02
#       6
#     2   2   2   2   2   2
#     4  10  20  41  69  97 121 177 206 261 325 376
#     4  12  25  36  66 102 125 164 219 266 315 372
#     4  10  20  41  62  95 125 168 206 264 309 377
#     4  11  22  43  68  93 129 170 216 264 312 381
#     4  11  22  42  72  92 128 163 221 264 317 372
#     4  10  23  38  68  93 132 172 209 254 330 382
#
# _framework density 24.620774000000001
#
# number of rings (size 3 to 8) (size 9 to 14) (size 15 to 20)
#    0.000    1.333    3.333    3.000    4.667    1.333 
#    0.000    0.833    7.333    7.000    0.000    0.000 
#    0.000    0.000    0.000    0.000    0.000    0.000 
#
# Total GULP energy -148725.994780 kJ/mol
# GULP energy per Si atom -12393.832898 kJ/mol
# Density = 2.456474 g / cm^3
# Si number density = 24.620774 Si / 1000 Ang^3
#
#
#
# Elastic Constant Matrix: (Units=GPa)
#
#
# Indices 1 2 3 4 5 6 
#
# 1 76.0551 17.1320 41.8423 10.5741 -21.7562 7.1041
# 2 17.1320 124.8396 40.1159 21.3048 3.6968 2.6118
# 3 41.8423 40.1159 92.2648 25.5818 -22.7195 -0.6825
# 4 10.5741 21.3048 25.5818 29.4822 -1.0524 4.4506
# 5 -21.7562 3.6968 -22.7195 -1.0524 49.1565 4.1825
# 6 7.1041 2.6118 -0.6825 4.4506 4.1825 33.1905
#
#
#
# Elastic Compliance Matrix: (Units=1/GPa)
#
#
# Indices 1 2 3 4 5 6 
#
# 1 0.019304 -0.000457 -0.007450 0.000835 0.005584 -0.005065
# 2 -0.000457 0.010030 -0.003741 -0.003954 -0.002780 0.000112
# 3 -0.007450 -0.003741 0.021025 -0.013149 0.006139 0.003311
# 4 0.000835 -0.003954 -0.013149 0.048682 -0.003842 -0.006182
# 5 0.005584 -0.002780 0.006139 -0.003842 0.026087 -0.003622
# 6 -0.005065 0.000112 0.003311 -0.006182 -0.003622 0.032558
#
#
# Mechanical properties :
#
#
# Convention : Reuss Voigt Hill
#
# Bulk Modulus (GPa) = 36.94967 54.59330 45.77149
# Shear Modulus (GPa) = 26.31543 35.30380 30.80961
#
# Velocity S-wave (km/s) = 3.27284 3.79080 3.54130
# Velocity P-wave (km/s) = 5.41499 6.43289 5.94576
#
# Compressibility (1/GPa) = 0.02706384
#
# Stress axis : x y z
#
# Youngs Moduli (GPa) = 51.80238 99.70200 47.56206
#
# Poissons Ratio (x) = 0.04558 0.35432
# Poissons Ratio (y) = 0.02368 0.17793
# Poissons Ratio (z) = 0.38591 0.37298
#
# Static dielectric constant tensor:
#      x y z
#    x 4.860330 0.092750 -0.745650 
#    y 0.092750 4.643740 0.139100 
#    z -0.745650 0.139100 4.555210 
# 
# 
# High freq. dielectric constant tensor:
#      x y z
#    x 1.974440 0.006840 -0.032950 
#    y 0.006840 2.002720 0.014830 
#    z -0.032950 0.014830 1.957180 
# 
# From -- ./inp_files/150767.got.cif
#   From: 2010.06.25/outbox.cif.g09.slc.cpg/sg2_76_cif.got.tgz:150767.got - 2010.06.27 13:26:56.
