data_PCOD8007619
_publ_section_title
;
Structure prediction by ZEFSAII (Michael W. Deem and Ramdas Pophale) SiO2 
 PCOD8007619
Probable space group: P -1
;
_chemical_formula_sum "Si O2"
_cell_formula_units_Z 16
_cell_length_a 21.402959
_cell_length_b 11.755343
_cell_length_c 9.115194
_cell_angle_alpha 51.714960
_cell_angle_beta 35.448581
_cell_angle_gamma 33.560469
_cell_volume 722.627049
_symmetry_space_group_name_H-M "P -1"
_symmetry_group_IT_number 2
_symmetry_cell_setting 'triclinic'
loop_
_space_group_symop_operation_xyz
x,y,z
-x,-y,-z
loop_
_atom_site_type_symbol
_atom_site_label
_atom_site_fract_x
_atom_site_fract_y
_atom_site_fract_z
Si Si1 0.631803 0.773882 0.993217
Si Si2 0.125939 0.698332 0.652859
Si Si3 0.157675 0.967613 0.511673
Si Si4 0.631603 0.398706 0.945979
Si Si5 0.532106 0.337893 0.670682
Si Si6 0.799810 0.675541 0.048851
Si Si7 0.210880 0.027923 0.044258
Si Si8 0.950690 0.435330 0.525550
O O1 0.763520 0.617125 0.741225
O O2 0.538100 0.719769 0.249293
O O3 0.700438 0.774680 0.010370
O O4 0.500000 0.000000 0.000000
O O5 0.109505 0.844617 0.686348
O O6 0.226740 0.648643 0.359375
O O7 0.199887 0.486093 0.759531
O O8 0.961247 0.812227 0.816220
O O9 0.285201 0.860569 0.482357
O O10 0.229126 0.948270 0.237136
O O11 0.010758 0.214740 0.629834
O O12 0.684388 0.187723 0.075802
O O13 0.500000 0.500000 0.000000
O O14 0.564905 0.557147 0.078162
O O15 0.500000 0.500000 0.500000
O O16 0.730009 0.860938 0.152147
O O17 0.972401 0.577776 0.762162
O O18 0.000000 0.500000 0.500000
#
# Coordination Sequence:
#
# PCOD8007619 Si02
#       8
#     2   2   2   2   2   2   2   2
#     4  11  24  42  67  91 133 180 213 263 336 399
#     4  11  22  40  67  97 126 167 222 279 322 387
#     4  10  20  41  66  89 130 169 217 271 323 391
#     4  11  23  42  68  92 132 177 217 267 340 382
#     4  12  25  43  65  97 135 171 221 275 320 391
#     4  10  22  43  63  97 133 164 224 281 315 389
#     4  10  21  40  68  90 129 173 215 271 326 389
#     4   9  20  40  64  86 125 175 213 254 332 388
#
# _framework density 22.141435999999999
#
# number of rings (size 3 to 8) (size 9 to 14) (size 15 to 20)
#    0.000    1.500    2.500    4.875    5.250    0.000 
#    6.750    3.750    0.000    0.000    0.000    0.000 
#    0.000    0.000    0.000    0.000    0.000    0.000 
#
# Total GULP energy -198250.455306 kJ/mol
# GULP energy per Si atom -12390.653457 kJ/mol
# Density = 2.209104 g / cm^3
# Si number density = 22.141436 Si / 1000 Ang^3
#
#
#
# Elastic Constant Matrix: (Units=GPa)
#
#
# Indices 1 2 3 4 5 6 
#
# 1 88.2594 33.1585 23.9921 0.5919 -29.0117 2.6602
# 2 33.1585 168.9337 47.8388 -6.4340 -16.1266 12.9031
# 3 23.9921 47.8388 50.7350 -10.3031 -13.1145 5.7253
# 4 0.5919 -6.4340 -10.3031 38.0707 5.3285 -12.1499
# 5 -29.0117 -16.1266 -13.1145 5.3285 27.6061 -9.4721
# 6 2.6602 12.9031 5.7253 -12.1499 -9.4721 42.3433
#
#
#
# Elastic Compliance Matrix: (Units=1/GPa)
#
#
# Indices 1 2 3 4 5 6 
#
# 1 0.019072 -0.001138 -0.004005 -0.003286 0.019150 0.003031
# 2 -0.001138 0.008306 -0.007384 -0.001128 -0.000266 -0.001845
# 3 -0.004005 -0.007384 0.031232 0.006981 0.005484 0.001509
# 4 -0.003286 -0.001128 0.006981 0.031018 -0.004186 0.007570
# 5 0.019150 -0.000266 0.005484 -0.004186 0.063423 0.011123
# 6 0.003031 -0.001845 0.001509 0.007570 0.011123 0.028445
#
#
# Mechanical properties :
#
#
# Convention : Reuss Voigt Hill
#
# Bulk Modulus (GPa) = 29.80108 57.54521 43.67315
# Shear Modulus (GPa) = 22.96370 35.13327 29.04849
#
# Velocity S-wave (km/s) = 3.22395 3.98774 3.62602
# Velocity P-wave (km/s) = 5.22945 6.87379 6.10722
#
# Compressibility (1/GPa) = 0.03355583
#
# Stress axis : x y z
#
# Youngs Moduli (GPa) = 52.43323 120.39084 32.01871
#
# Poissons Ratio (x) = 0.13698 0.12825
# Poissons Ratio (y) = 0.05966 0.23642
# Poissons Ratio (z) = 0.21001 0.88895
#
# Static dielectric constant tensor:
#      x y z
#    x 3.962470 0.176230 -0.550560 
#    y 0.176230 4.442730 -0.053870 
#    z -0.550560 -0.053870 4.180910 
# 
# 
# High freq. dielectric constant tensor:
#      x y z
#    x 1.884660 0.012960 -0.021420 
#    y 0.012960 1.890210 -0.003610 
#    z -0.021420 -0.003610 1.833210 
# 
# From -- ./inp_files/208778.got.cif
#   From: 2010.06.25/outbox.cif.g09.slc.cpg/sg2_105_cif.got.tgz:208778.got - 2010.06.27 13:26:56.
