data_PCOD8007397
_publ_section_title
;
Structure prediction by ZEFSAII (Michael W. Deem and Ramdas Pophale) SiO2 
 PCOD8007397
Probable space group: P -1
;
_chemical_formula_sum "Si O2"
_cell_formula_units_Z 14
_cell_length_a 12.765989
_cell_length_b 17.744606
_cell_length_c 8.517542
_cell_angle_alpha 40.882117
_cell_angle_beta 110.880279
_cell_angle_gamma 141.403858
_cell_volume 644.916611
_symmetry_space_group_name_H-M "P -1"
_symmetry_group_IT_number 2
_symmetry_cell_setting 'triclinic'
loop_
_space_group_symop_operation_xyz
x,y,z
-x,-y,-z
loop_
_atom_site_type_symbol
_atom_site_label
_atom_site_fract_x
_atom_site_fract_y
_atom_site_fract_z
Si Si1 0.354922 0.082821 0.947348
Si Si2 0.124585 0.657446 0.465784
Si Si3 0.241112 0.551926 0.227508
Si Si4 0.644557 0.335440 0.239377
Si Si5 0.121465 0.235966 0.265865
Si Si6 0.714797 0.856271 0.495589
Si Si7 0.005476 0.881120 0.270816
O O1 0.588558 0.270272 0.832480
O O2 0.357681 0.182599 0.658544
O O3 0.260054 0.885184 0.131735
O O4 0.220410 0.006609 0.144073
O O5 0.291653 0.715311 0.537061
O O6 0.000000 0.500000 0.500000
O O7 0.960363 0.547256 0.686029
O O8 0.184292 0.366352 0.491484
O O9 0.325617 0.666768 0.923827
O O10 0.411023 0.173565 0.401523
O O11 0.786630 0.560455 0.015656
O O12 0.300593 0.294710 0.242674
O O13 0.000538 0.106541 0.566287
O O14 0.956247 0.092092 0.264803
O O15 0.000000 0.000000 0.000000
#
# Coordination Sequence:
#
# PCOD8007397 Si02
#       7
#     2   2   2   2   2   2   2
#     4  11  23  40  63  96 122 159 209 247 307 361
#     4  11  24  42  65  90 123 161 205 258 302 357
#     4  10  24  41  63  93 121 162 205 251 306 364
#     4  11  23  41  61  89 123 162 204 247 304 363
#     4  10  22  40  60  88 124 162 203 247 304 358
#     4  11  22  38  61  89 123 163 200 252 299 363
#     4  10  20  41  62  89 124 161 200 250 302 359
#
# _framework density 21.708231999999999
#
# number of rings (size 3 to 8) (size 9 to 14) (size 15 to 20)
#    0.000    1.429    1.429    3.429    0.000    5.714 
#    2.571    0.000    0.000    0.000    0.000    0.000 
#    0.000    0.000    0.000    0.000    0.000    0.000 
#
# Total GULP energy -173595.083127 kJ/mol
# GULP energy per Si atom -12399.648795 kJ/mol
# Density = 2.165882 g / cm^3
# Si number density = 21.708232 Si / 1000 Ang^3
#
#
#
# Elastic Constant Matrix: (Units=GPa)
#
#
# Indices 1 2 3 4 5 6 
#
# 1 130.6300 49.1250 31.2459 -6.1771 9.3880 25.5491
# 2 49.1250 134.6874 32.2742 -20.2708 27.3493 26.5977
# 3 31.2459 32.2742 63.0134 -7.5345 9.7779 18.0428
# 4 -6.1771 -20.2708 -7.5345 38.3626 -13.0768 -6.6037
# 5 9.3880 27.3493 9.7779 -13.0768 52.8409 12.4403
# 6 25.5491 26.5977 18.0428 -6.6037 12.4403 47.8506
#
#
#
# Elastic Compliance Matrix: (Units=1/GPa)
#
#
# Indices 1 2 3 4 5 6 
#
# 1 0.009803 -0.002515 -0.002888 -0.000613 0.000649 -0.003001
# 2 -0.002515 0.010547 -0.002632 0.003169 -0.003210 -0.002255
# 3 -0.002888 -0.002632 0.020097 0.001169 -0.000549 -0.004269
# 4 -0.000613 0.003169 0.001169 0.029873 0.005450 0.000831
# 5 0.000649 -0.003210 -0.000549 0.005450 0.022749 -0.003518
# 6 -0.003001 -0.002255 -0.004269 0.000831 -0.003518 0.026393
#
#
# Mechanical properties :
#
#
# Convention : Reuss Voigt Hill
#
# Bulk Modulus (GPa) = 41.02174 61.51342 51.26758
# Shear Modulus (GPa) = 34.80525 42.18988 38.49756
#
# Velocity S-wave (km/s) = 4.00849 4.41329 4.21575
# Velocity P-wave (km/s) = 6.35310 7.37343 6.88220
#
# Compressibility (1/GPa) = 0.02437732
#
# Stress axis : x y z
#
# Youngs Moduli (GPa) = 102.00998 94.81730 49.75899
#
# Poissons Ratio (x) = 0.23847 0.14368
# Poissons Ratio (y) = 0.25656 0.13096
# Poissons Ratio (z) = 0.29456 0.24956
#
# Static dielectric constant tensor:
#      x y z
#    x 4.209270 -0.109450 -0.097460 
#    y -0.109450 3.765270 0.022670 
#    z -0.097460 0.022670 3.942450 
# 
# 
# High freq. dielectric constant tensor:
#      x y z
#    x 1.867810 -0.001390 -0.002280 
#    y -0.001390 1.847440 -0.001300 
#    z -0.002280 -0.001300 1.850090 
# 
# From -- ./inp_files/25802.got.cif
#   From: 2010.06.25/outbox.cif.g09.slc.cpg/sg2_13_cif.got.tgz:25802.got - 2010.06.27 13:26:56.
