data_PCOD8007967
_publ_section_title
;
Structure prediction by ZEFSAII (Michael W. Deem and Ramdas Pophale) SiO2 
 PCOD8007967
Probable space group: P -1
;
_chemical_formula_sum "Si O2"
_cell_formula_units_Z 16
_cell_length_a 13.885612
_cell_length_b 19.921842
_cell_length_c 9.168861
_cell_angle_alpha 109.941645
_cell_angle_beta 60.918633
_cell_angle_gamma 158.901519
_cell_volume 745.240808
_symmetry_space_group_name_H-M "P -1"
_symmetry_group_IT_number 2
_symmetry_cell_setting 'triclinic'
loop_
_space_group_symop_operation_xyz
x,y,z
-x,-y,-z
loop_
_atom_site_type_symbol
_atom_site_label
_atom_site_fract_x
_atom_site_fract_y
_atom_site_fract_z
Si Si1 0.995035 0.390213 0.205644
Si Si2 0.860179 0.258185 0.780006
Si Si3 0.170061 0.853224 0.011517
Si Si4 0.640533 0.629474 0.280698
Si Si5 0.536269 0.825112 0.609899
Si Si6 0.259457 0.524045 0.420552
Si Si7 0.244036 0.262474 0.394575
Si Si8 0.622892 0.352973 0.141122
O O1 0.967165 0.293118 0.094438
O O2 0.662181 0.225264 0.316391
O O3 0.095247 0.452431 0.344575
O O4 0.256911 0.592189 0.070221
O O5 0.007256 0.332822 0.568963
O O6 0.063304 0.438225 0.849584
O O7 0.517461 0.081873 0.880286
O O8 0.849123 0.178532 0.824744
O O9 0.966161 0.800849 0.101144
O O10 0.512317 0.616221 0.264770
O O11 0.409067 0.422593 0.296051
O O12 0.670829 0.679687 0.456553
O O13 0.414001 0.683775 0.505653
O O14 0.526215 0.803466 0.776629
O O15 0.882869 0.049984 0.472757
O O16 0.370649 0.262688 0.250467
#
# Coordination Sequence:
#
# PCOD8007967 Si02
#       8
#     2   2   2   2   2   2   2   2
#     4  11  24  41  62  90 132 164 203 257 309 367
#     4   9  18  37  61  90 125 153 206 251 301 361
#     4  10  21  37  63  95 121 160 210 255 303 358
#     4  11  21  39  66  94 126 159 198 265 308 363
#     4  11  24  41  66  91 119 169 213 252 304 367
#     4  11  24  43  62  90 130 169 202 247 316 374
#     4  11  21  39  68  96 120 159 212 258 307 360
#     4  10  20  42  61  93 122 159 211 258 299 360
#
# _framework density 21.469570000000001
#
# number of rings (size 3 to 8) (size 9 to 14) (size 15 to 20)
#    0.000    1.500    5.000    1.875    7.000    1.000 
#    0.000    0.625    0.000    0.000    0.000    0.000 
#    0.000    0.000    0.000    0.000    0.000    0.000 
#
# Total GULP energy -198416.597686 kJ/mol
# GULP energy per Si atom -12401.037355 kJ/mol
# Density = 2.142070 g / cm^3
# Si number density = 21.469570 Si / 1000 Ang^3
#
#
#
# Elastic Constant Matrix: (Units=GPa)
#
#
# Indices 1 2 3 4 5 6 
#
# 1 95.6459 17.3573 48.4948 -1.9123 -16.2096 20.6023
# 2 17.3573 41.9982 37.5735 -19.0211 -3.1735 20.7185
# 3 48.4948 37.5735 88.1903 -17.5942 -8.5908 21.5529
# 4 -1.9123 -19.0211 -17.5942 26.8096 14.1712 -8.5629
# 5 -16.2096 -3.1735 -8.5908 14.1712 36.0301 -2.6702
# 6 20.6023 20.7185 21.5529 -8.5629 -2.6702 19.8501
#
#
#
# Elastic Compliance Matrix: (Units=1/GPa)
#
#
# Indices 1 2 3 4 5 6 
#
# 1 0.020812 0.005111 -0.010399 -0.014218 0.011426 -0.020241
# 2 0.005111 0.079445 -0.017298 0.033849 -0.012328 -0.056501
# 3 -0.010399 -0.017298 0.024164 0.005545 -0.002273 0.004697
# 4 -0.014218 0.033849 0.005545 0.083857 -0.034711 0.004911
# 5 0.011426 -0.012328 -0.002273 -0.034711 0.044511 -0.005509
# 6 -0.020241 -0.056501 0.004697 0.004911 -0.005509 0.126635
#
#
# Mechanical properties :
#
#
# Convention : Reuss Voigt Hill
#
# Bulk Modulus (GPa) = 12.61827 48.07620 30.34724
# Shear Modulus (GPa) = 11.08614 24.69856 17.89235
#
# Velocity S-wave (km/s) = 2.27483 3.39543 2.88997
# Velocity P-wave (km/s) = 3.57629 6.14925 5.03007
#
# Compressibility (1/GPa) = 0.07925018
#
# Stress axis : x y z
#
# Youngs Moduli (GPa) = 48.04853 12.58728 41.38377
#
# Poissons Ratio (x) = -0.06433 0.43034
# Poissons Ratio (y) = -0.24558 0.71586
# Poissons Ratio (z) = 0.49965 0.21773
#
# Static dielectric constant tensor:
#      x y z
#    x 3.834090 0.000130 -0.067330 
#    y 0.000130 3.776430 -0.307620 
#    z -0.067330 -0.307620 4.037320 
# 
# 
# High freq. dielectric constant tensor:
#      x y z
#    x 1.834790 0.001040 -0.025180 
#    y 0.001040 1.828400 -0.019180 
#    z -0.025180 -0.019180 1.834660 
# 
# From -- ./inp_files/319393.got.cif
#   From: 2010.06.25/outbox.cif.g09.slc.cpg/sg2_160_cif.got.tgz:319393.got - 2010.06.27 13:26:56.
