data_PCOD8007698
_publ_section_title
;
Structure prediction by ZEFSAII (Michael W. Deem and Ramdas Pophale) SiO2 
 PCOD8007698
Probable space group: P -1
;
_chemical_formula_sum "Si O2"
_cell_formula_units_Z 14
_cell_length_a 15.404606
_cell_length_b 20.037089
_cell_length_c 8.814353
_cell_angle_alpha 31.632845
_cell_angle_beta 34.549666
_cell_angle_gamma 32.514882
_cell_volume 711.079528
_symmetry_space_group_name_H-M "P -1"
_symmetry_group_IT_number 2
_symmetry_cell_setting 'triclinic'
loop_
_space_group_symop_operation_xyz
x,y,z
-x,-y,-z
loop_
_atom_site_type_symbol
_atom_site_label
_atom_site_fract_x
_atom_site_fract_y
_atom_site_fract_z
Si Si1 0.528724 0.868715 0.605612
Si Si2 0.662152 0.281783 0.684583
Si Si3 0.621252 0.059701 0.642681
Si Si4 0.125233 0.330838 0.683931
Si Si5 0.981328 0.893435 0.613622
Si Si6 0.476722 0.501688 0.281250
Si Si7 0.613696 0.629854 0.594268
O O1 0.398572 0.935199 0.520999
O O2 0.729946 0.764930 0.466693
O O3 0.500000 0.000000 0.500000
O O4 0.474024 0.772380 0.972964
O O5 0.612792 0.353414 0.451116
O O6 0.655402 0.393508 0.605624
O O7 0.858446 0.154963 0.638374
O O8 0.559836 0.221181 0.480662
O O9 0.815787 0.967881 0.598730
O O10 0.500000 0.000000 0.000000
O O11 0.226391 0.335959 0.680713
O O12 0.000000 0.500000 0.500000
O O13 0.016306 0.245761 0.037948
O O14 0.000000 0.000000 0.500000
O O15 0.354412 0.479409 0.377550
O O16 0.588678 0.566775 0.912202
#
# Coordination Sequence:
#
# PCOD8007698 Si02
#       7
#     2   2   2   2   2   2   2
#     4  11  24  44  68  94 132 179 220 271 341 391
#     4  11  23  40  63  97 131 161 215 280 326 388
#     4  11  22  43  66  90 126 174 224 259 316 411
#     4  11  23  43  65  98 130 174 227 272 318 410
#     4  12  25  41  68  98 133 175 222 274 337 394
#     4  10  21  39  65  93 128 166 211 268 337 385
#     4  10  20  41  67  89 123 179 216 258 329 401
#
# _framework density 19.688372999999999
#
# number of rings (size 3 to 8) (size 9 to 14) (size 15 to 20)
#    0.000    1.143    5.714    2.571    4.000    1.714 
#    2.571    0.714    0.000    0.000    0.000    0.000 
#    0.000    0.000    0.000    0.000    0.000    0.000 
#
# Total GULP energy -173539.881642 kJ/mol
# GULP energy per Si atom -12395.705832 kJ/mol
# Density = 1.964356 g / cm^3
# Si number density = 19.688373 Si / 1000 Ang^3
#
#
#
# Elastic Constant Matrix: (Units=GPa)
#
#
# Indices 1 2 3 4 5 6 
#
# 1 98.8096 52.9518 28.2104 -2.5023 -4.4011 9.4409
# 2 52.9518 118.9887 28.3397 -0.8422 0.5455 0.9121
# 3 28.2104 28.3397 106.9683 -11.1496 2.2258 3.8735
# 4 -2.5023 -0.8422 -11.1496 37.5284 -1.6749 0.1945
# 5 -4.4011 0.5455 2.2258 -1.6749 32.6686 -8.7417
# 6 9.4409 0.9121 3.8735 0.1945 -8.7417 30.9252
#
#
#
# Elastic Compliance Matrix: (Units=1/GPa)
#
#
# Indices 1 2 3 4 5 6 
#
# 1 0.014233 -0.005815 -0.002081 0.000273 0.001215 -0.003571
# 2 -0.005815 0.011356 -0.001585 -0.000634 -0.000495 0.001503
# 3 -0.002081 -0.001585 0.010684 0.002956 -0.001093 -0.000984
# 4 0.000273 -0.000634 0.002956 0.027583 0.001187 -0.000273
# 5 0.001215 -0.000495 -0.001093 0.001187 0.033382 0.009209
# 6 -0.003571 0.001503 -0.000984 -0.000273 0.009209 0.036110
#
#
# Mechanical properties :
#
#
# Convention : Reuss Voigt Hill
#
# Bulk Modulus (GPa) = 57.76531 60.41895 59.09213
# Shear Modulus (GPa) = 31.62986 34.57540 33.10263
#
# Velocity S-wave (km/s) = 4.01250 4.19517 4.10485
# Velocity P-wave (km/s) = 7.13234 7.36344 7.24881
#
# Compressibility (1/GPa) = 0.01731143
#
# Stress axis : x y z
#
# Youngs Moduli (GPa) = 70.26069 88.06285 93.60012
#
# Poissons Ratio (x) = 0.51204 0.19474
# Poissons Ratio (y) = 0.40853 0.14838
# Poissons Ratio (z) = 0.14618 0.13960
#
# Static dielectric constant tensor:
#      x y z
#    x 3.831830 -0.139650 -0.033220 
#    y -0.139650 4.035800 -0.179270 
#    z -0.033220 -0.179270 3.735670 
# 
# 
# High freq. dielectric constant tensor:
#      x y z
#    x 1.766510 0.008180 -0.004050 
#    y 0.008180 1.769600 -0.018950 
#    z -0.004050 -0.018950 1.774940 
# 
# From -- ./inp_files/181928.got.cif
#   From: 2010.06.25/outbox.cif.g09.slc.cpg/sg2_91_cif.got.tgz:181928.got - 2010.06.27 13:26:56.
