data_PCOD8007571
_publ_section_title
;
Structure prediction by ZEFSAII (Michael W. Deem and Ramdas Pophale) SiO2 
 PCOD8007571
Probable space group: P -1
;
_chemical_formula_sum "Si O2"
_cell_formula_units_Z 16
_cell_length_a 8.851383
_cell_length_b 15.731411
_cell_length_c 7.749964
_cell_angle_alpha 52.320596
_cell_angle_beta 127.226369
_cell_angle_gamma 103.526027
_cell_volume 664.062304
_symmetry_space_group_name_H-M "P -1"
_symmetry_group_IT_number 2
_symmetry_cell_setting 'triclinic'
loop_
_space_group_symop_operation_xyz
x,y,z
-x,-y,-z
loop_
_atom_site_type_symbol
_atom_site_label
_atom_site_fract_x
_atom_site_fract_y
_atom_site_fract_z
Si Si1 0.116483 0.360431 0.369966
Si Si2 0.203764 0.967577 0.283271
Si Si3 0.754624 0.274433 0.322834
Si Si4 0.058990 0.417044 0.882981
Si Si5 0.409814 0.036025 0.643114
Si Si6 0.738290 0.325526 0.650225
Si Si7 0.464992 0.181744 0.797251
Si Si8 0.398609 0.448259 0.844158
O O1 0.295537 0.266042 0.678412
O O2 0.917537 0.318844 0.277263
O O3 0.091861 0.463425 0.355421
O O4 0.169899 0.394164 0.171264
O O5 0.214582 0.854212 0.532226
O O6 0.246097 0.052032 0.357819
O O7 0.376705 0.955495 0.282067
O O8 0.000000 0.000000 0.000000
O O9 0.768440 0.292593 0.513243
O O10 0.546622 0.336849 0.021775
O O11 0.203186 0.420049 0.820598
O O12 0.949799 0.318266 0.890535
O O13 0.354560 0.133680 0.622850
O O14 0.426017 0.916275 0.885888
O O15 0.626977 0.245128 0.768818
O O16 0.637318 0.455223 0.443484
O O17 0.500000 0.500000 0.000000
#
# Coordination Sequence:
#
# PCOD8007571 Si02
#       8
#     2   2   2   2   2   2   2   2
#     4  11  24  40  63  97 140 177 225 279 340 412
#     4  11  24  47  74 106 132 176 237 300 348 415
#     4  11  23  42  69  98 133 176 228 279 345 413
#     4  11  24  39  62 100 137 180 230 277 335 410
#     4  10  25  48  72 100 140 178 237 294 356 411
#     4  11  23  41  66  95 134 184 231 271 342 418
#     4  11  24  47  68 100 140 187 224 290 354 409
#     4  10  20  41  65  91 134 180 217 273 334 407
#
# _framework density 24.094124000000001
#
# number of rings (size 3 to 8) (size 9 to 14) (size 15 to 20)
#    0.000    1.250    3.750    2.625    3.500    2.500 
#    2.250    1.875    0.000    0.000    0.000    0.000 
#    0.000    0.000    0.000    0.000    0.000    0.000 
#
# Total GULP energy -198333.116882 kJ/mol
# GULP energy per Si atom -12395.819805 kJ/mol
# Density = 2.403929 g / cm^3
# Si number density = 24.094124 Si / 1000 Ang^3
#
#
#
# Elastic Constant Matrix: (Units=GPa)
#
#
# Indices 1 2 3 4 5 6 
#
# 1 75.4029 28.7293 22.1718 -7.4440 4.7046 18.9879
# 2 28.7293 96.2258 43.3941 1.4534 15.6256 27.5258
# 3 22.1718 43.3941 64.6634 2.2678 10.3551 10.3347
# 4 -7.4440 1.4534 2.2678 48.2515 6.8050 -5.9409
# 5 4.7046 15.6256 10.3551 6.8050 34.1098 -4.4942
# 6 18.9879 27.5258 10.3347 -5.9409 -4.4942 29.9865
#
#
#
# Elastic Compliance Matrix: (Units=1/GPa)
#
#
# Indices 1 2 3 4 5 6 
#
# 1 0.017228 -0.000374 -0.003825 0.002089 -0.002677 -0.009235
# 2 -0.000374 0.021529 -0.010045 -0.001155 -0.008852 -0.017619
# 3 -0.003825 -0.010045 0.023235 -0.000787 -0.001335 0.003279
# 4 0.002089 -0.001155 -0.000787 0.022077 -0.003415 0.003871
# 5 -0.002677 -0.008852 -0.001335 -0.003415 0.036821 0.015123
# 6 -0.009235 -0.017619 0.003279 0.003871 0.015123 0.057272
#
#
# Mechanical properties :
#
#
# Convention : Reuss Voigt Hill
#
# Bulk Modulus (GPa) = 29.84759 47.20916 38.52838
# Shear Modulus (GPa) = 22.95501 31.93601 27.44551
#
# Velocity S-wave (km/s) = 3.08997 3.64465 3.37871
# Velocity P-wave (km/s) = 5.01451 6.11126 5.58985
#
# Compressibility (1/GPa) = 0.03350354
#
# Stress axis : x y z
#
# Youngs Moduli (GPa) = 58.04472 46.44963 43.03912
#
# Poissons Ratio (x) = 0.01737 0.16462
# Poissons Ratio (y) = 0.02170 0.43234
# Poissons Ratio (z) = 0.22201 0.46660
#
# Static dielectric constant tensor:
#      x y z
#    x 3.752740 0.458390 -0.406400 
#    y 0.458390 4.372820 0.318580 
#    z -0.406400 0.318580 4.184380 
# 
# 
# High freq. dielectric constant tensor:
#      x y z
#    x 1.945830 0.013320 -0.006340 
#    y 0.013320 1.970580 0.004980 
#    z -0.006340 0.004980 1.951250 
# 
# From -- ./inp_files/216836.got.cif
#   From: 2010.06.25/outbox.cif.g09.slc.cpg/sg2_109_cif.got.tgz:216836.got - 2010.06.27 13:26:56.
