data_PCOD8007552
_publ_section_title
;
Structure prediction by ZEFSAII (Michael W. Deem and Ramdas Pophale) SiO2 
 PCOD8007552
Probable space group: P -1
;
_chemical_formula_sum "Si O2"
_cell_formula_units_Z 16
_cell_length_a 16.960154
_cell_length_b 13.691407
_cell_length_c 6.314973
_cell_angle_alpha 71.454014
_cell_angle_beta 94.495245
_cell_angle_gamma 147.686176
_cell_volume 688.700805
_symmetry_space_group_name_H-M "P -1"
_symmetry_group_IT_number 2
_symmetry_cell_setting 'triclinic'
loop_
_space_group_symop_operation_xyz
x,y,z
-x,-y,-z
loop_
_atom_site_type_symbol
_atom_site_label
_atom_site_fract_x
_atom_site_fract_y
_atom_site_fract_z
Si Si1 0.445234 0.296944 0.713502
Si Si2 0.678068 0.257817 0.759992
Si Si3 0.990748 0.860105 0.438171
Si Si4 0.756470 0.767025 0.477767
Si Si5 0.668698 0.022684 0.820871
Si Si6 0.806236 0.524905 0.976417
Si Si7 0.467219 0.750542 0.583828
Si Si8 0.015571 0.344613 0.695325
O O1 0.597568 0.527469 0.683949
O O2 0.294026 0.202388 0.724240
O O3 0.487574 0.305261 0.480629
O O4 0.406354 0.158739 0.951520
O O5 0.609540 0.063204 0.889623
O O6 0.697330 0.324519 0.953895
O O7 0.564104 0.200184 0.636270
O O8 0.850852 0.446852 0.555981
O O9 0.884911 0.836071 0.346334
O O10 0.892563 0.705163 0.724291
O O11 0.013753 0.803561 0.298184
O O12 0.163700 0.092204 0.394035
O O13 0.858372 0.234658 0.721203
O O14 0.614620 0.958208 0.610208
O O15 0.689032 0.447857 0.171430
O O16 0.937447 0.609670 0.078827
#
# Coordination Sequence:
#
# PCOD8007552 Si02
#       8
#     2   2   2   2   2   2   2   2
#     4  11  24  41  59  89 127 159 201 254 303 357
#     4  10  23  41  64  91 124 162 203 248 299 363
#     4  10  20  41  65  88 121 159 203 252 302 358
#     4  10  21  41  63  85 123 162 199 257 305 348
#     4  12  24  40  63  93 125 163 202 247 307 363
#     4  10  21  41  65  91 121 163 204 245 303 365
#     4  11  23  41  63  90 126 162 202 250 300 363
#     4  10  22  40  64  95 124 156 201 253 302 362
#
# _framework density 23.232149
#
# number of rings (size 3 to 8) (size 9 to 14) (size 15 to 20)
#    0.000    1.500    0.000    6.000    0.000    5.500 
#    0.000   25.000    0.000    0.000    0.000    0.000 
#    0.000    0.000    0.000    0.000    0.000    0.000 
#
# Total GULP energy -198470.374146 kJ/mol
# GULP energy per Si atom -12404.398384 kJ/mol
# Density = 2.317927 g / cm^3
# Si number density = 23.232149 Si / 1000 Ang^3
#
#
#
# Elastic Constant Matrix: (Units=GPa)
#
#
# Indices 1 2 3 4 5 6 
#
# 1 106.6108 41.9140 27.1949 10.4100 23.8736 -3.5556
# 2 41.9140 143.6655 34.3541 21.3414 21.9163 0.5682
# 3 27.1949 34.3541 79.0847 15.2243 7.7148 -9.3434
# 4 10.4100 21.3414 15.2243 36.3761 -2.8340 6.0449
# 5 23.8736 21.9163 7.7148 -2.8340 24.4184 0.0874
# 6 -3.5556 0.5682 -9.3434 6.0449 0.0874 48.7406
#
#
#
# Elastic Compliance Matrix: (Units=1/GPa)
#
#
# Indices 1 2 3 4 5 6 
#
# 1 0.013372 -0.001077 -0.002215 -0.003353 -0.011799 0.001000
# 2 -0.001077 0.009691 -0.002116 -0.005089 -0.007567 0.000048
# 3 -0.002215 -0.002116 0.015980 -0.005541 -0.001640 0.003616
# 4 -0.003353 -0.005089 -0.005541 0.035776 0.013769 -0.005709
# 5 -0.011799 -0.007567 -0.001640 0.013769 0.061407 -0.002905
# 6 0.001000 0.000048 0.003616 -0.005709 -0.002905 0.021996
#
#
# Mechanical properties :
#
#
# Convention : Reuss Voigt Hill
#
# Bulk Modulus (GPa) = 35.42956 59.58742 47.50849
# Shear Modulus (GPa) = 28.01958 36.96688 32.49323
#
# Velocity S-wave (km/s) = 3.47662 3.99331 3.74389
# Velocity P-wave (km/s) = 5.60350 6.85320 6.25961
#
# Compressibility (1/GPa) = 0.02822502
#
# Stress axis : x y z
#
# Youngs Moduli (GPa) = 74.78584 103.18815 62.58010
#
# Poissons Ratio (x) = 0.11116 0.13865
# Poissons Ratio (y) = 0.08056 0.13241
# Poissons Ratio (z) = 0.16569 0.21832
#
# Static dielectric constant tensor:
#      x y z
#    x 4.276450 0.099430 0.022790 
#    y 0.099430 4.484850 0.127480 
#    z 0.022790 0.127480 3.914150 
# 
# 
# High freq. dielectric constant tensor:
#      x y z
#    x 1.925080 0.008050 0.004730 
#    y 0.008050 1.940500 0.000770 
#    z 0.004730 0.000770 1.898500 
# 
# From -- ./inp_files/110748.got.cif
#   From: 2010.06.25/outbox.cif.g09.slc.cpg/sg2_56_cif.got.tgz:110748.got - 2010.06.27 13:26:56.
