data_PCOD8007194
_publ_section_title
;
Structure prediction by ZEFSAII (Michael W. Deem and Ramdas Pophale) SiO2 
 PCOD8007194
Probable space group: P -1
;
_chemical_formula_sum "Si O2"
_cell_formula_units_Z 16
_cell_length_a 8.781839
_cell_length_b 15.289336
_cell_length_c 7.829794
_cell_angle_alpha 134.505356
_cell_angle_beta 107.637594
_cell_angle_gamma 90.277238
_cell_volume 677.043349
_symmetry_space_group_name_H-M "P -1"
_symmetry_group_IT_number 2
_symmetry_cell_setting 'triclinic'
loop_
_space_group_symop_operation_xyz
x,y,z
-x,-y,-z
loop_
_atom_site_type_symbol
_atom_site_label
_atom_site_fract_x
_atom_site_fract_y
_atom_site_fract_z
Si Si1 0.290745 0.295398 0.266443
Si Si2 0.426250 0.247549 0.892228
Si Si3 0.401790 0.929556 0.123429
Si Si4 0.559366 0.198131 0.393131
Si Si5 0.147132 0.290077 0.677102
Si Si6 0.092916 0.624880 0.095851
Si Si7 0.274153 0.514941 0.785198
Si Si8 0.022338 0.872873 0.910161
O O1 0.415480 0.265147 0.407264
O O2 0.258134 0.429674 0.491495
O O3 0.111508 0.179965 0.054203
O O4 0.374190 0.307520 0.127543
O O5 0.492554 0.126695 0.783308
O O6 0.262889 0.202762 0.651743
O O7 0.558210 0.364056 0.998679
O O8 0.490424 0.083604 0.352227
O O9 0.398730 0.861827 0.848526
O O10 0.209712 0.895650 0.076197
O O11 0.724870 0.302028 0.662534
O O12 0.267035 0.430216 0.840054
O O13 0.035810 0.292708 0.814360
O O14 0.018991 0.230709 0.399108
O O15 0.122654 0.579878 0.850813
O O16 0.000000 0.500000 0.000000
O O17 0.000000 0.000000 0.000000
#
# Coordination Sequence:
#
# PCOD8007194 Si02
#       8
#     2   2   2   2   2   2   2   2
#     4  10  23  39  67  97 130 174 226 275 331 394
#     4  11  24  42  64 101 137 172 219 285 333 389
#     4  10  22  41  67  97 131 174 223 268 333 394
#     4  10  20  40  68  93 128 177 220 266 330 402
#     4  10  23  42  65  97 131 177 223 276 335 399
#     4  10  22  39  67  97 129 173 226 273 320 399
#     4  10  23  41  65  94 131 181 221 271 337 406
#     4  11  21  42  71  97 127 180 228 266 329 410
#
# _framework density 23.632165000000001
#
# number of rings (size 3 to 8) (size 9 to 14) (size 15 to 20)
#    0.000    1.750    2.500    0.750    7.000    1.000 
#    0.000    8.125    0.000    0.000    0.000    0.000 
#    0.000    0.000    0.000    0.000    0.000    0.000 
#
# Total GULP energy -198266.911490 kJ/mol
# GULP energy per Si atom -12391.681968 kJ/mol
# Density = 2.357838 g / cm^3
# Si number density = 23.632165 Si / 1000 Ang^3
#
#
#
# Elastic Constant Matrix: (Units=GPa)
#
#
# Indices 1 2 3 4 5 6 
#
# 1 154.2930 50.4216 22.9205 4.9869 14.4277 7.8124
# 2 50.4216 75.8008 22.6714 3.2739 16.4962 -4.4917
# 3 22.9205 22.6714 49.7031 20.6437 16.1314 4.4218
# 4 4.9869 3.2739 20.6437 29.3857 7.7779 4.2920
# 5 14.4277 16.4962 16.1314 7.7779 46.2716 -3.2122
# 6 7.8124 -4.4917 4.4218 4.2920 -3.2122 29.9563
#
#
#
# Elastic Compliance Matrix: (Units=1/GPa)
#
#
# Indices 1 2 3 4 5 6 
#
# 1 0.008641 -0.005427 -0.001315 0.000671 -0.000624 -0.003036
# 2 -0.005427 0.019883 -0.007758 0.004305 -0.003096 0.004593
# 3 -0.001315 -0.007758 0.035520 -0.021814 -0.005788 -0.003559
# 4 0.000671 0.004305 -0.021814 0.050059 -0.002816 -0.003784
# 5 -0.000624 -0.003096 -0.005788 -0.002816 0.025659 0.003708
# 6 -0.003036 0.004593 -0.003559 -0.003784 0.003708 0.036327
#
#
# Mechanical properties :
#
#
# Convention : Reuss Voigt Hill
#
# Bulk Modulus (GPa) = 28.53666 52.42487 40.48077
# Shear Modulus (GPa) = 23.06593 33.37495 28.22044
#
# Velocity S-wave (km/s) = 3.12755 3.76209 3.45940
# Velocity P-wave (km/s) = 5.01435 6.41116 5.75529
#
# Compressibility (1/GPa) = 0.03504264
#
# Stress axis : x y z
#
# Youngs Moduli (GPa) = 115.73377 50.29391 28.15343
#
# Poissons Ratio (x) = 0.27296 0.03702
# Poissons Ratio (y) = 0.62812 0.21842
# Poissons Ratio (z) = 0.15216 0.39019
#
# Static dielectric constant tensor:
#      x y z
#    x 5.184870 0.010690 -0.205270 
#    y 0.010690 4.115610 0.292500 
#    z -0.205270 0.292500 4.215420 
# 
# 
# High freq. dielectric constant tensor:
#      x y z
#    x 1.968070 0.010390 -0.011460 
#    y 0.010390 1.913430 0.017650 
#    z -0.011460 0.017650 1.922190 
# 
# From -- ./inp_files/204425.got.cif
#   From: 2010.06.25/outbox.cif.g09.slc.cpg/sg2_103_cif.got.tgz:204425.got - 2010.06.27 13:26:56.
