data_PCOD8007977
_publ_section_title
;
Structure prediction by ZEFSAII (Michael W. Deem and Ramdas Pophale) SiO2 
 PCOD8007977
Probable space group: P -1
;
_chemical_formula_sum "Si O2"
_cell_formula_units_Z 16
_cell_length_a 17.232848
_cell_length_b 8.690776
_cell_length_c 20.151008
_cell_angle_alpha 127.060472
_cell_angle_beta 161.000910
_cell_angle_gamma 51.370338
_cell_volume 766.619236
_symmetry_space_group_name_H-M "P -1"
_symmetry_group_IT_number 2
_symmetry_cell_setting 'triclinic'
loop_
_space_group_symop_operation_xyz
x,y,z
-x,-y,-z
loop_
_atom_site_type_symbol
_atom_site_label
_atom_site_fract_x
_atom_site_fract_y
_atom_site_fract_z
Si Si1 0.321888 0.211467 0.405008
Si Si2 0.938252 0.816973 0.683385
Si Si3 0.790185 0.152208 0.555023
Si Si4 0.944009 0.888708 0.488559
Si Si5 0.203117 0.486451 0.604854
Si Si6 0.105176 0.489151 0.191741
Si Si7 0.511238 0.306875 0.915307
Si Si8 0.629859 0.528079 0.734729
O O1 0.105082 0.199295 0.277668
O O2 0.202791 0.278354 0.253415
O O3 0.469374 0.375647 0.588863
O O4 0.500000 0.000000 0.500000
O O5 0.865841 0.625251 0.543788
O O6 0.771749 0.014189 0.567961
O O7 0.218689 0.827635 0.899151
O O8 0.907723 0.335251 0.719958
O O9 0.524507 0.246140 0.333313
O O10 0.948513 0.016599 0.592006
O O11 0.688565 0.816376 0.255115
O O12 0.187371 0.714909 0.636747
O O13 0.000000 0.000000 0.500000
O O14 0.459593 0.375957 0.814725
O O15 0.000000 0.500000 0.500000
O O16 0.278190 0.521138 0.278945
O O17 0.837374 0.503263 0.950831
O O18 0.500000 0.500000 0.000000
#
# Coordination Sequence:
#
# PCOD8007977 Si02
#       8
#     2   2   2   2   2   2   2   2
#     4  11  24  43  66  97 130 165 216 272 319 383
#     4  12  23  39  67  94 128 174 222 260 325 390
#     4  11  22  41  65  91 131 170 211 260 330 378
#     4  11  24  42  64  95 130 174 220 269 318 383
#     4  10  20  42  62  89 132 171 212 267 324 378
#     4  10  23  43  67  94 128 165 214 261 334 389
#     4  11  21  41  67  90 130 177 216 267 325 380
#     4  10  23  44  66  93 129 167 206 270 329 391
#
# _framework density 20.870857000000001
#
# number of rings (size 3 to 8) (size 9 to 14) (size 15 to 20)
#    0.000    1.250    5.000    3.000    5.250    1.500 
#    0.000    2.500    0.000    0.000    0.000    0.000 
#    0.000    0.000    0.000    0.000    0.000    0.000 
#
# Total GULP energy -198270.100682 kJ/mol
# GULP energy per Si atom -12391.881293 kJ/mol
# Density = 2.082335 g / cm^3
# Si number density = 20.870857 Si / 1000 Ang^3
#
#
#
# Elastic Constant Matrix: (Units=GPa)
#
#
# Indices 1 2 3 4 5 6 
#
# 1 95.8137 41.9541 41.5143 1.7283 -4.9371 23.5962
# 2 41.9541 146.0637 49.1627 -16.2976 -6.2505 18.6729
# 3 41.5143 49.1627 108.7744 -14.9193 -13.1020 6.9565
# 4 1.7283 -16.2976 -14.9193 33.5720 3.5306 -7.6357
# 5 -4.9371 -6.2505 -13.1020 3.5306 33.4022 0.7639
# 6 23.5962 18.6729 6.9565 -7.6357 0.7639 37.2916
#
#
#
# Elastic Compliance Matrix: (Units=1/GPa)
#
#
# Indices 1 2 3 4 5 6 
#
# 1 0.016290 -0.002368 -0.005352 -0.006608 0.000781 -0.009492
# 2 -0.002368 0.008980 -0.002634 0.002870 0.000038 -0.001920
# 3 -0.005352 -0.002634 0.013348 0.005316 0.003316 0.003236
# 4 -0.006608 0.002870 0.005316 0.036231 -0.002395 0.009220
# 5 0.000781 0.000038 0.003316 -0.002395 0.031666 -0.002271
# 6 -0.009492 -0.001920 0.003236 0.009220 -0.002271 0.035114
#
#
# Mechanical properties :
#
#
# Convention : Reuss Voigt Hill
#
# Bulk Modulus (GPa) = 55.83420 68.43489 62.13455
# Shear Modulus (GPa) = 29.70738 35.38787 32.54762
#
# Velocity S-wave (km/s) = 3.77688 4.12219 3.95331
# Velocity P-wave (km/s) = 6.76979 7.45100 7.11855
#
# Compressibility (1/GPa) = 0.01791017
#
# Stress axis : x y z
#
# Youngs Moduli (GPa) = 61.38810 111.35347 74.91711
#
# Poissons Ratio (x) = 0.26367 0.40096
# Poissons Ratio (y) = 0.14536 0.19734
# Poissons Ratio (z) = 0.32855 0.29332
#
# Static dielectric constant tensor:
#      x y z
#    x 3.541660 -1.469810 0.748610 
#    y -1.469810 -6.150980 5.797460 
#    z 0.748610 5.797460 0.261630 
# 
# 
# High freq. dielectric constant tensor:
#      x y z
#    x 1.808520 0.005720 -0.016150 
#    y 0.005720 1.833730 -0.013080 
#    z -0.016150 -0.013080 1.806970 
# 
# From -- ./inp_files/539463.got.cif
#   From: 2010.06.25/outbox.cif.g09.slc.cpg/sg2_270_cif.got.tgz:539463.got - 2010.06.27 13:26:56.
