data_PCOD8007360
_publ_section_title
;
Structure prediction by ZEFSAII (Michael W. Deem and Ramdas Pophale) SiO2 
 PCOD8007360
Probable space group: P -1
;
_chemical_formula_sum "Si O2"
_cell_formula_units_Z 14
_cell_length_a 12.383900
_cell_length_b 21.315302
_cell_length_c 9.206275
_cell_angle_alpha 143.964331
_cell_angle_beta 142.860305
_cell_angle_gamma 29.905420
_cell_volume 673.351580
_symmetry_space_group_name_H-M "P -1"
_symmetry_group_IT_number 2
_symmetry_cell_setting 'triclinic'
loop_
_space_group_symop_operation_xyz
x,y,z
-x,-y,-z
loop_
_atom_site_type_symbol
_atom_site_label
_atom_site_fract_x
_atom_site_fract_y
_atom_site_fract_z
Si Si1 0.909060 0.191116 0.460677
Si Si2 0.882520 0.580553 0.171477
Si Si3 0.587870 0.337828 0.136203
Si Si4 0.946017 0.101660 0.899770
Si Si5 0.721598 0.481255 0.344154
Si Si6 0.754491 0.864579 0.520257
Si Si7 0.225747 0.711023 0.190138
O O1 0.677128 0.305510 0.337582
O O2 0.898548 0.252108 0.719268
O O3 0.130678 0.151787 0.541767
O O4 0.928364 0.057217 0.250768
O O5 0.752087 0.739749 0.306341
O O6 0.074931 0.516733 0.383449
O O7 0.687170 0.569261 0.988867
O O8 0.000000 0.500000 0.000000
O O9 0.662647 0.419328 0.292299
O O10 0.710412 0.193223 0.912739
O O11 0.889690 0.149269 0.761272
O O12 0.110728 0.131705 0.195965
O O13 0.496651 0.635789 0.359146
O O14 0.800846 0.390906 0.113950
O O15 0.500000 0.000000 0.500000
#
# Coordination Sequence:
#
# PCOD8007360 Si02
#       7
#     2   2   2   2   2   2   2
#     4  11  20  36  68  93 117 164 212 253 310 369
#     4  12  23  37  66  97 122 158 215 263 302 364
#     4  10  21  39  66  89 120 160 207 258 309 355
#     4  10  20  41  61  89 123 166 201 250 318 371
#     4  10  22  43  61  88 128 169 198 254 315 366
#     4  11  22  40  63  91 128 158 209 267 309 360
#     4  10  21  38  63  85 130 166 199 250 313 375
#
# _framework density 20.791518
#
# number of rings (size 3 to 8) (size 9 to 14) (size 15 to 20)
#    0.000    1.429    4.286    4.714    2.000    1.143 
#    0.000    7.143   12.571    0.000    0.000    0.000 
#    0.000    0.000    0.000    0.000    0.000    0.000 
#
# Total GULP energy -173629.403021 kJ/mol
# GULP energy per Si atom -12402.100216 kJ/mol
# Density = 2.074420 g / cm^3
# Si number density = 20.791518 Si / 1000 Ang^3
#
#
#
# Elastic Constant Matrix: (Units=GPa)
#
#
# Indices 1 2 3 4 5 6 
#
# 1 97.0610 35.1201 48.3689 -24.9917 -20.6866 -5.0513
# 2 35.1201 96.5287 30.3634 -27.4457 -6.0122 -4.2775
# 3 48.3689 30.3634 77.2880 -22.9779 -20.0784 -10.8596
# 4 -24.9917 -27.4457 -22.9779 37.1258 0.8793 6.4889
# 5 -20.6866 -6.0122 -20.0784 0.8793 38.4931 -6.2692
# 6 -5.0513 -4.2775 -10.8596 6.4889 -6.2692 41.9751
#
#
#
# Elastic Compliance Matrix: (Units=1/GPa)
#
#
# Indices 1 2 3 4 5 6 
#
# 1 0.016986 -0.002151 -0.006829 0.005502 0.005100 -0.000031
# 2 -0.002151 0.013918 -0.001984 0.007723 -0.000290 -0.000591
# 3 -0.006829 -0.001984 0.023110 0.007131 0.008752 0.005160
# 4 0.005502 0.007723 0.007131 0.040964 0.006613 -0.002051
# 5 0.005100 -0.000290 0.008752 0.006613 0.034218 0.006937
# 6 -0.000031 -0.000591 0.005160 -0.002051 0.006937 0.026448
#
#
# Mechanical properties :
#
#
# Convention : Reuss Voigt Hill
#
# Bulk Modulus (GPa) = 31.16532 55.39808 43.28170
# Shear Modulus (GPa) = 26.55779 33.98716 30.27247
#
# Velocity S-wave (km/s) = 3.57786 4.04748 3.81990
# Velocity P-wave (km/s) = 5.66481 6.96744 6.34962
#
# Compressibility (1/GPa) = 0.03208695
#
# Stress axis : x y z
#
# Youngs Moduli (GPa) = 58.87042 71.84938 43.27044
#
# Poissons Ratio (x) = 0.15458 0.29549
# Poissons Ratio (y) = 0.12666 0.08583
# Poissons Ratio (z) = 0.40203 0.14252
#
# Static dielectric constant tensor:
#      x y z
#    x 3.817970 -0.310910 -0.063960 
#    y -0.310910 4.747670 -0.300320 
#    z -0.063960 -0.300320 3.782520 
# 
# 
# High freq. dielectric constant tensor:
#      x y z
#    x 1.800970 0.001210 -0.016890 
#    y 0.001210 1.830470 -0.001550 
#    z -0.016890 -0.001550 1.802580 
# 
# From -- ./inp_files/205165.got.cif
#   From: 2010.06.25/outbox.cif.g09.slc.cpg/sg2_103_cif.got.tgz:205165.got - 2010.06.27 13:26:56.
