data_PCOD8007209
_publ_section_title
;
Structure prediction by ZEFSAII (Michael W. Deem and Ramdas Pophale) SiO2 
 PCOD8007209
Probable space group: P -1
;
_chemical_formula_sum "Si O2"
_cell_formula_units_Z 14
_cell_length_a 12.443003
_cell_length_b 7.496676
_cell_length_c 7.091330
_cell_angle_alpha 121.607076
_cell_angle_beta 92.114341
_cell_angle_gamma 88.726006
_cell_volume 562.977105
_symmetry_space_group_name_H-M "P -1"
_symmetry_group_IT_number 2
_symmetry_cell_setting 'triclinic'
loop_
_space_group_symop_operation_xyz
x,y,z
-x,-y,-z
loop_
_atom_site_type_symbol
_atom_site_label
_atom_site_fract_x
_atom_site_fract_y
_atom_site_fract_z
Si Si1 0.780478 0.574696 0.506660
Si Si2 0.884539 0.150616 0.373900
Si Si3 0.314904 0.834160 0.186768
Si Si4 0.659291 0.986506 0.321062
Si Si5 0.417220 0.679175 0.759815
Si Si6 0.105207 0.015061 0.314146
Si Si7 0.355456 0.399858 0.139262
O O1 0.866466 0.391216 0.450880
O O2 0.680159 0.487680 0.329612
O O3 0.843197 0.757340 0.501935
O O4 0.732965 0.670522 0.752598
O O5 0.990942 0.054681 0.222014
O O6 0.777751 0.017281 0.256216
O O7 0.913141 0.131248 0.586370
O O8 0.312737 0.611778 0.164827
O O9 0.343533 0.007141 0.446676
O O10 0.194944 0.888779 0.126431
O O11 0.400036 0.839045 0.025347
O O12 0.585474 0.179489 0.350184
O O13 0.620326 0.764383 0.117295
O O14 0.531855 0.563409 0.721338
#
# Coordination Sequence:
#
# PCOD8007209 Si02
#       7
#     2   2   2   2   2   2   2
#     4  11  22  41  71  98 133 176 223 269 334 399
#     4   9  20  42  64  97 137 164 222 282 319 401
#     4  11  24  43  63  99 133 169 229 271 320 407
#     4  10  23  43  66  93 135 172 221 277 326 392
#     4  11  24  43  65  97 135 177 223 271 332 394
#     4  10  20  40  68  96 132 175 215 276 338 384
#     4  12  23  44  66  94 139 176 215 281 327 385
#
# _framework density 24.867794
#
# number of rings (size 3 to 8) (size 9 to 14) (size 15 to 20)
#    0.000    1.429    4.286    2.571    4.000    0.571 
#    0.000    8.571    0.000    0.000    0.000    0.000 
#    0.000    0.000    0.000    0.000    0.000    0.000 
#
# Total GULP energy -173511.248871 kJ/mol
# GULP energy per Si atom -12393.660634 kJ/mol
# Density = 2.481119 g / cm^3
# Si number density = 24.867794 Si / 1000 Ang^3
#
#
#
# Elastic Constant Matrix: (Units=GPa)
#
#
# Indices 1 2 3 4 5 6 
#
# 1 124.2228 39.5562 -6.2519 15.7536 -14.8704 -38.1908
# 2 39.5562 67.9176 -0.7597 9.2317 -6.7364 -20.4322
# 3 -6.2519 -0.7597 56.4327 -2.0749 -3.4196 -3.4084
# 4 15.7536 9.2317 -2.0749 32.7450 8.0297 -10.2417
# 5 -14.8704 -6.7364 -3.4196 8.0297 27.7589 10.4202
# 6 -38.1908 -20.4322 -3.4084 -10.2417 10.4202 33.6401
#
#
#
# Elastic Compliance Matrix: (Units=1/GPa)
#
#
# Indices 1 2 3 4 5 6 
#
# 1 0.013641 -0.003754 0.002263 -0.002392 0.002939 0.011798
# 2 -0.003754 0.019227 0.000228 -0.001644 0.000627 0.006745
# 3 0.002263 0.000228 0.018372 0.000985 0.001605 0.004372
# 4 -0.002392 -0.001644 0.000985 0.041631 -0.019240 0.015020
# 5 0.002939 0.000627 0.001605 -0.019240 0.050079 -0.017490
# 6 0.011798 0.006745 0.004372 0.015020 -0.017490 0.057650
#
#
# Mechanical properties :
#
#
# Convention : Reuss Voigt Hill
#
# Bulk Modulus (GPa) = 20.52751 34.85139 27.68945
# Shear Modulus (GPa) = 22.79305 33.23071 28.01188
#
# Velocity S-wave (km/s) = 3.03077 3.65950 3.35988
# Velocity P-wave (km/s) = 4.52990 5.64810 5.11962
#
# Compressibility (1/GPa) = 0.04871511
#
# Stress axis : x y z
#
# Youngs Moduli (GPa) = 73.30585 52.00914 54.43197
#
# Poissons Ratio (x) = 0.19524 -0.12320
# Poissons Ratio (y) = 0.27518 -0.01240
# Poissons Ratio (z) = -0.16592 -0.01185
#
# Static dielectric constant tensor:
#      x y z
#    x 4.850070 -0.413320 -0.224710 
#    y -0.413320 4.359030 -0.055890 
#    z -0.224710 -0.055890 4.450900 
# 
# 
# High freq. dielectric constant tensor:
#      x y z
#    x 1.995020 -0.026230 -0.016100 
#    y -0.026230 1.994610 0.002110 
#    z -0.016100 0.002110 1.965250 
# 
# From -- ./inp_files/245965.got.cif
#   From: 2010.06.25/outbox.cif.g09.slc.cpg/sg2_123_cif.got.tgz:245965.got - 2010.06.27 13:26:56.
