data_PCOD8007008
_publ_section_title
;
Structure prediction by ZEFSAII (Michael W. Deem and Ramdas Pophale) SiO2 
 PCOD8007008
Probable space group: P -1
;
_chemical_formula_sum "Si O2"
_cell_formula_units_Z 14
_cell_length_a 12.073465
_cell_length_b 7.859191
_cell_length_c 11.999607
_cell_angle_alpha 79.457291
_cell_angle_beta 78.962562
_cell_angle_gamma 39.234176
_cell_volume 705.739031
_symmetry_space_group_name_H-M "P -1"
_symmetry_group_IT_number 2
_symmetry_cell_setting 'triclinic'
loop_
_space_group_symop_operation_xyz
x,y,z
-x,-y,-z
loop_
_atom_site_type_symbol
_atom_site_label
_atom_site_fract_x
_atom_site_fract_y
_atom_site_fract_z
Si Si1 0.267963 0.503045 0.285279
Si Si2 0.463359 0.698047 0.565567
Si Si3 0.747092 0.841038 0.187880
Si Si4 0.123014 0.015014 0.724616
Si Si5 0.486833 0.939768 0.346357
Si Si6 0.705750 0.533739 0.168018
Si Si7 0.448568 0.365167 0.047283
O O1 0.391022 0.474710 0.344739
O O2 0.302183 0.254901 0.320197
O O3 0.298204 0.531372 0.150057
O O4 0.065492 0.778458 0.322381
O O5 0.500000 0.500000 0.500000
O O6 0.265789 0.900993 0.620541
O O7 0.482483 0.857796 0.477628
O O8 0.887623 0.821405 0.197693
O O9 0.826808 0.565261 0.159556
O O10 0.628691 0.933343 0.310891
O O11 0.620259 0.060812 0.089681
O O12 0.174572 0.774135 0.801200
O O13 0.542750 0.733976 0.264579
O O14 0.625045 0.635029 0.049460
O O15 0.500000 0.500000 0.000000
#
# Coordination Sequence:
#
# PCOD8007008 Si02
#       7
#     2   2   2   2   2   2   2
#     4  11  26  40  62 100 124 161 217 258 313 378
#     4  12  21  43  67  88 126 171 209 258 315 370
#     4   9  20  39  63  90 125 163 208 254 310 368
#     4  12  23  43  64  95 131 162 208 264 317 368
#     4   9  21  40  67  87 125 166 210 254 310 373
#     4  10  20  40  66  92 124 168 211 256 302 384
#     4  11  19  39  71  88 125 174 207 253 319 368
#
# _framework density 19.837361999999999
#
# number of rings (size 3 to 8) (size 9 to 14) (size 15 to 20)
#    0.857    0.571    5.714    0.857    0.000    1.714 
#    2.571    0.714    0.000    0.000    0.000    0.000 
#    0.000    0.000    0.000    0.000    0.000    0.000 
#
# Total GULP energy -173481.193886 kJ/mol
# GULP energy per Si atom -12391.513849 kJ/mol
# Density = 1.979221 g / cm^3
# Si number density = 19.837362 Si / 1000 Ang^3
#
#
#
# Elastic Constant Matrix: (Units=GPa)
#
#
# Indices 1 2 3 4 5 6 
#
# 1 96.5928 51.4820 26.2092 2.5177 2.4821 14.0654
# 2 51.4820 84.6418 29.7113 -5.8717 -0.5268 -5.6358
# 3 26.2092 29.7113 86.0950 -4.6290 -0.2705 -6.6442
# 4 2.5177 -5.8717 -4.6290 21.9776 12.9930 -5.1737
# 5 2.4821 -0.5268 -0.2705 12.9930 29.7190 -4.0334
# 6 14.0654 -5.6358 -6.6442 -5.1737 -4.0334 42.3060
#
#
#
# Elastic Compliance Matrix: (Units=1/GPa)
#
#
# Indices 1 2 3 4 5 6 
#
# 1 0.018929 -0.011698 -0.002894 -0.008456 0.000623 -0.009281
# 2 -0.011698 0.020952 -0.002630 0.009063 -0.001658 0.007217
# 3 -0.002894 -0.002630 0.013852 0.003841 -0.000928 0.003169
# 4 -0.008456 0.009063 0.003841 0.068473 -0.027628 0.010362
# 5 0.000623 -0.001658 -0.000928 -0.027628 0.045692 0.000404
# 6 -0.009281 0.007217 0.003169 0.010362 0.000404 0.029488
#
#
# Mechanical properties :
#
#
# Convention : Reuss Voigt Hill
#
# Bulk Modulus (GPa) = 51.84683 53.57052 52.70868
# Shear Modulus (GPa) = 20.98556 29.46232 25.22394
#
# Velocity S-wave (km/s) = 3.25604 3.85800 3.56973
# Velocity P-wave (km/s) = 6.35046 6.84902 6.60445
#
# Compressibility (1/GPa) = 0.01928758
#
# Stress axis : x y z
#
# Youngs Moduli (GPa) = 52.83027 47.72888 72.19157
#
# Poissons Ratio (x) = 0.55832 0.20895
# Poissons Ratio (y) = 0.61799 0.18988
# Poissons Ratio (z) = 0.15291 0.12554
#
# Static dielectric constant tensor:
#      x y z
#    x 3.645890 0.355240 0.022300 
#    y 0.355240 3.514930 -0.044470 
#    z 0.022300 -0.044470 3.762020 
# 
# 
# High freq. dielectric constant tensor:
#      x y z
#    x 1.769440 0.033480 0.001360 
#    y 0.033480 1.757530 -0.005020 
#    z 0.001360 -0.005020 1.778280 
# 
# From -- ./inp_files/414665.got.cif
#   From: 2010.06.25/outbox.cif.g09.slc.cpg/sg2_208_cif.got.tgz:414665.got - 2010.06.27 13:26:56.
