data_PCOD8007829
_publ_section_title
;
Structure prediction by ZEFSAII (Michael W. Deem and Ramdas Pophale) SiO2 
 PCOD8007829
Probable space group: P -1
;
_chemical_formula_sum "Si O2"
_cell_formula_units_Z 16
_cell_length_a 9.307441
_cell_length_b 15.325484
_cell_length_c 9.379284
_cell_angle_alpha 93.557346
_cell_angle_beta 43.702197
_cell_angle_gamma 70.174788
_cell_volume 766.281723
_symmetry_space_group_name_H-M "P -1"
_symmetry_group_IT_number 2
_symmetry_cell_setting 'triclinic'
loop_
_space_group_symop_operation_xyz
x,y,z
-x,-y,-z
loop_
_atom_site_type_symbol
_atom_site_label
_atom_site_fract_x
_atom_site_fract_y
_atom_site_fract_z
Si Si1 0.229488 0.069936 0.132978
Si Si2 0.729459 0.231972 0.668910
Si Si3 0.544595 0.612830 0.367478
Si Si4 0.161388 0.620253 0.844755
Si Si5 0.097091 0.753228 0.157484
Si Si6 0.636785 0.817059 0.169998
Si Si7 0.598194 0.781445 0.494863
Si Si8 0.136807 0.924386 0.023850
O O1 0.015576 0.158626 0.399027
O O2 0.144440 0.992123 0.151824
O O3 0.254001 0.121503 0.975551
O O4 0.500000 0.000000 0.000000
O O5 0.558266 0.334058 0.706348
O O6 0.582377 0.173098 0.770167
O O7 0.729687 0.270902 0.831711
O O8 0.317399 0.610605 0.594734
O O9 0.783146 0.493380 0.165413
O O10 0.615612 0.676597 0.424639
O O11 0.241244 0.664789 0.923432
O O12 0.867458 0.696339 0.024324
O O13 0.856662 0.753367 0.374760
O O14 0.004807 0.868035 0.171501
O O15 0.523740 0.858269 0.415645
O O16 0.410853 0.834362 0.764871
O O17 0.000000 0.000000 0.000000
#
# Coordination Sequence:
#
# PCOD8007829 Si02
#       8
#     2   2   2   2   2   2   2   2
#     4  12  25  40  60  86 128 169 203 249 308 360
#     4  11  24  41  62  93 129 161 205 251 306 369
#     4  10  20  41  69  90 120 162 204 249 309 375
#     4  10  20  41  69  91 119 161 205 252 307 366
#     4  11  24  39  60  92 126 157 201 255 305 359
#     4  10  22  40  64  91 120 164 210 247 303 370
#     4  10  22  38  62  90 119 158 205 254 300 361
#     4  12  23  38  60  86 122 159 210 258 297 350
#
# _framework density 20.880049
#
# number of rings (size 3 to 8) (size 9 to 14) (size 15 to 20)
#    0.000    1.250    2.500    4.500    0.000   11.000 
#    0.000    0.000    0.000    3.000    0.000    0.000 
#    0.000    0.000    0.000    0.000    0.000    0.000 
#
# Total GULP energy -198344.607247 kJ/mol
# GULP energy per Si atom -12396.537953 kJ/mol
# Density = 2.083253 g / cm^3
# Si number density = 20.880049 Si / 1000 Ang^3
#
#
#
# Elastic Constant Matrix: (Units=GPa)
#
#
# Indices 1 2 3 4 5 6 
#
# 1 107.8971 15.4480 15.0930 4.9546 2.8956 -4.0990
# 2 15.4480 104.1551 24.2103 9.7692 -1.1563 -0.5124
# 3 15.0930 24.2103 47.4250 1.0939 -0.7783 -2.6708
# 4 4.9546 9.7692 1.0939 26.7795 2.3480 -3.3609
# 5 2.8956 -1.1563 -0.7783 2.3480 34.6411 -0.1877
# 6 -4.0990 -0.5124 -2.6708 -3.3609 -0.1877 23.7381
#
#
#
# Elastic Compliance Matrix: (Units=1/GPa)
#
#
# Indices 1 2 3 4 5 6 
#
# 1 0.009872 -0.000727 -0.002688 -0.001228 -0.000820 0.001206
# 2 -0.000727 0.011368 -0.005530 -0.003970 0.000579 -0.001060
# 3 -0.002688 -0.005530 0.024871 0.001766 0.000493 0.002469
# 4 -0.001228 -0.003970 0.001766 0.039872 -0.002663 0.005525
# 5 -0.000820 0.000579 0.000493 -0.002663 0.029146 -0.000220
# 6 0.001206 -0.001060 0.002469 0.005525 -0.000220 0.043370
#
#
# Mechanical properties :
#
#
# Convention : Reuss Voigt Hill
#
# Bulk Modulus (GPa) = 35.43566 40.99776 38.21671
# Shear Modulus (GPa) = 26.91098 30.68013 28.79556
#
# Velocity S-wave (km/s) = 3.59393 3.83737 3.71764
# Velocity P-wave (km/s) = 5.85062 6.26988 6.06387
#
# Compressibility (1/GPa) = 0.02822016
#
# Stress axis : x y z
#
# Youngs Moduli (GPa) = 101.29206 87.96529 40.20752
#
# Poissons Ratio (x) = 0.06399 0.10807
# Poissons Ratio (y) = 0.07369 0.22237
# Poissons Ratio (z) = 0.27225 0.48649
#
# Static dielectric constant tensor:
#      x y z
#    x 3.593760 0.116250 -0.116810 
#    y 0.116250 3.901600 -0.124020 
#    z -0.116810 -0.124020 3.987470 
# 
# 
# High freq. dielectric constant tensor:
#      x y z
#    x 1.814110 0.011200 -0.007690 
#    y 0.011200 1.816920 -0.013800 
#    z -0.007690 -0.013800 1.819660 
# 
# From -- ./inp_files/207530.got.cif
#   From: 2010.06.25/outbox.cif.g09.slc.cpg/sg2_104_cif.got.tgz:207530.got - 2010.06.27 13:26:56.
