data_PCOD8007550
_publ_section_title
;
Structure prediction by ZEFSAII (Michael W. Deem and Ramdas Pophale) SiO2 
 PCOD8007550
Probable space group: P -1
;
_chemical_formula_sum "Si O2"
_cell_formula_units_Z 16
_cell_length_a 22.041655
_cell_length_b 25.570630
_cell_length_c 9.318792
_cell_angle_alpha 25.547267
_cell_angle_beta 35.270937
_cell_angle_gamma 18.530136
_cell_volume 690.046543
_symmetry_space_group_name_H-M "P -1"
_symmetry_group_IT_number 2
_symmetry_cell_setting 'triclinic'
loop_
_space_group_symop_operation_xyz
x,y,z
-x,-y,-z
loop_
_atom_site_type_symbol
_atom_site_label
_atom_site_fract_x
_atom_site_fract_y
_atom_site_fract_z
Si Si1 0.548188 0.852283 0.153340
Si Si2 0.837073 0.482375 0.024341
Si Si3 0.858287 0.036394 0.620906
Si Si4 0.475843 0.631179 0.109630
Si Si5 0.399211 0.850812 0.967330
Si Si6 0.197049 0.297913 0.213520
Si Si7 0.180035 0.544490 0.190308
Si Si8 0.770486 0.050237 0.453470
O O1 0.749306 0.595262 0.460912
O O2 0.371235 0.927240 0.296111
O O3 0.609628 0.841682 0.903550
O O4 0.500000 0.000000 0.000000
O O5 0.014542 0.209736 0.371077
O O6 0.628825 0.633554 0.110109
O O7 0.870950 0.566460 0.847005
O O8 0.812620 0.543467 0.752103
O O9 0.791948 0.118900 0.379394
O O10 0.000000 0.000000 0.500000
O O11 0.958839 0.805007 0.002584
O O12 0.671408 0.199173 0.683311
O O13 0.500000 0.500000 0.500000
O O14 0.385376 0.835667 0.862519
O O15 0.694014 0.453834 0.072750
O O16 0.323657 0.765502 0.938378
O O17 0.264147 0.101691 0.628213
O O18 0.000000 0.500000 0.000000
#
# Coordination Sequence:
#
# PCOD8007550 Si02
#       8
#     2   2   2   2   2   2   2   2
#     4  11  21  39  64  94 130 168 208 260 317 382
#     4  10  21  40  62  91 128 167 206 256 321 389
#     4  11  23  43  65  91 126 169 216 269 319 370
#     4  10  20  41  65  88 120 162 209 265 318 369
#     4  11  23  40  62  92 128 164 212 267 315 382
#     4  12  23  38  61  95 130 168 208 259 323 384
#     4   9  21  39  60  87 122 161 208 258 312 377
#     4  10  23  42  66  96 127 167 218 260 318 393
#
# _framework density 23.186843
#
# number of rings (size 3 to 8) (size 9 to 14) (size 15 to 20)
#    0.000    1.500    0.000    6.375    0.000    1.000 
#    0.000   25.625    0.000    0.000    0.000    0.000 
#    0.000    0.000    0.000    0.000    0.000    0.000 
#
# Total GULP energy -198249.880540 kJ/mol
# GULP energy per Si atom -12390.617534 kJ/mol
# Density = 2.313407 g / cm^3
# Si number density = 23.186843 Si / 1000 Ang^3
#
#
#
# Elastic Constant Matrix: (Units=GPa)
#
#
# Indices 1 2 3 4 5 6 
#
# 1 153.7872 26.4299 27.9547 -1.2409 12.0388 -10.6505
# 2 26.4299 90.0241 23.9027 -1.5213 6.9074 -7.4503
# 3 27.9547 23.9027 88.0759 8.9057 21.1126 -10.8528
# 4 -1.2409 -1.5213 8.9057 32.5785 -6.5608 2.0634
# 5 12.0388 6.9074 21.1126 -6.5608 29.0905 -4.5327
# 6 -10.6505 -7.4503 -10.8528 2.0634 -4.5327 31.9599
#
#
#
# Elastic Compliance Matrix: (Units=1/GPa)
#
#
# Indices 1 2 3 4 5 6 
#
# 1 0.007223 -0.001526 -0.001414 0.000235 -0.001335 0.001367
# 2 -0.001526 0.012445 -0.002931 0.001301 0.000309 0.001357
# 3 -0.001414 -0.002931 0.016597 -0.007333 -0.011909 0.003266
# 4 0.000235 0.001301 -0.007333 0.035453 0.012503 -0.002624
# 5 -0.001335 0.000309 -0.011909 0.012503 0.046532 0.001375
# 6 0.001367 0.001357 0.003266 -0.002624 0.001375 0.033534
#
#
# Mechanical properties :
#
#
# Convention : Reuss Voigt Hill
#
# Bulk Modulus (GPa) = 40.77873 54.27353 47.52613
# Shear Modulus (GPa) = 29.12062 35.63244 32.37653
#
# Velocity S-wave (km/s) = 3.54773 3.92440 3.74081
# Velocity P-wave (km/s) = 5.86575 6.63267 6.26097
#
# Compressibility (1/GPa) = 0.02452259
#
# Stress axis : x y z
#
# Youngs Moduli (GPa) = 138.45209 80.35358 60.25308
#
# Poissons Ratio (x) = 0.12259 0.08519
# Poissons Ratio (y) = 0.21122 0.17663
# Poissons Ratio (z) = 0.19574 0.23556
#
# Static dielectric constant tensor:
#      x y z
#    x 4.446920 0.148760 0.052700 
#    y 0.148760 4.424180 -0.112650 
#    z 0.052700 -0.112650 3.855450 
# 
# 
# High freq. dielectric constant tensor:
#      x y z
#    x 1.924670 0.006280 0.006300 
#    y 0.006280 1.933480 -0.009420 
#    z 0.006300 -0.009420 1.897970 
# 
# From -- ./inp_files/349962.got.cif
#   From: 2010.06.25/outbox.cif.g09.slc.cpg/sg2_175_cif.got.tgz:349962.got - 2010.06.27 13:26:56.
