data_PCOD8007964
_publ_section_title
;
Structure prediction by ZEFSAII (Michael W. Deem and Ramdas Pophale) SiO2 
 PCOD8007964
Probable space group: P -1
;
_chemical_formula_sum "Si O2"
_cell_formula_units_Z 16
_cell_length_a 15.464656
_cell_length_b 14.758586
_cell_length_c 9.535773
_cell_angle_alpha 95.351945
_cell_angle_beta 54.754071
_cell_angle_gamma 141.378970
_cell_volume 790.618747
_symmetry_space_group_name_H-M "P -1"
_symmetry_group_IT_number 2
_symmetry_cell_setting 'triclinic'
loop_
_space_group_symop_operation_xyz
x,y,z
-x,-y,-z
loop_
_atom_site_type_symbol
_atom_site_label
_atom_site_fract_x
_atom_site_fract_y
_atom_site_fract_z
Si Si1 0.346730 0.600383 0.138441
Si Si2 0.134039 0.782939 0.135379
Si Si3 0.945528 0.471867 0.705474
Si Si4 0.768942 0.687235 0.809432
Si Si5 0.622126 0.368664 0.559428
Si Si6 0.873696 0.030167 0.723335
Si Si7 0.553419 0.119810 0.574799
Si Si8 0.842403 0.888789 0.994498
O O1 0.257117 0.606345 0.111842
O O2 0.196155 0.393757 0.218709
O O3 0.311762 0.604457 0.334957
O O4 0.623822 0.793233 0.878594
O O5 0.161978 0.704096 0.161030
O O6 0.155276 0.882608 0.239255
O O7 0.868939 0.589750 0.287275
O O8 0.351080 0.959567 0.855379
O O9 0.000000 0.500000 0.500000
O O10 0.178312 0.687965 0.596870
O O11 0.843747 0.793999 0.898459
O O12 0.928913 0.848290 0.555234
O O13 0.500000 0.500000 0.000000
O O14 0.534851 0.208419 0.542628
O O15 0.424348 0.294468 0.728045
O O16 0.935325 0.039852 0.824138
O O17 0.500000 0.000000 0.500000
O O18 0.000000 0.000000 0.000000
#
# Coordination Sequence:
#
# PCOD8007964 Si02
#       8
#     2   2   2   2   2   2   2   2
#     4  11  21  38  62  96 127 158 213 267 304 371
#     4  11  20  39  68  88 125 171 202 255 326 369
#     4  11  21  38  61  98 122 152 215 261 302 371
#     4  12  22  41  70  93 125 170 220 260 312 376
#     4  10  20  42  61  88 129 166 206 254 323 374
#     4  11  21  40  70  93 122 175 214 255 327 377
#     4  11  24  40  63  87 127 172 207 251 315 388
#     4  11  24  42  66  97 132 165 212 270 319 377
#
# _framework density 20.237314000000001
#
# number of rings (size 3 to 8) (size 9 to 14) (size 15 to 20)
#    0.000    1.000    8.750    0.375    0.000    6.000 
#    0.000    3.750    0.000    0.000    0.000    0.000 
#    0.000    0.000    0.000    0.000    0.000    0.000 
#
# Total GULP energy -198292.709877 kJ/mol
# GULP energy per Si atom -12393.294367 kJ/mol
# Density = 2.019125 g / cm^3
# Si number density = 20.237314 Si / 1000 Ang^3
#
#
#
# Elastic Constant Matrix: (Units=GPa)
#
#
# Indices 1 2 3 4 5 6 
#
# 1 104.1061 40.9935 24.6144 -5.1195 -7.6539 3.7142
# 2 40.9935 138.1539 21.9606 4.5342 5.3378 -12.5865
# 3 24.6144 21.9606 83.2616 -16.9829 -6.9024 7.1174
# 4 -5.1195 4.5342 -16.9829 33.3953 -7.8050 -0.2773
# 5 -7.6539 5.3378 -6.9024 -7.8050 15.6074 -2.8347
# 6 3.7142 -12.5865 7.1174 -0.2773 -2.8347 36.1258
#
#
#
# Elastic Compliance Matrix: (Units=1/GPa)
#
#
# Indices 1 2 3 4 5 6 
#
# 1 0.012364 -0.004181 -0.000828 0.004093 0.008840 -0.001840
# 2 -0.004181 0.009994 -0.003758 -0.006091 -0.009475 0.003862
# 3 -0.000828 -0.003758 0.017239 0.012415 0.014091 -0.003420
# 4 0.004093 -0.006091 0.012415 0.045115 0.031752 -0.002151
# 5 0.008840 -0.009475 0.014091 0.031752 0.093871 0.000623
# 6 -0.001840 0.003862 -0.003420 -0.002151 0.000623 0.029922
#
#
# Mechanical properties :
#
#
# Convention : Reuss Voigt Hill
#
# Bulk Modulus (GPa) = 45.32175 55.62874 50.47524
# Shear Modulus (GPa) = 21.42305 32.88922 27.15614
#
# Velocity S-wave (km/s) = 3.25713 4.03572 3.66715
# Velocity P-wave (km/s) = 6.04888 7.01883 6.55183
#
# Compressibility (1/GPa) = 0.02206446
#
# Stress axis : x y z
#
# Youngs Moduli (GPa) = 80.87795 100.05959 58.00809
#
# Poissons Ratio (x) = 0.41832 0.04801
# Poissons Ratio (y) = 0.33813 0.21800
# Poissons Ratio (z) = 0.06693 0.37604
#
# Static dielectric constant tensor:
#      x y z
#    x 4.484470 -0.137220 -0.212630 
#    y -0.137220 3.688110 -0.434330 
#    z -0.212630 -0.434330 3.607240 
# 
# 
# High freq. dielectric constant tensor:
#      x y z
#    x 1.772220 -0.032710 -0.023490 
#    y -0.032710 1.790350 -0.017850 
#    z -0.023490 -0.017850 1.795160 
# 
# From -- ./inp_files/313314.got.cif
#   From: 2010.06.25/outbox.cif.g09.slc.cpg/sg2_157_cif.got.tgz:313314.got - 2010.06.27 13:26:56.
