data_PCOD8007812
_publ_section_title
;
Structure prediction by ZEFSAII (Michael W. Deem and Ramdas Pophale) SiO2 
 PCOD8007812
Probable space group: P -1
;
_chemical_formula_sum "Si O2"
_cell_formula_units_Z 16
_cell_length_a 8.814111
_cell_length_b 7.708293
_cell_length_c 12.939233
_cell_angle_alpha 103.014104
_cell_angle_beta 117.759970
_cell_angle_gamma 60.801357
_cell_volume 679.082324
_symmetry_space_group_name_H-M "P -1"
_symmetry_group_IT_number 2
_symmetry_cell_setting 'triclinic'
loop_
_space_group_symop_operation_xyz
x,y,z
-x,-y,-z
loop_
_atom_site_type_symbol
_atom_site_label
_atom_site_fract_x
_atom_site_fract_y
_atom_site_fract_z
Si Si1 0.440762 0.233629 0.417800
Si Si2 0.454352 0.213695 0.650561
Si Si3 0.250492 0.806295 0.767863
Si Si4 0.116929 0.452857 0.189642
Si Si5 0.139183 0.238582 0.707408
Si Si6 0.837844 0.221581 0.478720
Si Si7 0.360238 0.559692 0.138863
Si Si8 0.080694 0.809958 0.928840
O O1 0.377715 0.309252 0.525906
O O2 0.293253 0.394389 0.316459
O O3 0.647147 0.227228 0.467379
O O4 0.440160 0.023063 0.366094
O O5 0.282368 0.279729 0.685743
O O6 0.600252 0.291412 0.753082
O O7 0.195266 0.699070 0.640360
O O8 0.464110 0.657065 0.849729
O O9 0.104198 0.856946 0.822987
O O10 0.241491 0.008969 0.744800
O O11 0.176314 0.537168 0.119661
O O12 0.913418 0.620465 0.190310
O O13 0.081428 0.265193 0.125710
O O14 0.932689 0.325300 0.595764
O O15 0.000000 0.000000 0.500000
O O16 0.290370 0.657980 0.017548
O O17 0.000000 0.000000 0.000000
#
# Coordination Sequence:
#
# PCOD8007812 Si02
#       8
#     2   2   2   2   2   2   2   2
#     4  11  23  42  68 103 144 187 226 286 351 418
#     4  11  24  41  68 105 143 185 230 282 347 418
#     4  11  24  45  72  98 139 188 231 289 346 410
#     4  12  26  45  73 102 140 180 240 284 356 411
#     4  11  24  43  71 108 146 184 226 286 352 419
#     4  10  20  41  69 100 143 180 223 276 349 412
#     4  12  25  47  70 100 143 183 241 287 346 409
#     4  12  28  49  72 101 135 184 239 296 347 411
#
# _framework density 23.561209000000002
#
# number of rings (size 3 to 8) (size 9 to 14) (size 15 to 20)
#    0.000    0.750    3.750    3.750    3.500    3.500 
#    0.000    1.875    0.000    0.000    0.000    0.000 
#    0.000    0.000    0.000    0.000    0.000    0.000 
#
# Total GULP energy -198397.818289 kJ/mol
# GULP energy per Si atom -12399.863643 kJ/mol
# Density = 2.350758 g / cm^3
# Si number density = 23.561209 Si / 1000 Ang^3
#
#
#
# Elastic Constant Matrix: (Units=GPa)
#
#
# Indices 1 2 3 4 5 6 
#
# 1 144.4251 46.3706 44.7203 18.0631 -12.3153 3.6659
# 2 46.3706 57.1741 25.0148 3.8028 -0.5768 -10.4532
# 3 44.7203 25.0148 83.1846 -9.8087 -9.0403 5.0334
# 4 18.0631 3.8028 -9.8087 47.5802 -1.8936 3.8014
# 5 -12.3153 -0.5768 -9.0403 -1.8936 41.3586 0.4180
# 6 3.6659 -10.4532 5.0334 3.8014 0.4180 35.6979
#
#
#
# Elastic Compliance Matrix: (Units=1/GPa)
#
#
# Indices 1 2 3 4 5 6 
#
# 1 0.011379 -0.007653 -0.003923 -0.004233 0.002255 -0.002432
# 2 -0.007653 0.027927 -0.005394 -0.001359 -0.003231 0.009907
# 3 -0.003923 -0.005394 0.017004 0.005875 0.002785 -0.004233
# 4 -0.004233 -0.001359 0.005875 0.024260 0.001150 -0.003388
# 5 0.002255 -0.003231 0.002785 0.001150 0.025487 -0.001991
# 6 -0.002432 0.009907 -0.004233 -0.003388 -0.001991 0.032144
#
#
# Mechanical properties :
#
#
# Convention : Reuss Voigt Hill
#
# Bulk Modulus (GPa) = 44.70465 57.44392 51.07429
# Shear Modulus (GPa) = 27.83979 36.17255 32.00617
#
# Velocity S-wave (km/s) = 3.44116 3.92249 3.68968
# Velocity P-wave (km/s) = 5.89948 6.70434 6.31475
#
# Compressibility (1/GPa) = 0.02236904
#
# Stress axis : x y z
#
# Youngs Moduli (GPa) = 87.87827 35.80825 58.80881
#
# Poissons Ratio (x) = 0.27404 0.23071
# Poissons Ratio (y) = 0.67254 0.31724
# Poissons Ratio (z) = 0.34476 0.19316
#
# Static dielectric constant tensor:
#      x y z
#    x 4.031110 0.061790 -0.099750 
#    y 0.061790 4.197320 0.067140 
#    z -0.099750 0.067140 4.737780 
# 
# 
# High freq. dielectric constant tensor:
#      x y z
#    x 1.929800 -0.003790 -0.008520 
#    y -0.003790 1.943240 0.000050 
#    z -0.008520 0.000050 1.940360 
# 
# From -- ./inp_files/382739.got.cif
#   From: 2010.06.25/outbox.cif.g09.slc.cpg/sg2_192_cif.got.tgz:382739.got - 2010.06.27 13:26:56.
