data_PCOD8007329
_publ_section_title
;
Structure prediction by ZEFSAII (Michael W. Deem and Ramdas Pophale) SiO2 
 PCOD8007329
Probable space group: P -1
;
_chemical_formula_sum "Si O2"
_cell_formula_units_Z 14
_cell_length_a 9.359198
_cell_length_b 8.496703
_cell_length_c 10.401349
_cell_angle_alpha 106.888223
_cell_angle_beta 66.619706
_cell_angle_gamma 109.183412
_cell_volume 704.730086
_symmetry_space_group_name_H-M "P -1"
_symmetry_group_IT_number 2
_symmetry_cell_setting 'triclinic'
loop_
_space_group_symop_operation_xyz
x,y,z
-x,-y,-z
loop_
_atom_site_type_symbol
_atom_site_label
_atom_site_fract_x
_atom_site_fract_y
_atom_site_fract_z
Si Si1 0.530609 0.753751 0.981655
Si Si2 0.751876 0.846238 0.538389
Si Si3 0.629267 0.591510 0.154072
Si Si4 0.266351 0.942218 0.173719
Si Si5 0.126803 0.466745 0.547375
Si Si6 0.539918 0.344903 0.523370
Si Si7 0.066523 0.269626 0.763133
O O1 0.434555 0.611849 0.883670
O O2 0.668657 0.887237 0.889057
O O3 0.622382 0.674998 0.038236
O O4 0.403832 0.842365 0.114449
O O5 0.790234 0.684615 0.563798
O O6 0.564882 0.817473 0.554426
O O7 0.858935 0.868380 0.374629
O O8 0.788318 0.012275 0.653478
O O9 0.517128 0.659143 0.309927
O O10 0.814650 0.641208 0.145236
O O11 0.106088 0.823875 0.138444
O O12 0.269335 0.640095 0.547565
O O13 0.046214 0.417358 0.704627
O O14 0.000000 0.500000 0.500000
O O15 0.500000 0.500000 0.500000
#
# Coordination Sequence:
#
# PCOD8007329 Si02
#       7
#     2   2   2   2   2   2   2
#     4  10  24  36  62  77 112 161 191 223 269 335
#     4   8  18  34  59  79 111 148 172 233 292 331
#     4  10  20  41  58  86 103 151 205 226 265 332
#     4  11  21  40  54  84 119 150 180 231 288 340
#     4   9  18  30  54  94 109 140 181 230 295 321
#     4   9  15  32  59  82 110 140 180 238 282 324
#     4   9  21  35  62  82 117 140 184 245 286 322
#
# _framework density 19.865763000000001
#
# number of rings (size 3 to 8) (size 9 to 14) (size 15 to 20)
#    0.857    1.714    1.429    2.143    2.000    1.143 
#    0.000    4.286    0.000    0.000    0.000    0.000 
#    0.000    0.000    0.000    0.000    0.000    0.000 
#
# Total GULP energy -173457.353771 kJ/mol
# GULP energy per Si atom -12389.810984 kJ/mol
# Density = 1.982055 g / cm^3
# Si number density = 19.865763 Si / 1000 Ang^3
#
#
#
# Elastic Constant Matrix: (Units=GPa)
#
#
# Indices 1 2 3 4 5 6 
#
# 1 148.9228 56.3946 29.6588 -7.6206 15.0167 28.9947
# 2 56.3946 79.1287 22.7650 -7.8810 4.4275 24.0888
# 3 29.6588 22.7650 52.7555 2.2520 12.2599 6.1241
# 4 -7.6206 -7.8810 2.2520 20.8346 4.9584 -5.3287
# 5 15.0167 4.4275 12.2599 4.9584 27.2976 -2.1487
# 6 28.9947 24.0888 6.1241 -5.3287 -2.1487 34.4356
#
#
#
# Elastic Compliance Matrix: (Units=1/GPa)
#
#
# Indices 1 2 3 4 5 6 
#
# 1 0.010590 -0.004879 -0.002229 0.002116 -0.004817 -0.005080
# 2 -0.004879 0.020768 -0.005454 0.004353 0.000285 -0.008758
# 3 -0.002229 -0.005454 0.024607 -0.003501 -0.008284 0.000257
# 4 0.002116 0.004353 -0.003501 0.054043 -0.009835 0.003545
# 5 -0.004817 0.000285 -0.008284 -0.009835 0.045266 0.006632
# 6 -0.005080 -0.008758 0.000257 0.003545 0.006632 0.040361
#
#
# Mechanical properties :
#
#
# Convention : Reuss Voigt Hill
#
# Bulk Modulus (GPa) = 32.42568 55.38265 43.90416
# Shear Modulus (GPa) = 21.64136 27.97943 24.81040
#
# Velocity S-wave (km/s) = 3.30416 3.75697 3.53782
# Velocity P-wave (km/s) = 5.56007 6.83804 6.23190
#
# Compressibility (1/GPa) = 0.03083976
#
# Stress axis : x y z
#
# Youngs Moduli (GPa) = 94.43307 48.15135 40.63895
#
# Poissons Ratio (x) = 0.23493 0.09059
# Poissons Ratio (y) = 0.46074 0.22165
# Poissons Ratio (z) = 0.21050 0.26262
#
# Static dielectric constant tensor:
#      x y z
#    x 4.468450 1.182860 -0.535600 
#    y 1.182860 4.251780 -0.586080 
#    z -0.535600 -0.586080 3.776920 
# 
# 
# High freq. dielectric constant tensor:
#      x y z
#    x 1.772790 0.028250 0.008930 
#    y 0.028250 1.756660 -0.008380 
#    z 0.008930 -0.008380 1.752920 
# 
# From -- ./inp_files/376848.got.cif
#   From: 2010.06.25/outbox.cif.g09.slc.cpg/sg2_189_cif.got.tgz:376848.got - 2010.06.27 13:26:56.
