data_PCOD8007080
_publ_section_title
;
Structure prediction by ZEFSAII (Michael W. Deem and Ramdas Pophale) SiO2 
 PCOD8007080
Probable space group: P -1
;
_chemical_formula_sum "Si O2"
_cell_formula_units_Z 14
_cell_length_a 9.381510
_cell_length_b 18.957444
_cell_length_c 14.997697
_cell_angle_alpha 19.911790
_cell_angle_beta 132.045798
_cell_angle_gamma 133.499527
_cell_volume 656.205593
_symmetry_space_group_name_H-M "P -1"
_symmetry_group_IT_number 2
_symmetry_cell_setting 'triclinic'
loop_
_space_group_symop_operation_xyz
x,y,z
-x,-y,-z
loop_
_atom_site_type_symbol
_atom_site_label
_atom_site_fract_x
_atom_site_fract_y
_atom_site_fract_z
Si Si1 0.162549 0.704213 0.294983
Si Si2 0.536091 0.569142 0.533631
Si Si3 0.786487 0.166311 0.646447
Si Si4 0.069142 0.097647 0.717012
Si Si5 0.272698 0.970252 0.474499
Si Si6 0.470139 0.757761 0.933557
Si Si7 0.638472 0.572444 0.054804
O O1 0.343006 0.631334 0.414428
O O2 0.236652 0.855709 0.230938
O O3 0.000000 0.500000 0.500000
O O4 0.072772 0.846729 0.017724
O O5 0.500000 0.500000 0.500000
O O6 0.718467 0.770067 0.381138
O O7 0.582689 0.375420 0.840270
O O8 0.758656 0.396002 0.332417
O O9 0.009312 0.163876 0.712194
O O10 0.642918 0.967603 0.773963
O O11 0.900390 0.153650 0.515358
O O12 0.274254 0.837508 0.724724
O O13 0.500000 0.000000 0.500000
O O14 0.225766 0.202432 0.189788
O O15 0.530792 0.609049 0.058820
O O16 0.500000 0.500000 0.000000
#
# Coordination Sequence:
#
# PCOD8007080 Si02
#       7
#     2   2   2   2   2   2   2
#     4  12  25  45  72 100 135 187 247 285 346 420
#     4  12  27  47  67 101 151 182 229 296 353 416
#     4  12  21  41  73 102 135 183 236 293 336 414
#     4  12  24  42  69 105 141 182 228 292 357 403
#     4  10  20  40  67 103 137 175 232 293 332 414
#     4  11  22  43  69 103 139 185 239 281 342 424
#     4  11  19  37  69 105 135 176 237 290 339 396
#
# _framework density 21.334776999999999
#
# number of rings (size 3 to 8) (size 9 to 14) (size 15 to 20)
#    0.000    0.571    5.714    5.143    0.000    0.571 
#    0.000    0.000    0.000    3.429    0.000    0.000 
#    0.000    0.000    0.000    0.000    0.000    0.000 
#
# Total GULP energy -173512.988068 kJ/mol
# GULP energy per Si atom -12393.784862 kJ/mol
# Density = 2.128622 g / cm^3
# Si number density = 21.334777 Si / 1000 Ang^3
#
#
#
# Elastic Constant Matrix: (Units=GPa)
#
#
# Indices 1 2 3 4 5 6 
#
# 1 117.1985 59.4285 52.8244 0.8088 -5.5621 5.8772
# 2 59.4285 121.6013 43.5450 8.3255 0.3616 -5.5785
# 3 52.8244 43.5450 172.3581 13.9677 -15.4013 6.9109
# 4 0.8088 8.3255 13.9677 43.3913 -4.8739 -1.5925
# 5 -5.5621 0.3616 -15.4013 -4.8739 26.5143 2.1700
# 6 5.8772 -5.5785 6.9109 -1.5925 2.1700 39.1938
#
#
#
# Elastic Compliance Matrix: (Units=1/GPa)
#
#
# Indices 1 2 3 4 5 6 
#
# 1 0.012589 -0.005543 -0.002338 0.001706 0.001860 -0.002298
# 2 -0.005543 0.011726 -0.001471 -0.001878 -0.002755 0.002836
# 3 -0.002338 -0.001471 0.007411 -0.001704 0.003639 -0.001436
# 4 0.001706 -0.001878 -0.001704 0.024374 0.003829 0.000556
# 5 0.001860 -0.002755 0.003639 0.003829 0.041242 -0.003441
# 6 -0.002298 0.002836 -0.001436 0.000556 -0.003441 0.026729
#
#
# Mechanical properties :
#
#
# Convention : Reuss Voigt Hill
#
# Bulk Modulus (GPa) = 76.79435 80.30596 78.55016
# Shear Modulus (GPa) = 33.98700 38.84389 36.41545
#
# Velocity S-wave (km/s) = 3.99561 4.27158 4.13590
# Velocity P-wave (km/s) = 7.57361 7.87725 7.72692
#
# Compressibility (1/GPa) = 0.01302179
#
# Stress axis : x y z
#
# Youngs Moduli (GPa) = 79.43700 85.27848 134.93681
#
# Poissons Ratio (x) = 0.47269 0.31544
# Poissons Ratio (y) = 0.44031 0.19855
# Poissons Ratio (z) = 0.18570 0.12548
#
# Static dielectric constant tensor:
#      x y z
#    x 3.777020 -0.409400 -0.327160 
#    y -0.409400 4.445690 0.706310 
#    z -0.327160 0.706310 5.159630 
# 
# 
# High freq. dielectric constant tensor:
#      x y z
#    x 1.797750 -0.012400 0.005550 
#    y -0.012400 1.850200 0.011360 
#    z 0.005550 0.011360 1.864330 
# 
# From -- ./inp_files/187024.got.cif
#   From: 2010.06.25/outbox.cif.g09.slc.cpg/sg2_94_cif.got.tgz:187024.got - 2010.06.27 13:26:56.
