data_PCOD8007020
_publ_section_title
;
Structure prediction by ZEFSAII (Michael W. Deem and Ramdas Pophale) SiO2 
 PCOD8007020
Probable space group: P -1
;
_chemical_formula_sum "Si O2"
_cell_formula_units_Z 16
_cell_length_a 15.764613
_cell_length_b 7.985839
_cell_length_c 9.070320
_cell_angle_alpha 60.021338
_cell_angle_beta 124.350964
_cell_angle_gamma 83.544599
_cell_volume 681.218283
_symmetry_space_group_name_H-M "P -1"
_symmetry_group_IT_number 2
_symmetry_cell_setting 'triclinic'
loop_
_space_group_symop_operation_xyz
x,y,z
-x,-y,-z
loop_
_atom_site_type_symbol
_atom_site_label
_atom_site_fract_x
_atom_site_fract_y
_atom_site_fract_z
Si Si1 0.503252 0.854496 0.304150
Si Si2 0.632373 0.026697 0.161913
Si Si3 0.718244 0.010802 0.792362
Si Si4 0.219503 0.489373 0.542190
Si Si5 0.014439 0.694677 0.854778
Si Si6 0.764934 0.140396 0.472018
Si Si7 0.976999 0.555170 0.284595
Si Si8 0.269365 0.603899 0.237287
O O1 0.558041 0.001417 0.234194
O O2 0.396844 0.998149 0.259751
O O3 0.602924 0.622142 0.596370
O O4 0.455370 0.797404 0.130216
O O5 0.719812 0.785689 0.261081
O O6 0.707812 0.121026 0.271761
O O7 0.699961 0.110403 0.564437
O O8 0.731939 0.163078 0.864404
O O9 0.839045 0.755874 0.023517
O O10 0.244719 0.614255 0.646378
O O11 0.280941 0.527484 0.449684
O O12 0.074032 0.620669 0.303820
O O13 0.994906 0.675532 0.670090
O O14 0.149339 0.645305 0.023337
O O15 0.910724 0.943013 0.707529
O O16 0.000000 0.500000 0.000000
O O17 0.000000 0.500000 0.500000
#
# Coordination Sequence:
#
# PCOD8007020 Si02
#       8
#     2   2   2   2   2   2   2   2
#     4  10  22  41  66  85 131 170 205 261 311 360
#     4  10  21  43  67  91 127 173 206 253 317 374
#     4  11  23  38  62  95 123 162 213 266 304 366
#     4  10  20  40  66  93 127 160 208 258 313 373
#     4  12  20  40  67  91 124 168 208 255 315 386
#     4  11  22  39  70  97 120 165 214 255 317 376
#     4  12  24  39  62  95 133 161 202 266 324 369
#     4  10  21  40  65  90 122 170 215 253 308 373
#
# _framework density 23.48733
#
# number of rings (size 3 to 8) (size 9 to 14) (size 15 to 20)
#    0.000    1.250    3.750    2.625    0.000    2.500 
#    2.250   11.250    0.000    0.000    0.000    0.000 
#    0.000    0.000    0.000    0.000    0.000    0.000 
#
# Total GULP energy -198248.387907 kJ/mol
# GULP energy per Si atom -12390.524244 kJ/mol
# Density = 2.343387 g / cm^3
# Si number density = 23.487330 Si / 1000 Ang^3
#
#
#
# Elastic Constant Matrix: (Units=GPa)
#
#
# Indices 1 2 3 4 5 6 
#
# 1 79.2744 32.3482 27.4625 -11.5449 32.2840 -14.9701
# 2 32.3482 138.3870 32.4927 15.3875 16.2631 9.0571
# 3 27.4625 32.4927 69.3961 18.4956 25.2399 1.9185
# 4 -11.5449 15.3875 18.4956 31.0402 0.7542 6.3636
# 5 32.2840 16.2631 25.2399 0.7542 35.4230 3.4872
# 6 -14.9701 9.0571 1.9185 6.3636 3.4872 30.0410
#
#
#
# Elastic Compliance Matrix: (Units=1/GPa)
#
#
# Indices 1 2 3 4 5 6 
#
# 1 0.033497 -0.006469 -0.005588 0.015799 -0.025748 0.018641
# 2 -0.006469 0.009663 -0.001597 -0.005236 0.003231 -0.005301
# 3 -0.005588 -0.001597 0.026540 -0.017013 -0.012829 0.001095
# 4 0.015799 -0.005236 -0.017013 0.050875 -0.000943 -0.000129
# 5 -0.025748 0.003231 -0.012829 -0.000943 0.061334 -0.019906
# 6 0.018641 -0.005301 0.001095 -0.000129 -0.019906 0.046443
#
#
# Mechanical properties :
#
#
# Convention : Reuss Voigt Hill
#
# Bulk Modulus (GPa) = 23.59029 52.40716 37.99873
# Shear Modulus (GPa) = 18.53284 32.28445 25.40864
#
# Velocity S-wave (km/s) = 2.81206 3.71151 3.29264
# Velocity P-wave (km/s) = 4.53974 6.38189 5.53795
#
# Compressibility (1/GPa) = 0.04239032
#
# Stress axis : x y z
#
# Youngs Moduli (GPa) = 29.85361 103.49112 37.67921
#
# Poissons Ratio (x) = 0.66945 0.21057
# Poissons Ratio (y) = 0.19311 0.06019
# Poissons Ratio (z) = 0.16684 0.16531
#
# Static dielectric constant tensor:
#      x y z
#    x 4.318890 -0.192550 0.080960 
#    y -0.192550 4.649970 -0.172130 
#    z 0.080960 -0.172130 4.201410 
# 
# 
# High freq. dielectric constant tensor:
#      x y z
#    x 1.930370 -0.010790 0.023570 
#    y -0.010790 1.921770 0.006120 
#    z 0.023570 0.006120 1.913710 
# 
# From -- ./inp_files/297713.got.cif
#   From: 2010.06.25/outbox.cif.g09.slc.cpg/sg2_149_cif.got.tgz:297713.got - 2010.06.27 13:26:56.
