data_PCOD8007163
_publ_section_title
;
Structure prediction by ZEFSAII (Michael W. Deem and Ramdas Pophale) SiO2 
 PCOD8007163
Probable space group: P -1
;
_chemical_formula_sum "Si O2"
_cell_formula_units_Z 16
_cell_length_a 28.906233
_cell_length_b 15.507905
_cell_length_c 5.122272
_cell_angle_alpha 90.449578
_cell_angle_beta 90.339595
_cell_angle_gamma 160.781131
_cell_volume 755.209573
_symmetry_space_group_name_H-M "P -1"
_symmetry_group_IT_number 2
_symmetry_cell_setting 'triclinic'
loop_
_space_group_symop_operation_xyz
x,y,z
-x,-y,-z
loop_
_atom_site_type_symbol
_atom_site_label
_atom_site_fract_x
_atom_site_fract_y
_atom_site_fract_z
Si Si1 0.313889 0.003567 0.512322
Si Si2 0.932101 0.678943 0.901460
Si Si3 0.761880 0.725028 0.899483
Si Si4 0.116040 0.512156 0.617037
Si Si5 0.898734 0.262018 0.824316
Si Si6 0.905681 0.816626 0.748427
Si Si7 0.620104 0.545074 0.383822
Si Si8 0.649710 0.773399 0.140194
O O1 0.264509 0.823126 0.605161
O O2 0.182181 0.813562 0.360158
O O3 0.452525 0.236707 0.347464
O O4 0.354068 0.136747 0.751537
O O5 0.931937 0.611915 0.662679
O O6 0.856639 0.630974 0.773410
O O7 0.853319 0.502171 0.148987
O O8 0.086589 0.969236 0.024482
O O9 0.774215 0.650500 0.771634
O O10 0.678822 0.632117 0.676802
O O11 0.679271 0.583568 0.167542
O O12 0.990378 0.356074 0.670037
O O13 0.000000 0.500000 0.000000
O O14 0.785388 0.004240 0.966623
O O15 0.000000 0.000000 0.500000
O O16 0.000000 0.000000 0.000000
O O17 0.664303 0.722406 0.348092
O O18 0.500000 0.500000 0.000000
#
# Coordination Sequence:
#
# PCOD8007163 Si02
#       8
#     2   2   2   2   2   2   2   2
#     4  12  28  44  60  91 136 183 228 278 346 380
#     4  11  24  41  69 103 132 168 216 280 345 413
#     4  11  24  41  69 103 132 168 216 280 345 413
#     4  12  26  42  67  94 133 179 229 277 331 413
#     4  12  26  44  65  92 134 181 233 283 341 396
#     4  10  20  40  68 101 140 165 204 278 355 405
#     4  12  26  42  67  94 133 179 229 277 331 413
#     4  12  26  44  65  92 134 181 233 283 341 396
#
# _framework density 21.186173
#
# number of rings (size 3 to 8) (size 9 to 14) (size 15 to 20)
#    0.000    0.500    2.500    6.750    7.000    0.000 
#    0.000    0.000    0.000    4.500    0.000    0.000 
#    0.000    0.000    0.000    0.000    0.000    0.000 
#
# Total GULP energy -198328.916164 kJ/mol
# GULP energy per Si atom -12395.557260 kJ/mol
# Density = 2.113795 g / cm^3
# Si number density = 21.186173 Si / 1000 Ang^3
#
#
#
# Elastic Constant Matrix: (Units=GPa)
#
#
# Indices 1 2 3 4 5 6 
#
# 1 102.1747 39.8768 26.4293 -2.4101 -1.5857 -18.7991
# 2 39.8768 101.2638 33.4364 -8.7176 -3.3683 -27.9093
# 3 26.4293 33.4364 116.8718 0.5160 -0.1633 -16.3940
# 4 -2.4101 -8.7176 0.5160 44.8682 -2.5825 3.0689
# 5 -1.5857 -3.3683 -0.1633 -2.5825 44.8740 -6.6198
# 6 -18.7991 -27.9093 -16.3940 3.0689 -6.6198 22.2558
#
#
#
# Elastic Compliance Matrix: (Units=1/GPa)
#
#
# Indices 1 2 3 4 5 6 
#
# 1 0.012345 -0.002627 -0.001095 -0.000224 0.001213 0.006719
# 2 -0.002627 0.016923 -0.001625 0.002119 0.004055 0.018719
# 3 -0.001095 -0.001625 0.009919 -0.000774 0.000510 0.004601
# 4 -0.000224 0.002119 -0.000774 0.022831 0.001336 -0.000854
# 5 0.001213 0.004055 0.000510 0.001336 0.024725 0.013655
# 6 0.006719 0.018719 0.004601 -0.000854 0.013655 0.081651
#
#
# Mechanical properties :
#
#
# Convention : Reuss Voigt Hill
#
# Bulk Modulus (GPa) = 35.09768 57.75504 46.42636
# Shear Modulus (GPa) = 26.51304 37.10410 31.80857
#
# Velocity S-wave (km/s) = 3.54140 4.18944 3.87897
# Velocity P-wave (km/s) = 5.77272 7.12192 6.48251
#
# Compressibility (1/GPa) = 0.02849191
#
# Stress axis : x y z
#
# Youngs Moduli (GPa) = 81.00141 59.09141 100.82079
#
# Poissons Ratio (x) = 0.15524 0.11040
# Poissons Ratio (y) = 0.21281 0.16387
# Poissons Ratio (z) = 0.08870 0.09604
#
# Static dielectric constant tensor:
#      x y z
#    x 6.443710 -0.228160 0.097780 
#    y -0.228160 3.926490 -0.214220 
#    z 0.097780 -0.214220 4.005400 
# 
# 
# High freq. dielectric constant tensor:
#      x y z
#    x 1.832940 -0.006350 -0.000340 
#    y -0.006350 1.816590 -0.004110 
#    z -0.000340 -0.004110 1.850750 
# 
# From -- ./inp_files/127161.got.cif
#   From: 2010.06.25/outbox.cif.g09.slc.cpg/sg2_64_cif.got.tgz:127161.got - 2010.06.27 13:26:56.
