data_PCOD8007495
_publ_section_title
;
Structure prediction by ZEFSAII (Michael W. Deem and Ramdas Pophale) SiO2 
 PCOD8007495
Probable space group: P -1
;
_chemical_formula_sum "Si O2"
_cell_formula_units_Z 16
_cell_length_a 10.672348
_cell_length_b 11.980202
_cell_length_c 15.515696
_cell_angle_alpha 29.431793
_cell_angle_beta 50.359184
_cell_angle_gamma 59.052539
_cell_volume 746.156684
_symmetry_space_group_name_H-M "P -1"
_symmetry_group_IT_number 2
_symmetry_cell_setting 'triclinic'
loop_
_space_group_symop_operation_xyz
x,y,z
-x,-y,-z
loop_
_atom_site_type_symbol
_atom_site_label
_atom_site_fract_x
_atom_site_fract_y
_atom_site_fract_z
Si Si1 0.767204 0.309324 0.598196
Si Si2 0.623028 0.133537 0.610144
Si Si3 0.013141 0.603280 0.171711
Si Si4 0.291554 0.890169 0.956314
Si Si5 0.731553 0.718732 0.761289
Si Si6 0.197481 0.099070 0.031258
Si Si7 0.537249 0.537183 0.279586
Si Si8 0.472743 0.473437 0.166524
O O1 0.664738 0.146918 0.683499
O O2 0.644679 0.440288 0.621534
O O3 0.889231 0.506412 0.366866
O O4 0.862030 0.136306 0.732858
O O5 0.642504 0.390672 0.394271
O O6 0.435619 0.030747 0.743177
O O7 0.748791 0.979162 0.611809
O O8 0.094479 0.380750 0.252725
O O9 0.142382 0.803093 0.018329
O O10 0.936437 0.720764 0.043033
O O11 0.369399 0.676340 0.105671
O O12 0.236801 0.046783 0.950417
O O13 0.646052 0.714868 0.706664
O O14 0.624449 0.554999 0.984392
O O15 0.357054 0.214762 0.934843
O O16 0.533763 0.398351 0.283476
#
# Coordination Sequence:
#
# PCOD8007495 Si02
#       8
#     2   2   2   2   2   2   2   2
#     4  12  24  42  68  97 132 163 213 271 326 374
#     4  11  22  41  70  93 125 178 212 265 314 370
#     4  11  25  43  61  97 136 169 206 263 324 388
#     4  10  20  41  64  91 130 166 209 266 320 373
#     4   9  21  43  62  87 131 172 215 255 314 379
#     4  12  22  40  65  96 129 171 208 259 329 381
#     4  12  22  40  67 101 126 158 229 269 310 382
#     4   9  19  40  67  89 121 172 215 268 306 370
#
# _framework density 21.443218999999999
#
# number of rings (size 3 to 8) (size 9 to 14) (size 15 to 20)
#    0.000    1.250    3.750    4.125    0.000    1.500 
#    6.750    1.250    0.000    0.000    0.000    0.000 
#    0.000    0.000    0.000    0.000    0.000    0.000 
#
# Total GULP energy -198329.851931 kJ/mol
# GULP energy per Si atom -12395.615746 kJ/mol
# Density = 2.139441 g / cm^3
# Si number density = 21.443219 Si / 1000 Ang^3
#
#
#
# Elastic Constant Matrix: (Units=GPa)
#
#
# Indices 1 2 3 4 5 6 
#
# 1 84.6918 30.5549 25.9302 9.2672 9.3591 2.0497
# 2 30.5549 99.0174 14.9758 4.1411 7.0850 10.1373
# 3 25.9302 14.9758 53.7640 -3.3515 14.1071 -0.6667
# 4 9.2672 4.1411 -3.3515 24.5285 -1.7925 2.5764
# 5 9.3591 7.0850 14.1071 -1.7925 39.3669 -4.0124
# 6 2.0497 10.1373 -0.6667 2.5764 -4.0124 32.5767
#
#
#
# Elastic Compliance Matrix: (Units=1/GPa)
#
#
# Indices 1 2 3 4 5 6 
#
# 1 0.016018 -0.003601 -0.006871 -0.006491 -0.000956 0.000368
# 2 -0.003601 0.011890 -0.001340 -0.000539 -0.001196 -0.003606
# 3 -0.006871 -0.001340 0.024371 0.005661 -0.006592 0.000088
# 4 -0.006491 -0.000539 0.005661 0.044465 0.001365 -0.002657
# 5 -0.000956 -0.001196 -0.006592 0.001365 0.028648 0.003718
# 6 0.000368 -0.003606 0.000088 -0.002657 0.003718 0.032465
#
#
# Mechanical properties :
#
#
# Convention : Reuss Voigt Hill
#
# Bulk Modulus (GPa) = 34.89943 42.26612 38.58277
# Shear Modulus (GPa) = 26.17359 30.36191 28.26775
#
# Velocity S-wave (km/s) = 3.49750 3.76696 3.63472
# Velocity P-wave (km/s) = 5.71144 6.21880 5.97051
#
# Compressibility (1/GPa) = 0.02865376
#
# Stress axis : x y z
#
# Youngs Moduli (GPa) = 62.43140 84.10182 41.03303
#
# Poissons Ratio (x) = 0.30287 0.28196
# Poissons Ratio (y) = 0.22483 0.05497
# Poissons Ratio (z) = 0.42899 0.11267
#
# Static dielectric constant tensor:
#      x y z
#    x 3.822060 -0.029560 0.026850 
#    y -0.029560 3.892700 -0.089200 
#    z 0.026850 -0.089200 3.609000 
# 
# 
# High freq. dielectric constant tensor:
#      x y z
#    x 1.838420 0.003380 0.004040 
#    y 0.003380 1.843510 -0.009220 
#    z 0.004040 -0.009220 1.823130 
# 
# From -- ./inp_files/429000.got.cif
#   From: 2010.06.25/outbox.cif.g09.slc.cpg/sg2_215_cif.got.tgz:429000.got - 2010.06.27 13:26:56.
