data_PCOD8007239
_publ_section_title
;
Structure prediction by ZEFSAII (Michael W. Deem and Ramdas Pophale) SiO2 
 PCOD8007239
Probable space group: P -1
;
_chemical_formula_sum "Si O2"
_cell_formula_units_Z 16
_cell_length_a 18.445007
_cell_length_b 15.188803
_cell_length_c 26.048912
_cell_angle_alpha 27.390903
_cell_angle_beta 18.806015
_cell_angle_gamma 19.443882
_cell_volume 782.362661
_symmetry_space_group_name_H-M "P -1"
_symmetry_group_IT_number 2
_symmetry_cell_setting 'triclinic'
loop_
_space_group_symop_operation_xyz
x,y,z
-x,-y,-z
loop_
_atom_site_type_symbol
_atom_site_label
_atom_site_fract_x
_atom_site_fract_y
_atom_site_fract_z
Si Si1 0.860929 0.163387 0.060268
Si Si2 0.308141 0.707537 0.261014
Si Si3 0.323982 0.759849 0.106596
Si Si4 0.717133 0.878562 0.122364
Si Si5 0.706565 0.227522 0.547535
Si Si6 0.656237 0.108984 0.326872
Si Si7 0.847556 0.595187 0.997816
Si Si8 0.143694 0.773438 0.662968
O O1 0.546319 0.452371 0.103398
O O2 0.764615 0.057916 0.221188
O O3 0.125204 0.143388 0.919041
O O4 0.000000 0.000000 0.000000
O O5 0.356093 0.776076 0.137602
O O6 0.406263 0.426542 0.341979
O O7 0.497135 0.722181 0.168859
O O8 0.949261 0.960390 0.390211
O O9 0.960365 0.937775 0.247198
O O10 0.451514 0.856621 0.935146
O O11 0.474804 0.853459 0.309273
O O12 0.997152 0.648248 0.018110
O O13 0.487770 0.491506 0.593979
O O14 0.839891 0.258361 0.392958
O O15 0.000000 0.000000 0.500000
O O16 0.500000 0.000000 0.500000
O O17 0.875841 0.790497 0.854962
O O18 0.000000 0.500000 0.000000
#
# Coordination Sequence:
#
# PCOD8007239 Si02
#       8
#     2   2   2   2   2   2   2   2
#     4  10  22  43  66  94 123 165 222 267 327 388
#     4  11  22  39  63  96 123 162 212 258 323 384
#     4  10  20  40  69  86 128 159 206 266 321 374
#     4  10  21  40  62  91 124 166 212 258 314 383
#     4  10  24  41  58  85 133 173 209 256 314 384
#     4  10  23  44  66  95 130 163 209 275 331 380
#     4  11  21  37  64  95 126 164 209 259 315 383
#     4  10  24  38  58  89 127 165 214 250 312 376
#
# _framework density 20.450873000000001
#
# number of rings (size 3 to 8) (size 9 to 14) (size 15 to 20)
#    0.000    1.750    3.750    1.125    5.250    5.000 
#    6.750    0.000    0.000    0.000    0.000    0.000 
#    0.000    0.000    0.000    0.000    0.000    0.000 
#
# Total GULP energy -198234.097980 kJ/mol
# GULP energy per Si atom -12389.631124 kJ/mol
# Density = 2.040433 g / cm^3
# Si number density = 20.450873 Si / 1000 Ang^3
#
#
#
# Elastic Constant Matrix: (Units=GPa)
#
#
# Indices 1 2 3 4 5 6 
#
# 1 114.0871 65.6680 36.5960 3.8248 -4.6057 7.9305
# 2 65.6680 158.5803 53.9441 11.2479 -0.6222 2.8678
# 3 36.5960 53.9441 96.5319 -10.9611 0.4628 -2.3446
# 4 3.8248 11.2479 -10.9611 29.2939 -2.4037 9.4819
# 5 -4.6057 -0.6222 0.4628 -2.4037 25.3323 7.1276
# 6 7.9305 2.8678 -2.3446 9.4819 7.1276 39.5040
#
#
#
# Elastic Compliance Matrix: (Units=1/GPa)
#
#
# Indices 1 2 3 4 5 6 
#
# 1 0.012271 -0.004253 -0.002321 0.000357 0.003026 -0.002924
# 2 -0.004253 0.009979 -0.004554 -0.005560 -0.001378 0.001442
# 3 -0.002321 -0.004554 0.014640 0.007573 -0.000042 -0.000145
# 4 0.000357 -0.005560 0.007573 0.043130 0.006927 -0.010821
# 5 0.003026 -0.001378 -0.000042 0.006927 0.043468 -0.010015
# 6 -0.002924 0.001442 -0.000145 -0.010821 -0.010015 0.030192
#
#
# Mechanical properties :
#
#
# Convention : Reuss Voigt Hill
#
# Bulk Modulus (GPa) = 68.32430 75.73507 72.02969
# Shear Modulus (GPa) = 27.65303 33.02544 30.33923
#
# Velocity S-wave (km/s) = 3.68117 4.02290 3.85582
# Velocity P-wave (km/s) = 7.17980 7.66103 7.42432
#
# Compressibility (1/GPa) = 0.01463608
#
# Stress axis : x y z
#
# Youngs Moduli (GPa) = 81.49464 100.21090 68.30371
#
# Poissons Ratio (x) = 0.42615 0.15850
# Poissons Ratio (y) = 0.34656 0.31106
# Poissons Ratio (z) = 0.18911 0.45636
#
# Static dielectric constant tensor:
#      x y z
#    x 5.659710 -1.804290 3.649740 
#    y -1.804290 5.493880 -2.657520 
#    z 3.649740 -2.657520 9.192080 
# 
# 
# High freq. dielectric constant tensor:
#      x y z
#    x 1.789380 -0.014850 0.011480 
#    y -0.014850 1.823270 0.006620 
#    z 0.011480 0.006620 1.778350 
# 
# From -- ./inp_files/620437.got.cif
#   From: 2010.06.25/outbox.cif.g09.slc.cpg/sg2_311_cif.got.tgz:620437.got - 2010.06.27 13:26:56.
