data_PCOD8007523
_publ_section_title
;
Structure prediction by ZEFSAII (Michael W. Deem and Ramdas Pophale) SiO2 
 PCOD8007523
Probable space group: P -1
;
_chemical_formula_sum "Si O2"
_cell_formula_units_Z 16
_cell_length_a 9.214511
_cell_length_b 8.805140
_cell_length_c 19.809814
_cell_angle_alpha 137.601720
_cell_angle_beta 126.370144
_cell_angle_gamma 47.835194
_cell_volume 787.928870
_symmetry_space_group_name_H-M "P -1"
_symmetry_group_IT_number 2
_symmetry_cell_setting 'triclinic'
loop_
_space_group_symop_operation_xyz
x,y,z
-x,-y,-z
loop_
_atom_site_type_symbol
_atom_site_label
_atom_site_fract_x
_atom_site_fract_y
_atom_site_fract_z
Si Si1 0.033997 0.691099 0.760397
Si Si2 0.469756 0.399970 0.830074
Si Si3 0.839746 0.618232 0.552944
Si Si4 0.429413 0.587566 0.646132
Si Si5 0.126386 0.014839 0.793528
Si Si6 0.646073 0.911193 0.804968
Si Si7 0.465762 0.131042 0.961803
Si Si8 0.295198 0.813962 0.310005
O O1 0.238307 0.483194 0.777250
O O2 0.949956 0.570403 0.639578
O O3 0.878695 0.787849 0.810839
O O4 0.062235 0.929305 0.817838
O O5 0.596926 0.325840 0.773346
O O6 0.530602 0.177115 0.825917
O O7 0.508790 0.616925 0.947546
O O8 0.685910 0.491661 0.469263
O O9 0.000000 0.500000 0.500000
O O10 0.713282 0.911767 0.600703
O O11 0.544204 0.735191 0.692453
O O12 0.589303 0.337357 0.643039
O O13 0.269595 0.757968 0.712664
O O14 0.240635 0.187700 0.894919
O O15 0.929253 0.169040 0.745522
O O16 0.623415 0.941758 0.889759
O O17 0.500000 0.000000 0.000000
#
# Coordination Sequence:
#
# PCOD8007523 Si02
#       8
#     2   2   2   2   2   2   2   2
#     4  11  22  42  63  94 137 167 214 267 319 374
#     4  12  22  43  66  93 135 174 210 265 332 373
#     4  11  20  40  71  96 127 169 220 265 316 383
#     4  11  22  41  66  96 131 169 219 263 313 385
#     4  10  20  41  64  96 130 162 220 269 306 384
#     4  11  26  43  61  97 135 168 211 271 322 379
#     4  11  23  43  71  95 125 173 218 266 320 386
#     4  11  21  39  70  94 128 172 212 269 321 371
#
# _framework density 20.306401000000001
#
# number of rings (size 3 to 8) (size 9 to 14) (size 15 to 20)
#    0.000    1.000    7.500    1.500    0.000    3.500 
#    0.000    0.625    0.000    0.000    0.000    0.000 
#    0.000    0.000    0.000    0.000    0.000    0.000 
#
# Total GULP energy -198428.584289 kJ/mol
# GULP energy per Si atom -12401.786518 kJ/mol
# Density = 2.026018 g / cm^3
# Si number density = 20.306401 Si / 1000 Ang^3
#
#
#
# Elastic Constant Matrix: (Units=GPa)
#
#
# Indices 1 2 3 4 5 6 
#
# 1 104.2869 26.6801 41.4838 -0.8901 6.0738 -20.1722
# 2 26.6801 99.5368 35.6067 -6.1096 12.8260 -22.4061
# 3 41.4838 35.6067 123.4386 -0.8108 24.2352 -10.1825
# 4 -0.8901 -6.1096 -0.8108 24.7222 1.7195 -1.0435
# 5 6.0738 12.8260 24.2352 1.7195 39.1878 1.2849
# 6 -20.1722 -22.4061 -10.1825 -1.0435 1.2849 35.2069
#
#
#
# Elastic Compliance Matrix: (Units=1/GPa)
#
#
# Indices 1 2 3 4 5 6 
#
# 1 0.012227 -0.000822 -0.003484 0.000331 0.000335 0.005472
# 2 -0.000822 0.013472 -0.002311 0.003775 -0.003270 0.007666
# 3 -0.003484 -0.002311 0.011015 0.000045 -0.005515 -0.000078
# 4 0.000331 0.003775 0.000045 0.041791 -0.003278 0.003963
# 5 0.000335 -0.003270 -0.005515 -0.003278 0.030245 -0.004685
# 6 0.005472 0.007666 -0.000078 0.003963 -0.004685 0.036683
#
#
# Mechanical properties :
#
#
# Convention : Reuss Voigt Hill
#
# Bulk Modulus (GPa) = 42.58805 59.42261 51.00533
# Shear Modulus (GPa) = 30.03104 34.72284 32.37694
#
# Velocity S-wave (km/s) = 3.84981 4.13963 3.99735
# Velocity P-wave (km/s) = 6.38590 7.22325 6.81744
#
# Compressibility (1/GPa) = 0.02348076
#
# Stress axis : x y z
#
# Youngs Moduli (GPa) = 81.78617 74.22735 90.78257
#
# Poissons Ratio (x) = 0.06101 0.31630
# Poissons Ratio (y) = 0.06723 0.20977
# Poissons Ratio (z) = 0.28495 0.17152
#
# Static dielectric constant tensor:
#      x y z
#    x 3.656140 -0.639340 -0.221940 
#    y -0.639340 2.772200 -0.881940 
#    z -0.221940 -0.881940 3.134520 
# 
# 
# High freq. dielectric constant tensor:
#      x y z
#    x 1.799330 -0.014480 0.007790 
#    y -0.014480 1.783550 -0.000480 
#    z 0.007790 -0.000480 1.797860 
# 
# From -- ./inp_files/203358.got.cif
#   From: 2010.06.25/outbox.cif.g09.slc.cpg/sg2_102_cif.got.tgz:203358.got - 2010.06.27 13:26:56.
