data_PCOD8007507
_publ_section_title
;
Structure prediction by ZEFSAII (Michael W. Deem and Ramdas Pophale) SiO2 
 PCOD8007507
Probable space group: P -1
;
_chemical_formula_sum "Si O2"
_cell_formula_units_Z 14
_cell_length_a 13.340381
_cell_length_b 10.682727
_cell_length_c 10.902056
_cell_angle_alpha 65.984002
_cell_angle_beta 31.554775
_cell_angle_gamma 56.906876
_cell_volume 675.121117
_symmetry_space_group_name_H-M "P -1"
_symmetry_group_IT_number 2
_symmetry_cell_setting 'triclinic'
loop_
_space_group_symop_operation_xyz
x,y,z
-x,-y,-z
loop_
_atom_site_type_symbol
_atom_site_label
_atom_site_fract_x
_atom_site_fract_y
_atom_site_fract_z
Si Si1 0.207279 0.781538 0.046218
Si Si2 0.922305 0.939814 0.489050
Si Si3 0.914263 0.625299 0.330717
Si Si4 0.574737 0.731904 0.831916
Si Si5 0.189331 0.290395 0.180210
Si Si6 0.511518 0.839387 0.524808
Si Si7 0.506547 0.926775 0.231016
O O1 0.049781 0.924042 0.234863
O O2 0.085413 0.692223 0.148492
O O3 0.392707 0.684546 0.989282
O O4 0.314680 0.826173 0.801899
O O5 0.937274 0.773876 0.571912
O O6 0.682100 0.055421 0.671372
O O7 0.000000 0.000000 0.500000
O O8 0.796783 0.628774 0.578953
O O9 0.740153 0.713789 0.375062
O O10 0.037445 0.454287 0.223996
O O11 0.613738 0.705572 0.947299
O O12 0.502624 0.907868 0.794922
O O13 0.275679 0.176506 0.021847
O O14 0.487212 0.834033 0.406031
O O15 0.500000 0.000000 0.500000
#
# Coordination Sequence:
#
# PCOD8007507 Si02
#       7
#     2   2   2   2   2   2   2
#     4  11  21  39  66  95 118 163 214 250 304 368
#     4  11  22  39  66 100 120 160 215 251 314 373
#     4  11  23  41  62  96 124 168 203 251 315 368
#     4  10  20  41  64  93 126 156 210 256 311 360
#     4  11  23  40  63  91 138 157 195 266 318 361
#     4  11  23  43  64  88 125 163 216 257 296 363
#     4  11  21  42  63  89 127 166 201 264 301 358
#
# _framework density 20.737019
#
# number of rings (size 3 to 8) (size 9 to 14) (size 15 to 20)
#    0.000    1.143    5.714    3.857    0.000    3.429 
#    7.714    0.714    0.000    0.000    0.000    0.000 
#    0.000    0.000    0.000    0.000    0.000    0.000 
#
# Total GULP energy -173515.687185 kJ/mol
# GULP energy per Si atom -12393.977656 kJ/mol
# Density = 2.068982 g / cm^3
# Si number density = 20.737019 Si / 1000 Ang^3
#
#
#
# Elastic Constant Matrix: (Units=GPa)
#
#
# Indices 1 2 3 4 5 6 
#
# 1 87.7831 40.6802 28.9804 -2.5714 -8.2167 -7.4858
# 2 40.6802 104.6807 43.7166 24.7118 -2.5382 -15.6019
# 3 28.9804 43.7166 113.5079 10.8089 -5.4321 -0.1092
# 4 -2.5714 24.7118 10.8089 23.9383 1.8388 1.7054
# 5 -8.2167 -2.5382 -5.4321 1.8388 38.1972 -3.3774
# 6 -7.4858 -15.6019 -0.1092 1.7054 -3.3774 24.7157
#
#
#
# Elastic Compliance Matrix: (Units=1/GPa)
#
#
# Indices 1 2 3 4 5 6 
#
# 1 0.016263 -0.008127 -0.001962 0.010910 0.002094 -0.000680
# 2 -0.008127 0.021655 -0.004054 -0.022420 0.001336 0.012920
# 3 -0.001962 -0.004054 0.010979 -0.000822 0.000648 -0.002959
# 4 0.010910 -0.022420 -0.000822 0.067910 -0.003951 -0.016078
# 5 0.002094 0.001336 0.000648 -0.003951 0.027489 0.005509
# 6 -0.000680 0.012920 -0.002959 -0.016078 0.005509 0.050259
#
#
# Mechanical properties :
#
#
# Convention : Reuss Voigt Hill
#
# Bulk Modulus (GPa) = 48.51608 59.19178 53.85393
# Shear Modulus (GPa) = 21.76669 30.20988 25.98828
#
# Velocity S-wave (km/s) = 3.24335 3.82096 3.54394
# Velocity P-wave (km/s) = 6.12147 6.93342 6.54006
#
# Compressibility (1/GPa) = 0.02061172
#
# Stress axis : x y z
#
# Youngs Moduli (GPa) = 61.48931 46.17963 91.08695
#
# Poissons Ratio (x) = 0.37529 0.17867
# Poissons Ratio (y) = 0.49971 0.36926
# Poissons Ratio (z) = 0.12062 0.18721
#
# Static dielectric constant tensor:
#      x y z
#    x 4.086350 -0.233330 0.069360 
#    y -0.233330 3.618540 -0.090230 
#    z 0.069360 -0.090230 4.034450 
# 
# 
# High freq. dielectric constant tensor:
#      x y z
#    x 1.817230 -0.003440 -0.004980 
#    y -0.003440 1.781560 0.011100 
#    z -0.004980 0.011100 1.816050 
# 
# From -- ./inp_files/451204.got.cif
#   From: 2010.06.25/outbox.cif.g09.slc.cpg/sg2_226_cif.got.tgz:451204.got - 2010.06.27 13:26:56.
