data_PCOD8007097
_publ_section_title
;
Structure prediction by ZEFSAII (Michael W. Deem and Ramdas Pophale) SiO2 
 PCOD8007097
Probable space group: P -1
;
_chemical_formula_sum "Si O2"
_cell_formula_units_Z 16
_cell_length_a 18.835309
_cell_length_b 12.463377
_cell_length_c 8.889713
_cell_angle_alpha 50.655263
_cell_angle_beta 129.981465
_cell_angle_gamma 152.315446
_cell_volume 730.444426
_symmetry_space_group_name_H-M "P -1"
_symmetry_group_IT_number 2
_symmetry_cell_setting 'triclinic'
loop_
_space_group_symop_operation_xyz
x,y,z
-x,-y,-z
loop_
_atom_site_type_symbol
_atom_site_label
_atom_site_fract_x
_atom_site_fract_y
_atom_site_fract_z
Si Si1 0.678429 0.180981 0.075445
Si Si2 0.687154 0.869790 0.395170
Si Si3 0.150533 0.542143 0.226630
Si Si4 0.034521 0.200590 0.600886
Si Si5 0.723440 0.733289 0.121123
Si Si6 0.063084 0.432683 0.709507
Si Si7 0.472602 0.440182 0.268877
Si Si8 0.866368 0.187926 0.949132
O O1 0.758169 0.333360 0.200594
O O2 0.718550 0.066586 0.217605
O O3 0.738728 0.338743 0.872544
O O4 0.500000 0.000000 0.000000
O O5 0.554094 0.651664 0.298229
O O6 0.622127 0.782850 0.555989
O O7 0.850221 0.979703 0.501492
O O8 0.154489 0.416912 0.454649
O O9 0.203826 0.741285 0.220892
O O10 0.969834 0.325241 0.118791
O O11 0.104070 0.128905 0.766921
O O12 0.052160 0.296276 0.698787
O O13 0.602391 0.520842 0.267649
O O14 0.652098 0.634897 0.944089
O O15 0.737644 0.911623 0.035643
O O16 0.000000 0.500000 0.500000
O O17 0.962141 0.264520 0.863770
#
# Coordination Sequence:
#
# PCOD8007097 Si02
#       8
#     2   2   2   2   2   2   2   2
#     4  11  25  41  65  94 130 172 211 265 330 391
#     4  11  23  44  67  91 129 176 215 261 327 387
#     4  10  21  40  66  96 126 165 217 266 316 387
#     4  12  24  41  70 100 127 168 226 268 315 383
#     4  11  25  42  65  99 130 171 216 272 318 380
#     4  11  21  41  65  97 125 164 213 272 320 375
#     4  10  25  44  63  90 138 173 207 264 332 388
#     4  10  20  40  67  90 130 168 210 267 322 375
#
# _framework density 21.904472999999999
#
# number of rings (size 3 to 8) (size 9 to 14) (size 15 to 20)
#    0.000    1.250    2.500    3.750    3.500    4.000 
#    4.500    0.625    0.000    0.000    0.000    0.000 
#    0.000    0.000    0.000    0.000    0.000    0.000 
#
# Total GULP energy -198330.824834 kJ/mol
# GULP energy per Si atom -12395.676552 kJ/mol
# Density = 2.185462 g / cm^3
# Si number density = 21.904473 Si / 1000 Ang^3
#
#
#
# Elastic Constant Matrix: (Units=GPa)
#
#
# Indices 1 2 3 4 5 6 
#
# 1 63.6815 30.6890 37.5543 5.0081 -6.6498 4.9865
# 2 30.6890 101.6861 34.1190 9.4503 1.8899 5.1867
# 3 37.5543 34.1190 83.6624 -0.2733 -13.9912 8.0865
# 4 5.0081 9.4503 -0.2733 32.3759 7.5616 0.8591
# 5 -6.6498 1.8899 -13.9912 7.5616 38.7474 1.5028
# 6 4.9865 5.1867 8.0865 0.8591 1.5028 41.4856
#
#
#
# Elastic Compliance Matrix: (Units=1/GPa)
#
#
# Indices 1 2 3 4 5 6 
#
# 1 0.022965 -0.003840 -0.008409 -0.002877 0.001679 -0.000642
# 2 -0.003840 0.012536 -0.003724 -0.002600 -0.002098 -0.000250
# 3 -0.008409 -0.003724 0.018340 0.001394 0.005179 -0.002315
# 4 -0.002877 -0.002600 0.001394 0.033604 -0.006419 -0.000064
# 5 0.001679 -0.002098 0.005179 -0.006419 0.029394 -0.001881
# 6 -0.000642 -0.000250 -0.002315 -0.000064 -0.001881 0.024734
#
#
# Mechanical properties :
#
#
# Convention : Reuss Voigt Hill
#
# Bulk Modulus (GPa) = 45.67215 50.41718 48.04467
# Shear Modulus (GPa) = 27.65231 32.29961 29.97596
#
# Velocity S-wave (km/s) = 3.55689 3.84417 3.70332
# Velocity P-wave (km/s) = 6.14528 6.53991 6.34566
#
# Compressibility (1/GPa) = 0.02189518
#
# Stress axis : x y z
#
# Youngs Moduli (GPa) = 43.54545 79.77019 54.52480
#
# Poissons Ratio (x) = 0.30634 0.45848
# Poissons Ratio (y) = 0.16723 0.20304
# Poissons Ratio (z) = 0.36616 0.29704
#
# Static dielectric constant tensor:
#      x y z
#    x 3.900970 -0.021490 -0.334450 
#    y -0.021490 4.116820 -0.092640 
#    z -0.334450 -0.092640 4.076390 
# 
# 
# High freq. dielectric constant tensor:
#      x y z
#    x 1.850310 0.000220 -0.029060 
#    y 0.000220 1.864640 -0.005000 
#    z -0.029060 -0.005000 1.861510 
# 
# From -- ./inp_files/332966.got.cif
#   From: 2010.06.25/outbox.cif.g09.slc.cpg/sg2_167_cif.got.tgz:332966.got - 2010.06.27 13:26:56.
