data_PCOD8007578
_publ_section_title
;
Structure prediction by ZEFSAII (Michael W. Deem and Ramdas Pophale) SiO2 
 PCOD8007578
Probable space group: P -1
;
_chemical_formula_sum "Si O2"
_cell_formula_units_Z 14
_cell_length_a 9.399588
_cell_length_b 9.911238
_cell_length_c 22.329017
_cell_angle_alpha 131.015880
_cell_angle_beta 27.486956
_cell_angle_gamma 118.490864
_cell_volume 690.608695
_symmetry_space_group_name_H-M "P -1"
_symmetry_group_IT_number 2
_symmetry_cell_setting 'triclinic'
loop_
_space_group_symop_operation_xyz
x,y,z
-x,-y,-z
loop_
_atom_site_type_symbol
_atom_site_label
_atom_site_fract_x
_atom_site_fract_y
_atom_site_fract_z
Si Si1 0.787761 0.926550 0.772905
Si Si2 0.130488 0.791579 0.727590
Si Si3 0.093681 0.911996 0.003061
Si Si4 0.114039 0.505792 0.892615
Si Si5 0.797138 0.334154 0.862926
Si Si6 0.287304 0.422722 0.625719
Si Si7 0.730730 0.398043 0.560693
O O1 0.875094 0.874073 0.794287
O O2 0.082825 0.818546 0.587786
O O3 0.702947 0.146296 0.855077
O O4 0.475227 0.863191 0.857435
O O5 0.061403 0.612491 0.733565
O O6 0.494839 0.718360 0.545249
O O7 0.109917 0.954777 0.830344
O O8 0.999449 0.721992 0.979764
O O9 0.000000 0.000000 0.000000
O O10 0.502139 0.414373 0.709348
O O11 0.923406 0.389558 0.893903
O O12 0.000000 0.500000 0.000000
O O13 0.073285 0.304992 0.700938
O O14 0.500000 0.500000 0.000000
O O15 0.503126 0.486396 0.614355
O O16 0.000000 0.500000 0.500000
#
# Coordination Sequence:
#
# PCOD8007578 Si02
#       7
#     2   2   2   2   2   2   2
#     4  11  23  39  68  91 117 176 215 253 311 384
#     4  10  21  38  61  94 122 157 221 256 306 376
#     4  12  23  39  62  90 127 167 211 255 317 377
#     4  11  24  40  62  94 128 160 203 270 316 359
#     4  11  23  43  61  90 130 166 208 257 319 377
#     4   9  21  39  63  91 125 168 203 269 311 366
#     4  10  20  41  65  93 129 164 212 259 317 379
#
# _framework density 20.271971000000001
#
# number of rings (size 3 to 8) (size 9 to 14) (size 15 to 20)
#    0.000    1.429    1.429    4.714    0.000    7.429 
#    2.571    0.000    0.000    3.429    0.000    0.000 
#    0.000    0.000    0.000    0.000    0.000    0.000 
#
# Total GULP energy -173589.480562 kJ/mol
# GULP energy per Si atom -12399.248612 kJ/mol
# Density = 2.022583 g / cm^3
# Si number density = 20.271971 Si / 1000 Ang^3
#
#
#
# Elastic Constant Matrix: (Units=GPa)
#
#
# Indices 1 2 3 4 5 6 
#
# 1 83.1461 28.0820 45.0919 -5.1564 3.3968 -14.0217
# 2 28.0820 83.9491 18.7178 7.1573 -1.1994 -15.8878
# 3 45.0919 18.7178 124.0759 2.4141 20.8781 -8.2742
# 4 -5.1564 7.1573 2.4141 35.2128 -4.4500 -1.8194
# 5 3.3968 -1.1994 20.8781 -4.4500 39.2035 0.0956
# 6 -14.0217 -15.8878 -8.2742 -1.8194 0.0956 34.1257
#
#
#
# Elastic Compliance Matrix: (Units=1/GPa)
#
#
# Indices 1 2 3 4 5 6 
#
# 1 0.017464 -0.004098 -0.005870 0.004250 0.001960 0.004066
# 2 -0.004098 0.014575 -0.000436 -0.003200 0.000658 0.004824
# 3 -0.005870 -0.000436 0.011274 -0.002272 -0.005767 0.000014
# 4 0.004250 -0.003200 -0.002272 0.030425 0.004194 0.001316
# 5 0.001960 0.000658 -0.005767 0.004194 0.028906 -0.000144
# 6 0.004066 0.004824 0.000014 0.001316 -0.000144 0.033294
#
#
# Mechanical properties :
#
#
# Convention : Reuss Voigt Hill
#
# Bulk Modulus (GPa) = 44.43519 52.77272 48.60395
# Shear Modulus (GPa) = 30.44188 34.99369 32.71779
#
# Velocity S-wave (km/s) = 3.87935 4.15928 4.02175
# Velocity P-wave (km/s) = 6.48328 7.01106 6.75233
#
# Compressibility (1/GPa) = 0.02250469
#
# Stress axis : x y z
#
# Youngs Moduli (GPa) = 57.26223 68.60948 88.69883
#
# Poissons Ratio (x) = 0.28116 0.52065
# Poissons Ratio (y) = 0.23466 0.03870
# Poissons Ratio (z) = 0.33612 0.02994
#
# Static dielectric constant tensor:
#      x y z
#    x 3.697160 -0.086910 0.105900 
#    y -0.086910 3.513300 0.045670 
#    z 0.105900 0.045670 4.074640 
# 
# 
# High freq. dielectric constant tensor:
#      x y z
#    x 1.790260 -0.004710 0.008310 
#    y -0.004710 1.783160 0.005730 
#    z 0.008310 0.005730 1.812390 
# 
# From -- ./inp_files/173130.got.cif
#   From: 2010.06.25/outbox.cif.g09.slc.cpg/sg2_87_cif.got.tgz:173130.got - 2010.06.27 13:26:56.
