data_PCOD8007721
_publ_section_title
;
Structure prediction by ZEFSAII (Michael W. Deem and Ramdas Pophale) SiO2 
 PCOD8007721
Probable space group: P -1
;
_chemical_formula_sum "Si O2"
_cell_formula_units_Z 14
_cell_length_a 20.360828
_cell_length_b 6.147498
_cell_length_c 6.353219
_cell_angle_alpha 104.273441
_cell_angle_beta 59.005274
_cell_angle_gamma 116.710840
_cell_volume 608.812725
_symmetry_space_group_name_H-M "P -1"
_symmetry_group_IT_number 2
_symmetry_cell_setting 'triclinic'
loop_
_space_group_symop_operation_xyz
x,y,z
-x,-y,-z
loop_
_atom_site_type_symbol
_atom_site_label
_atom_site_fract_x
_atom_site_fract_y
_atom_site_fract_z
Si Si1 0.557138 0.388979 0.493039
Si Si2 0.182281 0.752759 0.761252
Si Si3 0.558306 0.998820 0.092608
Si Si4 0.119474 0.491106 0.202405
Si Si5 0.172892 0.278954 0.429215
Si Si6 0.942900 0.202671 0.313885
Si Si7 0.311587 0.161337 0.385953
O O1 0.500000 0.500000 0.500000
O O2 0.591072 0.248653 0.232841
O O3 0.634377 0.587196 0.531399
O O4 0.497566 0.217551 0.722034
O O5 0.185303 0.510372 0.603011
O O6 0.101467 0.809211 0.841565
O O7 0.264540 0.978627 0.608539
O O8 0.179720 0.708375 0.006448
O O9 0.500000 0.000000 0.000000
O O10 0.636824 0.957168 0.862677
O O11 0.168471 0.343681 0.204052
O O12 0.082899 0.607300 0.469010
O O13 0.042704 0.301682 0.146844
O O14 0.249345 0.199049 0.327936
O O15 0.087553 0.058414 0.584102
#
# Coordination Sequence:
#
# PCOD8007721 Si02
#       7
#     2   2   2   2   2   2   2
#     4  11  25  47  73 105 125 179 229 267 346 400
#     4  10  23  41  60 101 134 174 223 271 339 393
#     4  11  25  47  74 102 132 171 231 276 329 411
#     4  10  20  41  67  93 130 179 228 272 324 408
#     4  10  23  41  59  97 134 176 220 270 346 385
#     4   9  20  40  65  94 132 174 229 279 324 388
#     4  11  25  47  65  98 149 170 218 289 332 402
#
# _framework density 22.995577000000001
#
# number of rings (size 3 to 8) (size 9 to 14) (size 15 to 20)
#    0.000    1.714    1.429    1.286    2.000    2.857 
#   20.571    0.000    0.000    0.000    0.000    0.000 
#    0.000    0.000    0.000    0.000    0.000    0.000 
#
# Total GULP energy -173594.986030 kJ/mol
# GULP energy per Si atom -12399.641859 kJ/mol
# Density = 2.294324 g / cm^3
# Si number density = 22.995577 Si / 1000 Ang^3
#
#
#
# Elastic Constant Matrix: (Units=GPa)
#
#
# Indices 1 2 3 4 5 6 
#
# 1 119.7784 55.6982 67.4437 -9.5065 0.4819 -15.2227
# 2 55.6982 129.0764 46.3893 -13.3779 0.5095 -1.4948
# 3 67.4437 46.3893 114.9741 -17.0008 4.1593 -13.1669
# 4 -9.5065 -13.3779 -17.0008 29.0447 -11.4119 11.6849
# 5 0.4819 0.5095 4.1593 -11.4119 32.4882 -9.7127
# 6 -15.2227 -1.4948 -13.1669 11.6849 -9.7127 42.2814
#
#
#
# Elastic Compliance Matrix: (Units=1/GPa)
#
#
# Indices 1 2 3 4 5 6 
#
# 1 0.014248 -0.003923 -0.006703 -0.002153 0.001072 0.003745
# 2 -0.003923 0.010391 -0.001634 0.003808 0.000712 -0.002443
# 3 -0.006703 -0.001634 0.014112 0.005215 0.000316 0.000555
# 4 -0.002153 0.003808 0.005215 0.047381 0.013236 -0.009070
# 5 0.001072 0.000712 0.000316 0.013236 0.036959 0.005342
# 6 0.003745 -0.002443 0.000555 -0.009070 0.005342 0.028819
#
#
# Mechanical properties :
#
#
# Convention : Reuss Voigt Hill
#
# Bulk Modulus (GPa) = 70.26826 78.09902 74.18364
# Shear Modulus (GPa) = 27.59766 33.71604 30.65685
#
# Velocity S-wave (km/s) = 3.46805 3.83325 3.65521
# Velocity P-wave (km/s) = 6.83082 7.32312 7.08125
#
# Compressibility (1/GPa) = 0.01423118
#
# Stress axis : x y z
#
# Youngs Moduli (GPa) = 70.18392 96.23784 70.86123
#
# Poissons Ratio (x) = 0.37755 0.47501
# Poissons Ratio (y) = 0.27534 0.11576
# Poissons Ratio (z) = 0.47047 0.15721
#
# Static dielectric constant tensor:
#      x y z
#    x 4.501400 -0.000640 0.270860 
#    y -0.000640 4.541390 0.028970 
#    z 0.270860 0.028970 4.310890 
# 
# 
# High freq. dielectric constant tensor:
#      x y z
#    x 1.913620 -0.007170 0.009660 
#    y -0.007170 1.926820 -0.005750 
#    z 0.009660 -0.005750 1.898950 
# 
# From -- ./inp_files/7698.got.cif
#   From: 2010.06.25/outbox.cif.g09.slc.cpg/sg2_4_cif.got.tgz:7698.got - 2010.06.27 13:26:56.
