data_PCOD8007586
_publ_section_title
;
Structure prediction by ZEFSAII (Michael W. Deem and Ramdas Pophale) SiO2 
 PCOD8007586
Probable space group: P -1
;
_chemical_formula_sum "Si O2"
_cell_formula_units_Z 16
_cell_length_a 8.503309
_cell_length_b 8.187235
_cell_length_c 14.598494
_cell_angle_alpha 87.990471
_cell_angle_beta 110.714413
_cell_angle_gamma 52.463833
_cell_volume 709.499125
_symmetry_space_group_name_H-M "P -1"
_symmetry_group_IT_number 2
_symmetry_cell_setting 'triclinic'
loop_
_space_group_symop_operation_xyz
x,y,z
-x,-y,-z
loop_
_atom_site_type_symbol
_atom_site_label
_atom_site_fract_x
_atom_site_fract_y
_atom_site_fract_z
Si Si1 0.097090 0.522518 0.808106
Si Si2 0.432139 0.707644 0.349359
Si Si3 0.070202 0.635062 0.485747
Si Si4 0.002020 0.687539 0.973514
Si Si5 0.032448 0.125226 0.364425
Si Si6 0.874776 0.336033 0.807697
Si Si7 0.814334 0.961867 0.268984
Si Si8 0.483814 0.910456 0.186877
O O1 0.339529 0.289202 0.841198
O O2 0.120368 0.627745 0.899423
O O3 0.005562 0.682754 0.700778
O O4 0.907300 0.507974 0.790290
O O5 0.661074 0.518835 0.452796
O O6 0.350356 0.595190 0.283920
O O7 0.469819 0.825946 0.281304
O O8 0.255494 0.884488 0.385173
O O9 0.000000 0.500000 0.500000
O O10 0.951279 0.840085 0.526374
O O11 0.985043 0.732721 0.365201
O O12 0.754312 0.926668 0.915000
O O13 0.000000 0.500000 0.000000
O O14 0.132262 0.694094 0.083269
O O15 0.816755 0.145190 0.303557
O O16 0.089817 0.101031 0.813815
O O17 0.565847 0.044299 0.221229
#
# Coordination Sequence:
#
# PCOD8007586 Si02
#       8
#     2   2   2   2   2   2   2   2
#     4  10  20  41  65  94 130 169 212 263 311 383
#     4  11  23  42  67  95 126 171 210 264 322 375
#     4  12  23  44  68  94 129 168 214 262 323 376
#     4  10  22  40  68  96 126 169 218 258 319 379
#     4  11  23  41  64  97 129 165 217 259 315 384
#     4   9  22  41  64  92 129 167 210 266 311 373
#     4  10  23  42  65  95 131 169 212 269 310 381
#     4  11  21  43  67  91 133 171 207 265 324 366
#
# _framework density 22.551119
#
# number of rings (size 3 to 8) (size 9 to 14) (size 15 to 20)
#    0.000    1.500    3.750    1.125    0.000    9.500 
#    0.000    1.875    0.000    0.000    0.000    0.000 
#    0.000    0.000    0.000    0.000    0.000    0.000 
#
# Total GULP energy -198369.082459 kJ/mol
# GULP energy per Si atom -12398.067654 kJ/mol
# Density = 2.249979 g / cm^3
# Si number density = 22.551119 Si / 1000 Ang^3
#
#
#
# Elastic Constant Matrix: (Units=GPa)
#
#
# Indices 1 2 3 4 5 6 
#
# 1 71.5348 23.9491 -8.2885 10.6994 11.4905 2.4443
# 2 23.9491 95.8750 33.0056 12.2361 11.9065 -18.3040
# 3 -8.2885 33.0056 55.0904 9.5248 10.1359 -13.0358
# 4 10.6994 12.2361 9.5248 43.8837 -0.4706 1.6149
# 5 11.4905 11.9065 10.1359 -0.4706 29.4743 1.9944
# 6 2.4443 -18.3040 -13.0358 1.6149 1.9944 36.9068
#
#
#
# Elastic Compliance Matrix: (Units=1/GPa)
#
#
# Indices 1 2 3 4 5 6 
#
# 1 0.019161 -0.006338 0.008841 -0.004885 -0.007984 -0.000644
# 2 -0.006338 0.016546 -0.009042 -0.001327 -0.001502 0.005571
# 3 0.008841 -0.009042 0.029365 -0.006345 -0.010409 0.006142
# 4 -0.004885 -0.001327 -0.006345 0.025930 0.005307 -0.003997
# 5 -0.007984 -0.001502 -0.010409 0.005307 0.041743 -0.006380
# 6 -0.000644 0.005571 0.006142 -0.003997 -0.006380 0.032590
#
#
# Mechanical properties :
#
#
# Convention : Reuss Voigt Hill
#
# Bulk Modulus (GPa) = 19.23335 35.53697 27.38516
# Shear Modulus (GPa) = 25.54357 33.64189 29.59273
#
# Velocity S-wave (km/s) = 3.36921 3.86658 3.62643
# Velocity P-wave (km/s) = 4.86649 5.97717 5.45019
#
# Compressibility (1/GPa) = 0.05199303
#
# Stress axis : x y z
#
# Youngs Moduli (GPa) = 52.19047 60.43870 34.05387
#
# Poissons Ratio (x) = 0.38305 -0.30107
# Poissons Ratio (y) = 0.33077 0.30793
# Poissons Ratio (z) = -0.46142 0.54652
#
# Static dielectric constant tensor:
#      x y z
#    x 4.246280 -0.097910 -0.126650 
#    y -0.097910 4.568930 0.597210 
#    z -0.126650 0.597210 4.392520 
# 
# 
# High freq. dielectric constant tensor:
#      x y z
#    x 1.887650 0.005720 -0.009540 
#    y 0.005720 1.886350 0.018910 
#    z -0.009540 0.018910 1.885930 
# 
# From -- ./inp_files/225104.got.cif
#   From: 2010.06.25/outbox.cif.g09.slc.cpg/sg2_113_cif.got.tgz:225104.got - 2010.06.27 13:26:56.
