data_PCOD8007187
_publ_section_title
;
Structure prediction by ZEFSAII (Michael W. Deem and Ramdas Pophale) SiO2 
 PCOD8007187
Probable space group: P -1
;
_chemical_formula_sum "Si O2"
_cell_formula_units_Z 16
_cell_length_a 15.696600
_cell_length_b 12.178482
_cell_length_c 16.016126
_cell_angle_alpha 56.288128
_cell_angle_beta 36.695684
_cell_angle_gamma 29.136743
_cell_volume 771.686960
_symmetry_space_group_name_H-M "P -1"
_symmetry_group_IT_number 2
_symmetry_cell_setting 'triclinic'
loop_
_space_group_symop_operation_xyz
x,y,z
-x,-y,-z
loop_
_atom_site_type_symbol
_atom_site_label
_atom_site_fract_x
_atom_site_fract_y
_atom_site_fract_z
Si Si1 0.176670 0.365461 0.226588
Si Si2 0.745734 0.585904 0.352859
Si Si3 0.231515 0.118094 0.430612
Si Si4 0.240515 0.535319 0.220222
Si Si5 0.766353 0.083722 0.625646
Si Si6 0.726777 0.975482 0.871028
Si Si7 0.564883 0.427669 0.382140
Si Si8 0.190613 0.886184 0.112110
O O1 0.273430 0.209746 0.299512
O O2 0.140800 0.547123 0.206189
O O3 0.884402 0.554925 0.334128
O O4 0.433393 0.139141 0.055437
O O5 0.605685 0.567488 0.512346
O O6 0.513072 0.862685 0.372209
O O7 0.998916 0.337166 0.196126
O O8 0.951908 0.374799 0.594975
O O9 0.160288 0.044947 0.464550
O O10 0.202534 0.720425 0.175716
O O11 0.580792 0.238948 0.081709
O O12 0.719537 0.010362 0.763177
O O13 0.496990 0.389661 0.696097
O O14 0.000000 0.000000 0.500000
O O15 0.756113 0.089710 0.849525
O O16 0.500000 0.500000 0.500000
O O17 0.878023 0.165398 0.213832
#
# Coordination Sequence:
#
# PCOD8007187 Si02
#       8
#     2   2   2   2   2   2   2   2
#     4  11  26  44  61  91 134 175 212 262 306 381
#     4  12  23  39  68  96 129 162 211 266 317 383
#     4  12  23  41  66  93 123 179 217 249 319 381
#     4  10  22  41  67  88 125 176 216 255 314 374
#     4  12  21  35  68  97 128 161 203 271 331 378
#     4  11  22  42  64  98 132 159 207 272 329 371
#     4  12  19  37  62 100 125 155 211 264 324 377
#     4  10  20  40  68  92 126 164 208 272 319 370
#
# _framework density 20.733796000000002
#
# number of rings (size 3 to 8) (size 9 to 14) (size 15 to 20)
#    0.000    0.750    6.250    1.500    0.000    1.000 
#    4.500    0.000    2.750    3.750    0.000    0.000 
#    0.000    0.000    0.000    0.000    0.000    0.000 
#
# Total GULP energy -198231.480668 kJ/mol
# GULP energy per Si atom -12389.467542 kJ/mol
# Density = 2.068660 g / cm^3
# Si number density = 20.733796 Si / 1000 Ang^3
#
#
#
# Elastic Constant Matrix: (Units=GPa)
#
#
# Indices 1 2 3 4 5 6 
#
# 1 93.3236 14.3531 36.2510 16.4264 -8.5430 4.7235
# 2 14.3531 45.7607 37.9380 16.3565 7.8878 -9.2359
# 3 36.2510 37.9380 149.5128 27.9034 2.2165 -15.8142
# 4 16.4264 16.3565 27.9034 36.4130 1.7778 2.4782
# 5 -8.5430 7.8878 2.2165 1.7778 30.6090 0.7924
# 6 4.7235 -9.2359 -15.8142 2.4782 0.7924 25.4434
#
#
#
# Elastic Compliance Matrix: (Units=1/GPa)
#
#
# Indices 1 2 3 4 5 6 
#
# 1 0.013355 -0.002986 -0.002611 -0.002579 0.004968 -0.005090
# 2 -0.002986 0.034396 -0.004616 -0.010909 -0.009027 0.011514
# 3 -0.002611 -0.004616 0.009958 -0.004745 -0.000126 0.005465
# 4 -0.002579 -0.010909 -0.004745 0.037828 0.000500 -0.010131
# 5 0.004968 -0.009027 -0.000126 0.000500 0.036504 -0.005463
# 6 -0.005090 0.011514 0.005465 -0.010131 -0.005463 0.048981
#
#
# Mechanical properties :
#
#
# Convention : Reuss Voigt Hill
#
# Bulk Modulus (GPa) = 26.82211 51.74236 39.28223
# Shear Modulus (GPa) = 23.37802 31.83005 27.60404
#
# Velocity S-wave (km/s) = 3.36152 3.92238 3.65273
# Velocity P-wave (km/s) = 5.29442 6.74709 6.06441
#
# Compressibility (1/GPa) = 0.03728267
#
# Stress axis : x y z
#
# Youngs Moduli (GPa) = 74.87734 29.07355 100.41844
#
# Poissons Ratio (x) = 0.08681 0.26221
# Poissons Ratio (y) = 0.22358 0.46354
# Poissons Ratio (z) = 0.19552 0.13420
#
# Static dielectric constant tensor:
#      x y z
#    x 3.946250 0.219720 0.063100 
#    y 0.219720 3.815530 -0.119820 
#    z 0.063100 -0.119820 4.850750 
# 
# 
# High freq. dielectric constant tensor:
#      x y z
#    x 1.820490 0.027160 -0.016290 
#    y 0.027160 1.798340 0.016280 
#    z -0.016290 0.016280 1.816290 
# 
# From -- ./inp_files/436593.got.cif
#   From: 2010.06.25/outbox.cif.g09.slc.cpg/sg2_219_cif.got.tgz:436593.got - 2010.06.27 13:26:56.
