data_PCOD8007198
_publ_section_title
;
Structure prediction by ZEFSAII (Michael W. Deem and Ramdas Pophale) SiO2 
 PCOD8007198
Probable space group: P -1
;
_chemical_formula_sum "Si O2"
_cell_formula_units_Z 14
_cell_length_a 8.219209
_cell_length_b 8.252707
_cell_length_c 15.052544
_cell_angle_alpha 100.717174
_cell_angle_beta 127.748495
_cell_angle_gamma 110.495971
_cell_volume 636.247875
_symmetry_space_group_name_H-M "P -1"
_symmetry_group_IT_number 2
_symmetry_cell_setting 'triclinic'
loop_
_space_group_symop_operation_xyz
x,y,z
-x,-y,-z
loop_
_atom_site_type_symbol
_atom_site_label
_atom_site_fract_x
_atom_site_fract_y
_atom_site_fract_z
Si Si1 0.712339 0.279145 0.152986
Si Si2 0.063167 0.982619 0.418981
Si Si3 0.162488 0.910301 0.965924
Si Si4 0.775736 0.653671 0.154801
Si Si5 0.068189 0.337273 0.421163
Si Si6 0.277918 0.776394 0.541581
Si Si7 0.160418 0.951022 0.169727
O O1 0.406946 0.143558 0.050216
O O2 0.826738 0.516826 0.217931
O O3 0.825355 0.221653 0.262828
O O4 0.793829 0.243167 0.081754
O O5 0.250622 0.910966 0.472231
O O6 0.813429 0.820878 0.256282
O O7 0.192992 0.212010 0.444289
O O8 0.000000 0.000000 0.500000
O O9 0.119579 0.852912 0.049120
O O10 0.919090 0.893625 0.843634
O O11 0.990987 0.767952 0.163225
O O12 0.500000 0.500000 0.000000
O O13 0.261384 0.577936 0.481092
O O14 0.963800 0.314594 0.483281
O O15 0.545262 0.925995 0.694583
#
# Coordination Sequence:
#
# PCOD8007198 Si02
#       7
#     2   2   2   2   2   2   2
#     4  11  21  42  68  93 131 178 226 261 345 405
#     4  10  23  42  67 100 132 174 229 273 329 406
#     4  10  23  40  66  97 128 179 219 278 333 402
#     4  12  25  42  67  97 137 180 222 280 337 403
#     4  10  20  40  68  94 128 175 223 265 332 405
#     4  10  21  40  67  95 129 176 218 276 332 390
#     4  11  23  43  65  98 139 166 226 285 332 390
#
# _framework density 22.004000000000001
#
# number of rings (size 3 to 8) (size 9 to 14) (size 15 to 20)
#    0.000    1.429    4.286    0.857    2.000    1.143 
#    2.571    1.429    0.000    0.000    0.000    0.000 
#    0.000    0.000    0.000    0.000    0.000    0.000 
#
# Total GULP energy -173466.915345 kJ/mol
# GULP energy per Si atom -12390.493953 kJ/mol
# Density = 2.195392 g / cm^3
# Si number density = 22.004000 Si / 1000 Ang^3
#
#
#
# Elastic Constant Matrix: (Units=GPa)
#
#
# Indices 1 2 3 4 5 6 
#
# 1 63.0468 30.2753 15.3389 0.9137 -13.7738 1.4050
# 2 30.2753 159.4562 38.0334 -2.0071 -1.0020 -39.8748
# 3 15.3389 38.0334 89.1371 -7.1870 -6.2252 -13.2013
# 4 0.9137 -2.0071 -7.1870 29.7861 -7.0224 3.0900
# 5 -13.7738 -1.0020 -6.2252 -7.0224 37.7395 -6.1210
# 6 1.4050 -39.8748 -13.2013 3.0900 -6.1210 22.7059
#
#
#
# Elastic Compliance Matrix: (Units=1/GPa)
#
#
# Indices 1 2 3 4 5 6 
#
# 1 0.021029 -0.006678 -0.002270 0.000934 0.005176 -0.013080
# 2 -0.006678 0.014074 -0.001143 -0.001355 0.001562 0.025069
# 3 -0.002270 -0.001143 0.013515 0.003306 0.003016 0.006354
# 4 0.000934 -0.001355 0.003306 0.036275 0.007023 -0.003559
# 5 0.005176 0.001562 0.003016 0.007023 0.032161 0.011890
# 6 -0.013080 0.025069 0.006354 -0.003559 0.011890 0.096259
#
#
# Mechanical properties :
#
#
# Convention : Reuss Voigt Hill
#
# Bulk Modulus (GPa) = 35.16680 53.21503 44.19091
# Shear Modulus (GPa) = 20.57836 33.24580 26.91208
#
# Velocity S-wave (km/s) = 3.06144 3.89124 3.50101
# Velocity P-wave (km/s) = 5.33978 6.66527 6.03900
#
# Compressibility (1/GPa) = 0.02843591
#
# Stress axis : x y z
#
# Youngs Moduli (GPa) = 47.55371 71.05468 73.99060
#
# Poissons Ratio (x) = 0.47450 0.16794
# Poissons Ratio (y) = 0.31756 0.08459
# Poissons Ratio (z) = 0.10793 0.08124
#
# Static dielectric constant tensor:
#      x y z
#    x 3.775550 -0.299030 -0.126120 
#    y -0.299030 4.499880 -0.170230 
#    z -0.126120 -0.170230 3.983880 
# 
# 
# High freq. dielectric constant tensor:
#      x y z
#    x 1.836580 -0.013070 -0.013510 
#    y -0.013070 1.874430 -0.015560 
#    z -0.013510 -0.015560 1.873740 
# 
# From -- ./inp_files/182796.got.cif
#   From: 2010.06.25/outbox.cif.g09.slc.cpg/sg2_92_cif.got.tgz:182796.got - 2010.06.27 13:26:56.
