data_PCOD8007190
_publ_section_title
;
Structure prediction by ZEFSAII (Michael W. Deem and Ramdas Pophale) SiO2 
 PCOD8007190
Probable space group: P -1
;
_chemical_formula_sum "Si O2"
_cell_formula_units_Z 16
_cell_length_a 9.818317
_cell_length_b 14.525328
_cell_length_c 9.054023
_cell_angle_alpha 81.139207
_cell_angle_beta 47.153191
_cell_angle_gamma 111.324605
_cell_volume 713.564144
_symmetry_space_group_name_H-M "P -1"
_symmetry_group_IT_number 2
_symmetry_cell_setting 'triclinic'
loop_
_space_group_symop_operation_xyz
x,y,z
-x,-y,-z
loop_
_atom_site_type_symbol
_atom_site_label
_atom_site_fract_x
_atom_site_fract_y
_atom_site_fract_z
Si Si1 0.536507 0.105673 0.853881
Si Si2 0.367362 0.985763 0.452234
Si Si3 0.504222 0.596732 0.380965
Si Si4 0.400377 0.494403 0.919385
Si Si5 0.754448 0.236399 0.941993
Si Si6 0.982244 0.996211 0.838010
Si Si7 0.221725 0.261084 0.597065
Si Si8 0.021449 0.512322 0.156346
O O1 0.667068 0.116618 0.601764
O O2 0.699101 0.226162 0.808211
O O3 0.500000 0.000000 0.000000
O O4 0.291527 0.081994 0.999540
O O5 0.500000 0.000000 0.500000
O O6 0.101982 0.942403 0.693819
O O7 0.530433 0.115290 0.218620
O O8 0.500000 0.500000 0.500000
O O9 0.613954 0.606065 0.138912
O O10 0.672507 0.722302 0.318340
O O11 0.240224 0.556273 0.560792
O O12 0.573039 0.628579 0.685636
O O13 0.500000 0.500000 0.000000
O O14 0.129855 0.448934 0.146073
O O15 0.790667 0.348141 0.961925
O O16 0.998217 0.257829 0.780590
O O17 0.134021 0.134084 0.630509
O O18 0.000000 0.000000 0.000000
O O19 0.000000 0.500000 0.000000
#
# Coordination Sequence:
#
# PCOD8007190 Si02
#       8
#     2   2   2   2   2   2   2   2
#     4  10  22  43  63  93 141 170 215 276 327 388
#     4  11  22  41  66  96 132 173 218 271 322 390
#     4  10  20  40  68  92 131 167 221 274 320 392
#     4  11  24  43  64  98 135 169 220 273 328 391
#     4  11  22  41  69  95 133 174 216 269 341 386
#     4  12  23  43  71  99 130 172 227 271 319 397
#     4  11  20  43  68  91 134 175 211 274 330 384
#     4  12  21  42  73  96 123 179 224 266 332 400
#
# _framework density 22.422650999999998
#
# number of rings (size 3 to 8) (size 9 to 14) (size 15 to 20)
#    0.000    1.000    8.750    0.750    0.000    2.500 
#    4.500    2.500    0.000    0.000    0.000    0.000 
#    0.000    0.000    0.000    0.000    0.000    0.000 
#
# Total GULP energy -198360.527402 kJ/mol
# GULP energy per Si atom -12397.532963 kJ/mol
# Density = 2.237162 g / cm^3
# Si number density = 22.422651 Si / 1000 Ang^3
#
#
#
# Elastic Constant Matrix: (Units=GPa)
#
#
# Indices 1 2 3 4 5 6 
#
# 1 161.5817 48.9321 54.1262 36.0851 -22.0106 17.8094
# 2 48.9321 126.6797 40.0574 33.5471 -4.7178 30.6869
# 3 54.1262 40.0574 84.8038 35.1124 -27.3345 0.3425
# 4 36.0851 33.5471 35.1124 41.1042 -3.1131 -3.7148
# 5 -22.0106 -4.7178 -27.3345 -3.1131 45.3741 15.6025
# 6 17.8094 30.6869 0.3425 -3.7148 15.6025 41.5512
#
#
#
# Elastic Compliance Matrix: (Units=1/GPa)
#
#
# Indices 1 2 3 4 5 6 
#
# 1 0.010077 0.001181 -0.000946 -0.009264 0.006744 -0.008544
# 2 0.001181 0.015246 0.000360 -0.014688 0.006735 -0.015611
# 3 -0.000946 0.000360 0.026845 -0.021862 0.017168 -0.008483
# 4 -0.009264 -0.014688 -0.021862 0.063944 -0.025179 0.030170
# 5 0.006744 0.006735 0.017168 -0.025179 0.043810 -0.026708
# 6 -0.008544 -0.015611 -0.008483 0.030170 -0.026708 0.052054
#
#
# Mechanical properties :
#
#
# Convention : Reuss Voigt Hill
#
# Bulk Modulus (GPa) = 18.74088 73.25520 45.99804
# Shear Modulus (GPa) = 21.87502 40.93587 31.40545
#
# Velocity S-wave (km/s) = 3.12681 4.27740 3.74654
# Velocity P-wave (km/s) = 4.62732 7.55883 6.26690
#
# Compressibility (1/GPa) = 0.05335930
#
# Stress axis : x y z
#
# Youngs Moduli (GPa) = 99.23333 65.59097 37.25068
#
# Poissons Ratio (x) = -0.07744 0.03523
# Poissons Ratio (y) = -0.11715 -0.01343
# Poissons Ratio (z) = 0.09384 -0.02365
#
# Static dielectric constant tensor:
#      x y z
#    x 4.309890 0.076930 -0.229650 
#    y 0.076930 3.598440 0.252950 
#    z -0.229650 0.252950 4.057780 
# 
# 
# High freq. dielectric constant tensor:
#      x y z
#    x 1.891540 0.011610 -0.017800 
#    y 0.011610 1.884620 0.025660 
#    z -0.017800 0.025660 1.869090 
# 
# From -- ./inp_files/206729.got.cif
#   From: 2010.06.25/outbox.cif.g09.slc.cpg/sg2_104_cif.got.tgz:206729.got - 2010.06.27 13:26:56.
