data_PCOD8007750
_publ_section_title
;
Structure prediction by ZEFSAII (Michael W. Deem and Ramdas Pophale) SiO2 
 PCOD8007750
Probable space group: P -1
;
_chemical_formula_sum "Si O2"
_cell_formula_units_Z 16
_cell_length_a 9.462087
_cell_length_b 8.399536
_cell_length_c 11.734283
_cell_angle_alpha 72.292162
_cell_angle_beta 100.266722
_cell_angle_gamma 129.334905
_cell_volume 687.018102
_symmetry_space_group_name_H-M "P -1"
_symmetry_group_IT_number 2
_symmetry_cell_setting 'triclinic'
loop_
_space_group_symop_operation_xyz
x,y,z
-x,-y,-z
loop_
_atom_site_type_symbol
_atom_site_label
_atom_site_fract_x
_atom_site_fract_y
_atom_site_fract_z
Si Si1 0.714028 0.889207 0.228241
Si Si2 0.049486 0.285795 0.099126
Si Si3 0.886124 0.410010 0.389384
Si Si4 0.527360 0.966705 0.843961
Si Si5 0.814271 0.969492 0.466600
Si Si6 0.927539 0.361407 0.854127
Si Si7 0.541861 0.398399 0.933535
Si Si8 0.513151 0.845354 0.612075
O O1 0.596702 0.683490 0.174897
O O2 0.636048 0.020666 0.185299
O O3 0.710629 0.821776 0.372340
O O4 0.925018 0.046441 0.182154
O O5 0.993753 0.414752 0.127244
O O6 0.261252 0.407874 0.128511
O O7 0.010303 0.269475 0.961027
O O8 0.860034 0.196826 0.399786
O O9 0.694094 0.373948 0.378806
O O10 0.000000 0.500000 0.500000
O O11 0.000794 0.595727 0.273133
O O12 0.562009 0.910839 0.736999
O O13 0.708408 0.194521 0.859859
O O14 0.470905 0.792919 0.969697
O O15 0.674076 0.846012 0.580277
O O16 0.000000 0.000000 0.500000
O O17 0.500000 0.500000 0.000000
O O18 0.500000 0.000000 0.500000
#
# Coordination Sequence:
#
# PCOD8007750 Si02
#       8
#     2   2   2   2   2   2   2   2
#     4  12  23  47  73  98 135 186 238 283 339 425
#     4  11  22  39  69  99 133 170 225 280 335 409
#     4  11  22  39  68 104 134 173 238 289 341 414
#     4  12  21  43  75  98 132 180 231 288 341 414
#     4  11  25  46  67  99 142 187 232 287 358 412
#     4  11  20  37  70 103 125 172 232 283 330 406
#     4  12  28  45  65 105 144 178 223 286 364 417
#     4  10  20  41  67  99 134 174 233 292 332 404
#
# _framework density 23.289052000000002
#
# number of rings (size 3 to 8) (size 9 to 14) (size 15 to 20)
#    0.000    0.750    6.250    4.125    0.000    1.500 
#    6.750    0.625    0.000    0.000    0.000    0.000 
#    0.000    0.000    0.000    0.000    0.000    0.000 
#
# Total GULP energy -198362.765749 kJ/mol
# GULP energy per Si atom -12397.672859 kJ/mol
# Density = 2.323605 g / cm^3
# Si number density = 23.289052 Si / 1000 Ang^3
#
#
#
# Elastic Constant Matrix: (Units=GPa)
#
#
# Indices 1 2 3 4 5 6 
#
# 1 110.2259 40.0191 21.7953 5.1822 -14.6587 28.4549
# 2 40.0191 94.2536 34.5674 21.4530 -6.9610 41.5174
# 3 21.7953 34.5674 132.5301 32.8528 -18.5663 14.7425
# 4 5.1822 21.4530 32.8528 46.1332 8.3563 -4.0948
# 5 -14.6587 -6.9610 -18.5663 8.3563 33.8711 -2.1795
# 6 28.4549 41.5174 14.7425 -4.0948 -2.1795 38.7040
#
#
#
# Elastic Compliance Matrix: (Units=1/GPa)
#
#
# Indices 1 2 3 4 5 6 
#
# 1 0.012362 -0.000073 0.000873 -0.003930 0.006177 -0.009411
# 2 -0.000073 0.031454 0.002830 -0.021868 0.011033 -0.036457
# 3 0.000873 0.002830 0.012310 -0.012856 0.010290 -0.009147
# 4 -0.003930 -0.021868 -0.012856 0.048725 -0.023004 0.035104
# 5 0.006177 0.011033 0.010290 -0.023004 0.044479 -0.020225
# 6 -0.009411 -0.036457 -0.009147 0.035104 -0.020225 0.077922
#
#
# Mechanical properties :
#
#
# Convention : Reuss Voigt Hill
#
# Bulk Modulus (GPa) = 15.77661 58.86368 37.32015
# Shear Modulus (GPa) = 20.73670 39.78352 30.26011
#
# Velocity S-wave (km/s) = 2.98720 4.13758 3.60853
# Velocity P-wave (km/s) = 4.32282 6.93947 5.78114
#
# Compressibility (1/GPa) = 0.06338495
#
# Stress axis : x y z
#
# Youngs Moduli (GPa) = 80.89446 31.79283 81.23762
#
# Poissons Ratio (x) = 0.00231 -0.07088
# Poissons Ratio (y) = 0.00587 -0.22990
# Poissons Ratio (z) = -0.07058 -0.08997
#
# Static dielectric constant tensor:
#      x y z
#    x 4.310840 0.430310 -0.190750 
#    y 0.430310 4.260390 0.135670 
#    z -0.190750 0.135670 4.554870 
# 
# 
# High freq. dielectric constant tensor:
#      x y z
#    x 1.904980 0.032620 -0.013490 
#    y 0.032620 1.911460 0.013750 
#    z -0.013490 0.013750 1.937510 
# 
# From -- ./inp_files/382041.got.cif
#   From: 2010.06.25/outbox.cif.g09.slc.cpg/sg2_192_cif.got.tgz:382041.got - 2010.06.27 13:26:56.
