data_PCOD8007857
_publ_section_title
;
Structure prediction by ZEFSAII (Michael W. Deem and Ramdas Pophale) SiO2 
 PCOD8007857
Probable space group: P -1
;
_chemical_formula_sum "Si O2"
_cell_formula_units_Z 14
_cell_length_a 9.254607
_cell_length_b 16.103112
_cell_length_c 8.894591
_cell_angle_alpha 40.850011
_cell_angle_beta 76.593815
_cell_angle_gamma 53.237896
_cell_volume 629.874449
_symmetry_space_group_name_H-M "P -1"
_symmetry_group_IT_number 2
_symmetry_cell_setting 'triclinic'
loop_
_space_group_symop_operation_xyz
x,y,z
-x,-y,-z
loop_
_atom_site_type_symbol
_atom_site_label
_atom_site_fract_x
_atom_site_fract_y
_atom_site_fract_z
Si Si1 0.352411 0.843865 0.386342
Si Si2 0.149851 0.546251 0.677167
Si Si3 0.231514 0.122586 0.809732
Si Si4 0.286948 0.619868 0.809576
Si Si5 0.016492 0.365507 0.946013
Si Si6 0.274787 0.374484 0.574998
Si Si7 0.551351 0.986761 0.679550
O O1 0.220120 0.801868 0.536475
O O2 0.535286 0.672179 0.489612
O O3 0.444461 0.867224 0.474810
O O4 0.227237 0.005642 0.083965
O O5 0.298114 0.527768 0.783408
O O6 0.036248 0.489679 0.858965
O O7 0.282083 0.411302 0.696174
O O8 0.987890 0.740506 0.394736
O O9 0.298603 0.209137 0.768290
O O10 0.387858 0.007997 0.793142
O O11 0.500000 0.500000 0.000000
O O12 0.116746 0.660152 0.901500
O O13 0.927507 0.453047 0.683528
O O14 0.230024 0.188465 0.101359
O O15 0.500000 0.000000 0.500000
#
# Coordination Sequence:
#
# PCOD8007857 Si02
#       7
#     2   2   2   2   2   2   2
#     4  11  23  43  62  93 143 167 207 274 327 378
#     4  11  23  41  75  95 122 172 227 262 318 392
#     4  10  21  42  67 102 128 162 219 277 320 370
#     4  12  27  44  61  96 139 175 207 272 329 379
#     4  11  22  43  68  96 127 170 223 263 318 389
#     4  10  20  41  70 100 121 166 221 275 314 381
#     4  11  23  39  68 101 129 171 217 266 323 387
#
# _framework density 22.226652000000001
#
# number of rings (size 3 to 8) (size 9 to 14) (size 15 to 20)
#    0.000    1.143    1.429    7.286    2.000    1.714 
#    0.000    0.000    0.000    0.000    0.000    0.000 
#    0.000    0.000    0.000    0.000    0.000    0.000 
#
# Total GULP energy -173573.072692 kJ/mol
# GULP energy per Si atom -12398.076621 kJ/mol
# Density = 2.217606 g / cm^3
# Si number density = 22.226652 Si / 1000 Ang^3
#
#
#
# Elastic Constant Matrix: (Units=GPa)
#
#
# Indices 1 2 3 4 5 6 
#
# 1 117.4429 56.0692 66.5524 10.7684 -7.8366 13.0762
# 2 56.0692 139.9784 68.0170 15.4753 9.4569 7.7267
# 3 66.5524 68.0170 129.9142 10.6407 -24.5108 -11.0231
# 4 10.7684 15.4753 10.6407 32.7156 -7.4307 13.4608
# 5 -7.8366 9.4569 -24.5108 -7.4307 44.3131 -1.7436
# 6 13.0762 7.7267 -11.0231 13.4608 -1.7436 28.7787
#
#
#
# Elastic Compliance Matrix: (Units=1/GPa)
#
#
# Indices 1 2 3 4 5 6 
#
# 1 0.014713 -0.001515 -0.008161 0.002574 -0.001578 -0.010704
# 2 -0.001515 0.012370 -0.007288 -0.002830 -0.007593 -0.004560
# 3 -0.008161 -0.007288 0.019400 -0.004197 0.010757 0.015710
# 4 0.002574 -0.002830 -0.004197 0.042431 0.005004 -0.021560
# 5 -0.001578 -0.007593 0.010757 0.005004 0.030949 0.006410
# 6 -0.010704 -0.004560 0.015710 -0.021560 0.006410 0.057326
#
#
# Mechanical properties :
#
#
# Convention : Reuss Voigt Hill
#
# Bulk Modulus (GPa) = 79.64656 85.40140 82.52398
# Shear Modulus (GPa) = 23.22343 34.27461 28.74902
#
# Velocity S-wave (km/s) = 3.23591 3.93115 3.60036
# Velocity P-wave (km/s) = 7.06209 7.68841 7.38190
#
# Compressibility (1/GPa) = 0.01255547
#
# Stress axis : x y z
#
# Youngs Moduli (GPa) = 67.96676 80.84373 51.54756
#
# Poissons Ratio (x) = 0.12249 0.42066
# Poissons Ratio (y) = 0.10298 0.37565
# Poissons Ratio (z) = 0.55466 0.58915
#
# Static dielectric constant tensor:
#      x y z
#    x 3.947690 -0.007320 -0.104050 
#    y -0.007320 4.053470 0.050780 
#    z -0.104050 0.050780 4.180060 
# 
# 
# High freq. dielectric constant tensor:
#      x y z
#    x 1.850450 -0.006220 0.004230 
#    y -0.006220 1.880960 0.005270 
#    z 0.004230 0.005270 1.887080 
# 
# From -- ./inp_files/205111.got.cif
#   From: 2010.06.25/outbox.cif.g09.slc.cpg/sg2_103_cif.got.tgz:205111.got - 2010.06.27 13:26:56.
