data_PCOD8007565
_publ_section_title
;
Structure prediction by ZEFSAII (Michael W. Deem and Ramdas Pophale) SiO2 
 PCOD8007565
Probable space group: P -1
;
_chemical_formula_sum "Si O2"
_cell_formula_units_Z 16
_cell_length_a 9.115764
_cell_length_b 12.815630
_cell_length_c 11.904811
_cell_angle_alpha 143.504036
_cell_angle_beta 98.368959
_cell_angle_gamma 97.348881
_cell_volume 744.119844
_symmetry_space_group_name_H-M "P -1"
_symmetry_group_IT_number 2
_symmetry_cell_setting 'triclinic'
loop_
_space_group_symop_operation_xyz
x,y,z
-x,-y,-z
loop_
_atom_site_type_symbol
_atom_site_label
_atom_site_fract_x
_atom_site_fract_y
_atom_site_fract_z
Si Si1 0.011761 0.323138 0.787634
Si Si2 0.577007 0.896088 0.715373
Si Si3 0.214255 0.007859 0.384094
Si Si4 0.372730 0.123943 0.901703
Si Si5 0.388775 0.468367 0.352748
Si Si6 0.347513 0.303482 0.829420
Si Si7 0.143912 0.189943 0.225172
Si Si8 0.983819 0.168784 0.410389
O O1 0.178029 0.320055 0.850131
O O2 0.846255 0.149703 0.661203
O O3 0.002367 0.318620 0.645207
O O4 0.000000 0.500000 0.000000
O O5 0.434397 0.679627 0.484659
O O6 0.705140 0.870189 0.791680
O O7 0.675624 0.018656 0.724496
O O8 0.498941 0.034504 0.876354
O O9 0.333041 0.208383 0.624736
O O10 0.048870 0.012978 0.323713
O O11 0.382137 0.173685 0.814408
O O12 0.197352 0.952639 0.759907
O O13 0.416760 0.324387 0.144198
O O14 0.500000 0.500000 0.500000
O O15 0.201523 0.361176 0.285767
O O16 0.500000 0.500000 0.000000
O O17 0.095062 0.274366 0.405622
O O18 0.000000 0.000000 0.000000
#
# Coordination Sequence:
#
# PCOD8007565 Si02
#       8
#     2   2   2   2   2   2   2   2
#     4  11  23  40  65  95 138 171 218 271 323 399
#     4  10  25  40  66  98 129 172 223 265 336 396
#     4  10  20  44  60  90 135 171 211 267 321 391
#     4  12  22  41  68  93 135 171 217 277 326 392
#     4  10  23  44  66  92 129 168 218 279 335 387
#     4  11  23  39  66  96 130 177 218 265 332 388
#     4  10  20  42  73  89 126 175 215 276 335 386
#     4  10  20  41  65  91 125 174 215 260 332 388
#
# _framework density 21.501912000000001
#
# number of rings (size 3 to 8) (size 9 to 14) (size 15 to 20)
#    0.000    1.500    3.750    1.500    1.750    5.500 
#    0.000    0.625    0.000    0.000    0.000    0.000 
#    0.000    0.000    0.000    0.000    0.000    0.000 
#
# Total GULP energy -198222.892247 kJ/mol
# GULP energy per Si atom -12388.930765 kJ/mol
# Density = 2.145297 g / cm^3
# Si number density = 21.501912 Si / 1000 Ang^3
#
#
#
# Elastic Constant Matrix: (Units=GPa)
#
#
# Indices 1 2 3 4 5 6 
#
# 1 79.1433 43.5693 45.3651 6.0934 8.3985 10.0574
# 2 43.5693 75.9015 24.7950 2.8778 -5.0153 24.9152
# 3 45.3651 24.7950 113.8094 4.5467 -6.5803 8.3318
# 4 6.0934 2.8778 4.5467 31.6046 6.6504 3.8346
# 5 8.3985 -5.0153 -6.5803 6.6504 38.4066 4.0814
# 6 10.0574 24.9152 8.3318 3.8346 4.0814 33.8055
#
#
#
# Elastic Compliance Matrix: (Units=1/GPa)
#
#
# Indices 1 2 3 4 5 6 
#
# 1 0.025615 -0.014825 -0.007951 -0.001266 -0.009375 0.006540
# 2 -0.014825 0.027380 0.001711 0.000348 0.008889 -0.017303
# 3 -0.007951 0.001711 0.012048 -0.001014 0.004445 -0.002287
# 4 -0.001266 0.000348 -0.001014 0.033462 -0.005350 -0.002780
# 5 -0.009375 0.008889 0.004445 -0.005350 0.031796 -0.008089
# 6 0.006540 -0.017303 -0.002287 -0.002780 -0.008089 0.042243
#
#
# Mechanical properties :
#
#
# Convention : Reuss Voigt Hill
#
# Bulk Modulus (GPa) = 43.64219 55.14588 49.39404
# Shear Modulus (GPa) = 22.49091 31.10500 26.79795
#
# Velocity S-wave (km/s) = 3.23769 3.80757 3.53414
# Velocity P-wave (km/s) = 5.85814 6.71064 6.29883
#
# Compressibility (1/GPa) = 0.02291361
#
# Stress axis : x y z
#
# Youngs Moduli (GPa) = 39.03938 36.52304 83.00118
#
# Poissons Ratio (x) = 0.54145 0.65993
# Poissons Ratio (y) = 0.57875 -0.14201
# Poissons Ratio (z) = 0.31040 -0.06249
#
# Static dielectric constant tensor:
#      x y z
#    x 4.051310 0.600180 0.261170 
#    y 0.600180 4.171800 -0.029690 
#    z 0.261170 -0.029690 4.302350 
# 
# 
# High freq. dielectric constant tensor:
#      x y z
#    x 1.839200 0.027470 0.011630 
#    y 0.027470 1.838430 -0.010220 
#    z 0.011630 -0.010220 1.842450 
# 
# From -- ./inp_files/188014.got.cif
#   From: 2010.06.25/outbox.cif.g09.slc.cpg/sg2_95_cif.got.tgz:188014.got - 2010.06.27 13:26:56.
