data_PCOD8007938
_publ_section_title
;
Structure prediction by ZEFSAII (Michael W. Deem and Ramdas Pophale) SiO2 
 PCOD8007938
Probable space group: P -1
;
_chemical_formula_sum "Si O2"
_cell_formula_units_Z 16
_cell_length_a 19.844393
_cell_length_b 9.514947
_cell_length_c 12.935918
_cell_angle_alpha 134.485566
_cell_angle_beta 153.695348
_cell_angle_gamma 55.385615
_cell_volume 758.120447
_symmetry_space_group_name_H-M "P -1"
_symmetry_group_IT_number 2
_symmetry_cell_setting 'triclinic'
loop_
_space_group_symop_operation_xyz
x,y,z
-x,-y,-z
loop_
_atom_site_type_symbol
_atom_site_label
_atom_site_fract_x
_atom_site_fract_y
_atom_site_fract_z
Si Si1 0.845761 0.380712 0.773614
Si Si2 0.451302 0.950028 0.521772
Si Si3 0.124437 0.429148 0.561252
Si Si4 0.405685 0.679143 0.964097
Si Si5 0.340877 0.911940 0.792289
Si Si6 0.272337 0.325089 0.904821
Si Si7 0.436867 0.426684 0.485419
Si Si8 0.136565 0.670238 0.993498
O O1 0.777805 0.197033 0.512000
O O2 0.732912 0.538654 0.708407
O O3 0.877064 0.298346 0.887107
O O4 0.000000 0.500000 0.000000
O O5 0.567751 0.809100 0.646240
O O6 0.500000 0.000000 0.500000
O O7 0.476565 0.144525 0.727529
O O8 0.272967 0.839391 0.223719
O O9 0.216148 0.299295 0.694380
O O10 0.000000 0.500000 0.500000
O O11 0.026299 0.302169 0.268480
O O12 0.245888 0.613604 0.773882
O O13 0.500000 0.500000 0.000000
O O14 0.363340 0.757283 0.833875
O O15 0.271565 0.103886 0.837459
O O16 0.500000 0.000000 0.000000
O O17 0.168268 0.446375 0.894864
O O18 0.447023 0.455606 0.207968
O O19 0.500000 0.500000 0.500000
#
# Coordination Sequence:
#
# PCOD8007938 Si02
#       8
#     2   2   2   2   2   2   2   2
#     4  12  25  42  64 100 141 171 216 275 337 383
#     4  11  23  41  73  99 123 172 236 265 325 398
#     4  10  22  45  68  93 137 175 213 274 335 392
#     4  12  26  43  66 101 135 172 223 279 328 395
#     4  12  24  41  67  98 134 175 223 270 333 394
#     4  10  20  41  73  95 121 177 230 265 323 392
#     4  11  20  42  73  93 129 178 224 273 318 395
#     4  10  22  45  68  94 136 176 217 275 330 397
#
# _framework density 21.104825000000002
#
# number of rings (size 3 to 8) (size 9 to 14) (size 15 to 20)
#    0.000    1.000    3.750    5.250    1.750    0.000 
#    6.750    4.375    0.000    0.000    0.000    0.000 
#    0.000    0.000    0.000    0.000    0.000    0.000 
#
# Total GULP energy -198358.318328 kJ/mol
# GULP energy per Si atom -12397.394895 kJ/mol
# Density = 2.105679 g / cm^3
# Si number density = 21.104825 Si / 1000 Ang^3
#
#
#
# Elastic Constant Matrix: (Units=GPa)
#
#
# Indices 1 2 3 4 5 6 
#
# 1 123.8136 52.5186 59.7598 -0.3814 3.2739 23.2927
# 2 52.5186 136.5408 53.2798 5.8239 -9.5928 9.7094
# 3 59.7598 53.2798 158.5113 -3.1428 -7.6789 3.8781
# 4 -0.3814 5.8239 -3.1428 38.3759 2.5996 -7.7785
# 5 3.2739 -9.5928 -7.6789 2.5996 52.2808 -1.8959
# 6 23.2927 9.7094 3.8781 -7.7785 -1.8959 38.7280
#
#
#
# Elastic Compliance Matrix: (Units=1/GPa)
#
#
# Indices 1 2 3 4 5 6 
#
# 1 0.012390 -0.002985 -0.003623 -0.000925 -0.002050 -0.006627
# 2 -0.002985 0.009504 -0.002007 -0.001890 0.001705 -0.000683
# 3 -0.003623 -0.002007 0.008376 0.001318 0.001102 0.002162
# 4 -0.000925 -0.001890 0.001318 0.027831 -0.001246 0.006427
# 5 -0.002050 0.001705 0.001102 -0.001246 0.019844 0.001416
# 6 -0.006627 -0.000683 0.002162 0.006427 0.001416 0.031121
#
#
# Mechanical properties :
#
#
# Convention : Reuss Voigt Hill
#
# Bulk Modulus (GPa) = 76.69518 83.33135 80.01327
# Shear Modulus (GPa) = 38.27217 42.76412 40.51815
#
# Velocity S-wave (km/s) = 4.26306 4.50630 4.38637
# Velocity P-wave (km/s) = 7.78785 8.16369 7.97798
#
# Compressibility (1/GPa) = 0.01303863
#
# Stress axis : x y z
#
# Youngs Moduli (GPa) = 80.71302 105.21584 119.38897
#
# Poissons Ratio (x) = 0.31408 0.43256
# Poissons Ratio (y) = 0.24093 0.23966
# Poissons Ratio (z) = 0.29243 0.21121
#
# Static dielectric constant tensor:
#      x y z
#    x 3.845680 0.150570 -0.263190 
#    y 0.150570 3.836620 -0.148730 
#    z -0.263190 -0.148730 4.238840 
# 
# 
# High freq. dielectric constant tensor:
#      x y z
#    x 1.827860 0.008400 -0.012050 
#    y 0.008400 1.822320 -0.009540 
#    z -0.012050 -0.009540 1.839300 
# 
# From -- ./inp_files/403503.got.cif
#   From: 2010.06.25/outbox.cif.g09.slc.cpg/sg2_202_cif.got.tgz:403503.got - 2010.06.27 13:26:56.
