data_PCOD8007407
_publ_section_title
;
Structure prediction by ZEFSAII (Michael W. Deem and Ramdas Pophale) SiO2 
 PCOD8007407
Probable space group: P -1
;
_chemical_formula_sum "Si O2"
_cell_formula_units_Z 16
_cell_length_a 9.056413
_cell_length_b 15.021216
_cell_length_c 11.227417
_cell_angle_alpha 77.553509
_cell_angle_beta 38.198279
_cell_angle_gamma 96.979926
_cell_volume 808.222514
_symmetry_space_group_name_H-M "P -1"
_symmetry_group_IT_number 2
_symmetry_cell_setting 'triclinic'
loop_
_space_group_symop_operation_xyz
x,y,z
-x,-y,-z
loop_
_atom_site_type_symbol
_atom_site_label
_atom_site_fract_x
_atom_site_fract_y
_atom_site_fract_z
Si Si1 0.739938 0.390031 0.222402
Si Si2 0.308237 0.107133 0.898798
Si Si3 0.335557 0.740360 0.914279
Si Si4 0.861916 0.278590 0.387230
Si Si5 0.834782 0.675394 0.384758
Si Si6 0.908073 0.122509 0.964897
Si Si7 0.910244 0.383505 0.559815
Si Si8 0.651687 0.770134 0.940307
O O1 0.604628 0.317993 0.212612
O O2 0.809071 0.322361 0.287096
O O3 0.481724 0.403659 0.425215
O O4 0.000000 0.500000 0.000000
O O5 0.600083 0.178784 0.633758
O O6 0.082522 0.122910 0.966723
O O7 0.289399 0.130303 0.043694
O O8 0.251607 0.989501 0.962142
O O9 0.569004 0.781271 0.855202
O O10 0.308025 0.841181 0.860746
O O11 0.038614 0.653111 0.178905
O O12 0.959763 0.372281 0.392760
O O13 0.088481 0.246259 0.223902
O O14 0.901726 0.795044 0.281378
O O15 0.910945 0.661203 0.474838
O O16 0.000000 0.500000 0.500000
O O17 0.592756 0.325753 0.810360
#
# Coordination Sequence:
#
# PCOD8007407 Si02
#       8
#     2   2   2   2   2   2   2   2
#     4  12  25  37  61  89 120 157 198 244 295 352
#     4  10  20  41  62  92 113 159 198 238 307 341
#     4   9  21  42  58  85 119 156 197 241 291 346
#     4  11  23  39  58  92 121 148 201 250 288 354
#     4   9  21  43  59  85 119 155 194 246 286 353
#     4   9  19  41  65  83 122 155 195 246 292 355
#     4  10  23  40  63  83 118 164 196 238 300 347
#     4  10  22  39  61  86 123 151 197 248 284 360
#
# _framework density 19.796527999999999
#
# number of rings (size 3 to 8) (size 9 to 14) (size 15 to 20)
#    0.750    1.250    1.250    1.500    5.250    1.500 
#    2.250    2.500    0.000    0.000    0.000    0.000 
#    0.000    0.000    0.000    0.000    0.000    0.000 
#
# Total GULP energy -198273.935497 kJ/mol
# GULP energy per Si atom -12392.120969 kJ/mol
# Density = 1.975147 g / cm^3
# Si number density = 19.796528 Si / 1000 Ang^3
#
#
#
# Elastic Constant Matrix: (Units=GPa)
#
#
# Indices 1 2 3 4 5 6 
#
# 1 112.7972 39.7505 30.8351 -0.1952 1.7910 -1.4819
# 2 39.7505 92.5438 28.7346 -8.4238 2.0614 14.6611
# 3 30.8351 28.7346 71.8156 -4.1042 -10.3198 -5.9986
# 4 -0.1952 -8.4238 -4.1042 27.2663 -3.7192 -6.5843
# 5 1.7910 2.0614 -10.3198 -3.7192 30.9530 6.3901
# 6 -1.4819 14.6611 -5.9986 -6.5843 6.3901 31.7619
#
#
#
# Elastic Compliance Matrix: (Units=1/GPa)
#
#
# Indices 1 2 3 4 5 6 
#
# 1 0.011338 -0.004211 -0.003413 -0.001554 -0.002098 0.001928
# 2 -0.004211 0.015628 -0.005070 0.002063 -0.000626 -0.007814
# 3 -0.003413 -0.005070 0.018933 0.003360 0.006175 0.005211
# 4 -0.001554 0.002063 0.003360 0.040111 0.004441 0.007032
# 5 -0.002098 -0.000626 0.006175 0.004441 0.036091 -0.004983
# 6 0.001928 -0.007814 0.005211 0.007032 -0.004983 0.038626
#
#
# Mechanical properties :
#
#
# Convention : Reuss Voigt Hill
#
# Bulk Modulus (GPa) = 48.75045 52.86633 50.80839
# Shear Modulus (GPa) = 25.91321 29.85199 27.88260
#
# Velocity S-wave (km/s) = 3.62190 3.88743 3.75702
# Velocity P-wave (km/s) = 6.49385 6.84926 6.67392
#
# Compressibility (1/GPa) = 0.02051263
#
# Stress axis : x y z
#
# Youngs Moduli (GPa) = 88.19723 63.98676 52.81745
#
# Poissons Ratio (x) = 0.26943 0.18025
# Poissons Ratio (y) = 0.37137 0.26779
# Poissons Ratio (z) = 0.30099 0.32442
#
# Static dielectric constant tensor:
#      x y z
#    x 3.753640 0.032450 -0.040500 
#    y 0.032450 3.432820 0.029350 
#    z -0.040500 0.029350 3.568500 
# 
# 
# High freq. dielectric constant tensor:
#      x y z
#    x 1.786090 -0.003110 -0.006010 
#    y -0.003110 1.760880 0.008120 
#    z -0.006010 0.008120 1.763530 
# 
# From -- ./inp_files/398897.got.cif
#   From: 2010.06.25/outbox.cif.g09.slc.cpg/sg2_200_cif.got.tgz:398897.got - 2010.06.27 13:26:56.
