data_PCOD8007251
_publ_section_title
;
Structure prediction by ZEFSAII (Michael W. Deem and Ramdas Pophale) SiO2 
 PCOD8007251
Probable space group: P -1
;
_chemical_formula_sum "Si O2"
_cell_formula_units_Z 14
_cell_length_a 9.294507
_cell_length_b 9.127385
_cell_length_c 8.720050
_cell_angle_alpha 72.788341
_cell_angle_beta 104.638725
_cell_angle_gamma 106.370420
_cell_volume 666.314912
_symmetry_space_group_name_H-M "P -1"
_symmetry_group_IT_number 2
_symmetry_cell_setting 'triclinic'
loop_
_space_group_symop_operation_xyz
x,y,z
-x,-y,-z
loop_
_atom_site_type_symbol
_atom_site_label
_atom_site_fract_x
_atom_site_fract_y
_atom_site_fract_z
Si Si1 0.884172 0.110708 0.916404
Si Si2 0.837742 0.794447 0.609985
Si Si3 0.933229 0.349357 0.123870
Si Si4 0.540431 0.034278 0.822711
Si Si5 0.950141 0.133572 0.610336
Si Si6 0.501038 0.320569 0.514853
Si Si7 0.305963 0.761581 0.674243
O O1 0.713587 0.016738 0.856921
O O2 0.944736 0.217784 0.747718
O O3 0.874797 0.207168 0.035773
O O4 0.000000 0.000000 0.000000
O O5 0.657348 0.750110 0.590288
O O6 0.919207 0.660476 0.733368
O O7 0.881605 0.818859 0.433124
O O8 0.908626 0.945979 0.685362
O O9 0.782622 0.358837 0.181716
O O10 0.000000 0.500000 0.000000
O O11 0.525179 0.208172 0.700585
O O12 0.438387 0.899605 0.733233
O O13 0.500000 0.000000 0.000000
O O14 0.826396 0.160300 0.447117
O O15 0.500000 0.500000 0.500000
O O16 0.631281 0.328666 0.418403
#
# Coordination Sequence:
#
# PCOD8007251 Si02
#       7
#     2   2   2   2   2   2   2
#     4  12  24  40  66 102 130 171 230 277 332 398
#     4  10  22  40  67  96 129 170 224 273 334 398
#     4  11  26  44  64  96 141 177 217 281 349 399
#     4  12  25  44  72 101 138 177 233 285 330 404
#     4  10  20  40  69  94 124 170 229 275 315 397
#     4  12  27  44  69 103 139 179 226 280 346 407
#     4  11  23  47  69  94 130 186 225 277 334 406
#
# _framework density 21.011085999999999
#
# number of rings (size 3 to 8) (size 9 to 14) (size 15 to 20)
#    0.000    0.857    5.714    1.286    4.000    1.143 
#    0.000    4.286    0.000    0.000    0.000    0.000 
#    0.000    0.000    0.000    0.000    0.000    0.000 
#
# Total GULP energy -173461.812671 kJ/mol
# GULP energy per Si atom -12390.129477 kJ/mol
# Density = 2.096326 g / cm^3
# Si number density = 21.011086 Si / 1000 Ang^3
#
#
#
# Elastic Constant Matrix: (Units=GPa)
#
#
# Indices 1 2 3 4 5 6 
#
# 1 134.2124 32.3934 52.5888 -11.6378 -10.6323 -0.8074
# 2 32.3934 72.7898 41.1221 -20.2183 -5.4999 -7.1972
# 3 52.5888 41.1221 121.4623 -6.8939 -23.0739 -2.7201
# 4 -11.6378 -20.2183 -6.8939 33.5061 -1.6871 -4.9519
# 5 -10.6323 -5.4999 -23.0739 -1.6871 47.7840 7.8831
# 6 -0.8074 -7.1972 -2.7201 -4.9519 7.8831 27.6260
#
#
#
# Elastic Compliance Matrix: (Units=1/GPa)
#
#
# Indices 1 2 3 4 5 6 
#
# 1 0.009339 -0.001967 -0.003233 0.001348 0.000410 -0.000433
# 2 -0.001967 0.022182 -0.006090 0.012524 -0.001678 0.007845
# 3 -0.003233 -0.006090 0.012438 -0.002328 0.004877 -0.002266
# 4 0.001348 0.012524 -0.002328 0.038879 0.000350 0.009942
# 5 0.000410 -0.001678 0.004877 0.000350 0.024318 -0.006821
# 6 -0.000433 0.007845 -0.002266 0.009942 -0.006821 0.041735
#
#
# Mechanical properties :
#
#
# Convention : Reuss Voigt Hill
#
# Bulk Modulus (GPa) = 46.77569 64.51923 55.64746
# Shear Modulus (GPa) = 27.99585 35.27391 31.63488
#
# Velocity S-wave (km/s) = 3.65421 4.10179 3.88445
# Velocity P-wave (km/s) = 6.33364 7.29430 6.83088
#
# Compressibility (1/GPa) = 0.02137863
#
# Stress axis : x y z
#
# Youngs Moduli (GPa) = 107.07591 45.08190 80.39652
#
# Poissons Ratio (x) = 0.08868 0.25991
# Poissons Ratio (y) = 0.21063 0.48964
# Poissons Ratio (z) = 0.34617 0.27456
#
# Static dielectric constant tensor:
#      x y z
#    x 4.115420 0.048330 -0.203010 
#    y 0.048330 3.441520 -0.015950 
#    z -0.203010 -0.015950 4.246070 
# 
# 
# High freq. dielectric constant tensor:
#      x y z
#    x 1.844680 0.003100 -0.007810 
#    y 0.003100 1.787780 0.007040 
#    z -0.007810 0.007040 1.841190 
# 
# From -- ./inp_files/155519.got.cif
#   From: 2010.06.25/outbox.cif.g09.slc.cpg/sg2_78_cif.got.tgz:155519.got - 2010.06.27 13:26:56.
