data_PCOD8007515
_publ_section_title
;
Structure prediction by ZEFSAII (Michael W. Deem and Ramdas Pophale) SiO2 
 PCOD8007515
Probable space group: P -1
;
_chemical_formula_sum "Si O2"
_cell_formula_units_Z 14
_cell_length_a 11.485179
_cell_length_b 16.875170
_cell_length_c 9.064163
_cell_angle_alpha 95.403789
_cell_angle_beta 55.073977
_cell_angle_gamma 140.303500
_cell_volume 690.050977
_symmetry_space_group_name_H-M "P -1"
_symmetry_group_IT_number 2
_symmetry_cell_setting 'triclinic'
loop_
_space_group_symop_operation_xyz
x,y,z
-x,-y,-z
loop_
_atom_site_type_symbol
_atom_site_label
_atom_site_fract_x
_atom_site_fract_y
_atom_site_fract_z
Si Si1 0.089660 0.418562 0.462727
Si Si2 0.936597 0.878386 0.559049
Si Si3 0.844255 0.156367 0.786040
Si Si4 0.327008 0.031850 0.573776
Si Si5 0.280045 0.513328 0.031437
Si Si6 0.127174 0.801703 0.892865
Si Si7 0.759381 0.351617 0.467855
O O1 0.258553 0.562957 0.474038
O O2 0.006096 0.298449 0.587793
O O3 0.799229 0.320988 0.587949
O O4 0.301764 0.497910 0.186023
O O5 0.082705 0.896271 0.330063
O O6 0.588397 0.692968 0.776070
O O7 0.065441 0.922547 0.633420
O O8 0.000000 0.000000 0.500000
O O9 0.955431 0.222314 0.882817
O O10 0.500000 0.000000 0.000000
O O11 0.581914 0.109708 0.315941
O O12 0.461341 0.178745 0.571348
O O13 0.189925 0.915055 0.786286
O O14 0.159145 0.379708 0.002532
O O15 0.046961 0.472438 0.179584
#
# Coordination Sequence:
#
# PCOD8007515 Si02
#       7
#     2   2   2   2   2   2   2
#     4   9  19  38  68  93 124 167 218 255 312 378
#     4  12  28  43  62  96 137 166 207 272 334 368
#     4  12  24  38  66  98 126 167 217 272 307 375
#     4  10  20  41  64  94 127 173 212 260 315 387
#     4   9  21  41  62  90 130 173 204 258 322 387
#     4  10  21  39  68  95 123 167 226 257 308 382
#     4   8  18  37  69  93 121 169 222 252 303 389
#
# _framework density 20.288356
#
# number of rings (size 3 to 8) (size 9 to 14) (size 15 to 20)
#    0.857    1.143    1.429    1.714    2.000    5.143 
#    0.000    5.714    0.000    0.000    0.000    0.000 
#    0.000    0.000    0.000    0.000    0.000    0.000 
#
# Total GULP energy -173568.133026 kJ/mol
# GULP energy per Si atom -12397.723788 kJ/mol
# Density = 2.024218 g / cm^3
# Si number density = 20.288356 Si / 1000 Ang^3
#
#
#
# Elastic Constant Matrix: (Units=GPa)
#
#
# Indices 1 2 3 4 5 6 
#
# 1 61.7403 36.5165 34.0300 1.1329 4.3989 -16.4555
# 2 36.5165 169.6511 70.8026 6.8957 -6.6426 -7.0231
# 3 34.0300 70.8026 110.1882 -1.7151 10.8702 -9.5466
# 4 1.1329 6.8957 -1.7151 40.7437 4.0549 -0.9455
# 5 4.3989 -6.6426 10.8702 4.0549 20.0006 -2.1277
# 6 -16.4555 -7.0231 -9.5466 -0.9455 -2.1277 33.4576
#
#
#
# Elastic Compliance Matrix: (Units=1/GPa)
#
#
# Indices 1 2 3 4 5 6 
#
# 1 0.022865 -0.002957 -0.004073 0.000192 -0.002848 0.009287
# 2 -0.002957 0.009374 -0.005950 -0.002512 0.007423 -0.000783
# 3 -0.004073 -0.005950 0.015218 0.002754 -0.009852 0.000541
# 4 0.000192 -0.002512 0.002754 0.025845 -0.007549 0.000603
# 5 -0.002848 0.007423 -0.009852 -0.007549 0.060076 0.000954
# 6 0.009287 -0.000783 0.000541 0.000603 0.000954 0.034524
#
#
# Mechanical properties :
#
#
# Convention : Reuss Voigt Hill
#
# Bulk Modulus (GPa) = 46.51454 69.36422 57.93938
# Shear Modulus (GPa) = 24.87216 32.18907 28.53061
#
# Velocity S-wave (km/s) = 3.50513 3.98751 3.75408
# Velocity P-wave (km/s) = 6.27357 7.44740 6.88554
#
# Compressibility (1/GPa) = 0.02149865
#
# Stress axis : x y z
#
# Youngs Moduli (GPa) = 43.73424 106.67574 65.71171
#
# Poissons Ratio (x) = 0.31539 0.26766
# Poissons Ratio (y) = 0.12930 0.39096
# Poissons Ratio (z) = 0.17814 0.63468
#
# Static dielectric constant tensor:
#      x y z
#    x 10.206430 3.392030 1.044440 
#    y 3.392030 5.535090 0.602110 
#    z 1.044440 0.602110 3.685460 
# 
# 
# High freq. dielectric constant tensor:
#      x y z
#    x 1.765960 -0.000470 0.009080 
#    y -0.000470 1.814640 0.005390 
#    z 0.009080 0.005390 1.775570 
# 
# From -- ./inp_files/279485.got.cif
#   From: 2010.06.25/outbox.cif.g09.slc.cpg/sg2_140_cif.got.tgz:279485.got - 2010.06.27 13:26:56.
