data_PCOD8007425
_publ_section_title
;
Structure prediction by ZEFSAII (Michael W. Deem and Ramdas Pophale) SiO2 
 PCOD8007425
Probable space group: P -1
;
_chemical_formula_sum "Si O2"
_cell_formula_units_Z 16
_cell_length_a 20.554480
_cell_length_b 9.285586
_cell_length_c 17.933225
_cell_angle_alpha 134.362614
_cell_angle_beta 161.653812
_cell_angle_gamma 54.782174
_cell_volume 710.366806
_symmetry_space_group_name_H-M "P -1"
_symmetry_group_IT_number 2
_symmetry_cell_setting 'triclinic'
loop_
_space_group_symop_operation_xyz
x,y,z
-x,-y,-z
loop_
_atom_site_type_symbol
_atom_site_label
_atom_site_fract_x
_atom_site_fract_y
_atom_site_fract_z
Si Si1 0.508945 0.999576 0.662989
Si Si2 0.098128 0.584845 0.007539
Si Si3 0.375471 0.024840 0.800648
Si Si4 0.320991 0.298283 0.193373
Si Si5 0.388460 0.610397 0.598656
Si Si6 0.287164 0.576812 0.048821
Si Si7 0.647275 0.268703 0.051153
Si Si8 0.883390 0.687913 0.376391
O O1 0.275387 0.803866 0.317151
O O2 0.709296 0.910255 0.863326
O O3 0.588380 0.168968 0.743645
O O4 0.483462 0.116804 0.754173
O O5 0.106308 0.361069 0.971232
O O6 0.146918 0.572842 0.968549
O O7 0.850182 0.583532 0.753268
O O8 0.295601 0.786774 0.592195
O O9 0.168799 0.096588 0.619439
O O10 0.500000 0.000000 0.000000
O O11 0.530672 0.218416 0.986043
O O12 0.500000 0.500000 0.500000
O O13 0.436638 0.271777 0.232684
O O14 0.518179 0.517665 0.764541
O O15 0.122656 0.440963 0.754486
O O16 0.711722 0.521050 0.188591
O O17 0.873544 0.221767 0.288904
#
# Coordination Sequence:
#
# PCOD8007425 Si02
#       8
#     2   2   2   2   2   2   2   2
#     4  10  20  41  63  87 120 160 199 254 299 356
#     4  10  23  39  64  89 123 162 198 247 306 362
#     4  12  24  39  62  89 126 158 201 253 302 356
#     4   9  20  40  61  85 119 156 197 253 292 354
#     4  11  23  40  58  94 123 159 202 243 304 367
#     4  10  22  41  61  88 125 155 206 251 298 359
#     4  10  23  43  63  88 123 155 209 249 303 358
#     4  10  23  41  65  89 117 166 201 251 303 357
#
# _framework density 22.523575999999998
#
# number of rings (size 3 to 8) (size 9 to 14) (size 15 to 20)
#    0.000    1.750    2.500    0.750    3.500    3.000 
#    0.000    2.500    0.000    0.000    0.000    0.000 
#    0.000    0.000    0.000    0.000    0.000    0.000 
#
# Total GULP energy -198249.893704 kJ/mol
# GULP energy per Si atom -12390.618356 kJ/mol
# Density = 2.247231 g / cm^3
# Si number density = 22.523576 Si / 1000 Ang^3
#
#
#
# Elastic Constant Matrix: (Units=GPa)
#
#
# Indices 1 2 3 4 5 6 
#
# 1 54.1572 16.2233 18.5773 -2.7148 -14.1421 10.6327
# 2 16.2233 131.8093 17.5385 -5.3307 -0.8526 11.7782
# 3 18.5773 17.5385 86.1991 -7.0323 -8.5211 -0.5720
# 4 -2.7148 -5.3307 -7.0323 27.0490 -1.6880 -6.2519
# 5 -14.1421 -0.8526 -8.5211 -1.6880 27.1299 0.5046
# 6 10.6327 11.7782 -0.5720 -6.2519 0.5046 32.7063
#
#
#
# Elastic Compliance Matrix: (Units=1/GPa)
#
#
# Indices 1 2 3 4 5 6 
#
# 1 0.024950 -0.001785 -0.003882 0.000105 0.011880 -0.007700
# 2 -0.001785 0.008205 -0.001361 0.000491 -0.001027 -0.002289
# 3 -0.003882 -0.001361 0.013244 0.003533 0.002264 0.002624
# 4 0.000105 0.000491 0.003533 0.039933 0.003526 0.007430
# 5 0.011880 -0.001027 0.002264 0.003526 0.044015 -0.003458
# 6 -0.007700 -0.002289 0.002624 0.007430 -0.003458 0.035422
#
#
# Mechanical properties :
#
#
# Convention : Reuss Voigt Hill
#
# Bulk Modulus (GPa) = 30.91921 41.87153 36.39537
# Shear Modulus (GPa) = 26.23175 32.03214 29.13194
#
# Velocity S-wave (km/s) = 3.41638 3.77525 3.60029
# Velocity P-wave (km/s) = 5.41475 6.13464 5.78590
#
# Compressibility (1/GPa) = 0.03234236
#
# Stress axis : x y z
#
# Youngs Moduli (GPa) = 40.07941 121.87216 75.50465
#
# Poissons Ratio (x) = 0.21758 0.29312
# Poissons Ratio (y) = 0.07155 0.10279
# Poissons Ratio (z) = 0.15559 0.16592
#
# Static dielectric constant tensor:
#      x y z
#    x 3.893080 0.092120 -0.248350 
#    y 0.092120 5.367870 -0.311500 
#    z -0.248350 -0.311500 4.005940 
# 
# 
# High freq. dielectric constant tensor:
#      x y z
#    x 1.876330 0.011550 -0.022710 
#    y 0.011550 1.903790 -0.000280 
#    z -0.022710 -0.000280 1.877920 
# 
# From -- ./inp_files/370004.got.cif
#   From: 2010.06.25/outbox.cif.g09.slc.cpg/sg2_186_cif.got.tgz:370004.got - 2010.06.27 13:26:56.
