data_PCOD8007180
_publ_section_title
;
Structure prediction by ZEFSAII (Michael W. Deem and Ramdas Pophale) SiO2 
 PCOD8007180
Probable space group: P -1
;
_chemical_formula_sum "Si O2"
_cell_formula_units_Z 14
_cell_length_a 25.091090
_cell_length_b 15.643392
_cell_length_c 9.318653
_cell_angle_alpha 38.725523
_cell_angle_beta 27.982702
_cell_angle_gamma 22.497919
_cell_volume 643.566887
_symmetry_space_group_name_H-M "P -1"
_symmetry_group_IT_number 2
_symmetry_cell_setting 'triclinic'
loop_
_space_group_symop_operation_xyz
x,y,z
-x,-y,-z
loop_
_atom_site_type_symbol
_atom_site_label
_atom_site_fract_x
_atom_site_fract_y
_atom_site_fract_z
Si Si1 0.287013 0.664571 0.643693
Si Si2 0.688093 0.182053 0.352655
Si Si3 0.062389 0.621313 0.634140
Si Si4 0.009630 0.981133 0.333424
Si Si5 0.733823 0.841036 0.753471
Si Si6 0.703503 0.804071 0.197747
Si Si7 0.839252 0.511687 0.738251
O O1 0.512365 0.443458 0.376630
O O2 0.229574 0.837211 0.668439
O O3 0.220359 0.583940 0.964841
O O4 0.196780 0.791120 0.540263
O O5 0.623074 0.087240 0.653561
O O6 0.847596 0.041309 0.035798
O O7 0.085152 0.760939 0.395568
O O8 0.180088 0.447243 0.716406
O O9 0.158255 0.464521 0.469206
O O10 0.838269 0.798023 0.941998
O O11 0.000000 0.000000 0.500000
O O12 0.301771 0.241857 0.173951
O O13 0.953016 0.671080 0.451535
O O14 0.667628 0.848394 0.055091
O O15 0.500000 0.000000 0.500000
#
# Coordination Sequence:
#
# PCOD8007180 Si02
#       7
#     2   2   2   2   2   2   2
#     4  11  23  42  69  97 128 178 218 267 325 390
#     4  11  24  43  70 100 129 171 226 264 328 393
#     4  10  23  43  63  92 129 173 213 268 328 384
#     4  12  26  43  68  96 134 173 217 274 328 390
#     4  10  22  39  68  99 126 170 217 272 322 389
#     4  10  23  41  65  94 132 169 210 263 334 390
#     4  10  20  40  68  90 131 167 222 268 322 382
#
# _framework density 21.753761000000001
#
# number of rings (size 3 to 8) (size 9 to 14) (size 15 to 20)
#    0.000    1.429    2.857    2.143    4.000    4.571 
#    2.571    0.000    0.000    0.000    0.000    0.000 
#    0.000    0.000    0.000    0.000    0.000    0.000 
#
# Total GULP energy -173644.288301 kJ/mol
# GULP energy per Si atom -12403.163450 kJ/mol
# Density = 2.170425 g / cm^3
# Si number density = 21.753761 Si / 1000 Ang^3
#
#
#
# Elastic Constant Matrix: (Units=GPa)
#
#
# Indices 1 2 3 4 5 6 
#
# 1 120.7701 54.5649 64.1580 -4.2596 19.7349 3.7982
# 2 54.5649 102.1343 45.1057 -17.0434 16.0764 2.0707
# 3 64.1580 45.1057 101.8553 -4.7746 16.7599 -2.6963
# 4 -4.2596 -17.0434 -4.7746 35.7112 4.9992 -1.8164
# 5 19.7349 16.0764 16.7599 4.9992 33.1746 -8.6850
# 6 3.7982 2.0707 -2.6963 -1.8164 -8.6850 39.9113
#
#
#
# Elastic Compliance Matrix: (Units=1/GPa)
#
#
# Indices 1 2 3 4 5 6 
#
# 1 0.014397 -0.004253 -0.006690 -0.000821 -0.003636 -0.002430
# 2 -0.004253 0.015356 -0.003041 0.007016 -0.004777 -0.001318
# 3 -0.006690 -0.003041 0.015788 0.000239 -0.002193 0.001395
# 4 -0.000821 0.007016 0.000239 0.032385 -0.008056 -0.000549
# 5 -0.003636 -0.004777 -0.002193 -0.008056 0.039198 0.008609
# 6 -0.002430 -0.001318 0.001395 -0.000549 0.008609 0.027298
#
#
# Mechanical properties :
#
#
# Convention : Reuss Voigt Hill
#
# Bulk Modulus (GPa) = 56.90589 72.49079 64.69834
# Shear Modulus (GPa) = 28.05103 32.48816 30.26959
#
# Velocity S-wave (km/s) = 3.59483 3.86871 3.73428
# Velocity P-wave (km/s) = 6.59138 7.30422 6.95693
#
# Compressibility (1/GPa) = 0.01757287
#
# Stress axis : x y z
#
# Youngs Moduli (GPa) = 69.45790 65.12257 63.34038
#
# Poissons Ratio (x) = 0.27694 0.42375
# Poissons Ratio (y) = 0.29537 0.19264
# Poissons Ratio (z) = 0.46467 0.19806
#
# Static dielectric constant tensor:
#      x y z
#    x 3.959440 0.009140 -0.083870 
#    y 0.009140 4.050890 -0.048720 
#    z -0.083870 -0.048720 3.872950 
# 
# 
# High freq. dielectric constant tensor:
#      x y z
#    x 1.843840 -0.003850 -0.007890 
#    y -0.003850 1.861290 -0.003870 
#    z -0.007890 -0.003870 1.858660 
# 
# From -- ./inp_files/357596.got.cif
#   From: 2010.06.25/outbox.cif.g09.slc.cpg/sg2_179_cif.got.tgz:357596.got - 2010.06.27 13:26:56.
