data_PCOD8007917
_publ_section_title
;
Structure prediction by ZEFSAII (Michael W. Deem and Ramdas Pophale) SiO2 
 PCOD8007917
Probable space group: P -1
;
_chemical_formula_sum "Si O2"
_cell_formula_units_Z 12
_cell_length_a 10.443791
_cell_length_b 12.356876
_cell_length_c 7.703003
_cell_angle_alpha 86.164707
_cell_angle_beta 64.434054
_cell_angle_gamma 37.381984
_cell_volume 470.245328
_symmetry_space_group_name_H-M "P -1"
_symmetry_group_IT_number 2
_symmetry_cell_setting 'triclinic'
loop_
_space_group_symop_operation_xyz
x,y,z
-x,-y,-z
loop_
_atom_site_type_symbol
_atom_site_label
_atom_site_fract_x
_atom_site_fract_y
_atom_site_fract_z
Si Si1 0.413474 0.513502 0.767219
Si Si2 0.085276 0.778285 0.277708
Si Si3 0.286665 0.361853 0.893277
Si Si4 0.623504 0.945393 0.618433
Si Si5 0.256803 0.837612 0.743571
Si Si6 0.698743 0.673475 0.721446
O O1 0.721645 0.308807 0.671593
O O2 0.333750 0.444818 0.751456
O O3 0.347336 0.655110 0.651593
O O4 0.233118 0.664695 0.021691
O O5 0.945011 0.756833 0.422521
O O6 0.841004 0.026013 0.375532
O O7 0.505589 0.130086 0.749452
O O8 0.308504 0.377712 0.081436
O O9 0.000000 0.500000 0.000000
O O10 0.566914 0.879933 0.783691
O O11 0.500000 0.000000 0.500000
O O12 0.522066 0.714718 0.692684
O O13 0.000000 0.000000 0.000000
O O14 0.000000 0.500000 0.500000
#
# Coordination Sequence:
#
# PCOD8007917 Si02
#       6
#     2   2   2   2   2   2
#     4  10  21  42  65 103 136 176 230 289 340 411
#     4  10  20  41  71  99 135 182 227 280 350 413
#     4  12  27  43  65 101 140 179 231 290 339 409
#     4  12  24  44  70  96 136 183 229 283 346 409
#     4  10  21  38  73 101 132 183 227 278 348 416
#     4  12  24  44  73 103 137 180 233 283 351 416
#
# _framework density 25.518595000000001
#
# number of rings (size 3 to 8) (size 9 to 14) (size 15 to 20)
#    0.000    1.000    1.667    7.500    2.333    0.667 
#    3.000    0.833    0.000    0.000    0.000    0.000 
#    0.000    0.000    0.000    0.000    0.000    0.000 
#
# Total GULP energy -148790.308149 kJ/mol
# GULP energy per Si atom -12399.192346 kJ/mol
# Density = 2.546051 g / cm^3
# Si number density = 25.518595 Si / 1000 Ang^3
#
#
#
# Elastic Constant Matrix: (Units=GPa)
#
#
# Indices 1 2 3 4 5 6 
#
# 1 159.0578 65.1770 19.8985 11.7602 -30.3250 11.2503
# 2 65.1770 129.1083 10.6085 -5.1378 -7.8875 10.8983
# 3 19.8985 10.6085 28.6967 7.5395 -16.1154 -4.6451
# 4 11.7602 -5.1378 7.5395 43.5210 4.9984 -10.5362
# 5 -30.3250 -7.8875 -16.1154 4.9984 48.2147 6.7971
# 6 11.2503 10.8983 -4.6451 -10.5362 6.7971 61.2837
#
#
#
# Elastic Compliance Matrix: (Units=1/GPa)
#
#
# Indices 1 2 3 4 5 6 
#
# 1 0.009892 -0.004498 -0.001167 -0.004283 0.005892 -0.002494
# 2 -0.004498 0.010268 -0.002896 0.003100 -0.002379 -0.000423
# 3 -0.001167 -0.002896 0.048431 -0.010020 0.015890 0.000915
# 4 -0.004283 0.003100 -0.010020 0.028613 -0.009266 0.005423
# 5 0.005892 -0.002379 0.015890 -0.009266 0.030960 -0.004481
# 6 -0.002494 -0.000423 0.000915 0.005423 -0.004481 0.018349
#
#
# Mechanical properties :
#
#
# Convention : Reuss Voigt Hill
#
# Bulk Modulus (GPa) = 19.42868 56.47007 37.94938
# Shear Modulus (GPa) = 27.65613 45.34914 36.50264
#
# Velocity S-wave (km/s) = 3.29563 4.22014 3.78621
# Velocity P-wave (km/s) = 4.70230 6.77666 5.83244
#
# Compressibility (1/GPa) = 0.05147029
#
# Stress axis : x y z
#
# Youngs Moduli (GPa) = 101.08685 97.39175 20.64806
#
# Poissons Ratio (x) = 0.43807 0.02409
# Poissons Ratio (y) = 0.45469 0.05979
# Poissons Ratio (z) = 0.11793 0.28202
#
# Static dielectric constant tensor:
#      x y z
#    x 4.622120 0.521630 -0.403190 
#    y 0.521630 5.331810 -0.042410 
#    z -0.403190 -0.042410 4.806810 
# 
# 
# High freq. dielectric constant tensor:
#      x y z
#    x 2.023080 0.023170 -0.020320 
#    y 0.023170 2.040980 0.006930 
#    z -0.020320 0.006930 2.026860 
# 
# From -- ./inp_files/187382.got.cif
#   From: 2010.06.25/outbox.cif.g09.slc.cpg/sg2_94_cif.got.tgz:187382.got - 2010.06.27 13:26:56.
