data_PCOD8007866
_publ_section_title
;
Structure prediction by ZEFSAII (Michael W. Deem and Ramdas Pophale) SiO2 
 PCOD8007866
Probable space group: P -1
;
_chemical_formula_sum "Si O2"
_cell_formula_units_Z 14
_cell_length_a 7.527142
_cell_length_b 17.611332
_cell_length_c 5.040463
_cell_angle_alpha 103.037831
_cell_angle_beta 90.660299
_cell_angle_gamma 94.474004
_cell_volume 648.678754
_symmetry_space_group_name_H-M "P -1"
_symmetry_group_IT_number 2
_symmetry_cell_setting 'triclinic'
loop_
_space_group_symop_operation_xyz
x,y,z
-x,-y,-z
loop_
_atom_site_type_symbol
_atom_site_label
_atom_site_fract_x
_atom_site_fract_y
_atom_site_fract_z
Si Si1 0.154933 0.735108 0.067289
Si Si2 0.454760 0.622550 0.004297
Si Si3 0.845016 0.941143 0.839042
Si Si4 0.880092 0.166040 0.343299
Si Si5 0.292860 0.462226 0.744792
Si Si6 0.824374 0.617999 0.831141
Si Si7 0.311689 0.998046 0.632668
O O1 0.990543 0.681153 0.902927
O O2 0.326773 0.690180 0.111889
O O3 0.211063 0.796977 0.884560
O O4 0.093956 0.774558 0.365649
O O5 0.347429 0.554098 0.774969
O O6 0.633896 0.657480 0.879449
O O7 0.523656 0.582391 0.246001
O O8 0.921579 0.855944 0.758500
O O9 0.811905 0.965354 0.557155
O O10 0.683551 0.948041 0.054492
O O11 0.000000 0.000000 0.000000
O O12 0.753626 0.090901 0.371448
O O13 0.169768 0.427686 0.479335
O O14 0.167959 0.447107 0.989803
O O15 0.500000 0.000000 0.500000
#
# Coordination Sequence:
#
# PCOD8007866 Si02
#       7
#     2   2   2   2   2   2   2
#     4  12  25  39  63  88 136 172 202 256 318 403
#     4   9  23  39  64  88 126 162 214 270 316 353
#     4  10  20  41  70  85 125 161 199 261 297 360
#     4  11  24  43  60  94 128 166 207 244 330 375
#     4   9  20  40  64  87 121 160 220 276 305 355
#     4  10  21  40  59  90 119 164 219 254 314 377
#     4  11  22  42  70  99 118 156 217 262 301 363
#
# _framework density 21.582331
#
# number of rings (size 3 to 8) (size 9 to 14) (size 15 to 20)
#    0.857    0.857    0.000    6.000    2.000    1.143 
#    7.714    0.000    0.000    0.000    0.000    0.000 
#    0.000    0.000    0.000    0.000    0.000    0.000 
#
# Total GULP energy -173470.493394 kJ/mol
# GULP energy per Si atom -12390.749528 kJ/mol
# Density = 2.153321 g / cm^3
# Si number density = 21.582331 Si / 1000 Ang^3
#
#
#
# Elastic Constant Matrix: (Units=GPa)
#
#
# Indices 1 2 3 4 5 6 
#
# 1 57.4148 28.8325 18.1238 7.7529 -19.0375 -0.4931
# 2 28.8325 80.2779 26.4617 -7.9596 -14.2292 -19.2705
# 3 18.1238 26.4617 125.8094 -10.5886 -4.2059 -14.8908
# 4 7.7529 -7.9596 -10.5886 30.7984 0.1366 -4.9457
# 5 -19.0375 -14.2292 -4.2059 0.1366 29.0047 -0.7352
# 6 -0.4931 -19.2705 -14.8908 -4.9457 -0.7352 26.0078
#
#
#
# Elastic Compliance Matrix: (Units=1/GPa)
#
#
# Indices 1 2 3 4 5 6 
#
# 1 0.031172 -0.011937 -0.004298 -0.014574 0.013718 -0.013098
# 2 -0.011937 0.023303 0.000316 0.012277 0.004084 0.019671
# 3 -0.004298 0.000316 0.009736 0.005602 -0.001109 0.006761
# 4 -0.014574 0.012277 0.005602 0.044527 -0.002423 0.020426
# 5 0.013718 0.004084 -0.001109 -0.002423 0.045423 0.003474
# 6 -0.013098 0.019671 0.006761 0.020426 0.003474 0.060630
#
#
# Mechanical properties :
#
#
# Convention : Reuss Voigt Hill
#
# Bulk Modulus (GPa) = 30.88955 45.59314 38.24135
# Shear Modulus (GPa) = 19.42352 29.83447 24.62900
#
# Velocity S-wave (km/s) = 3.00321 3.72204 3.38178
# Velocity P-wave (km/s) = 5.13509 6.29623 5.74507
#
# Compressibility (1/GPa) = 0.03237340
#
# Stress axis : x y z
#
# Youngs Moduli (GPa) = 32.07977 42.91352 102.71384
#
# Poissons Ratio (x) = 0.51225 0.44149
# Poissons Ratio (y) = 0.38293 -0.03249
# Poissons Ratio (z) = 0.13789 -0.01357
#
# Static dielectric constant tensor:
#      x y z
#    x 3.829070 -0.110690 -0.334140 
#    y -0.110690 3.695830 0.009670 
#    z -0.334140 0.009670 4.348140 
# 
# 
# High freq. dielectric constant tensor:
#      x y z
#    x 1.836120 -0.006540 -0.001740 
#    y -0.006540 1.832080 -0.011340 
#    z -0.001740 -0.011340 1.857780 
# 
# From -- ./inp_files/42783.got.cif
#   From: 2010.06.25/outbox.cif.g09.slc.cpg/sg2_22_cif.got.tgz:42783.got - 2010.06.27 13:26:56.
