data_PCOD8007765
_publ_section_title
;
Structure prediction by ZEFSAII (Michael W. Deem and Ramdas Pophale) SiO2 
 PCOD8007765
Probable space group: P -1
;
_chemical_formula_sum "Si O2"
_cell_formula_units_Z 14
_cell_length_a 14.518375
_cell_length_b 19.233171
_cell_length_c 11.261738
_cell_angle_alpha 156.995693
_cell_angle_beta 41.820092
_cell_angle_gamma 147.805214
_cell_volume 646.141954
_symmetry_space_group_name_H-M "P -1"
_symmetry_group_IT_number 2
_symmetry_cell_setting 'triclinic'
loop_
_space_group_symop_operation_xyz
x,y,z
-x,-y,-z
loop_
_atom_site_type_symbol
_atom_site_label
_atom_site_fract_x
_atom_site_fract_y
_atom_site_fract_z
Si Si1 0.355821 0.037344 0.693021
Si Si2 0.027826 0.282698 0.010983
Si Si3 0.413146 0.506333 0.713409
Si Si4 0.261769 0.166605 0.529978
Si Si5 0.207287 0.680353 0.091323
Si Si6 0.534479 0.967806 0.783532
Si Si7 0.808551 0.229564 0.348588
O O1 0.240705 0.895355 0.466231
O O2 0.243286 0.950500 0.784727
O O3 0.500000 0.000000 0.500000
O O4 0.444890 0.302615 0.027484
O O5 0.186128 0.268101 0.838747
O O6 0.105141 0.534704 0.295113
O O7 0.883352 0.103395 0.773817
O O8 0.950348 0.240236 0.150248
O O9 0.500000 0.500000 0.500000
O O10 0.320749 0.273902 0.509117
O O11 0.277317 0.556833 0.893171
O O12 0.411045 0.196546 0.515277
O O13 0.311100 0.786567 0.034400
O O14 0.000000 0.500000 0.000000
O O15 0.359087 0.838587 0.672108
O O16 0.500000 0.000000 0.000000
#
# Coordination Sequence:
#
# PCOD8007765 Si02
#       7
#     2   2   2   2   2   2   2
#     4  10  20  41  68  90 123 172 227 249 324 396
#     4  10  23  38  61  96 126 171 206 269 324 387
#     4  11  22  43  67  95 127 175 218 265 329 395
#     4  11  24  39  63  96 138 160 213 271 334 377
#     4  11  26  43  69  95 131 174 224 270 326 389
#     4  12  24  42  66 100 131 170 220 272 325 390
#     4  11  21  42  68  92 125 175 222 260 319 399
#
# _framework density 21.667064
#
# number of rings (size 3 to 8) (size 9 to 14) (size 15 to 20)
#    0.000    1.143    4.286    3.429    6.000    0.571 
#    0.000    0.714    0.000    0.000    0.000    0.000 
#    0.000    0.000    0.000    0.000    0.000    0.000 
#
# Total GULP energy -173526.281616 kJ/mol
# GULP energy per Si atom -12394.734401 kJ/mol
# Density = 2.161775 g / cm^3
# Si number density = 21.667064 Si / 1000 Ang^3
#
#
#
# Elastic Constant Matrix: (Units=GPa)
#
#
# Indices 1 2 3 4 5 6 
#
# 1 73.0529 41.8958 12.2724 2.3416 -3.2324 -5.9535
# 2 41.8958 130.0845 30.1939 -0.6229 3.4233 0.5119
# 3 12.2724 30.1939 95.3166 -1.5676 17.4543 12.0061
# 4 2.3416 -0.6229 -1.5676 39.2647 2.4142 -4.4528
# 5 -3.2324 3.4233 17.4543 2.4142 34.4032 2.1426
# 6 -5.9535 0.5119 12.0061 -4.4528 2.1426 25.9267
#
#
#
# Elastic Compliance Matrix: (Units=1/GPa)
#
#
# Indices 1 2 3 4 5 6 
#
# 1 0.017567 -0.005368 -0.001659 -0.000858 0.002805 0.004529
# 2 -0.005368 0.009979 -0.002378 0.000375 -0.000302 -0.000239
# 3 -0.001659 -0.002378 0.013377 0.000311 -0.006357 -0.005950
# 4 -0.000858 0.000375 0.000311 0.026177 -0.002383 0.004344
# 5 0.002805 -0.000302 -0.006357 -0.002383 0.032723 0.000480
# 6 0.004529 -0.000239 -0.005950 0.004344 0.000480 0.043077
#
#
# Mechanical properties :
#
#
# Convention : Reuss Voigt Hill
#
# Bulk Modulus (GPa) = 45.22654 51.90868 48.56761
# Shear Modulus (GPa) = 29.57139 34.19172 31.88155
#
# Velocity S-wave (km/s) = 3.69834 3.97678 3.84008
# Velocity P-wave (km/s) = 6.25745 6.71534 6.49043
#
# Compressibility (1/GPa) = 0.02211091
#
# Stress axis : x y z
#
# Youngs Moduli (GPa) = 56.92522 100.21092 74.75445
#
# Poissons Ratio (x) = 0.53796 0.12405
# Poissons Ratio (y) = 0.30559 0.17779
# Poissons Ratio (z) = 0.09447 0.23833
#
# Static dielectric constant tensor:
#      x y z
#    x 4.064440 -0.035430 0.066530 
#    y -0.035430 4.242060 0.058140 
#    z 0.066530 0.058140 4.307270 
# 
# 
# High freq. dielectric constant tensor:
#      x y z
#    x 1.817440 -0.007720 0.005180 
#    y -0.007720 1.874160 -0.000990 
#    z 0.005180 -0.000990 1.857780 
# 
# From -- ./inp_files/204979.got.cif
#   From: 2010.06.25/outbox.cif.g09.slc.cpg/sg2_103_cif.got.tgz:204979.got - 2010.06.27 13:26:56.
