data_PCOD8007252
_publ_section_title
;
Structure prediction by ZEFSAII (Michael W. Deem and Ramdas Pophale) SiO2 
 PCOD8007252
Probable space group: P -1
;
_chemical_formula_sum "Si O2"
_cell_formula_units_Z 16
_cell_length_a 14.758708
_cell_length_b 9.255439
_cell_length_c 13.255856
_cell_angle_alpha 44.601569
_cell_angle_beta 71.306080
_cell_angle_gamma 106.957694
_cell_volume 751.242556
_symmetry_space_group_name_H-M "P -1"
_symmetry_group_IT_number 2
_symmetry_cell_setting 'triclinic'
loop_
_space_group_symop_operation_xyz
x,y,z
-x,-y,-z
loop_
_atom_site_type_symbol
_atom_site_label
_atom_site_fract_x
_atom_site_fract_y
_atom_site_fract_z
Si Si1 0.325766 0.949198 0.247673
Si Si2 0.182672 0.144711 0.957674
Si Si3 0.126908 0.441895 0.724907
Si Si4 0.340571 0.643539 0.057814
Si Si5 0.924451 0.206766 0.102307
Si Si6 0.651340 0.869484 0.228260
Si Si7 0.852051 0.671524 0.517358
Si Si8 0.806083 0.830371 0.838669
O O1 0.263239 0.815631 0.451201
O O2 0.254264 0.659827 0.343159
O O3 0.280769 0.100785 0.157662
O O4 0.507925 0.235767 0.038991
O O5 0.200719 0.339501 0.763631
O O6 0.287571 0.127118 0.899663
O O7 0.225138 0.314352 0.966173
O O8 0.002326 0.777576 0.208067
O O9 0.054375 0.386068 0.883616
O O10 0.231537 0.417790 0.303525
O O11 0.257765 0.430154 0.092030
O O12 0.384227 0.954571 0.872322
O O13 0.775434 0.056590 0.179499
O O14 0.880593 0.929019 0.317418
O O15 0.000000 0.500000 0.000000
O O16 0.500000 0.500000 0.500000
O O17 0.012310 0.832928 0.410039
#
# Coordination Sequence:
#
# PCOD8007252 Si02
#       8
#     2   2   2   2   2   2   2   2
#     4  12  25  44  69  98 136 185 226 273 335 405
#     4  10  20  41  68  95 127 173 226 275 320 404
#     4  10  20  40  69  94 131 170 228 272 325 400
#     4  12  28  45  64 104 144 175 220 287 342 395
#     4  11  24  41  70 103 132 171 227 286 338 389
#     4  11  24  44  69  97 134 179 223 271 342 408
#     4  12  24  45  72  98 135 179 233 275 332 409
#     4  12  25  43  68 102 135 178 228 277 340 393
#
# _framework density 21.298047
#
# number of rings (size 3 to 8) (size 9 to 14) (size 15 to 20)
#    0.000    0.750    2.500    6.000    5.250    1.000 
#    2.250    1.250    0.000    0.000    0.000    0.000 
#    0.000    0.000    0.000    0.000    0.000    0.000 
#
# Total GULP energy -198410.112286 kJ/mol
# GULP energy per Si atom -12400.632018 kJ/mol
# Density = 2.124957 g / cm^3
# Si number density = 21.298047 Si / 1000 Ang^3
#
#
#
# Elastic Constant Matrix: (Units=GPa)
#
#
# Indices 1 2 3 4 5 6 
#
# 1 110.1669 17.2158 49.2657 13.3488 -15.9870 0.6333
# 2 17.2158 131.4120 51.1018 17.9986 -2.0140 9.7485
# 3 49.2657 51.1018 97.3487 16.1110 -12.5422 7.8133
# 4 13.3488 17.9986 16.1110 26.7097 0.9991 0.6523
# 5 -15.9870 -2.0140 -12.5422 0.9991 27.6778 -9.8533
# 6 0.6333 9.7485 7.8133 0.6523 -9.8533 24.5755
#
#
#
# Elastic Compliance Matrix: (Units=1/GPa)
#
#
# Indices 1 2 3 4 5 6 
#
# 1 0.012934 0.000938 -0.005881 -0.003881 0.006375 0.003824
# 2 0.000938 0.010273 -0.005198 -0.004102 -0.002042 -0.003156
# 3 -0.005881 -0.005198 0.017247 -0.004052 0.003570 -0.001731
# 4 -0.003881 -0.004102 -0.004052 0.044837 -0.006235 -0.000674
# 5 0.006375 -0.002042 0.003570 -0.006235 0.048283 0.019035
# 6 0.003824 -0.003156 -0.001731 -0.000674 0.019035 0.050044
#
#
# Mechanical properties :
#
#
# Convention : Reuss Voigt Hill
#
# Bulk Modulus (GPa) = 49.57564 63.78824 56.68194
# Shear Modulus (GPa) = 23.73887 30.54890 27.14388
#
# Velocity S-wave (km/s) = 3.34219 3.79139 3.57386
# Velocity P-wave (km/s) = 6.18233 7.01295 6.61070
#
# Compressibility (1/GPa) = 0.02017120
#
# Stress axis : x y z
#
# Youngs Moduli (GPa) = 77.31580 97.34379 57.98117
#
# Poissons Ratio (x) = -0.09133 0.34101
# Poissons Ratio (y) = -0.07254 0.30140
# Poissons Ratio (z) = 0.45472 0.50601
#
# Static dielectric constant tensor:
#      x y z
#    x 4.148220 0.003490 0.005650 
#    y 0.003490 4.005240 0.223150 
#    z 0.005650 0.223150 4.006150 
# 
# 
# High freq. dielectric constant tensor:
#      x y z
#    x 1.850770 -0.000920 -0.002800 
#    y -0.000920 1.839120 0.016660 
#    z -0.002800 0.016660 1.832510 
# 
# From -- ./inp_files/184286.got.cif
#   From: 2010.06.25/outbox.cif.g09.slc.cpg/sg2_93_cif.got.tgz:184286.got - 2010.06.27 13:26:56.
