data_PCOD8007064
_publ_section_title
;
Structure prediction by ZEFSAII (Michael W. Deem and Ramdas Pophale) SiO2 
 PCOD8007064
Probable space group: P -1
;
_chemical_formula_sum "Si O2"
_cell_formula_units_Z 14
_cell_length_a 16.406542
_cell_length_b 9.164896
_cell_length_c 15.562880
_cell_angle_alpha 151.095043
_cell_angle_beta 145.303359
_cell_angle_gamma 37.928357
_cell_volume 623.269889
_symmetry_space_group_name_H-M "P -1"
_symmetry_group_IT_number 2
_symmetry_cell_setting 'triclinic'
loop_
_space_group_symop_operation_xyz
x,y,z
-x,-y,-z
loop_
_atom_site_type_symbol
_atom_site_label
_atom_site_fract_x
_atom_site_fract_y
_atom_site_fract_z
Si Si1 0.084833 0.866158 0.717544
Si Si2 0.071766 0.235040 0.736006
Si Si3 0.826498 0.751276 0.868005
Si Si4 0.362407 0.598746 0.369009
Si Si5 0.384440 0.327638 0.058409
Si Si6 0.781901 0.724441 0.384044
Si Si7 0.616333 0.373365 0.958396
O O1 0.195505 0.522773 0.645104
O O2 0.926902 0.824285 0.533173
O O3 0.137330 0.067797 0.795083
O O4 0.077984 0.052301 0.896638
O O5 0.939862 0.549714 0.793569
O O6 0.222802 0.309814 0.872727
O O7 0.000000 0.000000 0.500000
O O8 0.771773 0.515048 0.762399
O O9 0.686413 0.998086 0.830239
O O10 0.500000 0.500000 0.500000
O O11 0.384289 0.484266 0.231646
O O12 0.337442 0.970119 0.531848
O O13 0.444548 0.528832 0.140299
O O14 0.500000 0.000000 0.000000
O O15 0.739558 0.564128 0.179538
O O16 0.500000 0.500000 0.000000
#
# Coordination Sequence:
#
# PCOD8007064 Si02
#       7
#     2   2   2   2   2   2   2
#     4  10  20  40  66  98 131 173 225 283 340 410
#     4  12  25  41  70 104 142 177 239 291 346 417
#     4  11  23  44  72  96 140 186 231 285 354 413
#     4  12  24  43  71 102 139 185 233 285 350 422
#     4  12  27  44  69 103 144 187 233 292 353 416
#     4  10  21  38  69  97 129 176 230 276 345 409
#     4  11  25  47  69 101 141 187 229 289 356 419
#
# _framework density 22.46218
#
# number of rings (size 3 to 8) (size 9 to 14) (size 15 to 20)
#    0.000    0.857    2.857    4.714    4.000    1.714 
#    0.000    2.857    0.000    0.000    0.000    0.000 
#    0.000    0.000    0.000    0.000    0.000    0.000 
#
# Total GULP energy -173473.786340 kJ/mol
# GULP energy per Si atom -12390.984739 kJ/mol
# Density = 2.241106 g / cm^3
# Si number density = 22.462180 Si / 1000 Ang^3
#
#
#
# Elastic Constant Matrix: (Units=GPa)
#
#
# Indices 1 2 3 4 5 6 
#
# 1 100.5783 55.0202 16.2655 1.8977 -10.7768 1.7663
# 2 55.0202 166.0713 33.3004 32.9753 -17.6357 -3.3080
# 3 16.2655 33.3004 94.1636 1.9577 -13.2347 -7.0730
# 4 1.8977 32.9753 1.9577 51.0195 -4.4567 -1.1311
# 5 -10.7768 -17.6357 -13.2347 -4.4567 29.7145 -0.8328
# 6 1.7663 -3.3080 -7.0730 -1.1311 -0.8328 39.1824
#
#
#
# Elastic Compliance Matrix: (Units=1/GPa)
#
#
# Indices 1 2 3 4 5 6 
#
# 1 0.012610 -0.004386 -0.000449 0.002549 0.002127 -0.000901
# 2 -0.004386 0.009220 -0.002048 -0.005518 0.002155 0.000493
# 3 -0.000449 -0.002048 0.012161 0.001297 0.004294 0.002171
# 4 0.002549 -0.005518 0.001297 0.023180 0.001714 0.000359
# 5 0.002127 0.002155 0.004294 0.001714 0.037922 0.001717
# 6 -0.000901 0.000493 0.002171 0.000359 0.001717 0.026043
#
#
# Mechanical properties :
#
#
# Convention : Reuss Voigt Hill
#
# Bulk Modulus (GPa) = 49.44350 63.33170 56.38760
# Shear Modulus (GPa) = 35.30008 41.06508 38.18258
#
# Velocity S-wave (km/s) = 3.96856 4.28037 4.12741
# Velocity P-wave (km/s) = 6.56193 7.25843 6.91895
#
# Compressibility (1/GPa) = 0.02022510
#
# Stress axis : x y z
#
# Youngs Moduli (GPa) = 79.30203 108.46452 82.22827
#
# Poissons Ratio (x) = 0.47571 0.03691
# Poissons Ratio (y) = 0.34781 0.16842
# Poissons Ratio (z) = 0.03559 0.22216
#
# Static dielectric constant tensor:
#      x y z
#    x 3.916780 0.079490 -0.019310 
#    y 0.079490 4.367690 0.160550 
#    z -0.019310 0.160550 4.383430 
# 
# 
# High freq. dielectric constant tensor:
#      x y z
#    x 1.870300 0.005800 0.008740 
#    y 0.005800 1.902730 0.004430 
#    z 0.008740 0.004430 1.893700 
# 
# From -- ./inp_files/185558.got.cif
#   From: 2010.06.25/outbox.cif.g09.slc.cpg/sg2_93_cif.got.tgz:185558.got - 2010.06.27 13:26:56.
