data_PCOD8007882
_publ_section_title
;
Structure prediction by ZEFSAII (Michael W. Deem and Ramdas Pophale) SiO2 
 PCOD8007882
Probable space group: P -1
;
_chemical_formula_sum "Si O2"
_cell_formula_units_Z 12
_cell_length_a 12.854664
_cell_length_b 8.238220
_cell_length_c 9.297509
_cell_angle_alpha 106.588157
_cell_angle_beta 136.152871
_cell_angle_gamma 52.327286
_cell_volume 517.771298
_symmetry_space_group_name_H-M "P -1"
_symmetry_group_IT_number 2
_symmetry_cell_setting 'triclinic'
loop_
_space_group_symop_operation_xyz
x,y,z
-x,-y,-z
loop_
_atom_site_type_symbol
_atom_site_label
_atom_site_fract_x
_atom_site_fract_y
_atom_site_fract_z
Si Si1 0.743017 0.980963 0.218427
Si Si2 0.673024 0.505460 0.687026
Si Si3 0.169697 0.290343 0.202845
Si Si4 0.947663 0.927637 0.133475
Si Si5 0.982700 0.752868 0.680900
Si Si6 0.338685 0.342248 0.977040
O O1 0.885857 0.974139 0.250955
O O2 0.687423 0.837631 0.061761
O O3 0.837687 0.897776 0.447241
O O4 0.551450 0.226698 0.102387
O O5 0.500000 0.500000 0.500000
O O6 0.649251 0.706945 0.634204
O O7 0.845393 0.292833 0.729021
O O8 0.706798 0.519156 0.891042
O O9 0.121895 0.301218 0.325793
O O10 0.201627 0.081503 0.111411
O O11 0.000000 0.500000 0.000000
O O12 0.955478 0.117739 0.139939
O O13 0.172221 0.526639 0.751086
#
# Coordination Sequence:
#
# PCOD8007882 Si02
#       6
#     2   2   2   2   2   2
#     4  11  25  44  70 101 141 185 225 282 346 409
#     4  11  22  42  70 100 136 179 229 288 337 404
#     4  10  20  41  70  96 134 185 221 282 343 396
#     4  11  22  43  70 101 139 181 228 285 342 404
#     4  12  23  42  75 102 136 185 229 276 352 411
#     4  11  23  44  68  99 143 177 232 285 337 408
#
# _framework density 23.176255000000001
#
# number of rings (size 3 to 8) (size 9 to 14) (size 15 to 20)
#    0.000    1.000    5.000    3.500    0.000    0.667 
#    0.000    6.667    0.000    0.000    0.000    0.000 
#    0.000    0.000    0.000    0.000    0.000    0.000 
#
# Total GULP energy -148737.164191 kJ/mol
# GULP energy per Si atom -12394.763683 kJ/mol
# Density = 2.312351 g / cm^3
# Si number density = 23.176255 Si / 1000 Ang^3
#
#
#
# Elastic Constant Matrix: (Units=GPa)
#
#
# Indices 1 2 3 4 5 6 
#
# 1 148.9606 48.5482 48.3196 6.5240 22.3730 -4.2996
# 2 48.5482 88.1009 26.2144 -0.1877 14.0346 -10.4544
# 3 48.3196 26.2144 80.4669 -1.3993 14.2876 -3.2876
# 4 6.5240 -0.1877 -1.3993 29.1614 2.9018 9.4664
# 5 22.3730 14.0346 14.2876 2.9018 39.0354 8.7380
# 6 -4.2996 -10.4544 -3.2876 9.4664 8.7380 40.5400
#
#
#
# Elastic Compliance Matrix: (Units=1/GPa)
#
#
# Indices 1 2 3 4 5 6 
#
# 1 0.009813 -0.003594 -0.004225 -0.002449 -0.002816 0.000950
# 2 -0.003594 0.014953 -0.001923 -0.000179 -0.003521 0.004120
# 3 -0.004225 -0.001923 0.016196 0.001819 -0.003087 0.000610
# 4 -0.002449 -0.000179 0.001819 0.037846 0.000003 -0.008996
# 5 -0.002816 -0.003521 -0.003087 0.000003 0.031472 -0.008241
# 6 0.000950 0.004120 0.000610 -0.008996 -0.008241 0.029757
#
#
# Mechanical properties :
#
#
# Convention : Reuss Voigt Hill
#
# Bulk Modulus (GPa) = 46.56130 62.63254 54.59692
# Shear Modulus (GPa) = 29.99778 34.71045 32.35411
#
# Velocity S-wave (km/s) = 3.60159 3.87418 3.74037
# Velocity P-wave (km/s) = 6.11792 6.86261 6.50094
#
# Compressibility (1/GPa) = 0.02147706
#
# Stress axis : x y z
#
# Youngs Moduli (GPa) = 101.90780 66.87812 61.74447
#
# Poissons Ratio (x) = 0.24036 0.26090
# Poissons Ratio (y) = 0.36625 0.11871
# Poissons Ratio (z) = 0.43060 0.12858
#
# Static dielectric constant tensor:
#      x y z
#    x 4.635580 0.271400 0.517060 
#    y 0.271400 4.475770 0.349700 
#    z 0.517060 0.349700 4.117170 
# 
# 
# High freq. dielectric constant tensor:
#      x y z
#    x 1.921830 0.003290 0.010730 
#    y 0.003290 1.920950 0.020120 
#    z 0.010730 0.020120 1.892940 
# 
# From -- ./inp_files/183920.got.cif
#   From: 2010.06.25/outbox.cif.g09.slc.cpg/sg2_92_cif.got.tgz:183920.got - 2010.06.27 13:26:56.
