data_PCOD8007779
_publ_section_title
;
Structure prediction by ZEFSAII (Michael W. Deem and Ramdas Pophale) SiO2 
 PCOD8007779
Probable space group: P -1
;
_chemical_formula_sum "Si O2"
_cell_formula_units_Z 14
_cell_length_a 19.937631
_cell_length_b 19.613554
_cell_length_c 11.095991
_cell_angle_alpha 29.585102
_cell_angle_beta 23.491230
_cell_angle_gamma 20.729269
_cell_volume 610.020595
_symmetry_space_group_name_H-M "P -1"
_symmetry_group_IT_number 2
_symmetry_cell_setting 'triclinic'
loop_
_space_group_symop_operation_xyz
x,y,z
-x,-y,-z
loop_
_atom_site_type_symbol
_atom_site_label
_atom_site_fract_x
_atom_site_fract_y
_atom_site_fract_z
Si Si1 0.378173 0.141975 0.204812
Si Si2 0.515703 0.773613 0.603682
Si Si3 0.276350 0.330677 0.319209
Si Si4 0.646154 0.243742 0.525059
Si Si5 0.364263 0.652758 0.360266
Si Si6 0.042359 0.590361 0.689135
Si Si7 0.926069 0.118517 0.731202
O O1 0.355406 0.165079 0.351661
O O2 0.138308 0.325133 0.253072
O O3 0.456541 0.939716 0.362269
O O4 0.582889 0.123592 0.847339
O O5 0.636902 0.752415 0.561228
O O6 0.693401 0.575363 0.541739
O O7 0.272750 0.828679 0.934833
O O8 0.000000 0.500000 0.500000
O O9 0.389223 0.408559 0.967829
O O10 0.420830 0.462594 0.513845
O O11 0.726749 0.284157 0.449292
O O12 0.848392 0.114776 0.287249
O O13 0.161984 0.832795 0.335767
O O14 0.002359 0.768253 0.527192
O O15 0.000000 0.500000 0.000000
#
# Coordination Sequence:
#
# PCOD8007779 Si02
#       7
#     2   2   2   2   2   2   2
#     4  11  24  42  66  98 127 169 213 263 320 380
#     4  11  25  43  67  96 128 168 215 267 323 375
#     4  10  20  41  68  95 127 161 208 269 323 372
#     4  10  21  40  63  94 125 169 211 260 318 374
#     4   9  21  39  63  92 128 166 209 261 316 378
#     4  12  26  44  65  92 131 176 216 262 311 381
#     4  11  24  40  64  92 128 168 213 261 314 381
#
# _framework density 22.950043999999998
#
# number of rings (size 3 to 8) (size 9 to 14) (size 15 to 20)
#    0.000    1.429    1.429    3.000    2.000    4.000 
#    2.571    0.000    0.000    0.000    0.000    0.000 
#    0.000    0.000    0.000    0.000    0.000    0.000 
#
# Total GULP energy -173571.135505 kJ/mol
# GULP energy per Si atom -12397.938250 kJ/mol
# Density = 2.289781 g / cm^3
# Si number density = 22.950044 Si / 1000 Ang^3
#
#
#
# Elastic Constant Matrix: (Units=GPa)
#
#
# Indices 1 2 3 4 5 6 
#
# 1 49.9007 21.7500 33.2292 -0.2795 4.5575 11.8974
# 2 21.7500 129.9767 40.0191 -0.0158 6.6909 24.0523
# 3 33.2292 40.0191 85.6157 6.4148 -1.7830 11.8089
# 4 -0.2795 -0.0158 6.4148 42.7733 5.6916 9.6594
# 5 4.5575 6.6909 -1.7830 5.6916 28.7380 -1.2698
# 6 11.8974 24.0523 11.8089 9.6594 -1.2698 36.9307
#
#
#
# Elastic Compliance Matrix: (Units=1/GPa)
#
#
# Indices 1 2 3 4 5 6 
#
# 1 0.029767 0.000165 -0.011060 0.004445 -0.006659 -0.007552
# 2 0.000165 0.010307 -0.004291 0.002501 -0.003460 -0.006167
# 3 -0.011060 -0.004291 0.018124 -0.003807 0.004707 0.001720
# 4 0.004445 0.002501 -0.003807 0.027017 -0.007279 -0.009161
# 5 -0.006659 -0.003460 0.004707 -0.007279 0.038663 0.006127
# 6 -0.007552 -0.006167 0.001720 -0.009161 0.006127 0.035584
#
#
# Mechanical properties :
#
#
# Convention : Reuss Voigt Hill
#
# Bulk Modulus (GPa) = 35.93725 50.60997 43.27361
# Shear Modulus (GPa) = 25.11183 33.05472 29.08327
#
# Velocity S-wave (km/s) = 3.31145 3.79923 3.56370
# Velocity P-wave (km/s) = 5.50580 6.43006 5.98580
#
# Compressibility (1/GPa) = 0.02782628
#
# Stress axis : x y z
#
# Youngs Moduli (GPa) = 33.59468 97.02378 55.17399
#
# Poissons Ratio (x) = -0.01603 0.61024
# Poissons Ratio (y) = -0.00555 0.23673
# Poissons Ratio (z) = 0.37157 0.41629
#
# Static dielectric constant tensor:
#      x y z
#    x 4.127610 0.021420 -0.022110 
#    y 0.021420 4.159260 -0.032290 
#    z -0.022110 -0.032290 4.040570 
# 
# 
# High freq. dielectric constant tensor:
#      x y z
#    x 1.902950 0.002580 0.000320 
#    y 0.002580 1.913730 -0.000060 
#    z 0.000320 -0.000060 1.900430 
# 
# From -- ./inp_files/68741.got.cif
#   From: 2010.06.25/outbox.cif.g09.slc.cpg/sg2_35_cif.got.tgz:68741.got - 2010.06.27 13:26:56.
