data_PCOD8007246
_publ_section_title
;
Structure prediction by ZEFSAII (Michael W. Deem and Ramdas Pophale) SiO2 
 PCOD8007246
Probable space group: P -1
;
_chemical_formula_sum "Si O2"
_cell_formula_units_Z 16
_cell_length_a 13.068370
_cell_length_b 9.309985
_cell_length_c 9.518335
_cell_angle_alpha 110.218965
_cell_angle_beta 52.310296
_cell_angle_gamma 123.959159
_cell_volume 760.090541
_symmetry_space_group_name_H-M "P -1"
_symmetry_group_IT_number 2
_symmetry_cell_setting 'triclinic'
loop_
_space_group_symop_operation_xyz
x,y,z
-x,-y,-z
loop_
_atom_site_type_symbol
_atom_site_label
_atom_site_fract_x
_atom_site_fract_y
_atom_site_fract_z
Si Si1 0.369901 0.316975 0.217895
Si Si2 0.851097 0.557586 0.056311
Si Si3 0.687065 0.494687 0.914323
Si Si4 0.344694 0.839692 0.605489
Si Si5 0.845380 0.321805 0.567429
Si Si6 0.360850 0.504282 0.553570
Si Si7 0.872163 0.049890 0.657644
Si Si8 0.156095 0.779064 0.988753
O O1 0.323994 0.360271 0.121417
O O2 0.323790 0.416664 0.404000
O O3 0.286576 0.116586 0.262334
O O4 0.541983 0.378492 0.088126
O O5 0.776156 0.601970 0.265246
O O6 0.796299 0.351092 0.017790
O O7 0.811012 0.612470 0.960703
O O8 0.022982 0.661766 0.959584
O O9 0.723731 0.362449 0.752723
O O10 0.224719 0.764958 0.553958
O O11 0.386903 0.696833 0.577551
O O12 0.278697 0.899409 0.813623
O O13 0.500000 0.000000 0.500000
O O14 0.872459 0.182874 0.586546
O O15 0.000000 0.500000 0.500000
O O16 0.500000 0.500000 0.500000
O O17 0.891297 0.122553 0.824389
O O18 0.000000 0.000000 0.500000
#
# Coordination Sequence:
#
# PCOD8007246 Si02
#       8
#     2   2   2   2   2   2   2   2
#     4  11  25  41  65 102 135 175 221 277 338 405
#     4  10  20  40  69  93 123 175 224 264 331 398
#     4  11  22  42  68  95 131 180 223 271 336 408
#     4  11  27  45  70 101 136 178 228 283 335 405
#     4  12  26  46  71  97 137 185 232 277 340 415
#     4  11  22  41  67  97 138 173 217 272 343 404
#     4  12  27  44  68 100 139 173 232 286 341 399
#     4  10  23  42  66  96 130 171 223 276 330 404
#
# _framework density 21.050124
#
# number of rings (size 3 to 8) (size 9 to 14) (size 15 to 20)
#    0.000    1.000    3.750    2.250    7.000    0.500 
#    0.000    1.250    0.000    0.000    0.000    0.000 
#    0.000    0.000    0.000    0.000    0.000    0.000 
#
# Total GULP energy -198334.642275 kJ/mol
# GULP energy per Si atom -12395.915142 kJ/mol
# Density = 2.100221 g / cm^3
# Si number density = 21.050124 Si / 1000 Ang^3
#
#
#
# Elastic Constant Matrix: (Units=GPa)
#
#
# Indices 1 2 3 4 5 6 
#
# 1 108.2919 35.4923 28.2612 -4.4359 11.9604 -6.6974
# 2 35.4923 101.7143 35.3354 -14.1999 3.8622 -1.2767
# 3 28.2612 35.3354 142.9870 9.4006 3.4512 -1.5538
# 4 -4.4359 -14.1999 9.4006 31.9783 -1.4486 -1.1218
# 5 11.9604 3.8622 3.4512 -1.4486 34.0694 4.8487
# 6 -6.6974 -1.2767 -1.5538 -1.1218 4.8487 32.5961
#
#
#
# Elastic Compliance Matrix: (Units=1/GPa)
#
#
# Indices 1 2 3 4 5 6 
#
# 1 0.011244 -0.003219 -0.001335 0.000445 -0.003813 0.002703
# 2 -0.003219 0.012819 -0.002941 0.006118 0.000253 -0.000127
# 3 -0.001335 -0.002941 0.008246 -0.003927 -0.000185 -0.000104
# 4 0.000445 0.006118 -0.003927 0.035287 0.000874 0.001228
# 5 -0.003813 0.000253 -0.000185 0.000874 0.031491 -0.005437
# 6 0.002703 -0.000127 -0.000104 0.001228 -0.005437 0.032075
#
#
# Mechanical properties :
#
#
# Convention : Reuss Voigt Hill
#
# Bulk Modulus (GPa) = 57.73976 61.24123 59.49050
# Shear Modulus (GPa) = 32.91077 36.65572 34.78325
#
# Velocity S-wave (km/s) = 3.95834 4.17748 4.06938
# Velocity P-wave (km/s) = 6.95560 7.24049 7.09948
#
# Compressibility (1/GPa) = 0.01731909
#
# Stress axis : x y z
#
# Youngs Moduli (GPa) = 88.93479 78.00659 121.27249
#
# Poissons Ratio (x) = 0.25111 0.16187
# Poissons Ratio (y) = 0.28629 0.35671
# Poissons Ratio (z) = 0.11870 0.22945
#
# Static dielectric constant tensor:
#      x y z
#    x 3.906830 -0.058910 0.011510 
#    y -0.058910 3.656270 -0.053810 
#    z 0.011510 -0.053810 4.222160 
# 
# 
# High freq. dielectric constant tensor:
#      x y z
#    x 1.836370 -0.000600 0.000050 
#    y -0.000600 1.803630 -0.006460 
#    z 0.000050 -0.006460 1.850270 
# 
# From -- ./inp_files/244913.got.cif
#   From: 2010.06.25/outbox.cif.g09.slc.cpg/sg2_123_cif.got.tgz:244913.got - 2010.06.27 13:26:56.
