data_PCOD8007741
_publ_section_title
;
Structure prediction by ZEFSAII (Michael W. Deem and Ramdas Pophale) SiO2 
 PCOD8007741
Probable space group: P -1
;
_chemical_formula_sum "Si O2"
_cell_formula_units_Z 16
_cell_length_a 17.447801
_cell_length_b 17.947033
_cell_length_c 8.099205
_cell_angle_alpha 128.384907
_cell_angle_beta 54.311812
_cell_angle_gamma 158.799116
_cell_volume 718.843080
_symmetry_space_group_name_H-M "P -1"
_symmetry_group_IT_number 2
_symmetry_cell_setting 'triclinic'
loop_
_space_group_symop_operation_xyz
x,y,z
-x,-y,-z
loop_
_atom_site_type_symbol
_atom_site_label
_atom_site_fract_x
_atom_site_fract_y
_atom_site_fract_z
Si Si1 0.014330 0.719020 0.458128
Si Si2 0.934652 0.826293 0.111381
Si Si3 0.706422 0.895599 0.157660
Si Si4 0.357610 0.506874 0.271498
Si Si5 0.458214 0.094541 0.823227
Si Si6 0.397096 0.344354 0.557341
Si Si7 0.797379 0.035282 0.781205
Si Si8 0.831690 0.307166 0.573597
O O1 0.107772 0.835506 0.326659
O O2 0.054486 0.644759 0.350091
O O3 0.764937 0.519052 0.513331
O O4 0.117881 0.871645 0.685156
O O5 0.832628 0.821516 0.331037
O O6 0.005702 0.807898 0.125865
O O7 0.756812 0.632852 0.939790
O O8 0.152761 0.054251 0.055024
O O9 0.592293 0.751411 0.260818
O O10 0.535462 0.796064 0.121845
O O11 0.421035 0.483595 0.292562
O O12 0.323259 0.899909 0.617627
O O13 0.697953 0.271813 0.778476
O O14 0.351942 0.015616 0.027248
O O15 0.500000 0.500000 0.500000
O O16 0.347495 0.189842 0.364973
O O17 0.000000 0.500000 0.500000
#
# Coordination Sequence:
#
# PCOD8007741 Si02
#       8
#     2   2   2   2   2   2   2   2
#     4  10  21  40  65  95 130 172 205 263 329 378
#     4  10  24  40  65  91 127 172 224 267 312 377
#     4   9  19  40  64  91 124 171 214 261 315 371
#     4  11  22  42  65  94 125 172 228 261 309 387
#     4   9  21  38  66  93 127 168 209 257 321 388
#     4  12  26  43  64  95 131 175 218 272 328 372
#     4  11  23  46  62  94 139 169 207 272 334 377
#     4  10  20  41  67  98 126 163 218 259 310 394
#
# _framework density 22.257985999999999
#
# number of rings (size 3 to 8) (size 9 to 14) (size 15 to 20)
#    0.000    1.750    1.250    3.000    3.500    1.000 
#    2.250    0.625    0.000    0.000    0.000    0.000 
#    0.000    0.000    0.000    0.000    0.000    0.000 
#
# Total GULP energy -198248.462870 kJ/mol
# GULP energy per Si atom -12390.528929 kJ/mol
# Density = 2.220733 g / cm^3
# Si number density = 22.257986 Si / 1000 Ang^3
#
#
#
# Elastic Constant Matrix: (Units=GPa)
#
#
# Indices 1 2 3 4 5 6 
#
# 1 155.3788 71.9753 49.8482 -30.5754 6.4724 -0.2550
# 2 71.9753 107.2582 43.5278 -42.3241 -7.0145 -0.7915
# 3 49.8482 43.5278 98.0068 -44.7802 -11.9216 6.3909
# 4 -30.5754 -42.3241 -44.7802 52.2831 11.7290 -2.5263
# 5 6.4724 -7.0145 -11.9216 11.7290 38.3755 -13.5484
# 6 -0.2550 -0.7915 6.3909 -2.5263 -13.5484 35.2129
#
#
#
# Elastic Compliance Matrix: (Units=1/GPa)
#
#
# Indices 1 2 3 4 5 6 
#
# 1 0.010394 -0.006290 -0.003406 -0.001083 -0.004007 -0.001067
# 2 -0.006290 0.017751 0.000261 0.010604 0.001762 0.001745
# 3 -0.003406 0.000261 0.018257 0.013420 0.001569 -0.001766
# 4 -0.001083 0.010604 0.013420 0.039957 -0.006583 -0.001871
# 5 -0.004007 0.001762 0.001569 -0.006583 0.033896 0.012295
# 6 -0.001067 0.001745 -0.001766 -0.001871 0.012295 0.033347
#
#
# Mechanical properties :
#
#
# Convention : Reuss Voigt Hill
#
# Bulk Modulus (GPa) = 36.32073 76.81627 56.56850
# Shear Modulus (GPa) = 27.52545 38.19380 32.85962
#
# Velocity S-wave (km/s) = 3.52043 4.14691 3.84644
# Velocity P-wave (km/s) = 5.73394 7.58392 6.72287
#
# Compressibility (1/GPa) = 0.02753249
#
# Stress axis : x y z
#
# Youngs Moduli (GPa) = 96.20649 56.33593 54.77320
#
# Poissons Ratio (x) = 0.35437 0.18654
# Poissons Ratio (y) = 0.60516 -0.01431
# Poissons Ratio (z) = 0.32765 -0.01471
#
# Static dielectric constant tensor:
#      x y z
#    x 4.298590 0.287570 -0.086330 
#    y 0.287570 3.911560 -0.355970 
#    z -0.086330 -0.355970 4.097870 
# 
# 
# High freq. dielectric constant tensor:
#      x y z
#    x 1.882640 0.012340 0.004840 
#    y 0.012340 1.869250 -0.029710 
#    z 0.004840 -0.029710 1.871580 
# 
# From -- ./inp_files/335420.got.cif
#   From: 2010.06.25/outbox.cif.g09.slc.cpg/sg2_168_cif.got.tgz:335420.got - 2010.06.27 13:26:56.
