data_PCOD8007898
_publ_section_title
;
Structure prediction by ZEFSAII (Michael W. Deem and Ramdas Pophale) SiO2 
 PCOD8007898
Probable space group: P -1
;
_chemical_formula_sum "Si O2"
_cell_formula_units_Z 14
_cell_length_a 11.924622
_cell_length_b 11.713460
_cell_length_c 7.575683
_cell_angle_alpha 99.665514
_cell_angle_beta 143.836836
_cell_angle_gamma 79.255128
_cell_volume 613.183224
_symmetry_space_group_name_H-M "P -1"
_symmetry_group_IT_number 2
_symmetry_cell_setting 'triclinic'
loop_
_space_group_symop_operation_xyz
x,y,z
-x,-y,-z
loop_
_atom_site_type_symbol
_atom_site_label
_atom_site_fract_x
_atom_site_fract_y
_atom_site_fract_z
Si Si1 0.184594 0.778034 0.824405
Si Si2 0.313065 0.525672 0.028098
Si Si3 0.784527 0.718775 0.199835
Si Si4 0.264648 0.521914 0.379782
Si Si5 0.927729 0.690414 0.004054
Si Si6 0.868425 0.117672 0.854011
Si Si7 0.412157 0.878693 0.827637
O O1 0.263943 0.850721 0.784220
O O2 0.955502 0.779139 0.524452
O O3 0.272364 0.644270 0.899473
O O4 0.234208 0.846626 0.082365
O O5 0.268708 0.549919 0.183416
O O6 0.533370 0.478373 0.270970
O O7 0.198182 0.421026 0.777946
O O8 0.796198 0.739787 0.009716
O O9 0.582671 0.777510 0.021901
O O10 0.123263 0.623325 0.314938
O O11 0.184217 0.397496 0.279129
O O12 0.977850 0.791787 0.967530
O O13 0.700906 0.115926 0.498359
O O14 0.000000 0.000000 0.000000
O O15 0.500000 0.000000 0.000000
#
# Coordination Sequence:
#
# PCOD8007898 Si02
#       7
#     2   2   2   2   2   2   2
#     4  12  27  48  75 108 148 187 239 299 354 428
#     4  10  21  39  70 109 147 186 237 285 362 425
#     4  11  25  46  74 104 152 191 230 298 357 428
#     4   9  19  37  68 108 148 185 232 294 348 435
#     4  10  20  41  71 101 146 189 229 292 362 412
#     4  12  27  48  78 104 140 191 245 297 360 422
#     4  12  30  53  72 105 145 189 246 300 356 422
#
# _framework density 22.831674
#
# number of rings (size 3 to 8) (size 9 to 14) (size 15 to 20)
#    0.000    1.143    2.857    2.143    6.000    4.571 
#    0.000    0.000    0.000    0.000    0.000    0.000 
#    0.000    0.000    0.000    0.000    0.000    0.000 
#
# Total GULP energy -173638.081499 kJ/mol
# GULP energy per Si atom -12402.720107 kJ/mol
# Density = 2.277971 g / cm^3
# Si number density = 22.831674 Si / 1000 Ang^3
#
#
#
# Elastic Constant Matrix: (Units=GPa)
#
#
# Indices 1 2 3 4 5 6 
#
# 1 88.2139 44.7161 49.8125 9.0860 5.1607 -2.6052
# 2 44.7161 130.3351 44.8280 2.7625 -5.0937 10.6585
# 3 49.8125 44.8280 105.5548 9.6477 -0.9870 10.8199
# 4 9.0860 2.7625 9.6477 27.1962 -0.2943 6.7891
# 5 5.1607 -5.0937 -0.9870 -0.2943 33.8046 4.1599
# 6 -2.6052 10.6585 10.8199 6.7891 4.1599 32.7177
#
#
#
# Elastic Compliance Matrix: (Units=1/GPa)
#
#
# Indices 1 2 3 4 5 6 
#
# 1 0.018724 -0.004602 -0.007183 -0.005039 -0.004667 0.007004
# 2 -0.004602 0.010309 -0.001985 0.002188 0.002693 -0.003865
# 3 -0.007183 -0.001985 0.014315 -0.001306 0.001772 -0.004614
# 4 -0.005039 0.002188 -0.001306 0.041104 0.002593 -0.009541
# 5 -0.004667 0.002693 0.001772 0.002593 0.031560 -0.006385
# 6 0.007004 -0.003865 -0.004614 -0.009541 -0.006385 0.036699
#
#
# Mechanical properties :
#
#
# Convention : Reuss Voigt Hill
#
# Bulk Modulus (GPa) = 63.25631 66.97967 65.11799
# Shear Modulus (GPa) = 26.95135 31.06017 29.00576
#
# Velocity S-wave (km/s) = 3.43948 3.69236 3.56816
# Velocity P-wave (km/s) = 6.59841 6.89768 6.74970
#
# Compressibility (1/GPa) = 0.01580870
#
# Stress axis : x y z
#
# Youngs Moduli (GPa) = 53.40876 97.00245 69.85567
#
# Poissons Ratio (x) = 0.44638 0.50174
# Poissons Ratio (y) = 0.24577 0.13868
# Poissons Ratio (z) = 0.38361 0.19257
#
# Static dielectric constant tensor:
#      x y z
#    x 4.157360 -0.046500 0.127080 
#    y -0.046500 3.740340 0.075210 
#    z 0.127080 0.075210 3.964400 
# 
# 
# High freq. dielectric constant tensor:
#      x y z
#    x 1.907060 0.001450 0.010140 
#    y 0.001450 1.907310 0.009260 
#    z 0.010140 0.009260 1.893820 
# 
# From -- ./inp_files/307638.got.cif
#   From: 2010.06.25/outbox.cif.g09.slc.cpg/sg2_154_cif.got.tgz:307638.got - 2010.06.27 13:26:56.
