data_PCOD8007468
_publ_section_title
;
Structure prediction by ZEFSAII (Michael W. Deem and Ramdas Pophale) SiO2 
 PCOD8007468
Probable space group: P -1
;
_chemical_formula_sum "Si O2"
_cell_formula_units_Z 12
_cell_length_a 12.198745
_cell_length_b 14.994860
_cell_length_c 11.122474
_cell_angle_alpha 130.830645
_cell_angle_beta 68.933546
_cell_angle_gamma 151.224308
_cell_volume 600.188461
_symmetry_space_group_name_H-M "P -1"
_symmetry_group_IT_number 2
_symmetry_cell_setting 'triclinic'
loop_
_space_group_symop_operation_xyz
x,y,z
-x,-y,-z
loop_
_atom_site_type_symbol
_atom_site_label
_atom_site_fract_x
_atom_site_fract_y
_atom_site_fract_z
Si Si1 0.528699 0.390523 0.925414
Si Si2 0.448720 0.688793 0.407740
Si Si3 0.508432 0.826730 0.925063
Si Si4 0.938942 0.078058 0.121455
Si Si5 0.558325 0.983212 0.785185
Si Si6 0.031216 0.280348 0.770914
O O1 0.599654 0.371134 0.767880
O O2 0.248921 0.083761 0.827447
O O3 0.500000 0.500000 0.000000
O O4 0.786835 0.623546 0.119920
O O5 0.386142 0.765043 0.549198
O O6 0.241578 0.413492 0.319501
O O7 0.779081 0.962614 0.547213
O O8 0.494397 0.850708 0.814080
O O9 0.224032 0.495707 0.773138
O O10 0.781151 0.996657 0.999084
O O11 0.526066 0.958376 0.119592
O O12 0.000000 0.000000 0.000000
O O13 0.891107 0.269354 0.877767
#
# Coordination Sequence:
#
# PCOD8007468 Si02
#       6
#     2   2   2   2   2   2
#     4  11  22  41  61  86 124 161 196 249 302 354
#     4  10  23  38  62  92 117 158 206 243 301 357
#     4  10  20  41  64  86 123 163 194 248 309 343
#     4  11  23  40  60  89 126 159 198 250 299 353
#     4   9  21  38  65  89 119 155 205 248 296 361
#     4   9  22  39  61  88 120 157 199 250 296 355
#
# _framework density 19.993722000000002
#
# number of rings (size 3 to 8) (size 9 to 14) (size 15 to 20)
#    1.000    1.000    1.667    1.500    2.333    1.333 
#    0.000    5.000    0.000    0.000    0.000    0.000 
#    0.000    0.000    0.000    0.000    0.000    0.000 
#
# Total GULP energy -148682.261700 kJ/mol
# GULP energy per Si atom -12390.188475 kJ/mol
# Density = 1.994822 g / cm^3
# Si number density = 19.993722 Si / 1000 Ang^3
#
#
#
# Elastic Constant Matrix: (Units=GPa)
#
#
# Indices 1 2 3 4 5 6 
#
# 1 86.5295 15.2901 12.0011 14.1467 3.3247 4.7485
# 2 15.2901 98.4824 42.4154 20.2830 9.0774 -4.7382
# 3 12.0011 42.4154 85.7467 25.4784 -1.0759 -4.8015
# 4 14.1467 20.2830 25.4784 44.7035 2.7158 -1.9474
# 5 3.3247 9.0774 -1.0759 2.7158 23.1904 -5.9623
# 6 4.7485 -4.7382 -4.8015 -1.9474 -5.9623 25.8009
#
#
#
# Elastic Compliance Matrix: (Units=1/GPa)
#
#
# Indices 1 2 3 4 5 6 
#
# 1 0.012596 -0.001065 -0.000474 -0.003262 -0.001873 -0.003281
# 2 -0.001065 0.013903 -0.006146 -0.002138 -0.005266 0.000227
# 3 -0.000474 -0.006146 0.017045 -0.006948 0.004775 0.002710
# 4 -0.003262 -0.002138 -0.006948 0.028491 -0.002212 0.000554
# 5 -0.001873 -0.005266 0.004775 -0.002212 0.048860 0.011390
# 6 -0.003281 0.000227 0.002710 0.000554 0.011390 0.042582
#
#
# Mechanical properties :
#
#
# Convention : Reuss Voigt Hill
#
# Bulk Modulus (GPa) = 35.49422 45.57467 40.53444
# Shear Modulus (GPa) = 26.56199 32.14242 29.35220
#
# Velocity S-wave (km/s) = 3.64884 4.01387 3.83570
# Velocity P-wave (km/s) = 5.96181 6.65774 6.31936
#
# Compressibility (1/GPa) = 0.02817360
#
# Stress axis : x y z
#
# Youngs Moduli (GPa) = 79.39051 71.92546 58.66793
#
# Poissons Ratio (x) = 0.07659 0.02782
# Poissons Ratio (y) = 0.08454 0.36059
# Poissons Ratio (z) = 0.03765 0.44208
#
# Static dielectric constant tensor:
#      x y z
#    x 3.403470 0.065020 -0.064760 
#    y 0.065020 4.026910 0.135990 
#    z -0.064760 0.135990 3.517740 
# 
# 
# High freq. dielectric constant tensor:
#      x y z
#    x 1.760780 0.002190 -0.004700 
#    y 0.002190 1.803810 0.007070 
#    z -0.004700 0.007070 1.765030 
# 
# From -- ./inp_files/40594.got.cif
#   From: 2010.06.25/outbox.cif.g09.slc.cpg/sg2_21_cif.got.tgz:40594.got - 2010.06.27 13:26:56.
