data_PCOD8007211
_publ_section_title
;
Structure prediction by ZEFSAII (Michael W. Deem and Ramdas Pophale) SiO2 
 PCOD8007211
Probable space group: P -1
;
_chemical_formula_sum "Si O2"
_cell_formula_units_Z 16
_cell_length_a 14.698341
_cell_length_b 9.346518
_cell_length_c 8.801157
_cell_angle_alpha 60.967475
_cell_angle_beta 83.336498
_cell_angle_gamma 126.870542
_cell_volume 687.613655
_symmetry_space_group_name_H-M "P -1"
_symmetry_group_IT_number 2
_symmetry_cell_setting 'triclinic'
loop_
_space_group_symop_operation_xyz
x,y,z
-x,-y,-z
loop_
_atom_site_type_symbol
_atom_site_label
_atom_site_fract_x
_atom_site_fract_y
_atom_site_fract_z
Si Si1 0.114716 0.111411 0.199007
Si Si2 0.286767 0.658708 0.511831
Si Si3 0.470910 0.109391 0.059218
Si Si4 0.687156 0.351513 0.154482
Si Si5 0.024153 0.678480 0.292138
Si Si6 0.926521 0.483729 0.887198
Si Si7 0.134930 0.050433 0.554663
Si Si8 0.586191 0.493256 0.593524
O O1 0.166896 0.192958 0.321523
O O2 0.219848 0.368181 0.954138
O O3 0.126152 0.949461 0.206017
O O4 0.955530 0.964230 0.301112
O O5 0.353421 0.780243 0.605414
O O6 0.119309 0.426099 0.676848
O O7 0.354552 0.583906 0.468810
O O8 0.319422 0.860215 0.290954
O O9 0.561225 0.234872 0.132045
O O10 0.490699 0.301524 0.855438
O O11 0.500000 0.000000 0.000000
O O12 0.778263 0.355406 0.028662
O O13 0.000000 0.500000 0.500000
O O14 0.106145 0.707526 0.122336
O O15 0.041814 0.770709 0.658863
O O16 0.000000 0.500000 0.000000
O O17 0.284677 0.221410 0.515988
O O18 0.500000 0.500000 0.500000
#
# Coordination Sequence:
#
# PCOD8007211 Si02
#       8
#     2   2   2   2   2   2   2   2
#     4  10  21  39  71  99 136 180 223 294 347 419
#     4  11  25  46  68 104 145 186 234 295 348 422
#     4  10  24  44  73  97 135 189 235 290 346 411
#     4  11  23  45  72 100 140 189 234 285 362 415
#     4  12  24  42  68 107 142 179 236 289 362 421
#     4  11  24  39  67 108 136 175 232 295 353 423
#     4  10  20  40  68  96 138 180 227 286 354 409
#     4  11  24  47  71 103 139 191 242 287 348 425
#
# _framework density 23.268878000000001
#
# number of rings (size 3 to 8) (size 9 to 14) (size 15 to 20)
#    0.000    1.250    5.000    0.375    3.500    3.500 
#    4.500    0.625    0.000    0.000    0.000    0.000 
#    0.000    0.000    0.000    0.000    0.000    0.000 
#
# Total GULP energy -198217.361378 kJ/mol
# GULP energy per Si atom -12388.585086 kJ/mol
# Density = 2.321592 g / cm^3
# Si number density = 23.268878 Si / 1000 Ang^3
#
#
#
# Elastic Constant Matrix: (Units=GPa)
#
#
# Indices 1 2 3 4 5 6 
#
# 1 79.5212 22.4595 12.1356 -2.7301 12.4230 -0.5604
# 2 22.4595 107.4267 22.2852 6.3956 -4.7760 -17.6422
# 3 12.1356 22.2852 97.4902 13.6417 11.2892 -6.9541
# 4 -2.7301 6.3956 13.6417 23.9690 3.4795 5.2776
# 5 12.4230 -4.7760 11.2892 3.4795 32.3974 7.4042
# 6 -0.5604 -17.6422 -6.9541 5.2776 7.4042 43.6120
#
#
#
# Elastic Compliance Matrix: (Units=1/GPa)
#
#
# Indices 1 2 3 4 5 6 
#
# 1 0.014832 -0.003571 -0.000984 0.004287 -0.006128 -0.000889
# 2 -0.003571 0.011477 -0.001686 -0.003899 0.003090 0.004275
# 3 -0.000984 -0.001686 0.012381 -0.006727 -0.004100 0.002790
# 4 0.004287 -0.003899 -0.006727 0.049324 -0.003345 -0.007996
# 5 -0.006128 0.003090 -0.004100 -0.003345 0.036672 -0.005304
# 6 -0.000889 0.004275 0.002790 -0.007996 -0.005304 0.026960
#
#
# Mechanical properties :
#
#
# Convention : Reuss Voigt Hill
#
# Bulk Modulus (GPa) = 38.15637 44.24429 41.20033
# Shear Modulus (GPa) = 28.92458 35.16620 32.04539
#
# Velocity S-wave (km/s) = 3.52953 3.89176 3.71506
# Velocity P-wave (km/s) = 5.74837 6.26498 6.01223
#
# Compressibility (1/GPa) = 0.02620795
#
# Stress axis : x y z
#
# Youngs Moduli (GPa) = 67.42109 87.13420 80.77200
#
# Poissons Ratio (x) = 0.31112 0.07947
# Poissons Ratio (y) = 0.24073 0.13620
# Poissons Ratio (z) = 0.06633 0.14693
#
# Static dielectric constant tensor:
#      x y z
#    x 4.000690 0.146530 0.124440 
#    y 0.146530 4.172290 -0.148890 
#    z 0.124440 -0.148890 5.407340 
# 
# 
# High freq. dielectric constant tensor:
#      x y z
#    x 1.897910 0.007550 0.009660 
#    y 0.007550 1.923550 0.005080 
#    z 0.009660 0.005080 1.931640 
# 
# From -- ./inp_files/297653.got.cif
#   From: 2010.06.25/outbox.cif.g09.slc.cpg/sg2_149_cif.got.tgz:297653.got - 2010.06.27 13:26:56.
