data_PCOD8007950
_publ_section_title
;
Structure prediction by ZEFSAII (Michael W. Deem and Ramdas Pophale) SiO2 
 PCOD8007950
Probable space group: P -1
;
_chemical_formula_sum "Si O2"
_cell_formula_units_Z 12
_cell_length_a 7.723942
_cell_length_b 8.753187
_cell_length_c 9.564564
_cell_angle_alpha 107.178716
_cell_angle_beta 114.636817
_cell_angle_gamma 51.187941
_cell_volume 457.475995
_symmetry_space_group_name_H-M "P -1"
_symmetry_group_IT_number 2
_symmetry_cell_setting 'triclinic'
loop_
_space_group_symop_operation_xyz
x,y,z
-x,-y,-z
loop_
_atom_site_type_symbol
_atom_site_label
_atom_site_fract_x
_atom_site_fract_y
_atom_site_fract_z
Si Si1 0.632587 0.063827 0.761233
Si Si2 0.010511 0.242698 0.005573
Si Si3 0.709282 0.672337 0.048617
Si Si4 0.180772 0.682290 0.506778
Si Si5 0.694091 0.041485 0.468036
Si Si6 0.392542 0.531249 0.248745
O O1 0.449072 0.243948 0.845265
O O2 0.537985 0.931274 0.658157
O O3 0.660338 0.133960 0.637645
O O4 0.882261 0.924893 0.886801
O O5 0.932870 0.451258 0.102657
O O6 0.775800 0.277147 0.861719
O O7 0.204189 0.193393 0.937466
O O8 0.568131 0.655592 0.869721
O O9 0.245184 0.568968 0.350881
O O10 0.349886 0.522306 0.640888
O O11 0.904911 0.805611 0.478487
O O12 0.247402 0.838280 0.577408
#
# Coordination Sequence:
#
# PCOD8007950 Si02
#       6
#     2   2   2   2   2   2
#     4  11  21  41  59  91 119 146 198 251 285 340
#     4   9  19  35  61  93 111 152 196 239 296 334
#     4   9  19  35  61  93 111 152 196 239 296 334
#     4  10  20  42  58  82 122 156 199 227 288 371
#     4  10  24  37  59  86 117 161 191 237 297 340
#     4   9  19  36  61  85 110 158 197 237 283 344
#
# _framework density 26.230884
#
# number of rings (size 3 to 8) (size 9 to 14) (size 15 to 20)
#    1.000    1.333    0.000    2.500    0.000    2.667 
#    6.000    6.667    0.000    0.000    0.000    0.000 
#    0.000    0.000    0.000    0.000    0.000    0.000 
#
# Total GULP energy -148683.788644 kJ/mol
# GULP energy per Si atom -12390.315720 kJ/mol
# Density = 2.617118 g / cm^3
# Si number density = 26.230884 Si / 1000 Ang^3
#
#
#
# Elastic Constant Matrix: (Units=GPa)
#
#
# Indices 1 2 3 4 5 6 
#
# 1 40.4977 8.4190 19.7681 -10.1223 -6.8520 -17.6958
# 2 8.4190 82.4794 56.3282 -16.3677 -10.4370 -18.8973
# 3 19.7681 56.3282 149.2224 -12.8482 4.5252 -24.0230
# 4 -10.1223 -16.3677 -12.8482 60.5841 -12.4772 -6.8431
# 5 -6.8520 -10.4370 4.5252 -12.4772 35.7237 3.9384
# 6 -17.6958 -18.8973 -24.0230 -6.8431 3.9384 34.5601
#
#
#
# Elastic Compliance Matrix: (Units=1/GPa)
#
#
# Indices 1 2 3 4 5 6 
#
# 1 0.040976 0.008349 -0.003925 0.013645 0.012910 0.024048
# 2 0.008349 0.022108 -0.007013 0.009501 0.010930 0.012125
# 3 -0.003925 -0.007013 0.010151 -0.001189 -0.004669 0.001508
# 4 0.013645 0.009501 -0.001189 0.025418 0.012775 0.014932
# 5 0.012910 0.010930 -0.004669 0.012775 0.037883 0.007554
# 6 0.024048 0.012125 0.001508 0.014932 0.007554 0.051022
#
#
# Mechanical properties :
#
#
# Convention : Reuss Voigt Hill
#
# Bulk Modulus (GPa) = 14.69356 49.02556 31.85956
# Shear Modulus (GPa) = 23.21044 38.68588 30.94816
#
# Velocity S-wave (km/s) = 2.97787 3.84451 3.43860
# Velocity P-wave (km/s) = 4.17581 6.19980 5.28559
#
# Compressibility (1/GPa) = 0.06805702
#
# Stress axis : x y z
#
# Youngs Moduli (GPa) = 24.40456 45.23295 98.51695
#
# Poissons Ratio (x) = -0.37766 0.38669
# Poissons Ratio (y) = -0.20376 0.69088
# Poissons Ratio (z) = 0.09579 0.31721
#
# Static dielectric constant tensor:
#      x y z
#    x 4.319500 -0.297480 0.165360 
#    y -0.297480 4.621180 -0.071900 
#    z 0.165360 -0.071900 4.714960 
# 
# 
# High freq. dielectric constant tensor:
#      x y z
#    x 2.019370 -0.010360 0.016300 
#    y -0.010360 2.047700 0.003290 
#    z 0.016300 0.003290 2.063370 
# 
# From -- ./inp_files/189501.got.cif
#   From: 2010.06.25/outbox.cif.g09.slc.cpg/sg2_95_cif.got.tgz:189501.got - 2010.06.27 13:26:56.
