data_PCOD8007479
_publ_section_title
;
Structure prediction by ZEFSAII (Michael W. Deem and Ramdas Pophale) SiO2 
 PCOD8007479
Probable space group: P -1
;
_chemical_formula_sum "Si O2"
_cell_formula_units_Z 16
_cell_length_a 26.158574
_cell_length_b 16.702585
_cell_length_c 14.386361
_cell_angle_alpha 32.937830
_cell_angle_beta 20.650004
_cell_angle_gamma 20.658917
_cell_volume 747.991115
_symmetry_space_group_name_H-M "P -1"
_symmetry_group_IT_number 2
_symmetry_cell_setting 'triclinic'
loop_
_space_group_symop_operation_xyz
x,y,z
-x,-y,-z
loop_
_atom_site_type_symbol
_atom_site_label
_atom_site_fract_x
_atom_site_fract_y
_atom_site_fract_z
Si Si1 0.717427 0.418568 0.677088
Si Si2 0.487634 0.115587 0.496465
Si Si3 0.817988 0.955699 0.651154
Si Si4 0.349520 0.762423 0.688134
Si Si5 0.343386 0.216675 0.844143
Si Si6 0.988064 0.270871 0.027387
Si Si7 0.224131 0.743767 0.454542
Si Si8 0.842311 0.159378 0.249741
O O1 0.637683 0.637199 0.561343
O O2 0.835227 0.226691 0.581765
O O3 0.905596 0.294723 0.558931
O O4 0.500000 0.500000 0.000000
O O5 0.344145 0.172637 0.775433
O O6 0.500000 0.000000 0.500000
O O7 0.753761 0.925040 0.262736
O O8 0.725253 0.129378 0.725237
O O9 0.781940 0.065889 0.507228
O O10 0.669279 0.923195 0.938121
O O11 0.422825 0.876257 0.439018
O O12 0.547207 0.534626 0.638149
O O13 0.335220 0.696465 0.675324
O O14 0.106825 0.933739 0.985306
O O15 0.112468 0.493986 0.994904
O O16 0.995074 0.147768 0.220339
O O17 0.818262 0.332718 0.177762
#
# Coordination Sequence:
#
# PCOD8007479 Si02
#       8
#     2   2   2   2   2   2   2   2
#     4  12  23  39  61  90 129 168 210 263 305 374
#     4  12  25  39  62  90 131 174 207 251 318 380
#     4  11  25  37  59  95 130 163 204 265 322 363
#     4  10  20  43  71  90 122 166 218 260 308 383
#     4  11  24  42  62  96 130 164 211 261 315 382
#     4  10  20  41  64  89 122 165 219 251 302 382
#     4  10  21  39  62  89 122 164 215 255 307 376
#     4  10  21  42  69  93 120 167 216 262 312 373
#
# _framework density 21.390629000000001
#
# number of rings (size 3 to 8) (size 9 to 14) (size 15 to 20)
#    0.000    1.250    3.750    3.375    3.500    6.000 
#    2.250    0.000    0.000    3.000    0.000    0.000 
#    0.000    0.000    0.000    0.000    0.000    0.000 
#
# Total GULP energy -198342.137746 kJ/mol
# GULP energy per Si atom -12396.383609 kJ/mol
# Density = 2.134194 g / cm^3
# Si number density = 21.390629 Si / 1000 Ang^3
#
#
#
# Elastic Constant Matrix: (Units=GPa)
#
#
# Indices 1 2 3 4 5 6 
#
# 1 102.7766 0.0514 10.1680 -9.1709 1.3669 11.5858
# 2 0.0514 48.9006 14.9091 -7.3569 2.4898 13.5070
# 3 10.1680 14.9091 85.4175 -15.5326 -1.9101 5.1904
# 4 -9.1709 -7.3569 -15.5326 35.4020 4.5612 -6.6540
# 5 1.3669 2.4898 -1.9101 4.5612 29.8581 0.7921
# 6 11.5858 13.5070 5.1904 -6.6540 0.7921 34.0700
#
#
#
# Elastic Compliance Matrix: (Units=1/GPa)
#
#
# Indices 1 2 3 4 5 6 
#
# 1 0.010428 0.001636 -0.000952 0.002057 -0.000893 -0.003627
# 2 0.001636 0.024576 -0.003511 0.002583 -0.002499 -0.009202
# 3 -0.000952 -0.003511 0.013299 0.004926 0.000418 0.000642
# 4 0.002057 0.002583 0.004926 0.032904 -0.005129 0.004072
# 5 -0.000893 -0.002499 0.000418 -0.005129 0.034567 -0.000575
# 6 -0.003627 -0.009202 0.000642 0.004072 -0.000575 0.034944
#
#
# Mechanical properties :
#
#
# Convention : Reuss Voigt Hill
#
# Bulk Modulus (GPa) = 23.44799 31.92798 27.68798
# Shear Modulus (GPa) = 29.31035 33.99711 31.65373
#
# Velocity S-wave (km/s) = 3.70569 3.99098 3.85098
# Velocity P-wave (km/s) = 5.41250 6.01630 5.72237
#
# Compressibility (1/GPa) = 0.04264759
#
# Stress axis : x y z
#
# Youngs Moduli (GPa) = 95.90018 40.69003 75.19092
#
# Poissons Ratio (x) = -0.06657 0.07161
# Poissons Ratio (y) = -0.15691 0.26403
# Poissons Ratio (z) = 0.09134 0.14288
#
# Static dielectric constant tensor:
#      x y z
#    x 4.200100 0.349730 -0.028930 
#    y 0.349730 3.875240 -0.063480 
#    z -0.028930 -0.063480 4.018310 
# 
# 
# High freq. dielectric constant tensor:
#      x y z
#    x 1.845340 0.017260 0.004720 
#    y 0.017260 1.830560 0.007930 
#    z 0.004720 0.007930 1.839470 
# 
# From -- ./inp_files/504511.got.cif
#   From: 2010.06.25/outbox.cif.g09.slc.cpg/sg2_253_cif.got.tgz:504511.got - 2010.06.27 13:26:56.
