data_PCOD8007916
_publ_section_title
;
Structure prediction by ZEFSAII (Michael W. Deem and Ramdas Pophale) SiO2 
 PCOD8007916
Probable space group: P -1
;
_chemical_formula_sum "Si O2"
_cell_formula_units_Z 12
_cell_length_a 15.804597
_cell_length_b 9.305948
_cell_length_c 11.489019
_cell_angle_alpha 140.864755
_cell_angle_beta 151.713299
_cell_angle_gamma 43.028828
_cell_volume 498.853949
_symmetry_space_group_name_H-M "P -1"
_symmetry_group_IT_number 2
_symmetry_cell_setting 'triclinic'
loop_
_space_group_symop_operation_xyz
x,y,z
-x,-y,-z
loop_
_atom_site_type_symbol
_atom_site_label
_atom_site_fract_x
_atom_site_fract_y
_atom_site_fract_z
Si Si1 0.851482 0.826835 0.976792
Si Si2 0.480355 0.067313 0.651473
Si Si3 0.338786 0.865692 0.728752
Si Si4 0.771252 0.237254 0.711111
Si Si5 0.107205 0.315791 0.805124
Si Si6 0.276019 0.484668 0.562577
O O1 0.743996 0.656728 0.668935
O O2 0.684206 0.037688 0.935771
O O3 0.936016 0.714468 0.128791
O O4 0.017316 0.881561 0.129973
O O5 0.386951 0.337220 0.707511
O O6 0.500000 0.000000 0.500000
O O7 0.338524 0.924030 0.448995
O O8 0.323183 0.721997 0.502729
O O9 0.376365 0.695599 0.777492
O O10 0.168358 0.068273 0.666402
O O11 0.500000 0.000000 0.000000
O O12 0.761192 0.488700 0.919569
O O13 0.925698 0.410925 0.573741
#
# Coordination Sequence:
#
# PCOD8007916 Si02
#       6
#     2   2   2   2   2   2
#     4  10  20  41  71  98 129 176 213 276 326 383
#     4  10  24  40  69  98 135 175 212 273 333 389
#     4  12  25  39  69 101 128 170 226 272 320 389
#     4  11  23  45  69  99 130 171 230 259 329 399
#     4  11  22  41  75  93 129 177 214 280 322 379
#     4  10  21  43  63  98 132 169 220 267 329 384
#
# _framework density 24.055137999999999
#
# number of rings (size 3 to 8) (size 9 to 14) (size 15 to 20)
#    0.000    1.333    3.333    2.500    4.667    7.333 
#    0.000    4.167    0.000    0.000    0.000    0.000 
#    0.000    0.000    0.000    0.000    0.000    0.000 
#
# Total GULP energy -148662.431486 kJ/mol
# GULP energy per Si atom -12388.535957 kJ/mol
# Density = 2.400039 g / cm^3
# Si number density = 24.055138 Si / 1000 Ang^3
#
#
#
# Elastic Constant Matrix: (Units=GPa)
#
#
# Indices 1 2 3 4 5 6 
#
# 1 73.9636 15.3285 16.1863 12.1916 31.9488 12.2220
# 2 15.3285 125.8914 6.3867 -1.8670 33.0870 23.4275
# 3 16.1863 6.3867 76.7204 7.8317 36.4983 18.7276
# 4 12.1916 -1.8670 7.8317 39.0961 -0.8882 11.4685
# 5 31.9488 33.0870 36.4983 -0.8882 42.4153 6.3243
# 6 12.2220 23.4275 18.7276 11.4685 6.3243 22.9359
#
#
#
# Elastic Compliance Matrix: (Units=1/GPa)
#
#
# Indices 1 2 3 4 5 6 
#
# 1 0.042234 0.022034 0.037814 -0.005954 -0.073828 -0.052553
# 2 0.022034 0.030683 0.036605 0.002443 -0.063529 -0.056675
# 3 0.037814 0.036605 0.075573 -0.001745 -0.108932 -0.088336
# 4 -0.005954 0.002443 -0.001745 0.032848 0.007200 -0.016308
# 5 -0.073828 -0.063529 -0.108932 0.007200 0.202698 0.133685
# 6 -0.052553 -0.056675 -0.088336 -0.016308 0.133685 0.172914
#
#
# Mechanical properties :
#
#
# Convention : Reuss Voigt Hill
#
# Bulk Modulus (GPa) = 2.92915 39.15315 21.04115
# Shear Modulus (GPa) = 10.46368 36.80106 23.63237
#
# Velocity S-wave (km/s) = 2.08790 3.91559 3.13777
# Velocity P-wave (km/s) = 2.65193 6.06252 4.67905
#
# Compressibility (1/GPa) = 0.34139556
#
# Stress axis : x y z
#
# Youngs Moduli (GPa) = 23.67743 32.59115 13.23225
#
# Poissons Ratio (x) = -0.71812 -0.50036
# Poissons Ratio (y) = -0.52172 -0.48436
# Poissons Ratio (z) = -0.89533 -1.19298
#
# Static dielectric constant tensor:
#      x y z
#    x 4.111060 -0.108790 0.306340 
#    y -0.108790 5.448450 -0.635210 
#    z 0.306340 -0.635210 4.720450 
# 
# 
# High freq. dielectric constant tensor:
#      x y z
#    x 1.932590 -0.015220 0.008960 
#    y -0.015220 1.957730 -0.000760 
#    z 0.008960 -0.000760 1.961160 
# 
# From -- ./inp_files/171286.got.cif
#   From: 2010.06.25/outbox.cif.g09.slc.cpg/sg2_86_cif.got.tgz:171286.got - 2010.06.27 13:26:56.
