data_PCOD8007616
_publ_section_title
;
Structure prediction by ZEFSAII (Michael W. Deem and Ramdas Pophale) SiO2 
 PCOD8007616
Probable space group: P -1
;
_chemical_formula_sum "Si O2"
_cell_formula_units_Z 16
_cell_length_a 14.576233
_cell_length_b 14.408981
_cell_length_c 14.738530
_cell_angle_alpha 36.193457
_cell_angle_beta 28.276939
_cell_angle_gamma 28.546917
_cell_volume 693.103504
_symmetry_space_group_name_H-M "P -1"
_symmetry_group_IT_number 2
_symmetry_cell_setting 'triclinic'
loop_
_space_group_symop_operation_xyz
x,y,z
-x,-y,-z
loop_
_atom_site_type_symbol
_atom_site_label
_atom_site_fract_x
_atom_site_fract_y
_atom_site_fract_z
Si Si1 0.858289 0.592996 0.826843
Si Si2 0.755270 0.896972 0.404036
Si Si3 0.298671 0.462650 0.645517
Si Si4 0.631631 0.267409 0.159679
Si Si5 0.808454 0.174316 0.464038
Si Si6 0.451156 0.552905 0.258006
Si Si7 0.088518 0.117526 0.531212
Si Si8 0.169590 0.520421 0.257668
O O1 0.844632 0.790782 0.680298
O O2 0.908248 0.520124 0.736736
O O3 0.097541 0.438723 0.801476
O O4 0.626902 0.620670 0.049641
O O5 0.731229 0.930542 0.506045
O O6 0.934839 0.660975 0.416033
O O7 0.500000 0.000000 0.500000
O O8 0.826339 0.033445 0.192154
O O9 0.522283 0.266075 0.656543
O O10 0.172756 0.646533 0.680427
O O11 0.426736 0.498593 0.423540
O O12 0.550243 0.374986 0.243136
O O13 0.392970 0.321568 0.268787
O O14 0.756440 0.335885 0.935673
O O15 0.872997 0.079628 0.381914
O O16 0.000000 0.000000 0.500000
O O17 0.187138 0.735165 0.309821
#
# Coordination Sequence:
#
# PCOD8007616 Si02
#       8
#     2   2   2   2   2   2   2   2
#     4  10  22  40  64  93 125 161 208 258 305 364
#     4  12  25  36  61  94 122 165 209 249 309 368
#     4  10  23  42  69  88 126 158 207 255 307 372
#     4  10  21  40  59  83 127 164 207 254 297 366
#     4  11  21  43  69  92 122 169 198 256 319 357
#     4  10  20  41  66  89 123 171 202 251 316 361
#     4  11  23  41  64  92 128 161 209 254 309 370
#     4  10  22  39  59  88 123 165 205 252 306 356
#
# _framework density 23.084575000000001
#
# number of rings (size 3 to 8) (size 9 to 14) (size 15 to 20)
#    0.000    1.500    3.750    1.875    5.250    1.000 
#    2.250    6.250    0.000    0.000    0.000    0.000 
#    0.000    0.000    0.000    0.000    0.000    0.000 
#
# Total GULP energy -198247.676736 kJ/mol
# GULP energy per Si atom -12390.479796 kJ/mol
# Density = 2.303203 g / cm^3
# Si number density = 23.084575 Si / 1000 Ang^3
#
#
#
# Elastic Constant Matrix: (Units=GPa)
#
#
# Indices 1 2 3 4 5 6 
#
# 1 145.1434 48.2910 18.8606 13.8786 -25.7744 -3.4549
# 2 48.2910 133.6841 -5.0335 -0.5785 -6.0862 -12.3208
# 3 18.8606 -5.0335 79.7760 2.7029 -17.5642 -4.8216
# 4 13.8786 -0.5785 2.7029 17.3796 -3.0529 4.1999
# 5 -25.7744 -6.0862 -17.5642 -3.0529 33.6443 10.6352
# 6 -3.4549 -12.3208 -4.8216 4.1999 10.6352 43.8779
#
#
#
# Elastic Compliance Matrix: (Units=1/GPa)
#
#
# Indices 1 2 3 4 5 6 
#
# 1 0.009861 -0.003458 -0.001043 -0.006456 0.006174 -0.001188
# 2 -0.003458 0.008965 0.001249 0.002117 -0.000944 0.002408
# 3 -0.001043 0.001249 0.014389 -0.000210 0.006854 0.000209
# 4 -0.006456 0.002117 -0.000210 0.065095 0.003448 -0.007003
# 5 0.006174 -0.000944 0.006854 0.003448 0.041120 -0.009323
# 6 -0.001188 0.002408 0.000209 -0.007003 -0.009323 0.026326
#
#
# Mechanical properties :
#
#
# Convention : Reuss Voigt Hill
#
# Bulk Modulus (GPa) = 37.43793 53.64887 45.54340
# Shear Modulus (GPa) = 27.59935 38.74605 33.17270
#
# Velocity S-wave (km/s) = 3.46146 4.10132 3.79490
# Velocity P-wave (km/s) = 5.67702 6.76154 6.24287
#
# Compressibility (1/GPa) = 0.02671087
#
# Stress axis : x y z
#
# Youngs Moduli (GPa) = 101.40797 111.55060 69.49633
#
# Poissons Ratio (x) = 0.38572 0.07250
# Poissons Ratio (y) = 0.35064 -0.08680
# Poissons Ratio (z) = 0.10580 -0.13933
#
# Static dielectric constant tensor:
#      x y z
#    x 4.479960 -0.125470 -0.219680 
#    y -0.125470 4.778300 -0.200040 
#    z -0.219680 -0.200040 4.088930 
# 
# 
# High freq. dielectric constant tensor:
#      x y z
#    x 1.934490 -0.005700 -0.019130 
#    y -0.005700 1.915890 -0.004590 
#    z -0.019130 -0.004590 1.886520 
# 
# From -- ./inp_files/533665.got.cif
#   From: 2010.06.25/outbox.cif.g09.slc.cpg/sg2_267_cif.got.tgz:533665.got - 2010.06.27 13:26:56.
