data_PCOD8007506
_publ_section_title
;
Structure prediction by ZEFSAII (Michael W. Deem and Ramdas Pophale) SiO2 
 PCOD8007506
Probable space group: P -1
;
_chemical_formula_sum "Si O2"
_cell_formula_units_Z 16
_cell_length_a 13.790275
_cell_length_b 13.837529
_cell_length_c 8.104723
_cell_angle_alpha 119.640313
_cell_angle_beta 88.076190
_cell_angle_gamma 42.143507
_cell_volume 655.966300
_symmetry_space_group_name_H-M "P -1"
_symmetry_group_IT_number 2
_symmetry_cell_setting 'triclinic'
loop_
_space_group_symop_operation_xyz
x,y,z
-x,-y,-z
loop_
_atom_site_type_symbol
_atom_site_label
_atom_site_fract_x
_atom_site_fract_y
_atom_site_fract_z
Si Si1 0.705530 0.526047 0.180028
Si Si2 0.513866 0.314420 0.001728
Si Si3 0.448681 0.869583 0.869400
Si Si4 0.577951 0.920216 0.691555
Si Si5 0.160448 0.049927 0.800052
Si Si6 0.824577 0.849355 0.445434
Si Si7 0.809948 0.617492 0.062870
Si Si8 0.466584 0.581839 0.393524
O O1 0.636747 0.548274 0.024173
O O2 0.698173 0.668714 0.271376
O O3 0.571363 0.600160 0.389320
O O4 0.925973 0.271749 0.002235
O O5 0.432146 0.336376 0.192455
O O6 0.543128 0.417020 0.115400
O O7 0.727681 0.039595 0.729315
O O8 0.594442 0.774628 0.634098
O O9 0.249353 0.010390 0.930645
O O10 0.369531 0.053850 0.134411
O O11 0.723696 0.824641 0.457048
O O12 0.347403 0.168011 0.865089
O O13 0.237321 0.845036 0.599345
O O14 0.239097 0.051897 0.652002
O O15 0.066476 0.602673 0.234416
O O16 0.000000 0.500000 0.000000
O O17 0.500000 0.500000 0.500000
#
# Coordination Sequence:
#
# PCOD8007506 Si02
#       8
#     2   2   2   2   2   2   2   2
#     4  11  24  44  69  97 135 172 225 273 330 398
#     4  11  22  47  66  94 136 175 225 275 326 400
#     4  10  21  40  65  92 138 174 216 280 320 395
#     4  10  20  41  64  92 136 183 218 264 340 382
#     4  11  23  42  66 101 129 168 226 277 331 390
#     4  10  22  40  68  95 132 175 223 269 325 398
#     4  11  22  40  68 106 134 168 228 270 319 402
#     4  12  25  45  71  98 131 175 224 280 338 384
#
# _framework density 24.391497999999999
#
# number of rings (size 3 to 8) (size 9 to 14) (size 15 to 20)
#    0.000    1.250    5.000    1.875    0.000    4.000 
#    2.250   10.625    0.000    0.000    0.000    0.000 
#    0.000    0.000    0.000    0.000    0.000    0.000 
#
# Total GULP energy -198212.391155 kJ/mol
# GULP energy per Si atom -12388.274447 kJ/mol
# Density = 2.433598 g / cm^3
# Si number density = 24.391498 Si / 1000 Ang^3
#
#
#
# Elastic Constant Matrix: (Units=GPa)
#
#
# Indices 1 2 3 4 5 6 
#
# 1 97.7504 32.3370 8.8841 0.1594 -0.0759 15.9678
# 2 32.3370 133.7217 32.5059 -3.4127 -22.3339 12.7624
# 3 8.8841 32.5059 32.2142 7.3414 -16.3637 2.3908
# 4 0.1594 -3.4127 7.3414 36.1819 7.3726 2.6938
# 5 -0.0759 -22.3339 -16.3637 7.3726 35.0945 2.1162
# 6 15.9678 12.7624 2.3908 2.6938 2.1162 40.1205
#
#
#
# Elastic Compliance Matrix: (Units=1/GPa)
#
#
# Indices 1 2 3 4 5 6 
#
# 1 0.011811 -0.002392 -0.001974 0.000887 -0.002377 -0.003756
# 2 -0.002392 0.011115 -0.010080 0.002887 0.001899 -0.002277
# 3 -0.001974 -0.010080 0.058169 -0.017750 0.024406 0.000431
# 4 0.000887 0.002887 -0.017750 0.034405 -0.013556 -0.001809
# 5 -0.002377 0.001899 0.024406 -0.013556 0.044078 -0.002527
# 6 -0.003756 -0.002277 0.000431 -0.001809 -0.002527 0.027373
#
#
# Mechanical properties :
#
#
# Convention : Reuss Voigt Hill
#
# Bulk Modulus (GPa) = 19.15648 45.68225 32.41937
# Shear Modulus (GPa) = 21.43649 34.94333 28.18991
#
# Velocity S-wave (km/s) = 2.96776 3.78908 3.40329
# Velocity P-wave (km/s) = 4.42880 6.15729 5.36314
#
# Compressibility (1/GPa) = 0.05220165
#
# Stress axis : x y z
#
# Youngs Moduli (GPa) = 84.66493 89.96600 17.19122
#
# Poissons Ratio (x) = 0.21521 0.03394
# Poissons Ratio (y) = 0.20253 0.17330
# Poissons Ratio (z) = 0.16717 0.90690
#
# Static dielectric constant tensor:
#      x y z
#    x 4.894380 0.415810 0.116160 
#    y 0.415810 4.557440 -0.083330 
#    z 0.116160 -0.083330 5.502160 
# 
# 
# High freq. dielectric constant tensor:
#      x y z
#    x 1.975250 0.023340 0.014360 
#    y 0.023340 1.974640 -0.014070 
#    z 0.014360 -0.014070 1.976930 
# 
# From -- ./inp_files/313905.got.cif
#   From: 2010.06.25/outbox.cif.g09.slc.cpg/sg2_157_cif.got.tgz:313905.got - 2010.06.27 13:26:56.
