data_PCOD8007353
_publ_section_title
;
Structure prediction by ZEFSAII (Michael W. Deem and Ramdas Pophale) SiO2 
 PCOD8007353
Probable space group: P -1
;
_chemical_formula_sum "Si O2"
_cell_formula_units_Z 16
_cell_length_a 13.840799
_cell_length_b 9.612073
_cell_length_c 9.505764
_cell_angle_alpha 60.490599
_cell_angle_beta 98.764588
_cell_angle_gamma 134.335383
_cell_volume 748.877738
_symmetry_space_group_name_H-M "P -1"
_symmetry_group_IT_number 2
_symmetry_cell_setting 'triclinic'
loop_
_space_group_symop_operation_xyz
x,y,z
-x,-y,-z
loop_
_atom_site_type_symbol
_atom_site_label
_atom_site_fract_x
_atom_site_fract_y
_atom_site_fract_z
Si Si1 0.418001 0.919640 0.823139
Si Si2 0.094964 0.097747 0.171001
Si Si3 0.766078 0.643346 0.646080
Si Si4 0.768675 0.498313 0.204735
Si Si5 0.040080 0.672937 0.299328
Si Si6 0.218347 0.231516 0.719342
Si Si7 0.276252 0.755918 0.164049
Si Si8 0.536590 0.678718 0.309959
O O1 0.360249 0.761203 0.751740
O O2 0.569808 0.021751 0.845199
O O3 0.436923 0.129407 0.690921
O O4 0.300111 0.768925 0.995211
O O5 0.127212 0.173136 0.302658
O O6 0.097780 0.909462 0.254745
O O7 0.203882 0.320324 0.985268
O O8 0.939972 0.983188 0.149215
O O9 0.790862 0.778801 0.446221
O O10 0.793731 0.493971 0.679421
O O11 0.600361 0.459903 0.753127
O O12 0.723072 0.529305 0.325837
O O13 0.902156 0.539813 0.238312
O O14 0.164617 0.757285 0.183900
O O15 0.000000 0.500000 0.500000
O O16 0.323062 0.210416 0.800577
O O17 0.500000 0.500000 0.500000
#
# Coordination Sequence:
#
# PCOD8007353 Si02
#       8
#     2   2   2   2   2   2   2   2
#     4  10  22  39  63  91 124 161 205 255 308 372
#     4  11  23  40  61  92 123 161 208 253 307 368
#     4  10  20  41  61  88 120 162 205 248 309 371
#     4  11  24  42  60  96 124 162 209 255 311 365
#     4  11  25  42  63  92 130 163 207 260 311 368
#     4  10  21  38  62  85 126 162 199 254 307 365
#     4  10  21  40  63  90 123 161 205 255 310 361
#     4   9  21  38  60  90 120 157 202 253 304 369
#
# _framework density 21.365303999999998
#
# number of rings (size 3 to 8) (size 9 to 14) (size 15 to 20)
#    0.000    1.750    1.250    3.375    3.500    4.500 
#    0.000   10.000    0.000    0.000    0.000    0.000 
#    0.000    0.000    0.000    0.000    0.000    0.000 
#
# Total GULP energy -198320.900273 kJ/mol
# GULP energy per Si atom -12395.056267 kJ/mol
# Density = 2.131668 g / cm^3
# Si number density = 21.365304 Si / 1000 Ang^3
#
#
#
# Elastic Constant Matrix: (Units=GPa)
#
#
# Indices 1 2 3 4 5 6 
#
# 1 118.9529 34.3990 -0.9680 6.6854 -14.7198 -1.6968
# 2 34.3990 121.3912 -4.3550 16.0066 1.7320 0.2370
# 3 -0.9680 -4.3550 44.9392 1.2891 7.6557 -5.7551
# 4 6.6854 16.0066 1.2891 35.8740 -5.9883 7.6702
# 5 -14.7198 1.7320 7.6557 -5.9883 30.3255 -2.7248
# 6 -1.6968 0.2370 -5.7551 7.6702 -2.7248 18.9863
#
#
#
# Elastic Compliance Matrix: (Units=1/GPa)
#
#
# Indices 1 2 3 4 5 6 
#
# 1 0.009922 -0.002929 -0.000798 0.000073 0.005327 0.001416
# 2 -0.002929 0.009805 0.001782 -0.004779 -0.003229 0.001623
# 3 -0.000798 0.001782 0.024759 -0.004442 -0.006878 0.008219
# 4 0.000073 -0.004779 -0.004442 0.034339 0.006938 -0.014157
# 5 0.005327 -0.003229 -0.006878 0.006938 0.038962 0.001220
# 6 0.001416 0.001623 0.008219 -0.014157 0.001220 0.061161
#
#
# Mechanical properties :
#
#
# Convention : Reuss Voigt Hill
#
# Bulk Modulus (GPa) = 24.63220 38.15946 31.39583
# Shear Modulus (GPa) = 25.46209 34.11765 29.78987
#
# Velocity S-wave (km/s) = 3.45592 4.00042 3.73810
# Velocity P-wave (km/s) = 5.24200 6.26395 5.77562
#
# Compressibility (1/GPa) = 0.04059727
#
# Stress axis : x y z
#
# Youngs Moduli (GPa) = 100.78219 101.99111 40.38856
#
# Poissons Ratio (x) = 0.29870 0.03224
# Poissons Ratio (y) = 0.29516 -0.07198
# Poissons Ratio (z) = 0.08044 -0.18177
#
# Static dielectric constant tensor:
#      x y z
#    x 4.679410 0.065000 -0.195370 
#    y 0.065000 3.861430 -0.081350 
#    z -0.195370 -0.081350 3.719210 
# 
# 
# High freq. dielectric constant tensor:
#      x y z
#    x 1.845460 -0.000510 0.002570 
#    y -0.000510 1.836140 -0.008400 
#    z 0.002570 -0.008400 1.826720 
# 
# From -- ./inp_files/298231.got.cif
#   From: 2010.06.25/outbox.cif.g09.slc.cpg/sg2_150_cif.got.tgz:298231.got - 2010.06.27 13:26:56.
