data_PCOD8007292
_publ_section_title
;
Structure prediction by ZEFSAII (Michael W. Deem and Ramdas Pophale) SiO2 
 PCOD8007292
Probable space group: P -1
;
_chemical_formula_sum "Si O2"
_cell_formula_units_Z 14
_cell_length_a 8.310069
_cell_length_b 8.580339
_cell_length_c 9.346012
_cell_angle_alpha 113.966238
_cell_angle_beta 114.807176
_cell_angle_gamma 67.321365
_cell_volume 533.840469
_symmetry_space_group_name_H-M "P -1"
_symmetry_group_IT_number 2
_symmetry_cell_setting 'triclinic'
loop_
_space_group_symop_operation_xyz
x,y,z
-x,-y,-z
loop_
_atom_site_type_symbol
_atom_site_label
_atom_site_fract_x
_atom_site_fract_y
_atom_site_fract_z
Si Si1 0.510476 0.226796 0.421080
Si Si2 0.560381 0.368080 0.100954
Si Si3 0.088024 0.229422 0.645424
Si Si4 0.812881 0.067785 0.652456
Si Si5 0.182959 0.337959 0.000075
Si Si6 0.720341 0.985292 0.886857
Si Si7 0.755984 0.436662 0.452317
O O1 0.602592 0.185029 0.598390
O O2 0.458480 0.064019 0.263175
O O3 0.667385 0.277852 0.405300
O O4 0.326923 0.382357 0.428383
O O5 0.712598 0.445114 0.270501
O O6 0.500000 0.500000 0.000000
O O7 0.375002 0.382262 0.134793
O O8 0.653737 0.166355 0.016503
O O9 0.222509 0.293224 0.828317
O O10 0.962552 0.165081 0.693575
O O11 0.969108 0.385269 0.557551
O O12 0.192690 0.086922 0.519779
O O13 0.849809 0.007010 0.808172
O O14 0.163151 0.171492 0.026266
O O15 0.000000 0.500000 0.000000
#
# Coordination Sequence:
#
# PCOD8007292 Si02
#       7
#     2   2   2   2   2   2   2
#     4  10  20  40  70  99 134 189 244 286 349 436
#     4  12  28  47  73 112 148 189 245 306 360 430
#     4  10  24  44  68 100 146 185 238 292 369 425
#     4  10  23  40  69 103 136 186 241 299 347 437
#     4  12  28  47  73 108 151 190 239 306 364 428
#     4  12  25  44  77 104 146 190 251 292 370 426
#     4  10  22  42  71  98 142 189 239 291 356 424
#
# _framework density 26.225061
#
# number of rings (size 3 to 8) (size 9 to 14) (size 15 to 20)
#    0.000    1.143    1.429    3.429   12.000    2.857 
#    0.000    2.143    0.000    0.000    0.000    0.000 
#    0.000    0.000    0.000    0.000    0.000    0.000 
#
# Total GULP energy -173518.352046 kJ/mol
# GULP energy per Si atom -12394.168003 kJ/mol
# Density = 2.616537 g / cm^3
# Si number density = 26.225061 Si / 1000 Ang^3
#
#
#
# Elastic Constant Matrix: (Units=GPa)
#
#
# Indices 1 2 3 4 5 6 
#
# 1 36.2624 10.4457 -6.7363 -10.6731 -8.2875 -11.3270
# 2 10.4457 119.5095 18.8073 -26.7859 -16.3783 -15.4067
# 3 -6.7363 18.8073 119.1474 -18.8091 -7.6041 -6.7591
# 4 -10.6731 -26.7859 -18.8091 52.4661 -0.3222 -4.5039
# 5 -8.2875 -16.3783 -7.6041 -0.3222 37.3205 -6.3269
# 6 -11.3270 -15.4067 -6.7591 -4.5039 -6.3269 25.3827
#
#
#
# Elastic Compliance Matrix: (Units=1/GPa)
#
#
# Indices 1 2 3 4 5 6 
#
# 1 0.050048 0.006722 0.008507 0.020046 0.022381 0.037815
# 2 0.006722 0.013275 0.001436 0.010081 0.010379 0.015815
# 3 0.008507 0.001436 0.010809 0.007278 0.006560 0.010472
# 4 0.020046 0.010081 0.007278 0.033278 0.015170 0.026689
# 5 0.022381 0.010379 0.006560 0.015170 0.043123 0.031475
# 6 0.037815 0.015815 0.010472 0.026689 0.031475 0.081241
#
#
# Mechanical properties :
#
#
# Convention : Reuss Voigt Hill
#
# Bulk Modulus (GPa) = 9.30574 35.55030 22.42802
# Shear Modulus (GPa) = 21.34329 39.86069 30.60199
#
# Velocity S-wave (km/s) = 2.85590 3.90288 3.41970
# Velocity P-wave (km/s) = 3.79882 5.82196 4.91560
#
# Compressibility (1/GPa) = 0.10746055
#
# Stress axis : x y z
#
# Youngs Moduli (GPa) = 19.98084 75.33065 92.51645
#
# Poissons Ratio (x) = -0.50638 -0.78701
# Poissons Ratio (y) = -0.13431 -0.13282
# Poissons Ratio (z) = -0.16997 -0.10815
#
# Static dielectric constant tensor:
#      x y z
#    x 4.476540 0.071000 0.187850 
#    y 0.071000 4.896020 -0.289100 
#    z 0.187850 -0.289100 4.943620 
# 
# 
# High freq. dielectric constant tensor:
#      x y z
#    x 2.030260 -0.000240 0.011690 
#    y -0.000240 2.061380 -0.015880 
#    z 0.011690 -0.015880 2.069980 
# 
# From -- ./inp_files/159921.got.cif
#   From: 2010.06.25/outbox.cif.g09.slc.cpg/sg2_80_cif.got.tgz:159921.got - 2010.06.27 13:26:56.
