data_PCOD8007045
_publ_section_title
;
Structure prediction by ZEFSAII (Michael W. Deem and Ramdas Pophale) SiO2 
 PCOD8007045
Probable space group: P -1
;
_chemical_formula_sum "Si O2"
_cell_formula_units_Z 16
_cell_length_a 11.583686
_cell_length_b 16.405803
_cell_length_c 8.938830
_cell_angle_alpha 84.874900
_cell_angle_beta 122.664422
_cell_angle_gamma 46.994076
_cell_volume 699.848557
_symmetry_space_group_name_H-M "P -1"
_symmetry_group_IT_number 2
_symmetry_cell_setting 'triclinic'
loop_
_space_group_symop_operation_xyz
x,y,z
-x,-y,-z
loop_
_atom_site_type_symbol
_atom_site_label
_atom_site_fract_x
_atom_site_fract_y
_atom_site_fract_z
Si Si1 0.183837 0.185408 0.585369
Si Si2 0.360026 0.179983 0.158632
Si Si3 0.059747 0.731610 0.071708
Si Si4 0.143927 0.761090 0.428141
Si Si5 0.663747 0.458822 0.990513
Si Si6 0.260192 0.958100 0.303598
Si Si7 0.731356 0.688745 0.229138
Si Si8 0.784678 0.098593 0.022134
O O1 0.320360 0.197118 0.743046
O O2 0.029037 0.215725 0.601699
O O3 0.418362 0.004897 0.707643
O O4 0.959340 0.336525 0.281459
O O5 0.484565 0.169312 0.382367
O O6 0.277325 0.288232 0.956171
O O7 0.069397 0.291541 0.991571
O O8 0.226692 0.674709 0.343934
O O9 0.262038 0.635332 0.086198
O O10 0.786293 0.929995 0.822443
O O11 0.430104 0.642710 0.730480
O O12 0.963774 0.933268 0.244845
O O13 0.500000 0.500000 0.000000
O O14 0.315460 0.863304 0.226352
O O15 0.972390 0.082309 0.166980
O O16 0.485722 0.752821 0.087809
O O17 0.000000 0.500000 0.500000
#
# Coordination Sequence:
#
# PCOD8007045 Si02
#       8
#     2   2   2   2   2   2   2   2
#     4  11  21  43  68  98 133 172 227 279 325 393
#     4  12  23  43  72 101 129 180 229 274 335 397
#     4  11  21  39  67 100 129 174 225 275 327 398
#     4  10  20  40  66  95 132 175 224 270 331 393
#     4  10  23  36  62 100 130 166 220 281 326 381
#     4  10  23  41  69 100 131 175 224 277 327 406
#     4  12  27  45  66  99 137 177 221 281 338 397
#     4  10  23  44  66  93 139 178 215 273 344 396
#
# _framework density 22.862089000000001
#
# number of rings (size 3 to 8) (size 9 to 14) (size 15 to 20)
#    0.000    1.250    3.750    2.625    1.750    3.500 
#    6.750    0.625    0.000    0.000    0.000    0.000 
#    0.000    0.000    0.000    0.000    0.000    0.000 
#
# Total GULP energy -198263.523618 kJ/mol
# GULP energy per Si atom -12391.470226 kJ/mol
# Density = 2.281005 g / cm^3
# Si number density = 22.862089 Si / 1000 Ang^3
#
#
#
# Elastic Constant Matrix: (Units=GPa)
#
#
# Indices 1 2 3 4 5 6 
#
# 1 103.2823 12.7195 28.2853 0.4382 -8.4537 -13.8436
# 2 12.7195 43.2200 15.9249 -2.7661 -8.5612 -15.4019
# 3 28.2853 15.9249 155.8310 1.1379 -24.1207 -0.8879
# 4 0.4382 -2.7661 1.1379 28.9346 -5.9742 -0.0272
# 5 -8.4537 -8.5612 -24.1207 -5.9742 23.7064 3.3997
# 6 -13.8436 -15.4019 -0.8879 -0.0272 3.3997 33.9396
#
#
#
# Elastic Compliance Matrix: (Units=1/GPa)
#
#
# Indices 1 2 3 4 5 6 
#
# 1 0.010873 -0.000962 -0.001649 0.000085 0.001325 0.003822
# 2 -0.000962 0.030451 -0.001596 0.004740 0.008425 0.012545
# 3 -0.001649 -0.001596 0.008032 0.001117 0.007568 -0.001944
# 4 0.000085 0.004740 0.001117 0.037484 0.012178 0.001025
# 5 0.001325 0.008425 0.007568 0.012178 0.056625 -0.001100
# 6 0.003822 0.012545 -0.001944 0.001025 -0.001100 0.036776
#
#
# Mechanical properties :
#
#
# Convention : Reuss Voigt Hill
#
# Bulk Modulus (GPa) = 24.42511 46.24363 35.33437
# Shear Modulus (GPa) = 24.71537 33.67635 29.19586
#
# Velocity S-wave (km/s) = 3.29152 3.84216 3.57745
# Velocity P-wave (km/s) = 5.01521 6.32092 5.70554
#
# Compressibility (1/GPa) = 0.04094147
#
# Stress axis : x y z
#
# Youngs Moduli (GPa) = 91.97325 32.83914 124.50425
#
# Poissons Ratio (x) = 0.03159 0.20530
# Poissons Ratio (y) = 0.08848 0.19875
# Poissons Ratio (z) = 0.15166 0.05242
#
# Static dielectric constant tensor:
#      x y z
#    x 4.301010 -0.249170 -0.125590 
#    y -0.249170 3.764900 0.141950 
#    z -0.125590 0.141950 4.578010 
# 
# 
# High freq. dielectric constant tensor:
#      x y z
#    x 1.904030 -0.022030 -0.008130 
#    y -0.022030 1.869520 0.007160 
#    z -0.008130 0.007160 1.921510 
# 
# From -- ./inp_files/279420.got.cif
#   From: 2010.06.25/outbox.cif.g09.slc.cpg/sg2_140_cif.got.tgz:279420.got - 2010.06.27 13:26:56.
