data_PCOD8007487
_publ_section_title
;
Structure prediction by ZEFSAII (Michael W. Deem and Ramdas Pophale) SiO2 
 PCOD8007487
Probable space group: P -1
;
_chemical_formula_sum "Si O2"
_cell_formula_units_Z 16
_cell_length_a 22.875279
_cell_length_b 7.034340
_cell_length_c 8.353809
_cell_angle_alpha 74.882488
_cell_angle_beta 50.135012
_cell_angle_gamma 46.963539
_cell_volume 715.785887
_symmetry_space_group_name_H-M "P -1"
_symmetry_group_IT_number 2
_symmetry_cell_setting 'triclinic'
loop_
_space_group_symop_operation_xyz
x,y,z
-x,-y,-z
loop_
_atom_site_type_symbol
_atom_site_label
_atom_site_fract_x
_atom_site_fract_y
_atom_site_fract_z
Si Si1 0.531847 0.371926 0.725318
Si Si2 0.934224 0.365126 0.300479
Si Si3 0.673330 0.242299 0.786035
Si Si4 0.245350 0.222819 0.864084
Si Si5 0.142009 0.112011 0.863999
Si Si6 0.117922 0.373427 0.344913
Si Si7 0.470927 0.834056 0.545467
Si Si8 0.785146 0.355321 0.393508
O O1 0.625093 0.196048 0.734038
O O2 0.551724 0.536615 0.551589
O O3 0.539141 0.179334 0.627081
O O4 0.415283 0.579593 0.961771
O O5 0.904648 0.615605 0.203656
O O6 0.891928 0.448248 0.537391
O O7 0.888149 0.248825 0.330674
O O8 0.061274 0.135043 0.114169
O O9 0.695779 0.429178 0.653085
O O10 0.786501 0.951376 0.712213
O O11 0.232254 0.039272 0.834680
O O12 0.258274 0.388273 0.691073
O O13 0.358999 0.996775 0.796705
O O14 0.150550 0.426441 0.112557
O O15 0.185623 0.886402 0.707457
O O16 0.000000 0.500000 0.500000
O O17 0.500000 0.000000 0.500000
#
# Coordination Sequence:
#
# PCOD8007487 Si02
#       8
#     2   2   2   2   2   2   2   2
#     4  10  24  45  72  98 136 180 227 282 345 403
#     4  10  22  38  65  93 129 178 228 277 331 395
#     4  11  23  47  70  97 137 184 227 282 341 404
#     4  11  24  42  67  99 139 177 222 280 346 405
#     4  10  20  41  64  90 132 182 224 272 332 404
#     4  12  24  45  66  98 142 181 221 280 342 403
#     4  11  23  43  70 108 135 172 224 289 347 402
#     4  11  23  40  67  98 129 177 234 278 331 409
#
# _framework density 22.353052000000002
#
# number of rings (size 3 to 8) (size 9 to 14) (size 15 to 20)
#    0.000    1.250    3.750    1.875    1.750    3.000 
#    2.250    3.125    0.000    0.000    0.000    0.000 
#    0.000    0.000    0.000    0.000    0.000    0.000 
#
# Total GULP energy -198274.063014 kJ/mol
# GULP energy per Si atom -12392.128938 kJ/mol
# Density = 2.230218 g / cm^3
# Si number density = 22.353052 Si / 1000 Ang^3
#
#
#
# Elastic Constant Matrix: (Units=GPa)
#
#
# Indices 1 2 3 4 5 6 
#
# 1 135.8663 47.9932 55.4801 0.4988 -15.6155 17.9763
# 2 47.9932 61.3792 38.7549 -7.6563 -16.0684 13.4130
# 3 55.4801 38.7549 120.7990 1.7940 -4.0504 11.3445
# 4 0.4988 -7.6563 1.7940 25.7879 -5.2113 -3.4281
# 5 -15.6155 -16.0684 -4.0504 -5.2113 30.8579 7.4998
# 6 17.9763 13.4130 11.3445 -3.4281 7.4998 45.9124
#
#
#
# Elastic Compliance Matrix: (Units=1/GPa)
#
#
# Indices 1 2 3 4 5 6 
#
# 1 0.011294 -0.005966 -0.002929 -0.001600 0.002560 -0.002493
# 2 -0.005966 0.032980 -0.006750 0.012869 0.017262 -0.007490
# 3 -0.002929 -0.006750 0.011636 -0.003522 -0.004227 0.000671
# 4 -0.001600 0.012869 -0.003522 0.045434 0.013358 -0.001053
# 5 0.002560 0.017262 -0.004227 0.013358 0.047240 -0.011720
# 6 -0.002493 -0.007490 0.000671 -0.001053 -0.011720 0.026615
#
#
# Mechanical properties :
#
#
# Convention : Reuss Voigt Hill
#
# Bulk Modulus (GPa) = 40.61650 66.94455 53.78053
# Shear Modulus (GPa) = 23.28892 32.23274 27.76083
#
# Velocity S-wave (km/s) = 3.23130 3.80147 3.52792
# Velocity P-wave (km/s) = 5.66848 7.02011 6.38019
#
# Compressibility (1/GPa) = 0.02462053
#
# Stress axis : x y z
#
# Youngs Moduli (GPa) = 88.54624 30.32172 85.93684
#
# Poissons Ratio (x) = 0.18089 0.25173
# Poissons Ratio (y) = 0.52825 0.58003
# Poissons Ratio (z) = 0.25937 0.20466
#
# Static dielectric constant tensor:
#      x y z
#    x 4.320460 -0.066610 -0.095990 
#    y -0.066610 3.831090 0.066600 
#    z -0.095990 0.066600 4.489160 
# 
# 
# High freq. dielectric constant tensor:
#      x y z
#    x 1.891370 -0.000650 -0.006020 
#    y -0.000650 1.853600 0.005570 
#    z -0.006020 0.005570 1.897640 
# 
# From -- ./inp_files/340316.got.cif
#   From: 2010.06.25/outbox.cif.g09.slc.cpg/sg2_171_cif.got.tgz:340316.got - 2010.06.27 13:26:56.
