data_PCOD8007327
_publ_section_title
;
Structure prediction by ZEFSAII (Michael W. Deem and Ramdas Pophale) SiO2 
 PCOD8007327
Probable space group: P -1
;
_chemical_formula_sum "Si O2"
_cell_formula_units_Z 16
_cell_length_a 6.577011
_cell_length_b 29.272239
_cell_length_c 6.970420
_cell_angle_alpha 49.414714
_cell_angle_beta 111.280636
_cell_angle_gamma 129.855441
_cell_volume 778.998765
_symmetry_space_group_name_H-M "P -1"
_symmetry_group_IT_number 2
_symmetry_cell_setting 'triclinic'
loop_
_space_group_symop_operation_xyz
x,y,z
-x,-y,-z
loop_
_atom_site_type_symbol
_atom_site_label
_atom_site_fract_x
_atom_site_fract_y
_atom_site_fract_z
Si Si1 0.700070 0.790518 0.534292
Si Si2 0.159261 0.649989 0.802823
Si Si3 0.796878 0.917241 0.960261
Si Si4 0.555712 0.841351 0.695149
Si Si5 0.618388 0.954214 0.135276
Si Si6 0.485664 0.593365 0.225262
Si Si7 0.641592 0.532035 0.760878
Si Si8 0.987936 0.714756 0.867313
O O1 0.393594 0.722927 0.574164
O O2 0.806827 0.855880 0.242631
O O3 0.718658 0.818693 0.683297
O O4 0.888778 0.764194 0.632549
O O5 0.958133 0.591428 0.736389
O O6 0.979522 0.667056 0.818473
O O7 0.290928 0.620228 0.069873
O O8 0.590308 0.928267 0.973880
O O9 0.728395 0.894747 0.779264
O O10 0.074026 0.995949 0.836763
O O11 0.469260 0.882686 0.414349
O O12 0.292958 0.769052 0.893386
O O13 0.500000 0.000000 0.000000
O O14 0.490319 0.564143 0.517412
O O15 0.383304 0.530921 0.202932
O O16 0.793664 0.659957 0.115213
O O17 0.500000 0.500000 0.000000
#
# Coordination Sequence:
#
# PCOD8007327 Si02
#       8
#     2   2   2   2   2   2   2   2
#     4   9  21  39  56  83 118 151 193 244 282 346
#     4  10  21  41  61  86 122 155 196 249 296 344
#     4  10  21  37  58  85 113 153 192 232 291 341
#     4  10  21  36  58  85 115 152 193 239 286 343
#     4  10  21  37  57  84 119 149 189 240 283 342
#     4  10  23  41  60  89 120 152 200 247 287 363
#     4  11  22  41  63  88 117 158 196 241 304 352
#     4  10  20  41  58  83 119 150 195 242 290 346
#
# _framework density 20.539183999999999
#
# number of rings (size 3 to 8) (size 9 to 14) (size 15 to 20)
#    0.000    2.000    1.250    1.500    1.750    2.000 
#    9.000    0.000    0.000    0.000    0.000    0.000 
#    0.000    0.000    0.000    0.000    0.000    0.000 
#
# Total GULP energy -198346.246069 kJ/mol
# GULP energy per Si atom -12396.640379 kJ/mol
# Density = 2.049244 g / cm^3
# Si number density = 20.539184 Si / 1000 Ang^3
#
#
#
# Elastic Constant Matrix: (Units=GPa)
#
#
# Indices 1 2 3 4 5 6 
#
# 1 98.5167 27.4563 34.9516 3.7942 9.5735 -26.7799
# 2 27.4563 96.2719 36.3709 1.1334 -3.8484 -2.7385
# 3 34.9516 36.3709 84.6305 2.1781 -3.4472 -11.5334
# 4 3.7942 1.1334 2.1781 31.8918 -4.3517 3.6877
# 5 9.5735 -3.8484 -3.4472 -4.3517 25.3141 -9.6974
# 6 -26.7799 -2.7385 -11.5334 3.6877 -9.6974 34.3893
#
#
#
# Elastic Compliance Matrix: (Units=1/GPa)
#
#
# Indices 1 2 3 4 5 6 
#
# 1 0.015443 -0.002748 -0.003924 -0.003093 -0.003563 0.009818
# 2 -0.002748 0.012933 -0.004689 0.000672 0.001600 -0.002304
# 3 -0.003924 -0.004689 0.016055 -0.000265 0.004117 0.003144
# 4 -0.003093 0.000672 -0.000265 0.032946 0.005168 -0.004519
# 5 -0.003563 0.001600 0.004117 0.005168 0.046914 0.011408
# 6 0.009818 -0.002304 0.003144 -0.004519 0.011408 0.041297
#
#
# Mechanical properties :
#
#
# Convention : Reuss Voigt Hill
#
# Bulk Modulus (GPa) = 46.06732 52.99740 49.53236
# Shear Modulus (GPa) = 25.56927 30.36172 27.96549
#
# Velocity S-wave (km/s) = 3.53214 3.84895 3.69395
# Velocity P-wave (km/s) = 6.25399 6.75364 6.50861
#
# Compressibility (1/GPa) = 0.02170736
#
# Stress axis : x y z
#
# Youngs Moduli (GPa) = 64.75460 77.32068 62.28604
#
# Poissons Ratio (x) = 0.21251 0.24442
# Poissons Ratio (y) = 0.17798 0.29207
# Poissons Ratio (z) = 0.25411 0.36257
#
# Static dielectric constant tensor:
#      x y z
#    x 3.741190 -0.039370 -0.189020 
#    y -0.039370 4.014220 -0.289470 
#    z -0.189020 -0.289470 3.686390 
# 
# 
# High freq. dielectric constant tensor:
#      x y z
#    x 1.796630 -0.007920 -0.009330 
#    y -0.007920 1.819590 -0.025630 
#    z -0.009330 -0.025630 1.790700 
# 
# From -- ./inp_files/10809.got.cif
#   From: 2010.06.25/outbox.cif.g09.slc.cpg/sg2_6_cif.got.tgz:10809.got - 2010.06.27 13:26:56.
