data_PCOD8007427
_publ_section_title
;
Structure prediction by ZEFSAII (Michael W. Deem and Ramdas Pophale) SiO2 
 PCOD8007427
Probable space group: P -1
;
_chemical_formula_sum "Si O2"
_cell_formula_units_Z 16
_cell_length_a 15.711306
_cell_length_b 16.372319
_cell_length_c 8.972784
_cell_angle_alpha 110.743553
_cell_angle_beta 135.816323
_cell_angle_gamma 36.315283
_cell_volume 800.725447
_symmetry_space_group_name_H-M "P -1"
_symmetry_group_IT_number 2
_symmetry_cell_setting 'triclinic'
loop_
_space_group_symop_operation_xyz
x,y,z
-x,-y,-z
loop_
_atom_site_type_symbol
_atom_site_label
_atom_site_fract_x
_atom_site_fract_y
_atom_site_fract_z
Si Si1 0.525434 0.710873 0.878495
Si Si2 0.421765 0.644040 0.948933
Si Si3 0.133673 0.030614 0.131545
Si Si4 0.242052 0.161296 0.333017
Si Si5 0.233576 0.325478 0.613828
Si Si6 0.895998 0.479538 0.937544
Si Si7 0.035800 0.011870 0.301098
Si Si8 0.600425 0.665088 0.427545
O O1 0.527382 0.615627 0.906201
O O2 0.742558 0.588224 0.962909
O O3 0.286225 0.869629 0.595565
O O4 0.555094 0.770245 0.078441
O O5 0.147406 0.830694 0.716092
O O6 0.500000 0.500000 0.000000
O O7 0.516413 0.641029 0.201347
O O8 0.120330 0.142481 0.185466
O O9 0.001168 0.082559 0.147059
O O10 0.395699 0.843619 0.358413
O O11 0.022115 0.054765 0.856701
O O12 0.233250 0.221005 0.517612
O O13 0.500000 0.000000 0.500000
O O14 0.101597 0.290692 0.107829
O O15 0.244099 0.359747 0.483244
O O16 0.000000 0.500000 0.500000
O O17 0.733086 0.535900 0.643678
O O18 0.000000 0.500000 0.000000
#
# Coordination Sequence:
#
# PCOD8007427 Si02
#       8
#     2   2   2   2   2   2   2   2
#     4  11  23  41  69  92 129 175 217 264 337 398
#     4  10  24  41  62  93 131 170 215 271 328 388
#     4  10  21  40  66  95 124 170 216 275 318 383
#     4  12  24  40  67  97 132 167 225 271 323 388
#     4  11  21  40  64  91 130 172 208 266 336 385
#     4  12  22  40  67  96 125 169 218 268 323 398
#     4  10  22  42  67  89 133 173 216 264 332 385
#     4  10  20  41  63  87 126 170 213 260 332 382
#
# _framework density 19.981878999999999
#
# number of rings (size 3 to 8) (size 9 to 14) (size 15 to 20)
#    0.000    1.250    5.000    0.375    1.750    1.000 
#    2.250    1.875    0.000    0.000    0.000    0.000 
#    0.000    0.000    0.000    0.000    0.000    0.000 
#
# Total GULP energy -198287.854840 kJ/mol
# GULP energy per Si atom -12392.990928 kJ/mol
# Density = 1.993640 g / cm^3
# Si number density = 19.981879 Si / 1000 Ang^3
#
#
#
# Elastic Constant Matrix: (Units=GPa)
#
#
# Indices 1 2 3 4 5 6 
#
# 1 118.9476 50.5979 24.8422 -2.2850 3.5373 -1.1362
# 2 50.5979 119.0421 47.1190 -0.2416 8.2770 12.2697
# 3 24.8422 47.1190 128.9828 -6.8548 -7.3011 5.0006
# 4 -2.2850 -0.2416 -6.8548 26.5486 -2.4902 4.0280
# 5 3.5373 8.2770 -7.3011 -2.4902 30.4328 -0.1142
# 6 -1.1362 12.2697 5.0006 4.0280 -0.1142 39.8945
#
#
#
# Elastic Compliance Matrix: (Units=1/GPa)
#
#
# Indices 1 2 3 4 5 6 
#
# 1 0.010403 -0.004416 -0.000433 0.000486 -0.000066 0.001659
# 2 -0.004416 0.012408 -0.003831 -0.001111 -0.003884 -0.003361
# 3 -0.000433 -0.003831 0.009601 0.002794 0.003623 -0.000309
# 4 0.000486 -0.001111 0.002794 0.039408 0.004126 -0.003962
# 5 -0.000066 -0.003884 0.003623 0.004126 0.035132 0.000423
# 6 0.001659 -0.003361 -0.000309 -0.003962 0.000423 0.026587
#
#
# Mechanical properties :
#
#
# Convention : Reuss Voigt Hill
#
# Bulk Modulus (GPa) = 66.43072 68.01007 67.22039
# Shear Modulus (GPa) = 32.06873 35.66940 33.86906
#
# Velocity S-wave (km/s) = 4.01045 4.22961 4.12149
# Velocity P-wave (km/s) = 7.40018 7.61332 7.50750
#
# Compressibility (1/GPa) = 0.01505328
#
# Stress axis : x y z
#
# Youngs Moduli (GPa) = 96.12596 80.59439 104.15261
#
# Poissons Ratio (x) = 0.35590 0.04507
# Poissons Ratio (y) = 0.42448 0.39899
# Poissons Ratio (z) = 0.04159 0.30874
#
# Static dielectric constant tensor:
#      x y z
#    x 3.977500 -0.083080 0.056960 
#    y -0.083080 3.810040 0.077450 
#    z 0.056960 0.077450 4.196280 
# 
# 
# High freq. dielectric constant tensor:
#      x y z
#    x 1.787980 -0.011510 0.011810 
#    y -0.011510 1.761410 0.008400 
#    z 0.011810 0.008400 1.794420 
# 
# From -- ./inp_files/179416.got.cif
#   From: 2010.06.25/outbox.cif.g09.slc.cpg/sg2_90_cif.got.tgz:179416.got - 2010.06.27 13:26:56.
