data_PCOD8007134
_publ_section_title
;
Structure prediction by ZEFSAII (Michael W. Deem and Ramdas Pophale) SiO2 
 PCOD8007134
Probable space group: P -1
;
_chemical_formula_sum "Si O2"
_cell_formula_units_Z 12
_cell_length_a 14.733830
_cell_length_b 14.585841
_cell_length_c 9.558711
_cell_angle_alpha 148.387441
_cell_angle_beta 38.365929
_cell_angle_gamma 152.078301
_cell_volume 500.017757
_symmetry_space_group_name_H-M "P -1"
_symmetry_group_IT_number 2
_symmetry_cell_setting 'triclinic'
loop_
_space_group_symop_operation_xyz
x,y,z
-x,-y,-z
loop_
_atom_site_type_symbol
_atom_site_label
_atom_site_fract_x
_atom_site_fract_y
_atom_site_fract_z
Si Si1 0.468431 0.170196 0.310603
Si Si2 0.423511 0.733304 0.400934
Si Si3 0.284987 0.248102 0.420312
Si Si4 0.903674 0.608404 0.293757
Si Si5 0.036472 0.231292 0.271613
Si Si6 0.289531 0.993689 0.833494
O O1 0.422483 0.156706 0.513574
O O2 0.283104 0.110480 0.375160
O O3 0.675432 0.425310 0.367112
O O4 0.500000 0.000000 0.000000
O O5 0.256765 0.454093 0.250072
O O6 0.529318 0.796600 0.207410
O O7 0.335364 0.857064 0.688015
O O8 0.500000 0.500000 0.500000
O O9 0.108446 0.255403 0.642652
O O10 0.248326 0.117804 0.150145
O O11 0.015596 0.756091 0.490105
O O12 0.000000 0.500000 0.000000
O O13 0.889862 0.206579 0.308373
O O14 0.000000 0.000000 0.000000
#
# Coordination Sequence:
#
# PCOD8007134 Si02
#       6
#     2   2   2   2   2   2
#     4  10  20  40  67  95 136 172 227 281 343 409
#     4  10  24  41  70 103 130 184 224 280 348 415
#     4  10  21  41  67  97 135 181 229 281 339 414
#     4  10  23  41  65  95 137 180 224 284 344 404
#     4  11  23  43  67 101 139 172 230 291 338 406
#     4  11  22  42  71  98 138 180 229 279 347 412
#
# _framework density 23.999148000000002
#
# number of rings (size 3 to 8) (size 9 to 14) (size 15 to 20)
#    0.000    1.667    3.333    0.500    2.333    2.000 
#    0.000    0.833    0.000    0.000    0.000    0.000 
#    0.000    0.000    0.000    0.000    0.000    0.000 
#
# Total GULP energy -148687.184295 kJ/mol
# GULP energy per Si atom -12390.598691 kJ/mol
# Density = 2.394452 g / cm^3
# Si number density = 23.999148 Si / 1000 Ang^3
#
#
#
# Elastic Constant Matrix: (Units=GPa)
#
#
# Indices 1 2 3 4 5 6 
#
# 1 221.0254 25.0915 84.9550 3.8121 -2.1057 5.1742
# 2 25.0915 54.1633 20.2020 18.3702 2.6610 10.2660
# 3 84.9550 20.2020 146.9102 13.2578 -3.2272 -1.1789
# 4 3.8121 18.3702 13.2578 25.2046 7.0581 -2.3325
# 5 -2.1057 2.6610 -3.2272 7.0581 46.4959 6.8895
# 6 5.1742 10.2660 -1.1789 -2.3325 6.8895 36.0394
#
#
#
# Elastic Compliance Matrix: (Units=1/GPa)
#
#
# Indices 1 2 3 4 5 6 
#
# 1 0.006070 -0.002428 -0.003426 0.002710 -0.000224 -0.000074
# 2 -0.002428 0.029129 -0.000600 -0.022327 0.003052 -0.009997
# 3 -0.003426 -0.000600 0.009276 -0.004183 0.001086 0.000488
# 4 0.002710 -0.022327 -0.004183 0.061619 -0.009982 0.011730
# 5 -0.000224 0.003052 0.001086 -0.009982 0.023802 -0.005998
# 6 -0.000074 -0.009997 0.000488 0.011730 -0.005998 0.032527
#
#
# Mechanical properties :
#
#
# Convention : Reuss Voigt Hill
#
# Bulk Modulus (GPa) = 31.67939 75.84399 53.76169
# Shear Modulus (GPa) = 26.90300 41.00468 33.95384
#
# Velocity S-wave (km/s) = 3.35176 4.13799 3.76545
# Velocity P-wave (km/s) = 5.31112 7.38255 6.43079
#
# Compressibility (1/GPa) = 0.03156627
#
# Stress axis : x y z
#
# Youngs Moduli (GPa) = 164.75079 34.33050 107.80660
#
# Poissons Ratio (x) = 0.08336 0.36937
# Poissons Ratio (y) = 0.40003 0.06465
# Poissons Ratio (z) = 0.56447 0.02059
#
# Static dielectric constant tensor:
#      x y z
#    x 5.683910 -0.218150 -0.014950 
#    y -0.218150 4.012800 0.238860 
#    z -0.014950 0.238860 4.069880 
# 
# 
# High freq. dielectric constant tensor:
#      x y z
#    x 1.986360 0.000560 -0.000220 
#    y 0.000560 1.938590 0.022600 
#    z -0.000220 0.022600 1.946070 
# 
# From -- ./inp_files/144674.got.cif
#   From: 2010.06.25/outbox.cif.g09.slc.cpg/sg2_73_cif.got.tgz:144674.got - 2010.06.27 13:26:56.
