data_PCOD8007579
_publ_section_title
;
Structure prediction by ZEFSAII (Michael W. Deem and Ramdas Pophale) SiO2 
 PCOD8007579
Probable space group: P -1
;
_chemical_formula_sum "Si O2"
_cell_formula_units_Z 16
_cell_length_a 16.511850
_cell_length_b 26.000040
_cell_length_c 13.571545
_cell_angle_alpha 21.506251
_cell_angle_beta 156.366567
_cell_angle_gamma 158.148831
_cell_volume 733.566408
_symmetry_space_group_name_H-M "P -1"
_symmetry_group_IT_number 2
_symmetry_cell_setting 'triclinic'
loop_
_space_group_symop_operation_xyz
x,y,z
-x,-y,-z
loop_
_atom_site_type_symbol
_atom_site_label
_atom_site_fract_x
_atom_site_fract_y
_atom_site_fract_z
Si Si1 0.716155 0.662906 0.494061
Si Si2 0.508272 0.330150 0.574451
Si Si3 0.346677 0.110062 0.388434
Si Si4 0.112887 0.317628 0.692796
Si Si5 0.162684 0.803798 0.852756
Si Si6 0.099747 0.668181 0.371250
Si Si7 0.949528 0.820018 0.777043
Si Si8 0.058127 0.877936 0.329327
O O1 0.500000 0.500000 0.500000
O O2 0.613704 0.725333 0.355121
O O3 0.831897 0.781783 0.319613
O O4 0.936826 0.659480 0.797696
O O5 0.689263 0.521912 0.427763
O O6 0.325163 0.299727 0.337985
O O7 0.616338 0.216567 0.880746
O O8 0.619157 0.237987 0.481246
O O9 0.229995 0.988791 0.568044
O O10 0.215546 0.209707 0.043529
O O11 0.302491 0.981650 0.478173
O O12 0.925694 0.227541 0.554608
O O13 0.993531 0.366601 0.558481
O O14 0.106087 0.785249 0.938032
O O15 0.000000 0.500000 0.500000
O O16 0.010495 0.781445 0.021229
O O17 0.000000 0.000000 0.500000
O O18 0.000000 0.000000 0.000000
#
# Coordination Sequence:
#
# PCOD8007579 Si02
#       8
#     2   2   2   2   2   2   2   2
#     4  10  20  41  65  93 131 165 206 264 321 386
#     4  11  23  40  66  96 128 165 211 273 320 377
#     4  10  23  43  65  91 131 168 213 271 321 389
#     4  11  23  42  65  92 130 171 214 262 331 381
#     4  10  23  40  64  98 125 165 222 258 323 388
#     4  12  26  41  63  96 127 169 224 267 317 383
#     4  11  24  41  63  90 128 171 214 265 323 378
#     4   9  20  41  66  95 127 171 210 256 328 392
#
# _framework density 21.811250999999999
#
# number of rings (size 3 to 8) (size 9 to 14) (size 15 to 20)
#    0.000    1.500    1.250    3.000    0.000   12.000 
#    0.000    0.000    0.000    0.000    0.000    0.000 
#    0.000    0.000    0.000    0.000    0.000    0.000 
#
# Total GULP energy -198254.657791 kJ/mol
# GULP energy per Si atom -12390.916112 kJ/mol
# Density = 2.176161 g / cm^3
# Si number density = 21.811251 Si / 1000 Ang^3
#
#
#
# Elastic Constant Matrix: (Units=GPa)
#
#
# Indices 1 2 3 4 5 6 
#
# 1 124.9988 40.3882 22.5857 6.0253 1.4203 -3.7634
# 2 40.3882 145.3320 12.1085 7.3402 4.0342 -10.8325
# 3 22.5857 12.1085 67.9423 -5.1584 3.7046 6.9541
# 4 6.0253 7.3402 -5.1584 34.5053 5.4159 -0.9883
# 5 1.4203 4.0342 3.7046 5.4159 33.4028 -2.6459
# 6 -3.7634 -10.8325 6.9541 -0.9883 -2.6459 25.3546
#
#
#
# Elastic Compliance Matrix: (Units=1/GPa)
#
#
# Indices 1 2 3 4 5 6 
#
# 1 0.009364 -0.002188 -0.003012 -0.001673 0.000572 0.001276
# 2 -0.002188 0.007899 -0.001102 -0.001328 -0.000264 0.003273
# 3 -0.003012 -0.001102 0.016911 0.003540 -0.002639 -0.005694
# 4 -0.001673 -0.001328 0.003540 0.030878 -0.005257 -0.001132
# 5 0.000572 -0.000264 -0.002639 -0.005257 0.031389 0.003767
# 6 0.001276 0.003273 -0.005694 -0.001132 0.003767 0.042939
#
#
# Mechanical properties :
#
#
# Convention : Reuss Voigt Hill
#
# Bulk Modulus (GPa) = 46.35735 54.27088 50.31411
# Shear Modulus (GPa) = 31.41263 36.19860 33.80561
#
# Velocity S-wave (km/s) = 3.79912 4.07827 3.94117
# Velocity P-wave (km/s) = 6.36745 6.86386 6.62031
#
# Compressibility (1/GPa) = 0.02157155
#
# Stress axis : x y z
#
# Youngs Moduli (GPa) = 106.79625 126.60019 59.13196
#
# Poissons Ratio (x) = 0.27694 0.17809
# Poissons Ratio (y) = 0.23362 0.06516
# Poissons Ratio (z) = 0.32164 0.13950
#
# Static dielectric constant tensor:
#      x y z
#    x 3.630650 0.257050 -0.020650 
#    y 0.257050 3.891280 -0.109260 
#    z -0.020650 -0.109260 3.618050 
# 
# 
# High freq. dielectric constant tensor:
#      x y z
#    x 1.868920 -0.005150 -0.015500 
#    y -0.005150 1.873690 0.000140 
#    z -0.015500 0.000140 1.839660 
# 
# From -- ./inp_files/484353.got.cif
#   From: 2010.06.25/outbox.cif.g09.slc.cpg/sg2_243_cif.got.tgz:484353.got - 2010.06.27 13:26:56.
