data_PCOD8007030
_publ_section_title
;
Structure prediction by ZEFSAII (Michael W. Deem and Ramdas Pophale) SiO2 
 PCOD8007030
Probable space group: P -1
;
_chemical_formula_sum "Si O2"
_cell_formula_units_Z 16
_cell_length_a 15.807571
_cell_length_b 9.503951
_cell_length_c 9.249101
_cell_angle_alpha 109.774986
_cell_angle_beta 96.845858
_cell_angle_gamma 136.470410
_cell_volume 744.661177
_symmetry_space_group_name_H-M "P -1"
_symmetry_group_IT_number 2
_symmetry_cell_setting 'triclinic'
loop_
_space_group_symop_operation_xyz
x,y,z
-x,-y,-z
loop_
_atom_site_type_symbol
_atom_site_label
_atom_site_fract_x
_atom_site_fract_y
_atom_site_fract_z
Si Si1 0.827598 0.782965 0.067889
Si Si2 0.359591 0.366048 0.507653
Si Si3 0.099250 0.994827 0.134295
Si Si4 0.902368 0.443843 0.848423
Si Si5 0.844940 0.305277 0.477555
Si Si6 0.358825 0.748336 0.218574
Si Si7 0.652914 0.749192 0.204971
Si Si8 0.655572 0.312161 0.467982
O O1 0.790430 0.858426 0.200147
O O2 0.800847 0.792478 0.899027
O O3 0.710887 0.482673 0.973429
O O4 0.999019 0.977004 0.188272
O O5 0.500000 0.500000 0.500000
O O6 0.210689 0.081564 0.304779
O O7 0.371795 0.338124 0.666601
O O8 0.339997 0.517564 0.542530
O O9 0.987382 0.722262 0.935378
O O10 0.882021 0.320599 0.656513
O O11 0.741057 0.246040 0.812467
O O12 0.000000 0.500000 0.000000
O O13 0.797232 0.411709 0.489896
O O14 0.000000 0.500000 0.500000
O O15 0.708101 0.001023 0.295659
O O16 0.365781 0.703150 0.370117
O O17 0.515551 0.018077 0.276344
O O18 0.500000 0.500000 0.000000
#
# Coordination Sequence:
#
# PCOD8007030 Si02
#       8
#     2   2   2   2   2   2   2   2
#     4  10  20  40  66  94 129 170 219 273 336 396
#     4  12  27  42  68 101 135 178 232 280 334 401
#     4  10  21  39  68  96 126 170 224 272 331 402
#     4  10  21  38  64  97 127 165 219 276 327 395
#     4  11  25  45  70  97 136 181 218 271 346 405
#     4   9  19  38  68  90 125 174 219 275 331 389
#     4  12  27  45  68  99 141 180 226 283 341 402
#     4  10  22  41  68  95 129 171 228 271 331 400
#
# _framework density 21.486281000000002
#
# number of rings (size 3 to 8) (size 9 to 14) (size 15 to 20)
#    0.000    1.500    1.250    3.000   10.500    0.500 
#    4.500    1.250    0.000    0.000    0.000    0.000 
#    0.000    0.000    0.000    0.000    0.000    0.000 
#
# Total GULP energy -198312.557783 kJ/mol
# GULP energy per Si atom -12394.534861 kJ/mol
# Density = 2.143738 g / cm^3
# Si number density = 21.486281 Si / 1000 Ang^3
#
#
#
# Elastic Constant Matrix: (Units=GPa)
#
#
# Indices 1 2 3 4 5 6 
#
# 1 128.9669 42.5854 39.9811 -8.2107 -0.3360 11.5932
# 2 42.5854 67.4995 23.8113 3.8435 0.9924 5.2811
# 3 39.9811 23.8113 109.6399 2.9933 10.3427 8.6372
# 4 -8.2107 3.8435 2.9933 29.1360 -5.3304 0.6446
# 5 -0.3360 0.9924 10.3427 -5.3304 38.0441 1.1155
# 6 11.5932 5.2811 8.6372 0.6446 1.1155 33.9221
#
#
#
# Elastic Compliance Matrix: (Units=1/GPa)
#
#
# Indices 1 2 3 4 5 6 
#
# 1 0.011174 -0.006155 -0.002849 0.004624 0.001749 -0.002280
# 2 -0.006155 0.019618 -0.001807 -0.004249 -0.000659 -0.000388
# 3 -0.002849 -0.001807 0.011032 -0.002262 -0.003253 -0.001404
# 4 0.004624 -0.004249 -0.002262 0.037555 0.006065 -0.001256
# 5 0.001749 -0.000659 -0.003253 0.006065 0.028073 -0.000705
# 6 -0.002280 -0.000388 -0.001404 -0.001256 -0.000705 0.030724
#
#
# Mechanical properties :
#
#
# Convention : Reuss Voigt Hill
#
# Bulk Modulus (GPa) = 49.50633 57.65132 53.57882
# Shear Modulus (GPa) = 30.02461 33.53567 31.78014
#
# Velocity S-wave (km/s) = 3.74222 3.95498 3.85007
# Velocity P-wave (km/s) = 6.46244 6.90983 6.68988
#
# Compressibility (1/GPa) = 0.02019944
#
# Stress axis : x y z
#
# Youngs Moduli (GPa) = 89.49741 50.97484 90.64932
#
# Poissons Ratio (x) = 0.31374 0.25829
# Poissons Ratio (y) = 0.55084 0.16384
# Poissons Ratio (z) = 0.25501 0.09213
#
# Static dielectric constant tensor:
#      x y z
#    x 5.269080 -1.171810 -0.809130 
#    y -1.171810 4.810080 1.001840 
#    z -0.809130 1.001840 4.280680 
# 
# 
# High freq. dielectric constant tensor:
#      x y z
#    x 1.855460 -0.000110 0.004420 
#    y -0.000110 1.829610 0.028650 
#    z 0.004420 0.028650 1.840140 
# 
# From -- ./inp_files/299265.got.cif
#   From: 2010.06.25/outbox.cif.g09.slc.cpg/sg2_150_cif.got.tgz:299265.got - 2010.06.27 13:26:56.
