data_PCOD8007891
_publ_section_title
;
Structure prediction by ZEFSAII (Michael W. Deem and Ramdas Pophale) SiO2 
 PCOD8007891
Probable space group: P -1
;
_chemical_formula_sum "Si O2"
_cell_formula_units_Z 16
_cell_length_a 9.592586
_cell_length_b 9.555281
_cell_length_c 19.098149
_cell_angle_alpha 133.725143
_cell_angle_beta 145.441534
_cell_angle_gamma 62.653931
_cell_volume 691.338455
_symmetry_space_group_name_H-M "P -1"
_symmetry_group_IT_number 2
_symmetry_cell_setting 'triclinic'
loop_
_space_group_symop_operation_xyz
x,y,z
-x,-y,-z
loop_
_atom_site_type_symbol
_atom_site_label
_atom_site_fract_x
_atom_site_fract_y
_atom_site_fract_z
Si Si1 0.180817 0.595392 0.393808
Si Si2 0.646461 0.955596 0.877983
Si Si3 0.434584 0.166549 0.580743
Si Si4 0.853858 0.045077 0.266543
Si Si5 0.955928 0.179192 0.206876
Si Si6 0.218965 0.452956 0.215972
Si Si7 0.398337 0.020229 0.285727
Si Si8 0.216183 0.391961 0.868712
O O1 0.315666 0.503728 0.353718
O O2 0.385083 0.778588 0.576151
O O3 0.072707 0.419237 0.343866
O O4 0.949606 0.675608 0.294067
O O5 0.343135 0.884248 0.740398
O O6 0.769754 0.770207 0.875476
O O7 0.705353 0.060630 0.862056
O O8 0.777871 0.130395 0.047569
O O9 0.602060 0.387995 0.707306
O O10 0.138033 0.156951 0.447650
O O11 0.500000 0.000000 0.500000
O O12 0.488524 0.128581 0.671651
O O13 0.797413 0.106551 0.186018
O O14 0.793126 0.804734 0.158362
O O15 0.178310 0.067473 0.257834
O O16 0.924470 0.469625 0.095224
O O17 0.500000 0.500000 0.000000
#
# Coordination Sequence:
#
# PCOD8007891 Si02
#       8
#     2   2   2   2   2   2   2   2
#     4  10  21  40  71 102 129 184 240 265 347 416
#     4  12  29  43  64 110 148 175 228 295 358 399
#     4  12  20  45  74 102 128 188 237 284 336 417
#     4  12  25  45  73  99 143 184 236 283 348 420
#     4  12  24  44  71  98 143 192 229 281 350 423
#     4  10  22  43  69 103 138 175 240 278 347 410
#     4  12  22  42  74 102 136 183 241 286 338 418
#     4  10  20  41  70  98 135 183 232 278 337 426
#
# _framework density 23.143509999999999
#
# number of rings (size 3 to 8) (size 9 to 14) (size 15 to 20)
#    0.750    0.000    6.250    1.875    1.750    1.000 
#    0.000    5.000    0.000    0.000    0.000    0.000 
#    0.000    0.000    0.000    0.000    0.000    0.000 
#
# Total GULP energy -198380.398528 kJ/mol
# GULP energy per Si atom -12398.774908 kJ/mol
# Density = 2.309083 g / cm^3
# Si number density = 23.143510 Si / 1000 Ang^3
#
#
#
# Elastic Constant Matrix: (Units=GPa)
#
#
# Indices 1 2 3 4 5 6 
#
# 1 89.0383 53.0976 15.4898 4.1188 25.2214 1.3292
# 2 53.0976 119.3590 24.4003 -0.2987 -0.4168 27.3706
# 3 15.4898 24.4003 69.8737 0.2865 23.4776 1.5124
# 4 4.1188 -0.2987 0.2865 27.8616 2.5812 9.6803
# 5 25.2214 -0.4168 23.4776 2.5812 41.0530 -9.3331
# 6 1.3292 27.3706 1.5124 9.6803 -9.3331 43.0571
#
#
#
# Elastic Compliance Matrix: (Units=1/GPa)
#
#
# Indices 1 2 3 4 5 6 
#
# 1 0.021525 -0.011382 0.003997 -0.003412 -0.014489 0.004057
# 2 -0.011382 0.016839 -0.005903 0.004429 0.008129 -0.009379
# 3 0.003997 -0.005903 0.020263 0.000552 -0.014204 -0.000285
# 4 -0.003412 0.004429 0.000552 0.041224 -0.003675 -0.012795
# 5 -0.014489 0.008129 -0.014204 -0.003675 0.043046 0.005936
# 6 0.004057 -0.009379 -0.000285 -0.012795 0.005936 0.033235
#
#
# Mechanical properties :
#
#
# Convention : Reuss Voigt Hill
#
# Bulk Modulus (GPa) = 31.20085 51.58294 41.39189
# Shear Modulus (GPa) = 23.43113 34.74654 29.08883
#
# Velocity S-wave (km/s) = 3.18532 3.87893 3.54911
# Velocity P-wave (km/s) = 5.19991 6.51139 5.89225
#
# Compressibility (1/GPa) = 0.03205041
#
# Stress axis : x y z
#
# Youngs Moduli (GPa) = 46.45792 59.38757 49.35037
#
# Poissons Ratio (x) = 0.67596 -0.19728
# Poissons Ratio (y) = 0.52879 0.29134
# Poissons Ratio (z) = -0.18571 0.35059
#
# Static dielectric constant tensor:
#      x y z
#    x 3.986340 0.109410 0.332750 
#    y 0.109410 4.181200 -0.127270 
#    z 0.332750 -0.127270 4.053440 
# 
# 
# High freq. dielectric constant tensor:
#      x y z
#    x 1.891830 0.013650 0.026900 
#    y 0.013650 1.922970 -0.006370 
#    z 0.026900 -0.006370 1.911760 
# 
# From -- ./inp_files/557523.got.cif
#   From: 2010.06.25/outbox.cif.g09.slc.cpg/sg2_279_cif.got.tgz:557523.got - 2010.06.27 13:26:56.
