data_PCOD8007627
_publ_section_title
;
Structure prediction by ZEFSAII (Michael W. Deem and Ramdas Pophale) SiO2 
 PCOD8007627
Probable space group: P -1
;
_chemical_formula_sum "Si O2"
_cell_formula_units_Z 14
_cell_length_a 8.304036
_cell_length_b 9.878270
_cell_length_c 18.704285
_cell_angle_alpha 136.334830
_cell_angle_beta 139.412278
_cell_angle_gamma 48.563214
_cell_volume 667.282008
_symmetry_space_group_name_H-M "P -1"
_symmetry_group_IT_number 2
_symmetry_cell_setting 'triclinic'
loop_
_space_group_symop_operation_xyz
x,y,z
-x,-y,-z
loop_
_atom_site_type_symbol
_atom_site_label
_atom_site_fract_x
_atom_site_fract_y
_atom_site_fract_z
Si Si1 0.994312 0.340617 0.265025
Si Si2 0.316519 0.914696 0.195018
Si Si3 0.432735 0.165209 0.600940
Si Si4 0.713569 0.599279 0.138906
Si Si5 0.028914 0.399030 0.047416
Si Si6 0.104771 0.612136 0.513742
Si Si7 0.574330 0.382883 0.254975
O O1 0.184608 0.453824 0.414392
O O2 0.833957 0.488455 0.208914
O O3 0.792803 0.288109 0.233977
O O4 0.164085 0.140594 0.207704
O O5 0.407843 0.925666 0.310780
O O6 0.568304 0.831982 0.198568
O O7 0.122504 0.773327 0.066060
O O8 0.506645 0.372773 0.684602
O O9 0.125531 0.206777 0.524556
O O10 0.500000 0.000000 0.500000
O O11 0.925939 0.576053 0.139675
O O12 0.500000 0.500000 0.000000
O O13 0.327461 0.297930 0.124628
O O14 0.000000 0.500000 0.000000
O O15 0.335918 0.683406 0.657539
O O16 0.000000 0.500000 0.500000
#
# Coordination Sequence:
#
# PCOD8007627 Si02
#       7
#     2   2   2   2   2   2   2
#     4  10  19  37  59  88 110 145 204 229 278 337
#     4  11  20  36  63  84 113 155 189 234 280 341
#     4  10  16  30  58  85 109 147 192 232 274 330
#     4  10  21  38  59  80 116 156 191 234 277 341
#     4  11  22  38  57  83 119 153 182 238 297 334
#     4   8  16  30  54  80 115 141 184 243 264 331
#     4  10  18  35  54  87 120 142 191 238 282 336
#
# _framework density 20.980633999999998
#
# number of rings (size 3 to 8) (size 9 to 14) (size 15 to 20)
#    0.000    2.286    4.286    3.429    0.000    2.857 
#    0.000    2.143    0.000    1.714    0.000    0.000 
#    0.000    0.000    0.000    0.000    0.000    0.000 
#
# Total GULP energy -173452.713031 kJ/mol
# GULP energy per Si atom -12389.479502 kJ/mol
# Density = 2.093288 g / cm^3
# Si number density = 20.980634 Si / 1000 Ang^3
#
#
#
# Elastic Constant Matrix: (Units=GPa)
#
#
# Indices 1 2 3 4 5 6 
#
# 1 64.1402 22.6547 31.3046 -1.6022 -19.1050 -21.1449
# 2 22.6547 110.3775 35.2588 5.7218 -9.0148 -29.5957
# 3 31.3046 35.2588 110.6369 -27.2592 -21.3686 -12.0058
# 4 -1.6022 5.7218 -27.2592 46.3120 -10.5277 -8.8421
# 5 -19.1050 -9.0148 -21.3686 -10.5277 28.7525 4.1320
# 6 -21.1449 -29.5957 -12.0058 -8.8421 4.1320 26.8836
#
#
#
# Elastic Compliance Matrix: (Units=1/GPa)
#
#
# Indices 1 2 3 4 5 6 
#
# 1 0.029797 0.001851 0.000550 0.010883 0.021027 0.026068
# 2 0.001851 0.013820 -0.003310 -0.000579 0.000752 0.014886
# 3 0.000550 -0.003310 0.018436 0.016880 0.018090 0.007794
# 4 0.010883 -0.000579 0.016880 0.044056 0.032131 0.025013
# 5 0.021027 0.000752 0.018090 0.032131 0.070580 0.025165
# 6 0.026068 0.014886 0.007794 0.025013 0.025165 0.081929
#
#
# Mechanical properties :
#
#
# Convention : Reuss Voigt Hill
#
# Bulk Modulus (GPa) = 16.60115 51.51009 34.05562
# Shear Modulus (GPa) = 17.82443 33.45206 25.63824
#
# Velocity S-wave (km/s) = 2.91789 3.99736 3.49950
# Velocity P-wave (km/s) = 4.39112 6.77567 5.70927
#
# Compressibility (1/GPa) = 0.06023679
#
# Stress axis : x y z
#
# Youngs Moduli (GPa) = 33.56019 72.35823 54.24062
#
# Poissons Ratio (x) = -0.13395 -0.02985
# Poissons Ratio (y) = -0.06213 0.17954
# Poissons Ratio (z) = -0.01847 0.23951
#
# Static dielectric constant tensor:
#      x y z
#    x 3.691850 -0.451630 -0.185400 
#    y -0.451630 4.028520 -0.394940 
#    z -0.185400 -0.394940 4.370680 
# 
# 
# High freq. dielectric constant tensor:
#      x y z
#    x 1.780650 -0.025160 -0.031910 
#    y -0.025160 1.816530 -0.023780 
#    z -0.031910 -0.023780 1.838280 
# 
# From -- ./inp_files/265037.got.cif
#   From: 2010.06.25/outbox.cif.g09.slc.cpg/sg2_133_cif.got.tgz:265037.got - 2010.06.27 13:26:56.
