data_PCOD8007553
_publ_section_title
;
Structure prediction by ZEFSAII (Michael W. Deem and Ramdas Pophale) SiO2 
 PCOD8007553
Probable space group: P -1
;
_chemical_formula_sum "Si O2"
_cell_formula_units_Z 16
_cell_length_a 18.045350
_cell_length_b 8.524306
_cell_length_c 16.265925
_cell_angle_alpha 127.878485
_cell_angle_beta 157.669603
_cell_angle_gamma 51.263942
_cell_volume 736.308392
_symmetry_space_group_name_H-M "P -1"
_symmetry_group_IT_number 2
_symmetry_cell_setting 'triclinic'
loop_
_space_group_symop_operation_xyz
x,y,z
-x,-y,-z
loop_
_atom_site_type_symbol
_atom_site_label
_atom_site_fract_x
_atom_site_fract_y
_atom_site_fract_z
Si Si1 0.933134 0.071119 0.863038
Si Si2 0.965324 0.637760 0.732987
Si Si3 0.287544 0.539407 0.169425
Si Si4 0.593309 0.193967 0.157058
Si Si5 0.710343 0.394586 0.494626
Si Si6 0.110882 0.797577 0.680116
Si Si7 0.092208 0.176873 0.901473
Si Si8 0.201419 0.423696 0.759871
O O1 0.766304 0.275880 0.761210
O O2 0.105697 0.119011 0.993798
O O3 0.867844 0.874402 0.692315
O O4 0.000000 0.000000 0.000000
O O5 0.026314 0.529074 0.675091
O O6 0.793177 0.551404 0.572637
O O7 0.164250 0.605106 0.981460
O O8 0.520430 0.515381 0.386003
O O9 0.245386 0.325344 0.090260
O O10 0.655530 0.224583 0.324002
O O11 0.785468 0.163681 0.286448
O O12 0.417891 0.375404 0.006646
O O13 0.500000 0.000000 0.000000
O O14 0.869208 0.295121 0.692760
O O15 0.222001 0.582010 0.760313
O O16 0.879743 0.776383 0.420108
O O17 0.136212 0.978594 0.825505
#
# Coordination Sequence:
#
# PCOD8007553 Si02
#       8
#     2   2   2   2   2   2   2   2
#     4  10  22  43  69  91 118 164 209 255 318 365
#     4  10  20  41  65  88 122 164 208 253 303 365
#     4  10  22  41  65  90 125 161 203 262 307 360
#     4  12  24  38  62  94 128 167 208 244 305 371
#     4  11  23  38  62  92 127 162 205 254 304 366
#     4  11  24  39  63  91 127 168 205 252 303 363
#     4  11  23  41  64  93 125 161 207 255 309 366
#     4  11  22  41  62  87 129 168 203 253 303 360
#
# _framework density 21.730025000000001
#
# number of rings (size 3 to 8) (size 9 to 14) (size 15 to 20)
#    0.000    1.250    3.750    2.250    1.750    2.000 
#    0.000    3.750    0.000    0.000    0.000    0.000 
#    0.000    0.000    0.000    0.000    0.000    0.000 
#
# Total GULP energy -198326.338574 kJ/mol
# GULP energy per Si atom -12395.396161 kJ/mol
# Density = 2.168057 g / cm^3
# Si number density = 21.730025 Si / 1000 Ang^3
#
#
#
# Elastic Constant Matrix: (Units=GPa)
#
#
# Indices 1 2 3 4 5 6 
#
# 1 89.0000 16.9955 -1.3491 -4.1036 10.4957 -2.1337
# 2 16.9955 93.8937 10.7827 21.8748 16.3096 -8.9780
# 3 -1.3491 10.7827 64.5917 -3.4856 14.5271 2.3355
# 4 -4.1036 21.8748 -3.4856 19.4517 -0.0074 9.2576
# 5 10.4957 16.3096 14.5271 -0.0074 27.6893 -1.7141
# 6 -2.1337 -8.9780 2.3355 9.2576 -1.7141 34.4158
#
#
#
# Elastic Compliance Matrix: (Units=1/GPa)
#
#
# Indices 1 2 3 4 5 6 
#
# 1 0.012997 -0.004707 0.002569 0.010168 -0.003717 -0.003517
# 2 -0.004707 0.023039 -0.004444 -0.034822 -0.008538 0.014962
# 3 0.002569 -0.004444 0.019089 0.011763 -0.008733 -0.005894
# 4 0.010168 -0.034822 0.011763 0.113577 0.008077 -0.039401
# 5 -0.003717 -0.008538 -0.008733 0.008077 0.047032 -0.001695
# 6 -0.003517 0.014962 -0.005894 -0.039401 -0.001695 0.043655
#
#
# Mechanical properties :
#
#
# Convention : Reuss Voigt Hill
#
# Bulk Modulus (GPa) = 23.83199 33.37149 28.60174
# Shear Modulus (GPa) = 17.44954 31.04845 24.24900
#
# Velocity S-wave (km/s) = 2.83683 3.78408 3.34416
# Velocity P-wave (km/s) = 4.66060 5.87223 5.30114
#
# Compressibility (1/GPa) = 0.04196042
#
# Stress axis : x y z
#
# Youngs Moduli (GPa) = 76.94348 43.40463 52.38510
#
# Poissons Ratio (x) = 0.20430 -0.13457
# Poissons Ratio (y) = 0.36217 0.23281
# Poissons Ratio (z) = -0.19766 0.19290
#
# Static dielectric constant tensor:
#      x y z
#    x 4.680750 0.634760 -0.335880 
#    y 0.634760 5.030510 -0.149580 
#    z -0.335880 -0.149580 3.994050 
# 
# 
# High freq. dielectric constant tensor:
#      x y z
#    x 1.865980 0.000960 0.004140 
#    y 0.000960 1.866600 0.015370 
#    z 0.004140 0.015370 1.829620 
# 
# From -- ./inp_files/39463.got.cif
#   From: 2010.06.25/outbox.cif.g09.slc.cpg/sg2_20_cif.got.tgz:39463.got - 2010.06.27 13:26:56.
