data_PCOD8007026
_publ_section_title
;
Structure prediction by ZEFSAII (Michael W. Deem and Ramdas Pophale) SiO2 
 PCOD8007026
Probable space group: P -1
;
_chemical_formula_sum "Si O2"
_cell_formula_units_Z 16
_cell_length_a 11.859191
_cell_length_b 19.828768
_cell_length_c 19.290633
_cell_angle_alpha 157.907506
_cell_angle_beta 28.120918
_cell_angle_gamma 150.995567
_cell_volume 760.846572
_symmetry_space_group_name_H-M "P -1"
_symmetry_group_IT_number 2
_symmetry_cell_setting 'triclinic'
loop_
_space_group_symop_operation_xyz
x,y,z
-x,-y,-z
loop_
_atom_site_type_symbol
_atom_site_label
_atom_site_fract_x
_atom_site_fract_y
_atom_site_fract_z
Si Si1 0.064270 0.074950 0.287255
Si Si2 0.739400 0.578046 0.396106
Si Si3 0.601193 0.354951 0.462485
Si Si4 0.470682 0.571871 0.270218
Si Si5 0.086426 0.685859 0.509324
Si Si6 0.814419 0.810102 0.889383
Si Si7 0.525038 0.939717 0.055127
Si Si8 0.009118 0.721747 0.062603
O O1 0.102858 0.212146 0.463425
O O2 0.883624 0.137199 0.390241
O O3 0.939889 0.858512 0.173825
O O4 0.329753 0.088907 0.120077
O O5 0.500000 0.500000 0.500000
O O6 0.635423 0.587287 0.383489
O O7 0.912721 0.443126 0.174911
O O8 0.583676 0.353251 0.553658
O O9 0.864116 0.498504 0.425628
O O10 0.592856 0.155969 0.245933
O O11 0.356414 0.658278 0.350100
O O12 0.338237 0.343725 0.117914
O O13 0.768274 0.625387 0.149228
O O14 0.004063 0.724690 0.666968
O O15 0.601410 0.832082 0.974481
O O16 0.000000 0.000000 0.000000
O O17 0.228939 0.848926 0.114553
#
# Coordination Sequence:
#
# PCOD8007026 Si02
#       8
#     2   2   2   2   2   2   2   2
#     4  11  23  41  66  95 123 168 227 263 306 375
#     4  12  21  41  68  95 124 166 217 272 313 365
#     4  11  21  39  70  95 124 165 215 268 315 375
#     4  11  25  42  59  96 136 168 206 261 328 383
#     4  10  21  40  66  88 124 170 217 268 307 369
#     4  10  20  40  66  94 121 166 220 262 311 380
#     4  11  21  37  70  97 122 167 218 267 311 374
#     4  12  25  41  62  97 136 168 206 263 328 382
#
# _framework density 21.029207
#
# number of rings (size 3 to 8) (size 9 to 14) (size 15 to 20)
#    0.000    1.000    3.750    5.625    0.000    3.000 
#    4.500    0.625    0.000    0.000    0.000    0.000 
#    0.000    0.000    0.000    0.000    0.000    0.000 
#
# Total GULP energy -198354.399321 kJ/mol
# GULP energy per Si atom -12397.149958 kJ/mol
# Density = 2.098134 g / cm^3
# Si number density = 21.029207 Si / 1000 Ang^3
#
#
#
# Elastic Constant Matrix: (Units=GPa)
#
#
# Indices 1 2 3 4 5 6 
#
# 1 100.9016 45.7491 46.7815 2.8735 -12.8509 -4.2261
# 2 45.7491 81.8910 46.5026 10.4515 -2.7233 8.0785
# 3 46.7815 46.5026 130.4661 21.9230 -2.2518 6.5741
# 4 2.8735 10.4515 21.9230 24.5215 3.8467 -1.0683
# 5 -12.8509 -2.7233 -2.2518 3.8467 33.5706 12.3186
# 6 -4.2261 8.0785 6.5741 -1.0683 12.3186 21.9744
#
#
#
# Elastic Compliance Matrix: (Units=1/GPa)
#
#
# Indices 1 2 3 4 5 6 
#
# 1 0.015593 -0.007581 -0.003954 0.004820 0.002384 0.005866
# 2 -0.007581 0.019862 -0.002829 -0.005909 0.002777 -0.009758
# 3 -0.003954 -0.002829 0.011973 -0.009551 0.001935 -0.004851
# 4 0.004820 -0.005909 -0.009551 0.053599 -0.010775 0.014603
# 5 0.002384 0.002777 0.001935 -0.010775 0.041422 -0.024886
# 6 0.005866 -0.009758 -0.004851 0.014603 -0.024886 0.066335
#
#
# Mechanical properties :
#
#
# Convention : Reuss Voigt Hill
#
# Bulk Modulus (GPa) = 53.46958 65.70277 59.58617
# Shear Modulus (GPa) = 20.51337 27.62833 24.07085
#
# Velocity S-wave (km/s) = 3.12664 3.62858 3.38692
# Velocity P-wave (km/s) = 6.20613 6.99048 6.60995
#
# Compressibility (1/GPa) = 0.01870222
#
# Stress axis : x y z
#
# Youngs Moduli (GPa) = 64.13244 50.34826 83.51867
#
# Poissons Ratio (x) = 0.38167 0.33019
# Poissons Ratio (y) = 0.48616 0.23625
# Poissons Ratio (z) = 0.25355 0.14242
#
# Static dielectric constant tensor:
#      x y z
#    x 3.925920 -0.205880 -0.229820 
#    y -0.205880 3.003730 0.126410 
#    z -0.229820 0.126410 3.970740 
# 
# 
# High freq. dielectric constant tensor:
#      x y z
#    x 1.833000 0.004790 -0.014190 
#    y 0.004790 1.793060 0.023490 
#    z -0.014190 0.023490 1.831990 
# 
# From -- ./inp_files/472776.got.cif
#   From: 2010.06.25/outbox.cif.g09.slc.cpg/sg2_237_cif.got.tgz:472776.got - 2010.06.27 13:26:56.
