data_PCOD8007081
_publ_section_title
;
Structure prediction by ZEFSAII (Michael W. Deem and Ramdas Pophale) SiO2 
 PCOD8007081
Probable space group: P -1
;
_chemical_formula_sum "Si O2"
_cell_formula_units_Z 14
_cell_length_a 14.096070
_cell_length_b 11.719820
_cell_length_c 11.304544
_cell_angle_alpha 129.743671
_cell_angle_beta 136.739828
_cell_angle_gamma 29.901870
_cell_volume 637.850830
_symmetry_space_group_name_H-M "P -1"
_symmetry_group_IT_number 2
_symmetry_cell_setting 'triclinic'
loop_
_space_group_symop_operation_xyz
x,y,z
-x,-y,-z
loop_
_atom_site_type_symbol
_atom_site_label
_atom_site_fract_x
_atom_site_fract_y
_atom_site_fract_z
Si Si1 0.600101 0.078157 0.138383
Si Si2 0.184348 0.659141 0.684953
Si Si3 0.284897 0.041899 0.572198
Si Si4 0.541416 0.849147 0.331261
Si Si5 0.803839 0.014396 0.045571
Si Si6 0.723791 0.423348 0.775677
Si Si7 0.382555 0.450219 0.489093
O O1 0.761730 0.975066 0.109581
O O2 0.404924 0.349421 0.117033
O O3 0.716253 0.005795 0.322456
O O4 0.500000 0.000000 0.000000
O O5 0.330892 0.404855 0.691896
O O6 0.254138 0.762681 0.868280
O O7 0.215552 0.641676 0.560822
O O8 0.936413 0.832015 0.602808
O O9 0.317246 0.189830 0.671071
O O10 0.495402 0.803181 0.538988
O O11 0.500000 0.000000 0.500000
O O12 0.315368 0.979402 0.160581
O O13 0.054604 0.789536 0.098969
O O14 0.586627 0.387998 0.618640
O O15 0.758637 0.451715 0.692076
#
# Coordination Sequence:
#
# PCOD8007081 Si02
#       7
#     2   2   2   2   2   2   2
#     4  11  23  41  68 102 135 166 214 281 336 400
#     4  12  24  43  72  97 128 185 227 270 325 396
#     4  11  23  44  69  99 134 174 221 274 338 391
#     4  12  27  48  65  94 140 182 225 277 324 396
#     4  12  25  45  69 102 133 175 227 273 336 392
#     4  10  22  39  68 102 137 168 209 281 339 392
#     4  10  20  40  67 104 135 163 219 272 334 401
#
# _framework density 21.948706999999999
#
# number of rings (size 3 to 8) (size 9 to 14) (size 15 to 20)
#    0.000    0.857    5.714    1.714    0.000    2.857 
#    2.571    1.429    0.000    0.000    0.000    0.000 
#    0.000    0.000    0.000    0.000    0.000    0.000 
#
# Total GULP energy -173520.413772 kJ/mol
# GULP energy per Si atom -12394.315269 kJ/mol
# Density = 2.189875 g / cm^3
# Si number density = 21.948707 Si / 1000 Ang^3
#
#
#
# Elastic Constant Matrix: (Units=GPa)
#
#
# Indices 1 2 3 4 5 6 
#
# 1 60.6541 30.7528 22.2276 -1.2897 12.4728 12.5353
# 2 30.7528 80.9292 44.8725 -17.9421 -1.1529 8.1574
# 3 22.2276 44.8725 123.7816 -5.0659 14.5948 3.2714
# 4 -1.2897 -17.9421 -5.0659 24.8846 -2.8597 1.5404
# 5 12.4728 -1.1529 14.5948 -2.8597 29.0544 4.1533
# 6 12.5353 8.1574 3.2714 1.5404 4.1533 30.5298
#
#
#
# Elastic Compliance Matrix: (Units=1/GPa)
#
#
# Indices 1 2 3 4 5 6 
#
# 1 0.025356 -0.011412 0.000792 -0.007761 -0.011719 -0.005461
# 2 -0.011412 0.025549 -0.007811 0.017874 0.012147 -0.003858
# 3 0.000792 -0.007811 0.011380 -0.004187 -0.007023 0.001709
# 4 -0.007761 0.017874 -0.004187 0.053561 0.012203 -0.005503
# 5 -0.011719 0.012147 -0.007023 0.012203 0.045297 -0.004459
# 6 -0.005461 -0.003858 0.001709 -0.005503 -0.004459 0.036729
#
#
# Mechanical properties :
#
#
# Convention : Reuss Voigt Hill
#
# Bulk Modulus (GPa) = 39.33485 51.23009 45.28247
# Shear Modulus (GPa) = 20.55855 28.06121 24.30988
#
# Velocity S-wave (km/s) = 3.06382 3.57948 3.33164
# Velocity P-wave (km/s) = 5.52052 6.36200 5.95614
#
# Compressibility (1/GPa) = 0.02542275
#
# Stress axis : x y z
#
# Youngs Moduli (GPa) = 39.43841 39.14115 87.87575
#
# Poissons Ratio (x) = 0.44666 -0.06961
# Poissons Ratio (y) = 0.45005 0.68642
# Poissons Ratio (z) = -0.03124 0.30574
#
# Static dielectric constant tensor:
#      x y z
#    x 4.021810 0.134290 -0.090760 
#    y 0.134290 3.795000 -0.015640 
#    z -0.090760 -0.015640 3.795340 
# 
# 
# High freq. dielectric constant tensor:
#      x y z
#    x 1.864620 0.012810 0.009790 
#    y 0.012810 1.871340 0.004990 
#    z 0.009790 0.004990 1.853340 
# 
# From -- ./inp_files/185472.got.cif
#   From: 2010.06.25/outbox.cif.g09.slc.cpg/sg2_93_cif.got.tgz:185472.got - 2010.06.27 13:26:56.
