data_PCOD8007268
_publ_section_title
;
Structure prediction by ZEFSAII (Michael W. Deem and Ramdas Pophale) SiO2 
 PCOD8007268
Probable space group: P -1
;
_chemical_formula_sum "Si O2"
_cell_formula_units_Z 16
_cell_length_a 24.320609
_cell_length_b 8.762575
_cell_length_c 24.750902
_cell_angle_alpha 39.420862
_cell_angle_beta 11.287334
_cell_angle_gamma 41.891807
_cell_volume 651.912451
_symmetry_space_group_name_H-M "P -1"
_symmetry_group_IT_number 2
_symmetry_cell_setting 'triclinic'
loop_
_space_group_symop_operation_xyz
x,y,z
-x,-y,-z
loop_
_atom_site_type_symbol
_atom_site_label
_atom_site_fract_x
_atom_site_fract_y
_atom_site_fract_z
Si Si1 0.629621 0.363195 0.336319
Si Si2 0.950796 0.859471 0.779435
Si Si3 0.722126 0.292010 0.675050
Si Si4 0.149832 0.034587 0.269093
Si Si5 0.237450 0.198452 0.543469
Si Si6 0.353966 0.673549 0.788660
Si Si7 0.138190 0.085130 0.939402
Si Si8 0.456859 0.110193 0.746816
O O1 0.514236 0.281273 0.410511
O O2 0.620665 0.648347 0.275499
O O3 0.950330 0.297117 0.046505
O O4 0.459939 0.212317 0.588732
O O5 0.906721 0.017140 0.725540
O O6 0.277376 0.838172 0.483068
O O7 0.799457 0.594316 0.987190
O O8 0.809968 0.986357 0.931508
O O9 0.848000 0.570487 0.470288
O O10 0.862724 0.113050 0.548580
O O11 0.772300 0.213319 0.710237
O O12 0.391306 0.254671 0.988906
O O13 0.383054 0.289555 0.434171
O O14 0.471489 0.076694 0.317015
O O15 0.956125 0.016752 0.881104
O O16 0.121581 0.856850 0.977036
#
# Coordination Sequence:
#
# PCOD8007268 Si02
#       8
#     2   2   2   2   2   2   2   2
#     4  11  25  43  62  92 125 173 217 269 324 382
#     4  11  23  44  68  93 130 177 212 258 324 389
#     4  10  22  39  67 105 132 158 209 274 313 380
#     4  10  20  40  70 101 131 163 211 259 324 375
#     4  12  27  43  66  98 132 171 215 269 326 372
#     4  11  24  41  70  95 125 164 225 274 320 377
#     4  12  25  41  68  90 130 163 225 272 325 372
#     4  11  28  44  63  92 137 174 215 263 320 392
#
# _framework density 24.543171000000001
#
# number of rings (size 3 to 8) (size 9 to 14) (size 15 to 20)
#    0.000    1.000    2.500    3.750    8.750    1.000 
#    0.000    1.250    0.000    0.000    0.000    0.000 
#    0.000    0.000    0.000    0.000    0.000    0.000 
#
# Total GULP energy -198401.646676 kJ/mol
# GULP energy per Si atom -12400.102917 kJ/mol
# Density = 2.448731 g / cm^3
# Si number density = 24.543171 Si / 1000 Ang^3
#
#
#
# Elastic Constant Matrix: (Units=GPa)
#
#
# Indices 1 2 3 4 5 6 
#
# 1 127.5358 32.2084 7.7631 3.3114 27.4496 -18.0656
# 2 32.2084 100.0811 13.2326 6.7567 18.7092 -15.0977
# 3 7.7631 13.2326 85.2212 13.5792 18.1423 -14.1417
# 4 3.3114 6.7567 13.5792 35.6536 -1.9081 7.3052
# 5 27.4496 18.7092 18.1423 -1.9081 34.7527 2.8933
# 6 -18.0656 -15.0977 -14.1417 7.3052 2.8933 35.7994
#
#
#
# Elastic Compliance Matrix: (Units=1/GPa)
#
#
# Indices 1 2 3 4 5 6 
#
# 1 0.011791 -0.000236 0.003986 -0.005171 -0.012340 0.009477
# 2 -0.000236 0.013017 0.002063 -0.005342 -0.008857 0.007992
# 3 0.003986 0.002063 0.018515 -0.011483 -0.015705 0.013808
# 4 -0.005171 -0.005342 -0.011483 0.038619 0.016625 -0.018623
# 5 -0.012340 -0.008857 -0.015705 0.016625 0.054395 -0.023955
# 6 0.009477 0.007992 0.013808 -0.018623 -0.023955 0.047277
#
#
# Mechanical properties :
#
#
# Convention : Reuss Voigt Hill
#
# Bulk Modulus (GPa) = 18.19858 46.58293 32.39075
# Shear Modulus (GPa) = 26.27386 38.55008 32.41197
#
# Velocity S-wave (km/s) = 3.27542 3.96751 3.63796
# Velocity P-wave (km/s) = 4.66214 6.32530 5.55630
#
# Compressibility (1/GPa) = 0.05494934
#
# Stress axis : x y z
#
# Youngs Moduli (GPa) = 84.81404 76.82252 54.01048
#
# Poissons Ratio (x) = 0.01812 -0.21529
# Poissons Ratio (y) = 0.02001 -0.11144
# Poissons Ratio (z) = -0.33808 -0.15850
#
# Static dielectric constant tensor:
#      x y z
#    x 4.725560 -0.134500 0.192640 
#    y -0.134500 4.311730 0.116470 
#    z 0.192640 0.116470 4.537530 
# 
# 
# High freq. dielectric constant tensor:
#      x y z
#    x 1.988340 -0.005550 0.005910 
#    y -0.005550 1.956960 0.014910 
#    z 0.005910 0.014910 1.992230 
# 
# From -- ./inp_files/621135.got.cif
#   From: 2010.06.25/outbox.cif.g09.slc.cpg/sg2_311_cif.got.tgz:621135.got - 2010.06.27 13:26:56.
