data_PCOD8007213
_publ_section_title
;
Structure prediction by ZEFSAII (Michael W. Deem and Ramdas Pophale) SiO2 
 PCOD8007213
Probable space group: P -1
;
_chemical_formula_sum "Si O2"
_cell_formula_units_Z 16
_cell_length_a 9.043350
_cell_length_b 15.251059
_cell_length_c 12.834656
_cell_angle_alpha 144.763218
_cell_angle_beta 47.512913
_cell_angle_gamma 117.942014
_cell_volume 738.640713
_symmetry_space_group_name_H-M "P -1"
_symmetry_group_IT_number 2
_symmetry_cell_setting 'triclinic'
loop_
_space_group_symop_operation_xyz
x,y,z
-x,-y,-z
loop_
_atom_site_type_symbol
_atom_site_label
_atom_site_fract_x
_atom_site_fract_y
_atom_site_fract_z
Si Si1 0.470333 0.162579 0.116101
Si Si2 0.087870 0.192381 0.439194
Si Si3 0.748079 0.871588 0.023324
Si Si4 0.105508 0.862547 0.163664
Si Si5 0.123785 0.623595 0.101105
Si Si6 0.853149 0.188304 0.341854
Si Si7 0.486798 0.418449 0.817924
Si Si8 0.676360 0.848263 0.260266
O O1 0.282331 0.260846 0.368220
O O2 0.411707 0.149050 0.009792
O O3 0.684416 0.225383 0.080662
O O4 0.500000 0.000000 0.000000
O O5 0.951927 0.330225 0.701300
O O6 0.965254 0.137230 0.347675
O O7 0.143908 0.037729 0.334966
O O8 0.683817 0.791000 0.080696
O O9 0.735850 0.054411 0.230024
O O10 0.978983 0.789383 0.802467
O O11 0.090403 0.776754 0.196054
O O12 0.902399 0.873926 0.204018
O O13 0.360157 0.540181 0.915338
O O14 0.000000 0.500000 0.000000
O O15 0.699204 0.351630 0.593213
O O16 0.372445 0.277377 0.758101
O O17 0.500000 0.500000 0.000000
O O18 0.500000 0.000000 0.500000
#
# Coordination Sequence:
#
# PCOD8007213 Si02
#       8
#     2   2   2   2   2   2   2   2
#     4   9  22  38  65  98 133 164 212 282 333 383
#     4  10  20  43  67  95 128 174 223 275 328 388
#     4  10  21  39  69 100 124 166 229 268 328 383
#     4  11  23  43  64  98 131 168 223 277 328 393
#     4  12  26  43  62  94 136 180 215 270 339 396
#     4  10  20  40  68  97 127 169 218 279 321 386
#     4  12  25  43  66  92 140 175 216 270 337 396
#     4  12  24  42  69 100 128 170 229 277 321 394
#
# _framework density 21.661411999999999
#
# number of rings (size 3 to 8) (size 9 to 14) (size 15 to 20)
#    0.000    1.250    5.000    0.375    3.500    4.000 
#    0.000    2.500    0.000    0.000    0.000    0.000 
#    0.000    0.000    0.000    0.000    0.000    0.000 
#
# Total GULP energy -198289.655787 kJ/mol
# GULP energy per Si atom -12393.103487 kJ/mol
# Density = 2.161211 g / cm^3
# Si number density = 21.661412 Si / 1000 Ang^3
#
#
#
# Elastic Constant Matrix: (Units=GPa)
#
#
# Indices 1 2 3 4 5 6 
#
# 1 99.2924 34.1961 44.1964 -8.9464 -28.2454 0.4636
# 2 34.1961 67.0375 34.0028 -18.1901 -5.1054 -8.1860
# 3 44.1964 34.0028 142.9535 -19.1592 -17.5232 -1.6046
# 4 -8.9464 -18.1901 -19.1592 30.9813 2.1667 -0.6635
# 5 -28.2454 -5.1054 -17.5232 2.1667 34.7064 -2.1807
# 6 0.4636 -8.1860 -1.6046 -0.6635 -2.1807 36.2404
#
#
#
# Elastic Compliance Matrix: (Units=1/GPa)
#
#
# Indices 1 2 3 4 5 6 
#
# 1 0.016600 -0.007016 -0.002298 -0.001566 0.011337 -0.001245
# 2 -0.007016 0.022782 -0.002280 0.010317 -0.003834 0.005093
# 3 -0.002298 -0.002280 0.008963 0.003395 0.002115 0.000101
# 4 -0.001566 0.010317 0.003395 0.040075 -0.000343 0.003214
# 5 0.011337 -0.003834 0.002115 -0.000343 0.038653 0.001402
# 6 -0.001245 0.005093 0.000101 0.003214 0.001402 0.028908
#
#
# Mechanical properties :
#
#
# Convention : Reuss Voigt Hill
#
# Bulk Modulus (GPa) = 39.74814 59.34156 49.54485
# Shear Modulus (GPa) = 26.65908 33.51149 30.08528
#
# Velocity S-wave (km/s) = 3.51196 3.93753 3.73082
# Velocity P-wave (km/s) = 5.90210 6.93735 6.44056
#
# Compressibility (1/GPa) = 0.02515841
#
# Stress axis : x y z
#
# Youngs Moduli (GPa) = 60.24120 43.89491 111.56656
#
# Poissons Ratio (x) = 0.30797 0.25633
# Poissons Ratio (y) = 0.42265 0.25434
# Poissons Ratio (z) = 0.13840 0.10007
#
# Static dielectric constant tensor:
#      x y z
#    x 2.071180 -0.883100 0.738660 
#    y -0.883100 3.612880 0.085380 
#    z 0.738660 0.085380 3.591850 
# 
# 
# High freq. dielectric constant tensor:
#      x y z
#    x 1.851580 -0.004410 -0.019610 
#    y -0.004410 1.839580 -0.023700 
#    z -0.019610 -0.023700 1.846420 
# 
# From -- ./inp_files/261615.got.cif
#   From: 2010.06.25/outbox.cif.g09.slc.cpg/sg2_131_cif.got.tgz:261615.got - 2010.06.27 13:26:56.
