data_PCOD8007784
_publ_section_title
;
Structure prediction by ZEFSAII (Michael W. Deem and Ramdas Pophale) SiO2 
 PCOD8007784
Probable space group: P -1
;
_chemical_formula_sum "Si O2"
_cell_formula_units_Z 12
_cell_length_a 17.950949
_cell_length_b 14.618790
_cell_length_c 12.071426
_cell_angle_alpha 150.239860
_cell_angle_beta 150.485338
_cell_angle_gamma 21.016998
_cell_volume 531.084418
_symmetry_space_group_name_H-M "P -1"
_symmetry_group_IT_number 2
_symmetry_cell_setting 'triclinic'
loop_
_space_group_symop_operation_xyz
x,y,z
-x,-y,-z
loop_
_atom_site_type_symbol
_atom_site_label
_atom_site_fract_x
_atom_site_fract_y
_atom_site_fract_z
Si Si1 0.685934 0.312532 0.132568
Si Si2 0.727848 0.121208 0.382904
Si Si3 0.496955 0.013576 0.839763
Si Si4 0.656322 0.932240 0.728773
Si Si5 0.605597 0.522527 0.491149
Si Si6 0.013134 0.312274 0.580252
O O1 0.583748 0.470938 0.283526
O O2 0.891757 0.254413 0.296534
O O3 0.500000 0.500000 0.000000
O O4 0.763053 0.032908 0.942109
O O5 0.780992 0.237788 0.486587
O O6 0.623066 0.300886 0.548906
O O7 0.952829 0.810066 0.380037
O O8 0.551613 0.127039 0.115469
O O9 0.508822 0.085433 0.807917
O O10 0.660695 0.693008 0.735831
O O11 0.249333 0.157632 0.677907
O O12 0.858267 0.625223 0.702329
O O13 0.500000 0.000000 0.500000
#
# Coordination Sequence:
#
# PCOD8007784 Si02
#       6
#     2   2   2   2   2   2
#     4  12  24  46  67  96 136 177 228 281 330 394
#     4  10  23  42  68 103 139 173 225 273 333 406
#     4  11  23  46  69 100 141 174 220 283 327 405
#     4  12  25  47  69  95 138 179 229 283 327 398
#     4  10  20  41  68  95 140 171 215 281 328 384
#     4  11  25  42  70 103 129 181 228 264 351 393
#
# _framework density 22.595278
#
# number of rings (size 3 to 8) (size 9 to 14) (size 15 to 20)
#    0.000    1.000    5.000    2.000    0.000    7.333 
#    3.000    4.167    0.000    0.000    0.000    0.000 
#    0.000    0.000    0.000    0.000    0.000    0.000 
#
# Total GULP energy -148677.132705 kJ/mol
# GULP energy per Si atom -12389.761059 kJ/mol
# Density = 2.254385 g / cm^3
# Si number density = 22.595278 Si / 1000 Ang^3
#
#
#
# Elastic Constant Matrix: (Units=GPa)
#
#
# Indices 1 2 3 4 5 6 
#
# 1 72.7033 44.8930 31.6492 0.6351 3.5428 27.4899
# 2 44.8930 140.7162 58.4382 -0.8732 4.8063 31.6973
# 3 31.6492 58.4382 131.4424 -0.5200 16.1320 1.3646
# 4 0.6351 -0.8732 -0.5200 40.9612 6.3066 7.6936
# 5 3.5428 4.8063 16.1320 6.3066 51.1305 3.4746
# 6 27.4899 31.6973 1.3646 7.6936 3.4746 30.4273
#
#
#
# Elastic Compliance Matrix: (Units=1/GPa)
#
#
# Indices 1 2 3 4 5 6 
#
# 1 0.025178 -0.000466 -0.005752 0.003671 0.001229 -0.023073
# 2 -0.000466 0.012406 -0.005399 0.002471 0.001149 -0.013017
# 3 -0.005752 -0.005399 0.011685 -0.001435 -0.003354 0.011044
# 4 0.003671 0.002471 -0.001435 0.027109 -0.002535 -0.012391
# 5 0.001229 0.001149 -0.003354 -0.002535 0.021002 -0.003915
# 6 -0.023073 -0.013017 0.011044 -0.012391 -0.003915 0.070356
#
#
# Mechanical properties :
#
#
# Convention : Reuss Voigt Hill
#
# Bulk Modulus (GPa) = 38.41135 68.31363 53.36249
# Shear Modulus (GPa) = 25.04413 38.49590 31.77002
#
# Velocity S-wave (km/s) = 3.33284 4.13209 3.75380
# Velocity P-wave (km/s) = 5.64332 7.28455 6.51582
#
# Compressibility (1/GPa) = 0.02603397
#
# Stress axis : x y z
#
# Youngs Moduli (GPa) = 39.71653 80.60915 85.58110
#
# Poissons Ratio (x) = 0.03753 0.49229
# Poissons Ratio (y) = 0.01849 0.46209
# Poissons Ratio (z) = 0.22846 0.43525
#
# Static dielectric constant tensor:
#      x y z
#    x 4.634040 0.440340 0.436240 
#    y 0.440340 4.273680 0.313190 
#    z 0.436240 0.313190 4.436390 
# 
# 
# High freq. dielectric constant tensor:
#      x y z
#    x 1.903510 0.025880 0.014970 
#    y 0.025880 1.889790 0.014180 
#    z 0.014970 0.014180 1.888070 
# 
# From -- ./inp_files/299972.got.cif
#   From: 2010.06.25/outbox.cif.g09.slc.cpg/sg2_150_cif.got.tgz:299972.got - 2010.06.27 13:26:56.
