data_PCOD8007290
_publ_section_title
;
Structure prediction by ZEFSAII (Michael W. Deem and Ramdas Pophale) SiO2 
 PCOD8007290
Probable space group: P -1
;
_chemical_formula_sum "Si O2"
_cell_formula_units_Z 16
_cell_length_a 13.901338
_cell_length_b 9.184423
_cell_length_c 22.949356
_cell_angle_alpha 46.850689
_cell_angle_beta 21.285888
_cell_angle_gamma 48.672258
_cell_volume 773.072207
_symmetry_space_group_name_H-M "P -1"
_symmetry_group_IT_number 2
_symmetry_cell_setting 'triclinic'
loop_
_space_group_symop_operation_xyz
x,y,z
-x,-y,-z
loop_
_atom_site_type_symbol
_atom_site_label
_atom_site_fract_x
_atom_site_fract_y
_atom_site_fract_z
Si Si1 0.887158 0.492014 0.742582
Si Si2 0.905462 0.230258 0.984867
Si Si3 0.564189 0.216215 0.069878
Si Si4 0.805471 0.468100 0.327580
Si Si5 0.273837 0.531431 0.871740
Si Si6 0.381509 0.093368 0.961827
Si Si7 0.943877 0.965182 0.733580
Si Si8 0.850553 0.618414 0.498118
O O1 0.748375 0.719760 0.761742
O O2 0.097233 0.464971 0.682889
O O3 0.008199 0.453366 0.621509
O O4 0.663647 0.339256 0.924099
O O5 0.130807 0.377031 0.801888
O O6 0.690591 0.265227 0.046105
O O7 0.779338 0.291007 0.101175
O O8 0.000000 0.000000 0.000000
O O9 0.631383 0.983697 0.077017
O O10 0.500000 0.500000 0.500000
O O11 0.901572 0.241783 0.317456
O O12 0.375021 0.330716 0.903417
O O13 0.537264 0.587268 0.673082
O O14 0.000000 0.500000 0.000000
O O15 0.659720 0.990362 0.855820
O O16 0.124134 0.035394 0.158984
O O17 0.124783 0.145893 0.569129
O O18 0.000000 0.500000 0.500000
#
# Coordination Sequence:
#
# PCOD8007290 Si02
#       8
#     2   2   2   2   2   2   2   2
#     4  10  22  40  67 101 131 175 225 280 340 416
#     4  11  25  45  66  97 135 182 226 279 351 408
#     4  10  20  40  70  98 134 173 225 282 342 404
#     4  11  25  45  69  95 136 180 228 287 345 413
#     4  12  27  45  68  99 144 181 225 285 352 416
#     4  11  21  42  70 101 132 178 230 273 347 411
#     4  11  23  42  70  99 134 177 231 285 334 418
#     4  12  25  44  68 104 139 177 232 290 344 408
#
# _framework density 20.696643999999999
#
# number of rings (size 3 to 8) (size 9 to 14) (size 15 to 20)
#    0.000    1.000    5.000    1.500    3.500    0.000 
#    0.000    2.500    0.000    0.000    0.000    0.000 
#    0.000    0.000    0.000    0.000    0.000    0.000 
#
# Total GULP energy -198295.763355 kJ/mol
# GULP energy per Si atom -12393.485210 kJ/mol
# Density = 2.064954 g / cm^3
# Si number density = 20.696644 Si / 1000 Ang^3
#
#
#
# Elastic Constant Matrix: (Units=GPa)
#
#
# Indices 1 2 3 4 5 6 
#
# 1 83.2522 34.5883 48.3473 14.6132 14.0552 13.5304
# 2 34.5883 163.2781 55.8979 8.8368 11.0550 1.6208
# 3 48.3473 55.8979 137.9658 8.9029 -2.4558 -1.9944
# 4 14.6132 8.8368 8.9029 40.1564 1.8423 4.9326
# 5 14.0552 11.0550 -2.4558 1.8423 33.5466 4.3584
# 6 13.5304 1.6208 -1.9944 4.9326 4.3584 35.7743
#
#
#
# Elastic Compliance Matrix: (Units=1/GPa)
#
#
# Indices 1 2 3 4 5 6 
#
# 1 0.018938 -0.001160 -0.006105 -0.004223 -0.006985 -0.006017
# 2 -0.001160 0.007436 -0.002603 -0.000575 -0.002162 0.000300
# 3 -0.006105 -0.002603 0.010550 -0.000035 0.003859 0.002550
# 4 -0.004223 -0.000575 -0.000035 0.026805 0.000766 -0.002168
# 5 -0.006985 -0.002162 0.003859 0.000766 0.033855 -0.001275
# 6 -0.006017 0.000300 0.002550 -0.002168 -0.001275 0.030812
#
#
# Mechanical properties :
#
#
# Convention : Reuss Voigt Hill
#
# Bulk Modulus (GPa) = 58.18511 73.57370 65.87940
# Shear Modulus (GPa) = 32.49691 38.27294 35.38493
#
# Velocity S-wave (km/s) = 3.96682 4.30494 4.13933
# Velocity P-wave (km/s) = 7.01107 7.76761 7.39902
#
# Compressibility (1/GPa) = 0.01718653
#
# Stress axis : x y z
#
# Youngs Moduli (GPa) = 52.80485 134.47972 94.78646
#
# Poissons Ratio (x) = 0.15606 0.57867
# Poissons Ratio (y) = 0.06128 0.24675
# Poissons Ratio (z) = 0.32237 0.35008
#
# Static dielectric constant tensor:
#      x y z
#    x -6.679500 -1.043210 -3.023390 
#    y -1.043210 3.379820 -0.473900 
#    z -3.023390 -0.473900 2.870640 
# 
# 
# High freq. dielectric constant tensor:
#      x y z
#    x 1.807880 0.009790 0.003190 
#    y 0.009790 1.824230 0.008820 
#    z 0.003190 0.008820 1.805670 
# 
# From -- ./inp_files/354512.got.cif
#   From: 2010.06.25/outbox.cif.g09.slc.cpg/sg2_178_cif.got.tgz:354512.got - 2010.06.27 13:26:56.
