data_PCOD8007204
_publ_section_title
;
Structure prediction by ZEFSAII (Michael W. Deem and Ramdas Pophale) SiO2 
 PCOD8007204
Probable space group: P -1
;
_chemical_formula_sum "Si O2"
_cell_formula_units_Z 14
_cell_length_a 14.259952
_cell_length_b 11.661246
_cell_length_c 7.566655
_cell_angle_alpha 92.306955
_cell_angle_beta 86.384953
_cell_angle_gamma 150.259246
_cell_volume 622.679122
_symmetry_space_group_name_H-M "P -1"
_symmetry_group_IT_number 2
_symmetry_cell_setting 'triclinic'
loop_
_space_group_symop_operation_xyz
x,y,z
-x,-y,-z
loop_
_atom_site_type_symbol
_atom_site_label
_atom_site_fract_x
_atom_site_fract_y
_atom_site_fract_z
Si Si1 0.813031 0.054909 0.336655
Si Si2 0.274522 0.938222 0.288579
Si Si3 0.351730 0.661314 0.910027
Si Si4 0.992079 0.163149 0.854018
Si Si5 0.924272 0.841780 0.763537
Si Si6 0.915699 0.474697 0.843744
Si Si7 0.514771 0.398222 0.883593
O O1 0.704928 0.990819 0.513073
O O2 0.971269 0.129822 0.389417
O O3 0.919200 0.269419 0.233839
O O4 0.666523 0.825371 0.224146
O O5 0.142948 0.685364 0.298932
O O6 0.188731 0.947159 0.170509
O O7 0.480941 0.108389 0.215132
O O8 0.177394 0.433108 0.794743
O O9 0.272664 0.658118 0.076084
O O10 0.459999 0.669286 0.977040
O O11 0.005909 0.142588 0.057921
O O12 0.989346 0.041395 0.739745
O O13 0.699481 0.598820 0.748961
O O14 0.000000 0.500000 0.000000
O O15 0.500000 0.500000 0.000000
#
# Coordination Sequence:
#
# PCOD8007204 Si02
#       7
#     2   2   2   2   2   2   2
#     4  12  25  43  63 103 137 168 211 280 340 381
#     4  12  26  41  64 100 140 167 214 278 339 380
#     4  11  22  42  69  96 125 174 233 261 316 394
#     4  10  20  41  69  95 128 174 227 265 320 394
#     4  10  20  40  68  96 126 175 225 271 318 388
#     4  12  23  47  71  91 127 182 230 264 313 398
#     4  11  22  40  72  97 129 173 229 263 317 402
#
# _framework density 22.48349
#
# number of rings (size 3 to 8) (size 9 to 14) (size 15 to 20)
#    0.000    0.857    4.286    6.000    0.000    1.714 
#    0.000    6.429    0.000    0.000    0.000    0.000 
#    0.000    0.000    0.000    0.000    0.000    0.000 
#
# Total GULP energy -173476.463267 kJ/mol
# GULP energy per Si atom -12391.175948 kJ/mol
# Density = 2.243232 g / cm^3
# Si number density = 22.483490 Si / 1000 Ang^3
#
#
#
# Elastic Constant Matrix: (Units=GPa)
#
#
# Indices 1 2 3 4 5 6 
#
# 1 100.5492 37.4152 27.3909 2.8411 -14.7915 0.4822
# 2 37.4152 134.9600 46.0571 20.6701 -8.9811 3.0599
# 3 27.3909 46.0571 76.3487 4.4218 -19.8709 3.3014
# 4 2.8411 20.6701 4.4218 28.2754 -4.1905 -12.4152
# 5 -14.7915 -8.9811 -19.8709 -4.1905 26.9754 1.9220
# 6 0.4822 3.0599 3.3014 -12.4152 1.9220 43.4846
#
#
#
# Elastic Compliance Matrix: (Units=1/GPa)
#
#
# Indices 1 2 3 4 5 6 
#
# 1 0.012061 -0.002838 -0.001497 0.002058 0.004846 0.000553
# 2 -0.002838 0.011492 -0.006191 -0.008838 -0.003472 -0.002677
# 3 -0.001497 -0.006191 0.020559 0.002997 0.012786 -0.000818
# 4 0.002058 -0.008838 0.002997 0.048253 0.006903 0.013843
# 5 0.004846 -0.003472 0.012786 0.006903 0.049133 -0.000981
# 6 0.000553 -0.002677 -0.000818 0.013843 -0.000981 0.027237
#
#
# Mechanical properties :
#
#
# Convention : Reuss Voigt Hill
#
# Bulk Modulus (GPa) = 43.36238 59.28713 51.32475
# Shear Modulus (GPa) = 25.31979 33.14673 29.23326
#
# Velocity S-wave (km/s) = 3.35946 3.84379 3.60975
# Velocity P-wave (km/s) = 5.86312 6.79161 6.34437
#
# Compressibility (1/GPa) = 0.02306146
#
# Stress axis : x y z
#
# Youngs Moduli (GPa) = 82.90921 87.01476 48.64077
#
# Poissons Ratio (x) = 0.24697 0.07280
# Poissons Ratio (y) = 0.23532 0.30111
# Poissons Ratio (z) = 0.12409 0.53867
#
# Static dielectric constant tensor:
#      x y z
#    x 4.408810 0.043050 -0.350460 
#    y 0.043050 4.453450 0.020630 
#    z -0.350460 0.020630 3.695620 
# 
# 
# High freq. dielectric constant tensor:
#      x y z
#    x 1.898760 -0.001090 -0.027520 
#    y -0.001090 1.904350 0.002530 
#    z -0.027520 0.002530 1.851460 
# 
# From -- ./inp_files/307974.got.cif
#   From: 2010.06.25/outbox.cif.g09.slc.cpg/sg2_154_cif.got.tgz:307974.got - 2010.06.27 13:26:56.
