data_PCOD8007210
_publ_section_title
;
Structure prediction by ZEFSAII (Michael W. Deem and Ramdas Pophale) SiO2 
 PCOD8007210
Probable space group: P -1
;
_chemical_formula_sum "Si O2"
_cell_formula_units_Z 14
_cell_length_a 15.768254
_cell_length_b 12.952272
_cell_length_c 22.019421
_cell_angle_alpha 161.041703
_cell_angle_beta 152.905094
_cell_angle_gamma 29.061024
_cell_volume 649.560002
_symmetry_space_group_name_H-M "P -1"
_symmetry_group_IT_number 2
_symmetry_cell_setting 'triclinic'
loop_
_space_group_symop_operation_xyz
x,y,z
-x,-y,-z
loop_
_atom_site_type_symbol
_atom_site_label
_atom_site_fract_x
_atom_site_fract_y
_atom_site_fract_z
Si Si1 0.183456 0.352588 0.133978
Si Si2 0.683970 0.390724 0.979064
Si Si3 0.379268 0.112861 0.427021
Si Si4 0.897388 0.828428 0.287499
Si Si5 0.541125 0.231529 0.209399
Si Si6 0.023194 0.772014 0.712506
Si Si7 0.689209 0.158853 0.978296
O O1 0.350060 0.374550 0.205467
O O2 0.045943 0.701491 0.256277
O O3 0.270661 0.210364 0.175936
O O4 0.061736 0.101247 0.887778
O O5 0.537404 0.704154 0.086999
O O6 0.562785 0.172473 0.743839
O O7 0.840642 0.513302 0.106748
O O8 0.775146 0.171511 0.972647
O O9 0.403267 0.460848 0.614336
O O10 0.158936 0.130085 0.307217
O O11 0.500000 0.000000 0.500000
O O12 0.709564 0.055889 0.264275
O O13 0.000000 0.000000 0.500000
O O14 0.500000 0.000000 0.000000
O O15 0.000000 0.500000 0.500000
O O16 0.202861 0.628334 0.790592
#
# Coordination Sequence:
#
# PCOD8007210 Si02
#       7
#     2   2   2   2   2   2   2
#     4  10  24  46  70 101 149 183 236 296 361 419
#     4  11  21  45  67 103 141 183 239 288 351 422
#     4  12  26  43  73  98 136 186 236 292 354 419
#     4  12  27  45  74 106 148 188 241 295 362 426
#     4  12  28  49  71 106 149 187 237 302 364 424
#     4  10  20  40  68  96 133 176 236 284 346 414
#     4   9  22  38  73  97 140 184 230 294 345 425
#
# _framework density 21.553049999999999
#
# number of rings (size 3 to 8) (size 9 to 14) (size 15 to 20)
#    0.857    0.286    2.857    2.571    4.000    4.571 
#    2.571    0.000    0.000    0.000    0.000    0.000 
#    0.000    0.000    0.000    0.000    0.000    0.000 
#
# Total GULP energy -173480.500310 kJ/mol
# GULP energy per Si atom -12391.464308 kJ/mol
# Density = 2.150399 g / cm^3
# Si number density = 21.553050 Si / 1000 Ang^3
#
#
#
# Elastic Constant Matrix: (Units=GPa)
#
#
# Indices 1 2 3 4 5 6 
#
# 1 74.8686 40.6261 9.4691 -12.3636 -12.6564 -7.3089
# 2 40.6261 61.5335 26.6718 -10.0620 -0.3878 -2.3926
# 3 9.4691 26.6718 113.3570 -13.5763 -20.0575 7.4402
# 4 -12.3636 -10.0620 -13.5763 30.9654 1.6479 -4.2796
# 5 -12.6564 -0.3878 -20.0575 1.6479 36.2339 -2.9603
# 6 -7.3089 -2.3926 7.4402 -4.2796 -2.9603 48.0412
#
#
#
# Elastic Compliance Matrix: (Units=1/GPa)
#
#
# Indices 1 2 3 4 5 6 
#
# 1 0.025690 -0.017673 0.004543 0.006401 0.011301 0.003591
# 2 -0.017673 0.031151 -0.007577 0.000203 -0.010090 -0.000568
# 3 0.004543 -0.007577 0.012187 0.004171 0.008005 -0.000709
# 4 0.006401 0.000203 0.004171 0.037106 0.003173 0.003839
# 5 0.011301 -0.010090 0.008005 0.003173 0.035927 0.002474
# 6 0.003591 -0.000568 -0.000709 0.003839 0.002474 0.021938
#
#
# Mechanical properties :
#
#
# Convention : Reuss Voigt Hill
#
# Bulk Modulus (GPa) = 36.21252 44.81035 40.51144
# Shear Modulus (GPa) = 23.29711 34.58090 28.93901
#
# Velocity S-wave (km/s) = 3.29130 4.00991 3.66825
# Velocity P-wave (km/s) = 5.59300 6.50193 6.06451
#
# Compressibility (1/GPa) = 0.02761476
#
# Stress axis : x y z
#
# Youngs Moduli (GPa) = 38.92526 32.10148 82.05172
#
# Poissons Ratio (x) = 0.56733 -0.37275
# Poissons Ratio (y) = 0.68792 0.62171
# Poissons Ratio (z) = -0.17683 0.24323
#
# Static dielectric constant tensor:
#      x y z
#    x 4.385450 -0.275080 -0.217880 
#    y -0.275080 3.993120 0.034700 
#    z -0.217880 0.034700 3.884420 
# 
# 
# High freq. dielectric constant tensor:
#      x y z
#    x 1.854610 -0.006950 -0.000960 
#    y -0.006950 1.847340 -0.005630 
#    z -0.000960 -0.005630 1.840820 
# 
# From -- ./inp_files/598073.got.cif
#   From: 2010.06.25/outbox.cif.g09.slc.cpg/sg2_300_cif.got.tgz:598073.got - 2010.06.27 13:26:56.
