data_PCOD8007517
_publ_section_title
;
Structure prediction by ZEFSAII (Michael W. Deem and Ramdas Pophale) SiO2 
 PCOD8007517
Probable space group: P -1
;
_chemical_formula_sum "Si O2"
_cell_formula_units_Z 16
_cell_length_a 19.285809
_cell_length_b 12.092274
_cell_length_c 8.796688
_cell_angle_alpha 126.839548
_cell_angle_beta 149.277248
_cell_angle_gamma 45.022505
_cell_volume 741.199951
_symmetry_space_group_name_H-M "P -1"
_symmetry_group_IT_number 2
_symmetry_cell_setting 'triclinic'
loop_
_space_group_symop_operation_xyz
x,y,z
-x,-y,-z
loop_
_atom_site_type_symbol
_atom_site_label
_atom_site_fract_x
_atom_site_fract_y
_atom_site_fract_z
Si Si1 0.219378 0.673966 0.311034
Si Si2 0.349817 0.059428 0.472404
Si Si3 0.122360 0.411302 0.843840
Si Si4 0.213958 0.377778 0.653787
Si Si5 0.550723 0.492337 0.762963
Si Si6 0.065676 0.976440 0.438069
Si Si7 0.699337 0.912111 0.948928
Si Si8 0.228060 0.834411 0.148072
O O1 0.391096 0.572994 0.621816
O O2 0.218888 0.775532 0.249403
O O3 0.116063 0.796276 0.344207
O O4 0.150718 0.559904 0.042570
O O5 0.260418 0.234192 0.509793
O O6 0.305695 0.051922 0.208935
O O7 0.532299 0.989107 0.774385
O O8 0.293992 0.957249 0.383462
O O9 0.177403 0.337394 0.719599
O O10 0.940128 0.472271 0.573360
O O11 0.216747 0.275756 0.030285
O O12 0.355692 0.413756 0.955464
O O13 0.500000 0.500000 0.500000
O O14 0.655067 0.311465 0.856505
O O15 0.208584 0.012483 0.728016
O O16 0.000000 0.000000 0.500000
O O17 0.940249 0.091748 0.179261
#
# Coordination Sequence:
#
# PCOD8007517 Si02
#       8
#     2   2   2   2   2   2   2   2
#     4  11  24  43  68  99 126 168 216 267 321 379
#     4  11  25  44  65  94 132 173 215 261 319 381
#     4  11  24  42  66  97 131 164 215 267 322 379
#     4  11  23  41  65  99 125 166 215 265 321 374
#     4  10  20  41  64  94 129 160 211 267 316 374
#     4  12  25  45  65  96 133 171 216 259 323 384
#     4  11  26  45  63  94 134 174 214 260 318 390
#     4  11  22  43  69  94 130 167 213 270 318 375
#
# _framework density 21.586617
#
# number of rings (size 3 to 8) (size 9 to 14) (size 15 to 20)
#    0.000    1.000    3.750    3.375    5.250    1.000 
#    2.250    0.625    0.000    0.000    0.000    0.000 
#    0.000    0.000    0.000    0.000    0.000    0.000 
#
# Total GULP energy -198449.959601 kJ/mol
# GULP energy per Si atom -12403.122475 kJ/mol
# Density = 2.153748 g / cm^3
# Si number density = 21.586617 Si / 1000 Ang^3
#
#
#
# Elastic Constant Matrix: (Units=GPa)
#
#
# Indices 1 2 3 4 5 6 
#
# 1 53.3243 18.6730 23.8733 3.1406 3.1550 -9.7510
# 2 18.6730 102.4771 29.9458 -6.4941 -4.0214 -18.2288
# 3 23.8733 29.9458 115.1023 -3.7421 28.0104 -10.6307
# 4 3.1406 -6.4941 -3.7421 37.2859 -5.6131 7.0555
# 5 3.1550 -4.0214 28.0104 -5.6131 19.2987 4.6112
# 6 -9.7510 -18.2288 -10.6307 7.0555 4.6112 36.5201
#
#
#
# Elastic Compliance Matrix: (Units=1/GPa)
#
#
# Indices 1 2 3 4 5 6 
#
# 1 0.022283 -0.002599 -0.003214 -0.003798 -0.001740 0.004670
# 2 -0.002599 0.012749 -0.005132 0.003155 0.010926 0.002187
# 3 -0.003214 -0.005132 0.018569 -0.004614 -0.030443 0.006721
# 4 -0.003798 0.003155 -0.004614 0.031947 0.019518 -0.009418
# 5 -0.001740 0.010926 -0.030443 0.019518 0.109365 -0.021452
# 6 0.004670 0.002187 0.006721 -0.009418 -0.021452 0.036205
#
#
# Mechanical properties :
#
#
# Convention : Reuss Voigt Hill
#
# Bulk Modulus (GPa) = 31.53596 46.20978 38.87287
# Shear Modulus (GPa) = 18.96963 31.84837 25.40900
#
# Velocity S-wave (km/s) = 2.96762 3.84523 3.43457
# Velocity P-wave (km/s) = 5.13645 6.41619 5.81165
#
# Compressibility (1/GPa) = 0.03170984
#
# Stress axis : x y z
#
# Youngs Moduli (GPa) = 44.87730 78.43587 53.85389
#
# Poissons Ratio (x) = 0.20388 0.17310
# Poissons Ratio (y) = 0.11665 0.27638
# Poissons Ratio (z) = 0.14425 0.40253
#
# Static dielectric constant tensor:
#      x y z
#    x 3.832050 -0.385490 0.348090 
#    y -0.385490 4.508090 -0.342010 
#    z 0.348090 -0.342010 4.303660 
# 
# 
# High freq. dielectric constant tensor:
#      x y z
#    x 1.829230 -0.011740 0.020250 
#    y -0.011740 1.861420 -0.005130 
#    z 0.020250 -0.005130 1.863230 
# 
# From -- ./inp_files/346415.got.cif
#   From: 2010.06.25/outbox.cif.g09.slc.cpg/sg2_174_cif.got.tgz:346415.got - 2010.06.27 13:26:56.
