data_PCOD8007567
_publ_section_title
;
Structure prediction by ZEFSAII (Michael W. Deem and Ramdas Pophale) SiO2 
 PCOD8007567
Probable space group: P -1
;
_chemical_formula_sum "Si O2"
_cell_formula_units_Z 16
_cell_length_a 8.142955
_cell_length_b 19.639267
_cell_length_c 16.527619
_cell_angle_alpha 31.952602
_cell_angle_beta 33.976944
_cell_angle_gamma 44.897613
_cell_volume 781.624600
_symmetry_space_group_name_H-M "P -1"
_symmetry_group_IT_number 2
_symmetry_cell_setting 'triclinic'
loop_
_space_group_symop_operation_xyz
x,y,z
-x,-y,-z
loop_
_atom_site_type_symbol
_atom_site_label
_atom_site_fract_x
_atom_site_fract_y
_atom_site_fract_z
Si Si1 0.416055 0.401993 0.749957
Si Si2 0.860253 0.478517 0.991896
Si Si3 0.563266 0.734950 0.608280
Si Si4 0.723054 0.919858 0.128972
Si Si5 0.504337 0.668708 0.390438
Si Si6 0.183654 0.895215 0.484345
Si Si7 0.115727 0.265850 0.367315
Si Si8 0.881761 0.187273 0.795186
O O1 0.549223 0.547793 0.556704
O O2 0.363750 0.372353 0.707319
O O3 0.630689 0.293433 0.808924
O O4 0.100725 0.394008 0.929245
O O5 0.775332 0.610149 0.849409
O O6 0.544683 0.411148 0.193801
O O7 0.000000 0.500000 0.000000
O O8 0.289916 0.802887 0.606561
O O9 0.633356 0.786189 0.619676
O O10 0.853324 0.742707 0.427764
O O11 0.652986 0.801672 0.218772
O O12 0.467342 0.949305 0.268977
O O13 0.022135 0.871940 0.098361
O O14 0.770723 0.057159 0.924188
O O15 0.155922 0.696772 0.500237
O O16 0.972612 0.834709 0.563938
O O17 0.000000 0.000000 0.500000
#
# Coordination Sequence:
#
# PCOD8007567 Si02
#       8
#     2   2   2   2   2   2   2   2
#     4  10  21  37  65  91 119 157 213 256 301 382
#     4  11  23  41  63  92 129 167 201 254 332 376
#     4  11  22  41  65  90 126 166 207 262 316 369
#     4   9  21  39  61  87 127 164 202 261 316 366
#     4   9  19  40  60  91 122 158 204 262 315 356
#     4  10  22  39  63  89 131 170 207 256 312 376
#     4  10  20  41  65  91 126 166 207 259 314 373
#     4  10  21  39  62  93 119 163 213 254 308 373
#
# _framework density 20.470186000000002
#
# number of rings (size 3 to 8) (size 9 to 14) (size 15 to 20)
#    0.000    2.000    2.500    0.375    3.500    1.500 
#    0.000    3.750    0.000    0.000    0.000    0.000 
#    0.000    0.000    0.000    0.000    0.000    0.000 
#
# Total GULP energy -198238.749913 kJ/mol
# GULP energy per Si atom -12389.921870 kJ/mol
# Density = 2.042360 g / cm^3
# Si number density = 20.470186 Si / 1000 Ang^3
#
#
#
# Elastic Constant Matrix: (Units=GPa)
#
#
# Indices 1 2 3 4 5 6 
#
# 1 106.5783 13.2284 17.7055 0.0474 -1.6943 9.6307
# 2 13.2284 90.8505 33.9300 1.0296 -2.1011 13.8367
# 3 17.7055 33.9300 121.8376 -5.0981 -16.8519 12.6022
# 4 0.0474 1.0296 -5.0981 16.6481 10.5490 1.9586
# 5 -1.6943 -2.1011 -16.8519 10.5490 26.1727 -2.5984
# 6 9.6307 13.8367 12.6022 1.9586 -2.5984 24.9256
#
#
#
# Elastic Compliance Matrix: (Units=1/GPa)
#
#
# Indices 1 2 3 4 5 6 
#
# 1 0.009894 -0.000616 -0.001005 0.000389 -0.000516 -0.003057
# 2 -0.000616 0.013108 -0.003205 -0.000160 -0.001539 -0.005566
# 3 -0.001005 -0.003205 0.010341 -0.000289 0.006215 -0.002390
# 4 0.000389 -0.000160 -0.000289 0.083151 -0.034688 -0.010065
# 5 -0.000516 -0.001539 0.006215 -0.034688 0.056683 0.006546
# 6 -0.003057 -0.005566 -0.002390 -0.010065 0.006546 0.047072
#
#
# Mechanical properties :
#
#
# Convention : Reuss Voigt Hill
#
# Bulk Modulus (GPa) = 42.21022 49.88826 46.04924
# Shear Modulus (GPa) = 21.02631 30.50947 25.76789
#
# Velocity S-wave (km/s) = 3.20842 3.86480 3.55181
# Velocity P-wave (km/s) = 5.86433 6.65881 6.27416
#
# Compressibility (1/GPa) = 0.02369094
#
# Stress axis : x y z
#
# Youngs Moduli (GPa) = 101.07051 76.29212 96.70286
#
# Poissons Ratio (x) = 0.04699 0.09721
# Poissons Ratio (y) = 0.06226 0.30989
# Poissons Ratio (z) = 0.10160 0.24449
#
# Static dielectric constant tensor:
#      x y z
#    x 3.863580 -0.106690 0.133170 
#    y -0.106690 3.627030 -0.339340 
#    z 0.133170 -0.339340 4.294860 
# 
# 
# High freq. dielectric constant tensor:
#      x y z
#    x 1.797270 -0.001380 0.002090 
#    y -0.001380 1.780970 -0.011600 
#    z 0.002090 -0.011600 1.812170 
# 
# From -- ./inp_files/218696.got.cif
#   From: 2010.06.25/outbox.cif.g09.slc.cpg/sg2_110_cif.got.tgz:218696.got - 2010.06.27 13:26:56.
