data_PCOD8007658
_publ_section_title
;
Structure prediction by ZEFSAII (Michael W. Deem and Ramdas Pophale) SiO2 
 PCOD8007658
Probable space group: P -1
;
_chemical_formula_sum "Si O2"
_cell_formula_units_Z 14
_cell_length_a 10.647041
_cell_length_b 11.724621
_cell_length_c 6.911752
_cell_angle_alpha 74.357645
_cell_angle_beta 86.009955
_cell_angle_gamma 49.877522
_cell_volume 628.939324
_symmetry_space_group_name_H-M "P -1"
_symmetry_group_IT_number 2
_symmetry_cell_setting 'triclinic'
loop_
_space_group_symop_operation_xyz
x,y,z
-x,-y,-z
loop_
_atom_site_type_symbol
_atom_site_label
_atom_site_fract_x
_atom_site_fract_y
_atom_site_fract_z
Si Si1 0.314618 0.205538 0.616472
Si Si2 0.403542 0.665301 0.029389
Si Si3 0.922785 0.920039 0.550482
Si Si4 0.963651 0.339997 0.610769
Si Si5 0.321805 0.417079 0.743676
Si Si6 0.580859 0.112922 0.335664
Si Si7 0.879630 0.324228 0.034994
O O1 0.345318 0.260782 0.787005
O O2 0.406964 0.209801 0.422532
O O3 0.116302 0.331325 0.531111
O O4 0.380716 0.031535 0.720919
O O5 0.422275 0.775167 0.859014
O O6 0.500000 0.500000 0.000000
O O7 0.493076 0.636561 0.241214
O O8 0.216131 0.731308 0.023900
O O9 0.992024 0.818066 0.394854
O O10 0.723578 0.046598 0.511554
O O11 0.000000 0.000000 0.500000
O O12 0.975372 0.814677 0.782237
O O13 0.782876 0.482781 0.480414
O O14 0.959311 0.347048 0.839999
O O15 0.230038 0.514209 0.905775
#
# Coordination Sequence:
#
# PCOD8007658 Si02
#       7
#     2   2   2   2   2   2   2
#     4  10  23  44  63  92 129 175 213 257 318 376
#     4  10  22  41  64  98 126 164 212 263 324 374
#     4  10  20  41  66  95 128 169 211 259 327 376
#     4  10  23  42  64  96 130 165 215 264 313 379
#     4  10  23  41  65  95 124 172 213 256 323 375
#     4  10  22  44  67  89 137 165 208 273 308 383
#     4  10  22  42  66  97 128 164 212 272 318 372
#
# _framework density 22.259699999999999
#
# number of rings (size 3 to 8) (size 9 to 14) (size 15 to 20)
#    0.000    2.000    1.429    0.429    4.000    3.429 
#   15.429    0.000    0.000    0.000    0.000    0.000 
#    0.000    0.000    0.000    0.000    0.000    0.000 
#
# Total GULP energy -173467.844629 kJ/mol
# GULP energy per Si atom -12390.560331 kJ/mol
# Density = 2.220904 g / cm^3
# Si number density = 22.259700 Si / 1000 Ang^3
#
#
#
# Elastic Constant Matrix: (Units=GPa)
#
#
# Indices 1 2 3 4 5 6 
#
# 1 128.0296 54.4453 41.9163 5.6143 15.2665 11.9253
# 2 54.4453 91.0273 43.4239 1.2657 8.8879 11.8052
# 3 41.9163 43.4239 105.0533 5.7084 8.2825 -8.2928
# 4 5.6143 1.2657 5.7084 28.5950 1.7773 9.2538
# 5 15.2665 8.8879 8.2825 1.7773 40.5928 5.2371
# 6 11.9253 11.8052 -8.2928 9.2538 5.2371 35.9091
#
#
#
# Elastic Compliance Matrix: (Units=1/GPa)
#
#
# Indices 1 2 3 4 5 6 
#
# 1 0.011246 -0.005118 -0.002312 -0.000707 -0.002340 -0.002063
# 2 -0.005118 0.017668 -0.005948 0.003475 -0.000060 -0.006369
# 3 -0.002312 -0.005948 0.013813 -0.004291 -0.001390 0.007221
# 4 -0.000707 0.003475 -0.004291 0.039738 0.000211 -0.012170
# 5 -0.002340 -0.000060 -0.001390 0.000211 0.026242 -0.003406
# 6 -0.002063 -0.006369 0.007221 -0.012170 -0.003406 0.035927
#
#
# Mechanical properties :
#
#
# Convention : Reuss Voigt Hill
#
# Bulk Modulus (GPa) = 62.60977 67.07570 64.84273
# Shear Modulus (GPa) = 28.29453 33.30769 30.80111
#
# Velocity S-wave (km/s) = 3.56913 3.87243 3.72387
# Velocity P-wave (km/s) = 6.72108 7.08470 6.90528
#
# Compressibility (1/GPa) = 0.01597195
#
# Stress axis : x y z
#
# Youngs Moduli (GPa) = 88.91949 56.60019 72.39756
#
# Poissons Ratio (x) = 0.28968 0.16735
# Poissons Ratio (y) = 0.45509 0.43060
# Poissons Ratio (z) = 0.20554 0.33664
#
# Static dielectric constant tensor:
#      x y z
#    x 4.718330 0.040870 0.567300 
#    y 0.040870 4.327970 -0.002010 
#    z 0.567300 -0.002010 3.762580 
# 
# 
# High freq. dielectric constant tensor:
#      x y z
#    x 1.891280 0.008010 0.026450 
#    y 0.008010 1.889020 -0.002650 
#    z 0.026450 -0.002650 1.842980 
# 
# From -- ./inp_files/69812.got.cif
#   From: 2010.06.25/outbox.cif.g09.slc.cpg/sg2_35_cif.got.tgz:69812.got - 2010.06.27 13:26:56.
