data_PCOD8007796
_publ_section_title
;
Structure prediction by ZEFSAII (Michael W. Deem and Ramdas Pophale) SiO2 
 PCOD8007796
Probable space group: P -1
;
_chemical_formula_sum "Si O2"
_cell_formula_units_Z 10
_cell_length_a 9.282777
_cell_length_b 10.978963
_cell_length_c 8.505275
_cell_angle_alpha 42.921255
_cell_angle_beta 46.478864
_cell_angle_gamma 42.876737
_cell_volume 379.430300
_symmetry_space_group_name_H-M "P -1"
_symmetry_group_IT_number 2
_symmetry_cell_setting 'triclinic'
loop_
_space_group_symop_operation_xyz
x,y,z
-x,-y,-z
loop_
_atom_site_type_symbol
_atom_site_label
_atom_site_fract_x
_atom_site_fract_y
_atom_site_fract_z
Si Si1 0.111346 0.366442 0.266267
Si Si2 0.184887 0.768584 0.552471
Si Si3 0.257053 0.044847 0.702015
Si Si4 0.281149 0.655832 0.924976
Si Si5 0.439462 0.887087 0.019483
O O1 0.085305 0.250223 0.550020
O O2 0.928849 0.376040 0.266829
O O3 0.088058 0.581673 0.137675
O O4 0.355070 0.255902 0.107916
O O5 0.334257 0.685586 0.675447
O O6 0.344150 0.751012 0.304257
O O7 0.000000 0.000000 0.500000
O O8 0.500000 0.000000 0.500000
O O9 0.185650 0.870983 0.878297
O O10 0.255598 0.056565 0.882079
O O11 0.500000 0.500000 0.000000
O O12 0.500000 0.000000 0.000000
#
# Coordination Sequence:
#
# PCOD8007796 Si02
#       5
#     2   2   2   2   2
#     4  11  24  45  70  98 138 174 223 280 331 397
#     4  12  24  44  68 101 138 175 224 279 331 396
#     4  10  20  41  68  97 131 177 218 272 332 396
#     4  12  23  43  72  96 137 181 220 277 338 393
#     4  11  22  39  72 100 131 183 220 271 343 397
#
# _framework density 26.355302999999999
#
# number of rings (size 3 to 8) (size 9 to 14) (size 15 to 20)
#    0.000    0.800    8.000    1.800    0.000    1.600 
#    0.000    1.000    0.000    0.000    0.000    0.000 
#    0.000    0.000    0.000    0.000    0.000    0.000 
#
# Total GULP energy -123975.973841 kJ/mol
# GULP energy per Si atom -12397.597384 kJ/mol
# Density = 2.629532 g / cm^3
# Si number density = 26.355303 Si / 1000 Ang^3
#
#
#
# Elastic Constant Matrix: (Units=GPa)
#
#
# Indices 1 2 3 4 5 6 
#
# 1 192.8107 32.0885 75.1653 -5.3979 16.2666 32.4686
# 2 32.0885 46.6706 37.4625 -12.8352 -2.1920 16.1709
# 3 75.1653 37.4625 162.2160 -11.4236 17.1496 20.7604
# 4 -5.3979 -12.8352 -11.4236 32.5112 14.6456 -10.7634
# 5 16.2666 -2.1920 17.1496 14.6456 77.2816 -13.4084
# 6 32.4686 16.1709 20.7604 -10.7634 -13.4084 41.1822
#
#
#
# Elastic Compliance Matrix: (Units=1/GPa)
#
#
# Indices 1 2 3 4 5 6 
#
# 1 0.007284 -0.002000 -0.002214 -0.001148 -0.001695 -0.004693
# 2 -0.002000 0.031093 -0.004861 0.008334 -0.000254 -0.006086
# 3 -0.002214 -0.004861 0.008766 0.001365 -0.002063 -0.001079
# 4 -0.001148 0.008334 0.001365 0.038852 -0.006313 0.005043
# 5 -0.001695 -0.000254 -0.002063 -0.006313 0.015990 0.006032
# 6 -0.004693 -0.006086 -0.001079 0.005043 0.006032 0.034198
#
#
# Mechanical properties :
#
#
# Convention : Reuss Voigt Hill
#
# Bulk Modulus (GPa) = 34.49295 76.79223 55.64259
# Shear Modulus (GPa) = 30.48843 47.32706 38.90775
#
# Velocity S-wave (km/s) = 3.40490 4.24221 3.84640
# Velocity P-wave (km/s) = 5.34545 7.29353 6.39412
#
# Compressibility (1/GPa) = 0.02899143
#
# Stress axis : x y z
#
# Youngs Moduli (GPa) = 137.29526 32.16162 114.08199
#
# Poissons Ratio (x) = 0.06432 0.25260
# Poissons Ratio (y) = 0.27457 0.55459
# Poissons Ratio (z) = 0.30399 0.15635
#
# Static dielectric constant tensor:
#      x y z
#    x 5.698740 0.964450 0.331700 
#    y 0.964450 5.738470 0.100190 
#    z 0.331700 0.100190 5.633040 
# 
# 
# High freq. dielectric constant tensor:
#      x y z
#    x 2.082190 0.013230 0.009920 
#    y 0.013230 2.012830 -0.011630 
#    z 0.009920 -0.011630 2.079870 
# 
# From -- ./inp_files/153597.got.cif
#   From: 2010.06.25/outbox.cif.g09.slc.cpg/sg2_77_cif.got.tgz:153597.got - 2010.06.27 13:26:56.
