data_PCOD8007615
_publ_section_title
;
Structure prediction by ZEFSAII (Michael W. Deem and Ramdas Pophale) SiO2 
 PCOD8007615
Probable space group: P -1
;
_chemical_formula_sum "Si O2"
_cell_formula_units_Z 16
_cell_length_a 8.835832
_cell_length_b 11.018338
_cell_length_c 8.865419
_cell_angle_alpha 90.233571
_cell_angle_beta 67.134496
_cell_angle_gamma 78.521962
_cell_volume 776.202509
_symmetry_space_group_name_H-M "P -1"
_symmetry_group_IT_number 2
_symmetry_cell_setting 'triclinic'
loop_
_space_group_symop_operation_xyz
x,y,z
-x,-y,-z
loop_
_atom_site_type_symbol
_atom_site_label
_atom_site_fract_x
_atom_site_fract_y
_atom_site_fract_z
Si Si1 0.252074 0.954055 0.645876
Si Si2 0.284660 0.248124 0.936597
Si Si3 0.719349 0.251311 0.125970
Si Si4 0.455906 0.957888 0.297299
Si Si5 0.177604 0.494792 0.847815
Si Si6 0.984977 0.805172 0.194918
Si Si7 0.894850 0.603203 0.432539
Si Si8 0.653944 0.769021 0.757672
O O1 0.226531 0.837304 0.751451
O O2 0.389724 0.021314 0.662429
O O3 0.318956 0.908582 0.452821
O O4 0.080626 0.059840 0.703096
O O5 0.312581 0.379402 0.864687
O O6 0.130956 0.213157 0.903531
O O7 0.461879 0.147647 0.854987
O O8 0.237857 0.265185 0.131859
O O9 0.753032 0.383999 0.152383
O O10 0.526955 0.264145 0.155740
O O11 0.829761 0.194827 0.938545
O O12 0.362001 0.084388 0.256029
O O13 0.173428 0.474549 0.670382
O O14 0.000000 0.500000 0.000000
O O15 0.999052 0.695104 0.312228
O O16 0.743945 0.691476 0.581418
O O17 0.000000 0.500000 0.500000
#
# Coordination Sequence:
#
# PCOD8007615 Si02
#       8
#     2   2   2   2   2   2   2   2
#     4   9  18  35  62  92 121 158 204 253 300 357
#     4  10  21  37  67  85 122 169 202 240 303 374
#     4  11  23  37  64  93 126 153 206 258 304 352
#     4   9  18  36  61  91 123 158 202 250 305 359
#     4  11  22  42  62  86 120 167 206 239 306 376
#     4  10  20  41  66  89 121 167 206 239 307 373
#     4  11  23  40  67  89 119 165 206 246 300 372
#     4  11  23  39  63  96 123 155 207 258 300 352
#
# _framework density 20.613178000000001
#
# number of rings (size 3 to 8) (size 9 to 14) (size 15 to 20)
#    0.000    1.750    3.750    1.500    5.250    1.000 
#    0.000    0.000    0.000    2.250    0.000    0.000 
#    0.000    0.000    0.000    0.000    0.000    0.000 
#
# Total GULP energy -198360.469148 kJ/mol
# GULP energy per Si atom -12397.529322 kJ/mol
# Density = 2.056626 g / cm^3
# Si number density = 20.613178 Si / 1000 Ang^3
#
#
#
# Elastic Constant Matrix: (Units=GPa)
#
#
# Indices 1 2 3 4 5 6 
#
# 1 41.8242 36.2601 40.8962 -11.7859 -10.1694 -7.1718
# 2 36.2601 126.2584 39.6377 -4.3198 -8.1738 -10.2614
# 3 40.8962 39.6377 140.7901 -3.7274 -9.1847 -7.2817
# 4 -11.7859 -4.3198 -3.7274 38.2719 -0.1288 0.0305
# 5 -10.1694 -8.1738 -9.1847 -0.1288 33.0867 -6.7287
# 6 -7.1718 -10.2614 -7.2817 0.0305 -6.7287 27.6081
#
#
#
# Elastic Compliance Matrix: (Units=1/GPa)
#
#
# Indices 1 2 3 4 5 6 
#
# 1 0.050663 -0.009185 -0.010437 0.013583 0.012497 0.010025
# 2 -0.009185 0.010727 -0.000314 -0.001649 0.000045 0.001531
# 3 -0.010437 -0.000314 0.010112 -0.002266 -0.000547 -0.000292
# 4 0.013583 -0.001649 -0.002266 0.029915 0.003913 0.003238
# 5 0.012497 0.000045 -0.000547 0.003913 0.036376 0.011980
# 6 0.010025 0.001531 -0.000292 0.003238 0.011980 0.042234
#
#
# Mechanical properties :
#
#
# Convention : Reuss Voigt Hill
#
# Bulk Modulus (GPa) = 31.61419 60.27342 45.94381
# Shear Modulus (GPa) = 21.69730 32.59860 27.14795
#
# Velocity S-wave (km/s) = 3.24789 3.98105 3.63301
# Velocity P-wave (km/s) = 5.42542 7.10179 6.31944
#
# Compressibility (1/GPa) = 0.03163136
#
# Stress axis : x y z
#
# Youngs Moduli (GPa) = 19.73813 93.21862 98.89071
#
# Poissons Ratio (x) = 0.85619 1.03215
# Poissons Ratio (y) = 0.18129 0.03103
# Poissons Ratio (z) = 0.20601 0.02925
#
# Static dielectric constant tensor:
#      x y z
#    x 3.322350 -0.160740 -0.158420 
#    y -0.160740 4.042160 0.131300 
#    z -0.158420 0.131300 4.058630 
# 
# 
# High freq. dielectric constant tensor:
#      x y z
#    x 1.761470 -0.014040 -0.006410 
#    y -0.014040 1.823460 0.002930 
#    z -0.006410 0.002930 1.822910 
# 
# From -- ./inp_files/187408.got.cif
#   From: 2010.06.25/outbox.cif.g09.slc.cpg/sg2_94_cif.got.tgz:187408.got - 2010.06.27 13:26:56.
