data_PCOD8007687
_publ_section_title
;
Structure prediction by ZEFSAII (Michael W. Deem and Ramdas Pophale) SiO2 
 PCOD8007687
Probable space group: P -1
;
_chemical_formula_sum "Si O2"
_cell_formula_units_Z 16
_cell_length_a 7.218025
_cell_length_b 14.498179
_cell_length_c 11.141069
_cell_angle_alpha 124.478822
_cell_angle_beta 50.677575
_cell_angle_gamma 127.418653
_cell_volume 684.516207
_symmetry_space_group_name_H-M "P -1"
_symmetry_group_IT_number 2
_symmetry_cell_setting 'triclinic'
loop_
_space_group_symop_operation_xyz
x,y,z
-x,-y,-z
loop_
_atom_site_type_symbol
_atom_site_label
_atom_site_fract_x
_atom_site_fract_y
_atom_site_fract_z
Si Si1 0.033176 0.699424 0.694285
Si Si2 0.477496 0.317322 0.633156
Si Si3 0.805169 0.295402 0.126179
Si Si4 0.911073 0.176753 0.760226
Si Si5 0.637569 0.938708 0.813105
Si Si6 0.506976 0.545918 0.667817
Si Si7 0.411321 0.821470 0.315156
Si Si8 0.149225 0.932350 0.698992
O O1 0.271902 0.663174 0.534140
O O2 0.969335 0.653896 0.825986
O O3 0.123700 0.846134 0.760805
O O4 0.794688 0.639555 0.656075
O O5 0.422840 0.438659 0.723138
O O6 0.534906 0.288674 0.725551
O O7 0.209926 0.205223 0.620861
O O8 0.570442 0.196252 0.228756
O O9 0.705101 0.394593 0.188506
O O10 0.911911 0.238301 0.933637
O O11 0.773600 0.233502 0.763235
O O12 0.755529 0.029506 0.718230
O O13 0.865987 0.921907 0.777859
O O14 0.500000 0.000000 0.000000
O O15 0.500000 0.500000 0.500000
O O16 0.266281 0.880004 0.505600
O O17 0.677948 0.927564 0.239144
#
# Coordination Sequence:
#
# PCOD8007687 Si02
#       8
#     2   2   2   2   2   2   2   2
#     4  11  24  43  71  99 130 170 232 279 330 394
#     4  11  25  41  69  98 128 176 222 281 330 388
#     4  11  25  45  68 101 135 181 222 273 336 395
#     4  11  25  44  67 100 143 176 216 274 339 407
#     4  10  21  42  65  99 138 176 217 268 333 405
#     4  12  26  45  73  98 128 176 232 282 331 389
#     4  10  23  40  66 101 139 170 218 276 337 392
#     4  10  20  41  67 102 131 175 221 277 332 394
#
# _framework density 23.374174
#
# number of rings (size 3 to 8) (size 9 to 14) (size 15 to 20)
#    0.000    1.250    3.750    1.125    5.250    2.000 
#    0.000    3.750    0.000    0.000    0.000    0.000 
#    0.000    0.000    0.000    0.000    0.000    0.000 
#
# Total GULP energy -198297.271123 kJ/mol
# GULP energy per Si atom -12393.579445 kJ/mol
# Density = 2.332097 g / cm^3
# Si number density = 23.374174 Si / 1000 Ang^3
#
#
#
# Elastic Constant Matrix: (Units=GPa)
#
#
# Indices 1 2 3 4 5 6 
#
# 1 153.6667 36.0363 29.4020 -1.6482 17.9279 -23.6737
# 2 36.0363 94.5134 8.2400 -1.8305 -0.5930 -29.3417
# 3 29.4020 8.2400 28.2234 4.8188 7.3136 -1.8488
# 4 -1.6482 -1.8305 4.8188 21.5163 -3.3824 -7.2080
# 5 17.9279 -0.5930 7.3136 -3.3824 36.3793 3.1203
# 6 -23.6737 -29.3417 -1.8488 -7.2080 3.1203 47.2761
#
#
#
# Elastic Compliance Matrix: (Units=1/GPa)
#
#
# Indices 1 2 3 4 5 6 
#
# 1 0.009669 -0.001495 -0.009209 0.003652 -0.002968 0.004307
# 2 -0.001495 0.014204 -0.003209 0.004903 0.001331 0.008601
# 3 -0.009209 -0.003209 0.049806 -0.015339 -0.006390 -0.006572
# 4 0.003652 0.004903 -0.015339 0.055620 0.005472 0.012391
# 5 -0.002968 0.001331 -0.006390 0.005472 0.030947 -0.002118
# 6 0.004307 0.008601 -0.006572 0.012391 -0.002118 0.030419
#
#
# Mechanical properties :
#
#
# Convention : Reuss Voigt Hill
#
# Bulk Modulus (GPa) = 21.80798 47.08444 34.44621
# Shear Modulus (GPa) = 21.38818 34.54934 27.96876
#
# Velocity S-wave (km/s) = 3.02824 3.84878 3.46290
# Velocity P-wave (km/s) = 4.64512 6.31967 5.54596
#
# Compressibility (1/GPa) = 0.04585477
#
# Stress axis : x y z
#
# Youngs Moduli (GPa) = 103.42369 70.40420 20.07796
#
# Poissons Ratio (x) = 0.10523 0.18489
# Poissons Ratio (y) = 0.15458 0.06442
# Poissons Ratio (z) = 0.95240 0.22589
#
# Static dielectric constant tensor:
#      x y z
#    x 4.447780 -0.124140 -0.124400 
#    y -0.124140 4.645930 -0.170810 
#    z -0.124400 -0.170810 3.670010 
# 
# 
# High freq. dielectric constant tensor:
#      x y z
#    x 1.950620 -0.012890 -0.011520 
#    y -0.012890 1.924110 -0.007040 
#    z -0.011520 -0.007040 1.888310 
# 
# From -- ./inp_files/367913.got.cif
#   From: 2010.06.25/outbox.cif.g09.slc.cpg/sg2_184_cif.got.tgz:367913.got - 2010.06.27 13:26:56.
