data_PCOD8007843
_publ_section_title
;
Structure prediction by ZEFSAII (Michael W. Deem and Ramdas Pophale) SiO2 
 PCOD8007843
Probable space group: P -1
;
_chemical_formula_sum "Si O2"
_cell_formula_units_Z 14
_cell_length_a 11.939542
_cell_length_b 28.238620
_cell_length_c 16.301815
_cell_angle_alpha 164.288114
_cell_angle_beta 146.493480
_cell_angle_gamma 28.288353
_cell_volume 701.241703
_symmetry_space_group_name_H-M "P -1"
_symmetry_group_IT_number 2
_symmetry_cell_setting 'triclinic'
loop_
_space_group_symop_operation_xyz
x,y,z
-x,-y,-z
loop_
_atom_site_type_symbol
_atom_site_label
_atom_site_fract_x
_atom_site_fract_y
_atom_site_fract_z
Si Si1 0.935950 0.339912 0.977479
Si Si2 0.375321 0.093228 0.739081
Si Si3 0.348554 0.474551 0.296312
Si Si4 0.050919 0.931362 0.598847
Si Si5 0.379030 0.555631 0.268053
Si Si6 0.185809 0.332526 0.675970
Si Si7 0.887391 0.368621 0.186838
O O1 0.221702 0.227425 0.948446
O O2 0.809779 0.567917 0.242214
O O3 0.869881 0.354716 0.055703
O O4 0.843914 0.207423 0.651631
O O5 0.223222 0.011826 0.462625
O O6 0.626500 0.908696 0.615283
O O7 0.409188 0.240719 0.944284
O O8 0.500000 0.500000 0.500000
O O9 0.427131 0.522030 0.337592
O O10 0.070034 0.635770 0.409405
O O11 0.054412 0.139182 0.941489
O O12 0.211266 0.798843 0.552484
O O13 0.625348 0.471526 0.232453
O O14 0.244978 0.441363 0.966142
O O15 0.000000 0.500000 0.500000
#
# Coordination Sequence:
#
# PCOD8007843 Si02
#       7
#     2   2   2   2   2   2   2
#     4   8  20  39  63  91 128 161 218 251 307 376
#     4   9  20  40  68  91 123 163 217 257 310 382
#     4  11  25  41  63  95 134 160 204 274 326 369
#     4   9  21  41  65  96 119 172 215 256 310 379
#     4  11  23  41  66  92 128 165 218 258 311 387
#     4  10  20  41  69  95 115 172 218 255 311 379
#     4  12  25  39  63  96 134 167 208 269 321 365
#
# _framework density 19.964586000000001
#
# number of rings (size 3 to 8) (size 9 to 14) (size 15 to 20)
#    0.857    1.143    2.857    0.857    4.000    6.286 
#    2.571    0.000    0.000    0.000    0.000    0.000 
#    0.000    0.000    0.000    0.000    0.000    0.000 
#
# Total GULP energy -173549.929048 kJ/mol
# GULP energy per Si atom -12396.423503 kJ/mol
# Density = 1.991915 g / cm^3
# Si number density = 19.964586 Si / 1000 Ang^3
#
#
#
# Elastic Constant Matrix: (Units=GPa)
#
#
# Indices 1 2 3 4 5 6 
#
# 1 105.4677 71.8488 55.6048 10.8901 3.8324 5.7772
# 2 71.8488 132.5034 63.4896 23.6535 -3.1328 6.0120
# 3 55.6048 63.4896 101.2442 20.4279 20.3945 11.2235
# 4 10.8901 23.6535 20.4279 51.0114 1.3151 4.0110
# 5 3.8324 -3.1328 20.3945 1.3151 22.0890 5.8712
# 6 5.7772 6.0120 11.2235 4.0110 5.8712 29.6591
#
#
#
# Elastic Compliance Matrix: (Units=1/GPa)
#
#
# Indices 1 2 3 4 5 6 
#
# 1 0.016775 -0.006679 -0.005606 0.001750 0.001290 -0.000284
# 2 -0.006679 0.015651 -0.007638 -0.002995 0.010799 -0.000714
# 3 -0.005606 -0.007638 0.022802 -0.003752 -0.020565 -0.001410
# 4 0.001750 -0.002995 -0.003752 0.022205 0.001861 -0.001686
# 5 0.001290 0.010799 -0.020565 0.001861 0.067663 -0.008304
# 6 -0.000284 -0.000714 -0.001410 -0.001686 -0.008304 0.036322
#
#
# Mechanical properties :
#
#
# Convention : Reuss Voigt Hill
#
# Bulk Modulus (GPa) = 65.01517 80.12242 72.56879
# Shear Modulus (GPa) = 22.08549 30.43671 26.26110
#
# Velocity S-wave (km/s) = 3.32962 3.90877 3.63076
# Velocity P-wave (km/s) = 6.88605 7.78400 7.34875
#
# Compressibility (1/GPa) = 0.01538103
#
# Stress axis : x y z
#
# Youngs Moduli (GPa) = 59.61126 63.89445 43.85574
#
# Poissons Ratio (x) = 0.42675 0.24587
# Poissons Ratio (y) = 0.39814 0.33498
# Poissons Ratio (z) = 0.33420 0.48804
#
# Static dielectric constant tensor:
#      x y z
#    x 3.495040 0.073610 0.156390 
#    y 0.073610 5.900670 -0.522770 
#    z 0.156390 -0.522770 3.712320 
# 
# 
# High freq. dielectric constant tensor:
#      x y z
#    x 1.772420 0.002370 0.012330 
#    y 0.002370 1.777780 0.020710 
#    z 0.012330 0.020710 1.762850 
# 
# From -- ./inp_files/524584.got.cif
#   From: 2010.06.25/outbox.cif.g09.slc.cpg/sg2_263_cif.got.tgz:524584.got - 2010.06.27 13:26:56.
