data_PCOD8007919
_publ_section_title
;
Structure prediction by ZEFSAII (Michael W. Deem and Ramdas Pophale) SiO2 
 PCOD8007919
Probable space group: P -1
;
_chemical_formula_sum "Si O2"
_cell_formula_units_Z 16
_cell_length_a 14.784256
_cell_length_b 17.891709
_cell_length_c 8.564517
_cell_angle_alpha 43.861915
_cell_angle_beta 43.813706
_cell_angle_gamma 28.290814
_cell_volume 717.594717
_symmetry_space_group_name_H-M "P -1"
_symmetry_group_IT_number 2
_symmetry_cell_setting 'triclinic'
loop_
_space_group_symop_operation_xyz
x,y,z
-x,-y,-z
loop_
_atom_site_type_symbol
_atom_site_label
_atom_site_fract_x
_atom_site_fract_y
_atom_site_fract_z
Si Si1 0.473993 0.807780 0.119972
Si Si2 0.541900 0.590533 0.880941
Si Si3 0.996850 0.761462 0.589088
Si Si4 0.361256 0.095593 0.677839
Si Si5 0.025219 0.614302 0.454383
Si Si6 0.377214 0.660371 0.312227
Si Si7 0.086657 0.501868 0.039318
Si Si8 0.580843 0.132825 0.550022
O O1 0.335213 0.792581 0.269638
O O2 0.679788 0.663725 0.991017
O O3 0.517757 0.781944 0.288511
O O4 0.366803 0.982932 0.939336
O O5 0.394064 0.769199 0.718269
O O6 0.764429 0.489694 0.723361
O O7 0.500000 0.500000 0.000000
O O8 0.509338 0.610941 0.074443
O O9 0.169660 0.741830 0.391132
O O10 0.036223 0.660122 0.843904
O O11 0.986722 0.702788 0.529029
O O12 0.792786 0.948456 0.589306
O O13 0.136291 0.252504 0.671869
O O14 0.432937 0.148080 0.617887
O O15 0.500000 0.000000 0.500000
O O16 0.008797 0.495577 0.692002
O O17 0.500000 0.500000 0.500000
O O18 0.000000 0.500000 0.000000
#
# Coordination Sequence:
#
# PCOD8007919 Si02
#       8
#     2   2   2   2   2   2   2   2
#     4  12  25  45  69 104 150 192 236 297 354 427
#     4  12  27  49  75 105 142 192 242 295 356 434
#     4  11  23  44  75 105 144 193 237 297 361 416
#     4  12  23  44  71 109 147 185 237 302 362 417
#     4  11  24  45  73 107 146 185 243 293 364 426
#     4  12  26  47  76 102 146 192 242 292 354 430
#     4  10  20  41  72 100 141 190 234 293 358 421
#     4  12  27  45  73 108 147 189 239 300 361 423
#
# _framework density 22.296707000000001
#
# number of rings (size 3 to 8) (size 9 to 14) (size 15 to 20)
#    0.000    0.500    5.000    4.125    0.000    4.500 
#    2.250    0.000    0.000    0.000    0.000    0.000 
#    0.000    0.000    0.000    0.000    0.000    0.000 
#
# Total GULP energy -198477.539280 kJ/mol
# GULP energy per Si atom -12404.846205 kJ/mol
# Density = 2.224596 g / cm^3
# Si number density = 22.296707 Si / 1000 Ang^3
#
#
#
# Elastic Constant Matrix: (Units=GPa)
#
#
# Indices 1 2 3 4 5 6 
#
# 1 127.8654 41.4149 60.4842 -8.5720 -4.4354 5.0883
# 2 41.4149 113.1015 63.4553 -5.9540 -7.7266 -18.9584
# 3 60.4842 63.4553 178.8603 -17.4478 2.0118 -2.1164
# 4 -8.5720 -5.9540 -17.4478 46.9642 0.5164 -1.7091
# 5 -4.4354 -7.7266 2.0118 0.5164 39.0083 -2.3979
# 6 5.0883 -18.9584 -2.1164 -1.7091 -2.3979 43.8000
#
#
#
# Elastic Compliance Matrix: (Units=1/GPa)
#
#
# Indices 1 2 3 4 5 6 
#
# 1 0.009963 -0.002615 -0.002428 0.000493 0.000589 -0.002355
# 2 -0.002615 0.013074 -0.003717 -0.000016 0.002849 0.005938
# 3 -0.002428 -0.003717 0.007933 0.002015 -0.001506 -0.000948
# 4 0.000493 -0.000016 0.002015 0.022165 -0.000290 0.000882
# 5 0.000589 0.002849 -0.001506 -0.000290 0.026504 0.002532
# 6 -0.002355 0.005938 -0.000948 0.000882 0.002532 0.025802
#
#
# Mechanical properties :
#
#
# Convention : Reuss Voigt Hill
#
# Bulk Modulus (GPa) = 74.34891 83.39289 78.87090
# Shear Modulus (GPa) = 39.23257 42.91935 41.07596
#
# Velocity S-wave (km/s) = 4.19927 4.39215 4.29679
# Velocity P-wave (km/s) = 7.54516 7.95009 7.75027
#
# Compressibility (1/GPa) = 0.01345010
#
# Stress axis : x y z
#
# Youngs Moduli (GPa) = 100.36818 76.48807 126.05269
#
# Poissons Ratio (x) = 0.19999 0.30606
# Poissons Ratio (y) = 0.26243 0.46860
# Poissons Ratio (z) = 0.24370 0.28434
#
# Static dielectric constant tensor:
#      x y z
#    x 4.311540 -0.075640 -0.045000 
#    y -0.075640 4.055030 -0.207360 
#    z -0.045000 -0.207360 4.559670 
# 
# 
# High freq. dielectric constant tensor:
#      x y z
#    x 1.890520 -0.002510 0.001130 
#    y -0.002510 1.876670 -0.009560 
#    z 0.001130 -0.009560 1.893580 
# 
# From -- ./inp_files/317956.got.cif
#   From: 2010.06.25/outbox.cif.g09.slc.cpg/sg2_159_cif.got.tgz:317956.got - 2010.06.27 13:26:56.
