data_PCOD8007596
_publ_section_title
;
Structure prediction by ZEFSAII (Michael W. Deem and Ramdas Pophale) SiO2 
 PCOD8007596
Probable space group: P -1
;
_chemical_formula_sum "Si O2"
_cell_formula_units_Z 14
_cell_length_a 14.882392
_cell_length_b 23.205100
_cell_length_c 29.155361
_cell_angle_alpha 10.948264
_cell_angle_beta 20.179415
_cell_angle_gamma 21.982710
_cell_volume 657.103961
_symmetry_space_group_name_H-M "P -1"
_symmetry_group_IT_number 2
_symmetry_cell_setting 'triclinic'
loop_
_space_group_symop_operation_xyz
x,y,z
-x,-y,-z
loop_
_atom_site_type_symbol
_atom_site_label
_atom_site_fract_x
_atom_site_fract_y
_atom_site_fract_z
Si Si1 0.359523 0.143256 0.134722
Si Si2 0.988829 0.147602 0.728908
Si Si3 0.361343 0.562809 0.893221
Si Si4 0.275440 0.348312 0.699400
Si Si5 0.893324 0.804181 0.469858
Si Si6 0.416691 0.378951 0.403715
Si Si7 0.867649 0.934124 0.567404
O O1 0.594807 0.877270 0.225436
O O2 0.387244 0.313456 0.036027
O O3 0.384191 0.384667 0.893974
O O4 0.078261 0.001995 0.374219
O O5 0.795669 0.447618 0.596931
O O6 0.999809 0.112443 0.696463
O O7 0.274823 0.211942 0.560771
O O8 0.895537 0.842300 0.035296
O O9 0.650619 0.603745 0.739544
O O10 0.202786 0.877814 0.707450
O O11 0.202410 0.417241 0.124975
O O12 0.500000 0.500000 0.500000
O O13 0.107291 0.622095 0.540891
O O14 0.592302 0.133445 0.540231
O O15 0.000000 0.000000 0.500000
#
# Coordination Sequence:
#
# PCOD8007596 Si02
#       7
#     2   2   2   2   2   2   2
#     4  10  22  43  65  94 131 171 213 265 322 384
#     4  10  23  42  69  95 127 173 217 271 326 374
#     4  10  23  43  64 101 120 173 225 254 330 382
#     4  11  27  44  65 101 131 170 217 266 330 389
#     4  11  24  45  70  91 138 167 215 281 315 382
#     4  10  20  41  65  98 126 166 225 266 316 390
#     4  10  22  36  63  94 130 167 212 261 321 384
#
# _framework density 21.305610000000001
#
# number of rings (size 3 to 8) (size 9 to 14) (size 15 to 20)
#    0.000    1.714    1.429    1.286    6.000    6.857 
#    0.000    2.143    0.000    0.000    0.000    0.000 
#    0.000    0.000    0.000    0.000    0.000    0.000 
#
# Total GULP energy -173566.975015 kJ/mol
# GULP energy per Si atom -12397.641073 kJ/mol
# Density = 2.125712 g / cm^3
# Si number density = 21.305610 Si / 1000 Ang^3
#
#
#
# Elastic Constant Matrix: (Units=GPa)
#
#
# Indices 1 2 3 4 5 6 
#
# 1 96.0355 58.2896 48.3719 -7.1582 6.4563 -17.2503
# 2 58.2896 116.8826 68.8508 -0.6426 6.1381 -20.7562
# 3 48.3719 68.8508 142.6017 11.0046 2.2390 -6.0679
# 4 -7.1582 -0.6426 11.0046 39.1330 0.3649 9.3544
# 5 6.4563 6.1381 2.2390 0.3649 24.1067 -7.4975
# 6 -17.2503 -20.7562 -6.0679 9.3544 -7.4975 38.2933
#
#
#
# Elastic Compliance Matrix: (Units=1/GPa)
#
#
# Indices 1 2 3 4 5 6 
#
# 1 0.016175 -0.005883 -0.002743 0.003038 -0.001828 0.002563
# 2 -0.005883 0.015453 -0.005207 -0.000543 -0.000321 0.004971
# 3 -0.002743 -0.005207 0.010635 -0.003237 0.000671 -0.001451
# 4 0.003038 -0.000543 -0.003237 0.028722 -0.003000 -0.007043
# 5 -0.001828 -0.000321 0.000671 -0.003000 0.044710 0.008595
# 6 0.002563 0.004971 -0.001451 -0.007043 0.008595 0.033137
#
#
# Mechanical properties :
#
#
# Convention : Reuss Voigt Hill
#
# Bulk Modulus (GPa) = 68.50780 78.50493 73.50637
# Shear Modulus (GPa) = 27.56899 32.30708 29.93804
#
# Velocity S-wave (km/s) = 3.60109 3.89828 3.75263
# Velocity P-wave (km/s) = 7.03670 7.56235 7.30425
#
# Compressibility (1/GPa) = 0.01459688
#
# Stress axis : x y z
#
# Youngs Moduli (GPa) = 61.82484 64.71129 94.03210
#
# Poissons Ratio (x) = 0.38068 0.25793
# Poissons Ratio (y) = 0.36370 0.48964
# Poissons Ratio (z) = 0.16959 0.33696
#
# Static dielectric constant tensor:
#      x y z
#    x 3.486490 0.091210 0.041090 
#    y 0.091210 4.371160 0.610390 
#    z 0.041090 0.610390 4.765630 
# 
# 
# High freq. dielectric constant tensor:
#      x y z
#    x 1.811310 -0.000130 0.002170 
#    y -0.000130 1.844200 0.008890 
#    z 0.002170 0.008890 1.861170 
# 
# From -- ./inp_files/390136.got.cif
#   From: 2010.06.25/outbox.cif.g09.slc.cpg/sg2_196_cif.got.tgz:390136.got - 2010.06.27 13:26:56.
