data_PCOD8007195
_publ_section_title
;
Structure prediction by ZEFSAII (Michael W. Deem and Ramdas Pophale) SiO2 
 PCOD8007195
Probable space group: P -1
;
_chemical_formula_sum "Si O2"
_cell_formula_units_Z 14
_cell_length_a 11.925092
_cell_length_b 8.252174
_cell_length_c 8.154098
_cell_angle_alpha 126.721162
_cell_angle_beta 65.590212
_cell_angle_gamma 105.313569
_cell_volume 585.538273
_symmetry_space_group_name_H-M "P -1"
_symmetry_group_IT_number 2
_symmetry_cell_setting 'triclinic'
loop_
_space_group_symop_operation_xyz
x,y,z
-x,-y,-z
loop_
_atom_site_type_symbol
_atom_site_label
_atom_site_fract_x
_atom_site_fract_y
_atom_site_fract_z
Si Si1 0.702527 0.876727 0.563358
Si Si2 0.269263 0.793520 0.533782
Si Si3 0.448437 0.720289 0.661640
Si Si4 0.061090 0.107157 0.373895
Si Si5 0.065310 0.791386 0.898607
Si Si6 0.887118 0.468264 0.726267
Si Si7 0.231122 0.551934 0.868904
O O1 0.562765 0.875148 0.719078
O O2 0.792860 0.883225 0.669681
O O3 0.726018 0.676016 0.319867
O O4 0.717254 0.066244 0.548563
O O5 0.395306 0.769804 0.542541
O O6 0.163596 0.884441 0.767605
O O7 0.218705 0.569836 0.370607
O O8 0.500000 0.500000 0.500000
O O9 0.340644 0.719348 0.864189
O O10 0.001396 0.325618 0.523985
O O11 0.000000 0.000000 0.500000
O O12 0.031340 0.976322 0.149254
O O13 0.118417 0.597612 0.843331
O O14 0.938523 0.699702 0.837284
O O15 0.818784 0.406042 0.896894
#
# Coordination Sequence:
#
# PCOD8007195 Si02
#       7
#     2   2   2   2   2   2   2
#     4  11  21  42  67  99 133 171 219 278 319 385
#     4  11  24  41  63 100 135 169 219 277 324 385
#     4   9  22  44  69  92 127 176 227 269 326 390
#     4  12  22  40  69  99 133 176 217 262 331 396
#     4  11  23  41  62  99 139 175 215 259 330 399
#     4  12  23  41  67 100 137 173 216 269 329 389
#     4  10  20  40  68  93 130 178 217 265 324 392
#
# _framework density 23.909625999999999
#
# number of rings (size 3 to 8) (size 9 to 14) (size 15 to 20)
#    0.000    1.143    4.286    2.143    0.000    0.571 
#    2.571   10.714    0.000    0.000    0.000    0.000 
#    0.000    0.000    0.000    0.000    0.000    0.000 
#
# Total GULP energy -173522.936652 kJ/mol
# GULP energy per Si atom -12394.495475 kJ/mol
# Density = 2.385521 g / cm^3
# Si number density = 23.909626 Si / 1000 Ang^3
#
#
#
# Elastic Constant Matrix: (Units=GPa)
#
#
# Indices 1 2 3 4 5 6 
#
# 1 132.9823 26.3655 26.7280 22.4154 7.5035 23.6488
# 2 26.3655 82.6578 31.0854 8.6702 -3.8285 11.5800
# 3 26.7280 31.0854 113.1244 3.8876 7.2330 26.0842
# 4 22.4154 8.6702 3.8876 29.0297 6.8775 -6.3750
# 5 7.5035 -3.8285 7.2330 6.8775 25.4698 9.2138
# 6 23.6488 11.5800 26.0842 -6.3750 9.2138 39.8008
#
#
#
# Elastic Compliance Matrix: (Units=1/GPa)
#
#
# Indices 1 2 3 4 5 6 
#
# 1 0.010857 -0.001018 -0.000172 -0.010481 0.002532 -0.008307
# 2 -0.001018 0.015102 -0.003174 -0.005754 0.006523 -0.004141
# 3 -0.000172 -0.003174 0.011360 -0.001663 -0.000857 -0.006488
# 4 -0.010481 -0.005754 -0.001663 0.054107 -0.019976 0.022282
# 5 0.002532 0.006523 -0.000857 -0.019976 0.051644 -0.017996
# 6 -0.008307 -0.004141 -0.006488 0.022282 -0.017996 0.043253
#
#
# Mechanical properties :
#
#
# Convention : Reuss Voigt Hill
#
# Bulk Modulus (GPa) = 34.97447 55.23582 45.10515
# Shear Modulus (GPa) = 24.44003 35.16579 29.80291
#
# Velocity S-wave (km/s) = 3.20063 3.83923 3.53438
# Velocity P-wave (km/s) = 5.32149 6.54256 5.96336
#
# Compressibility (1/GPa) = 0.02859228
#
# Stress axis : x y z
#
# Youngs Moduli (GPa) = 92.10473 66.21538 88.02487
#
# Poissons Ratio (x) = 0.06741 0.01512
# Poissons Ratio (y) = 0.09377 0.27939
# Poissons Ratio (z) = 0.01582 0.21017
#
# Static dielectric constant tensor:
#      x y z
#    x 5.135920 0.333470 -0.071130 
#    y 0.333470 4.585790 -0.286630 
#    z -0.071130 -0.286630 4.285770 
# 
# 
# High freq. dielectric constant tensor:
#      x y z
#    x 1.951270 0.002790 0.005880 
#    y 0.002790 1.963230 -0.007950 
#    z 0.005880 -0.007950 1.938590 
# 
# From -- ./inp_files/241290.got.cif
#   From: 2010.06.25/outbox.cif.g09.slc.cpg/sg2_121_cif.got.tgz:241290.got - 2010.06.27 13:26:56.
