data_PCOD8007635
_publ_section_title
;
Structure prediction by ZEFSAII (Michael W. Deem and Ramdas Pophale) SiO2 
 PCOD8007635
Probable space group: P -1
;
_chemical_formula_sum "Si O2"
_cell_formula_units_Z 16
_cell_length_a 19.969441
_cell_length_b 9.035815
_cell_length_c 21.466606
_cell_angle_alpha 31.172541
_cell_angle_beta 21.406704
_cell_angle_gamma 34.259864
_cell_volume 722.553896
_symmetry_space_group_name_H-M "P -1"
_symmetry_group_IT_number 2
_symmetry_cell_setting 'triclinic'
loop_
_space_group_symop_operation_xyz
x,y,z
-x,-y,-z
loop_
_atom_site_type_symbol
_atom_site_label
_atom_site_fract_x
_atom_site_fract_y
_atom_site_fract_z
Si Si1 0.200840 0.270020 0.498416
Si Si2 0.714422 0.317475 0.815911
Si Si3 0.722644 0.684831 0.381605
Si Si4 0.537316 0.285689 0.285847
Si Si5 0.689572 0.830308 0.922932
Si Si6 0.632562 0.223686 0.054563
Si Si7 0.383979 0.741167 0.470964
Si Si8 0.058307 0.594113 0.209990
O O1 0.159957 0.456583 0.403164
O O2 0.407264 0.312897 0.327536
O O3 0.054464 0.387180 0.635136
O O4 0.219804 0.929192 0.586994
O O5 0.760213 0.225836 0.880699
O O6 0.768072 0.026763 0.834686
O O7 0.498903 0.464068 0.944234
O O8 0.582200 0.665476 0.566091
O O9 0.717320 0.403891 0.444504
O O10 0.926771 0.700220 0.227286
O O11 0.663244 0.971867 0.289377
O O12 0.666609 0.530521 0.084354
O O13 0.843872 0.738962 0.767847
O O14 0.500000 0.000000 0.000000
O O15 0.775165 0.212320 0.994055
O O16 0.520283 0.953381 0.248690
O O17 0.500000 0.500000 0.500000
#
# Coordination Sequence:
#
# PCOD8007635 Si02
#       8
#     2   2   2   2   2   2   2   2
#     4  10  21  40  63  94 133 169 213 264 328 374
#     4  10  21  40  66  89 128 180 214 256 318 403
#     4  10  23  41  67  98 128 168 216 269 324 379
#     4  10  20  41  66  91 131 174 211 260 326 396
#     4  12  21  39  66  94 127 174 218 261 325 390
#     4  10  22  42  66  96 129 171 218 261 325 381
#     4  11  21  41  71  93 125 180 219 253 319 404
#     4  11  25  41  63 101 136 163 214 281 321 370
#
# _framework density 22.143677
#
# number of rings (size 3 to 8) (size 9 to 14) (size 15 to 20)
#    0.000    1.500    3.750    1.500    0.000    2.500 
#    0.000    0.625    0.000    0.000    0.000    0.000 
#    0.000    0.000    0.000    0.000    0.000    0.000 
#
# Total GULP energy -198305.608367 kJ/mol
# GULP energy per Si atom -12394.100523 kJ/mol
# Density = 2.209328 g / cm^3
# Si number density = 22.143677 Si / 1000 Ang^3
#
#
#
# Elastic Constant Matrix: (Units=GPa)
#
#
# Indices 1 2 3 4 5 6 
#
# 1 114.2006 56.2173 34.4081 -1.4221 -12.4311 8.5457
# 2 56.2173 159.0998 50.7162 -2.5434 4.6134 29.3248
# 3 34.4081 50.7162 56.7460 -2.8029 -11.9314 -5.9529
# 4 -1.4221 -2.5434 -2.8029 39.5253 -1.2722 1.9292
# 5 -12.4311 4.6134 -11.9314 -1.2722 39.2496 -3.0999
# 6 8.5457 29.3248 -5.9529 1.9292 -3.0999 33.7678
#
#
#
# Elastic Compliance Matrix: (Units=1/GPa)
#
#
# Indices 1 2 3 4 5 6 
#
# 1 0.011728 -0.002590 -0.004380 0.000090 0.002591 -0.001258
# 2 -0.002590 0.015571 -0.015907 0.000303 -0.008779 -0.016494
# 3 -0.004380 -0.015907 0.040037 0.000990 0.014522 0.023257
# 4 0.000090 0.000303 0.000990 0.025498 0.001004 -0.001476
# 5 0.002591 -0.008779 0.014522 0.001004 0.032763 0.012478
# 6 -0.001258 -0.016494 0.023257 -0.001476 0.012478 0.049586
#
#
# Mechanical properties :
#
#
# Convention : Reuss Voigt Hill
#
# Bulk Modulus (GPa) = 46.33286 68.08107 57.20697
# Shear Modulus (GPa) = 21.91744 35.08886 28.50315
#
# Velocity S-wave (km/s) = 3.14949 3.98502 3.59164
# Velocity P-wave (km/s) = 5.84764 7.21012 6.56432
#
# Compressibility (1/GPa) = 0.02158296
#
# Stress axis : x y z
#
# Youngs Moduli (GPa) = 85.26380 64.22365 24.97714
#
# Poissons Ratio (x) = 0.16633 0.10939
# Poissons Ratio (y) = 0.22082 0.39731
# Poissons Ratio (z) = 0.37342 1.02159
#
# Static dielectric constant tensor:
#      x y z
#    x 4.226650 0.242850 0.009500 
#    y 0.242850 4.258930 0.114520 
#    z 0.009500 0.114520 3.872520 
# 
# 
# High freq. dielectric constant tensor:
#      x y z
#    x 1.883490 0.017190 0.004270 
#    y 0.017190 1.875830 0.009020 
#    z 0.004270 0.009020 1.856220 
# 
# From -- ./inp_files/613560.got.cif
#   From: 2010.06.25/outbox.cif.g09.slc.cpg/sg2_307_cif.got.tgz:613560.got - 2010.06.27 13:26:56.
