data_PCOD8007179
_publ_section_title
;
Structure prediction by ZEFSAII (Michael W. Deem and Ramdas Pophale) SiO2 
 PCOD8007179
Probable space group: P -1
;
_chemical_formula_sum "Si O2"
_cell_formula_units_Z 14
_cell_length_a 8.632650
_cell_length_b 17.488139
_cell_length_c 9.323725
_cell_angle_alpha 57.461490
_cell_angle_beta 106.495905
_cell_angle_gamma 57.577056
_cell_volume 595.245897
_symmetry_space_group_name_H-M "P -1"
_symmetry_group_IT_number 2
_symmetry_cell_setting 'triclinic'
loop_
_space_group_symop_operation_xyz
x,y,z
-x,-y,-z
loop_
_atom_site_type_symbol
_atom_site_label
_atom_site_fract_x
_atom_site_fract_y
_atom_site_fract_z
Si Si1 0.873426 0.919819 0.131970
Si Si2 0.353361 0.312675 0.305628
Si Si3 0.680627 0.505258 0.055653
Si Si4 0.691631 0.041598 0.440981
Si Si5 0.296387 0.117537 0.611877
Si Si6 0.602129 0.259560 0.017138
Si Si7 0.357700 0.778764 0.243747
O O1 0.598316 0.016244 0.861942
O O2 0.866491 0.030884 0.057041
O O3 0.886516 0.857034 0.345452
O O4 0.186689 0.770009 0.269598
O O5 0.495439 0.154890 0.422409
O O6 0.410869 0.286009 0.517096
O O7 0.499314 0.334559 0.252007
O O8 0.000000 0.500000 0.000000
O O9 0.048551 0.315992 0.306206
O O10 0.500000 0.500000 0.000000
O O11 0.645409 0.557530 0.155346
O O12 0.593584 0.162463 0.175452
O O13 0.611293 0.983518 0.404168
O O14 0.050894 0.868136 0.750181
O O15 0.474504 0.327392 0.752642
#
# Coordination Sequence:
#
# PCOD8007179 Si02
#       7
#     2   2   2   2   2   2   2
#     4  10  22  37  66  94 126 164 208 267 312 361
#     4  11  25  44  65  93 126 166 208 263 316 372
#     4  11  22  41  64  93 130 165 206 261 310 370
#     4  10  20  40  68  90 125 170 216 245 309 390
#     4  11  21  41  63  97 128 162 214 262 308 372
#     4  10  21  38  68  95 120 175 211 248 312 383
#     4  11  21  43  63  93 126 166 211 258 312 384
#
# _framework density 23.519691000000002
#
# number of rings (size 3 to 8) (size 9 to 14) (size 15 to 20)
#    0.000    1.429    2.857    3.429    2.000    0.000 
#    7.714    5.714    0.000    0.000    0.000    0.000 
#    0.000    0.000    0.000    0.000    0.000    0.000 
#
# Total GULP energy -173530.506572 kJ/mol
# GULP energy per Si atom -12395.036184 kJ/mol
# Density = 2.346616 g / cm^3
# Si number density = 23.519691 Si / 1000 Ang^3
#
#
#
# Elastic Constant Matrix: (Units=GPa)
#
#
# Indices 1 2 3 4 5 6 
#
# 1 47.8711 26.8017 3.1011 -0.5960 -3.0727 17.7361
# 2 26.8017 194.4359 50.7761 10.5682 -3.5896 8.3665
# 3 3.1011 50.7761 72.3045 2.7231 -3.8467 6.5962
# 4 -0.5960 10.5682 2.7231 44.6340 -5.0139 -4.1021
# 5 -3.0727 -3.5896 -3.8467 -5.0139 34.0593 -4.6986
# 6 17.7361 8.3665 6.5962 -4.1021 -4.6986 34.2574
#
#
#
# Elastic Compliance Matrix: (Units=1/GPa)
#
#
# Indices 1 2 3 4 5 6 
#
# 1 0.028228 -0.004037 0.002944 -0.000091 0.000490 -0.014139
# 2 -0.004037 0.006969 -0.004784 -0.001333 -0.000212 0.001121
# 3 0.002944 -0.004784 0.017457 -0.000082 0.001230 -0.003558
# 4 -0.000091 -0.001333 -0.000082 0.023495 0.003815 0.003725
# 5 0.000490 -0.000212 0.001230 0.003815 0.030666 0.004224
# 6 -0.014139 0.001121 -0.003558 0.003725 0.004224 0.037948
#
#
# Mechanical properties :
#
#
# Convention : Reuss Voigt Hill
#
# Bulk Modulus (GPa) = 24.45071 52.88551 38.66811
# Shear Modulus (GPa) = 29.38566 38.18564 33.78565
#
# Velocity S-wave (km/s) = 3.53853 4.03371 3.79421
# Velocity P-wave (km/s) = 5.20705 6.65048 5.97253
#
# Compressibility (1/GPa) = 0.04089861
#
# Stress axis : x y z
#
# Youngs Moduli (GPa) = 35.42596 143.48512 57.28322
#
# Poissons Ratio (x) = 0.57932 -0.16864
# Poissons Ratio (y) = 0.14303 0.27407
# Poissons Ratio (z) = -0.10429 0.68649
#
# Static dielectric constant tensor:
#      x y z
#    x 5.226900 -0.236110 -0.834430 
#    y -0.236110 4.534310 -0.018580 
#    z -0.834430 -0.018580 4.724650 
# 
# 
# High freq. dielectric constant tensor:
#      x y z
#    x 1.950420 -0.005780 -0.007970 
#    y -0.005780 1.932910 0.012590 
#    z -0.007970 0.012590 1.912000 
# 
# From -- ./inp_files/216386.got.cif
#   From: 2010.06.25/outbox.cif.g09.slc.cpg/sg2_109_cif.got.tgz:216386.got - 2010.06.27 13:26:56.
