data_PCOD8007243
_publ_section_title
;
Structure prediction by ZEFSAII (Michael W. Deem and Ramdas Pophale) SiO2 
 PCOD8007243
Probable space group: P -1
;
_chemical_formula_sum "Si O2"
_cell_formula_units_Z 16
_cell_length_a 8.448357
_cell_length_b 19.811509
_cell_length_c 8.436058
_cell_angle_alpha 118.126166
_cell_angle_beta 50.725182
_cell_angle_gamma 141.951267
_cell_volume 672.588855
_symmetry_space_group_name_H-M "P -1"
_symmetry_group_IT_number 2
_symmetry_cell_setting 'triclinic'
loop_
_space_group_symop_operation_xyz
x,y,z
-x,-y,-z
loop_
_atom_site_type_symbol
_atom_site_label
_atom_site_fract_x
_atom_site_fract_y
_atom_site_fract_z
Si Si1 0.343979 0.176974 0.511942
Si Si2 0.476294 0.641023 0.599306
Si Si3 0.178996 0.509150 0.129578
Si Si4 0.052767 0.913733 0.851320
Si Si5 0.856046 0.973835 0.793072
Si Si6 0.634052 0.522766 0.718396
Si Si7 0.999213 0.741455 0.583334
Si Si8 0.411424 0.740972 0.220847
O O1 0.367971 0.270771 0.543472
O O2 0.392535 0.135286 0.277951
O O3 0.570381 0.229282 0.570279
O O4 0.025292 0.073947 0.673210
O O5 0.415318 0.536979 0.477068
O O6 0.698799 0.700388 0.669210
O O7 0.166985 0.595688 0.796491
O O8 0.276445 0.517365 0.255494
O O9 0.274550 0.620807 0.149946
O O10 0.334155 0.487661 0.899343
O O11 0.716723 0.828282 0.033939
O O12 0.065228 0.965454 0.736697
O O13 0.167855 0.858412 0.687155
O O14 0.259085 0.005214 0.961862
O O15 0.903729 0.653688 0.678391
O O16 0.180928 0.747939 0.331903
#
# Coordination Sequence:
#
# PCOD8007243 Si02
#       8
#     2   2   2   2   2   2   2   2
#     4  10  20  40  69  92 120 170 210 264 319 367
#     4  12  23  39  61  93 134 168 206 258 310 374
#     4  11  23  38  62  91 130 171 208 252 307 381
#     4  10  21  42  67  93 125 164 209 271 320 369
#     4   9  20  41  70  89 120 166 216 267 324 363
#     4  11  23  39  60  93 129 167 210 251 311 380
#     4  12  24  38  63  93 131 172 209 254 317 379
#     4  11  22  40  65  93 130 171 209 253 317 379
#
# _framework density 23.788677
#
# number of rings (size 3 to 8) (size 9 to 14) (size 15 to 20)
#    0.000    1.250    5.000    1.500    0.000    1.500 
#    0.000    6.250    0.000    0.000    0.000    0.000 
#    0.000    0.000    0.000    0.000    0.000    0.000 
#
# Total GULP energy -198211.875331 kJ/mol
# GULP energy per Si atom -12388.242208 kJ/mol
# Density = 2.373453 g / cm^3
# Si number density = 23.788677 Si / 1000 Ang^3
#
#
#
# Elastic Constant Matrix: (Units=GPa)
#
#
# Indices 1 2 3 4 5 6 
#
# 1 50.0789 15.0386 26.6102 -2.9651 -15.7374 -3.6479
# 2 15.0386 66.0812 2.6319 7.2218 -2.5915 -24.0820
# 3 26.6102 2.6319 65.7071 0.3714 -16.6090 -5.3191
# 4 -2.9651 7.2218 0.3714 37.5628 -1.0592 -1.3206
# 5 -15.7374 -2.5915 -16.6090 -1.0592 38.1117 2.2935
# 6 -3.6479 -24.0820 -5.3191 -1.3206 2.2935 40.1841
#
#
#
# Elastic Compliance Matrix: (Units=1/GPa)
#
#
# Indices 1 2 3 4 5 6 
#
# 1 0.030251 -0.007966 -0.010282 0.004111 0.007806 -0.003699
# 2 -0.007966 0.021900 0.003063 -0.004460 -0.001356 0.012738
# 3 -0.010282 0.003063 0.020742 -0.001354 0.004764 0.003331
# 4 0.004111 -0.004460 -0.001354 0.027806 0.001677 -0.001661
# 5 0.007806 -0.001356 0.004764 0.001677 0.031566 -0.001220
# 6 -0.003699 0.012738 0.003331 -0.001661 -0.001220 0.032639
#
#
# Mechanical properties :
#
#
# Convention : Reuss Voigt Hill
#
# Bulk Modulus (GPa) = 23.51715 30.04760 26.78238
# Shear Modulus (GPa) = 23.87215 32.34415 28.10815
#
# Velocity S-wave (km/s) = 3.17126 3.69134 3.44114
# Velocity P-wave (km/s) = 4.82872 5.55216 5.20302
#
# Compressibility (1/GPa) = 0.04252215
#
# Stress axis : x y z
#
# Youngs Moduli (GPa) = 33.05671 45.66192 48.21200
#
# Poissons Ratio (x) = 0.36376 0.49570
# Poissons Ratio (y) = 0.26334 -0.14765
# Poissons Ratio (z) = 0.33988 -0.13984
#
# Static dielectric constant tensor:
#      x y z
#    x 4.235400 -0.154570 0.115160 
#    y -0.154570 4.531240 0.226450 
#    z 0.115160 0.226450 4.253020 
# 
# 
# High freq. dielectric constant tensor:
#      x y z
#    x 1.921400 -0.017550 0.010550 
#    y -0.017550 1.957200 0.015970 
#    z 0.010550 0.015970 1.931340 
# 
# From -- ./inp_files/214803.got.cif
#   From: 2010.06.25/outbox.cif.g09.slc.cpg/sg2_108_cif.got.tgz:214803.got - 2010.06.27 13:26:56.
