data_PCOD8007492
_publ_section_title
;
Structure prediction by ZEFSAII (Michael W. Deem and Ramdas Pophale) SiO2 
 PCOD8007492
Probable space group: P -1
;
_chemical_formula_sum "Si O2"
_cell_formula_units_Z 16
_cell_length_a 7.951823
_cell_length_b 7.564315
_cell_length_c 16.547433
_cell_angle_alpha 113.779366
_cell_angle_beta 97.472847
_cell_angle_gamma 57.902800
_cell_volume 767.044384
_symmetry_space_group_name_H-M "P -1"
_symmetry_group_IT_number 2
_symmetry_cell_setting 'triclinic'
loop_
_space_group_symop_operation_xyz
x,y,z
-x,-y,-z
loop_
_atom_site_type_symbol
_atom_site_label
_atom_site_fract_x
_atom_site_fract_y
_atom_site_fract_z
Si Si1 0.525271 0.651523 0.357932
Si Si2 0.195286 0.758409 0.467703
Si Si3 0.316164 0.404895 0.284389
Si Si4 0.089437 0.609748 0.582118
Si Si5 0.710226 0.645684 0.903070
Si Si6 0.287629 0.016151 0.279258
Si Si7 0.255662 0.952536 0.962761
Si Si8 0.153680 0.817272 0.093084
O O1 0.383815 0.772406 0.450826
O O2 0.506266 0.435281 0.292609
O O3 0.455838 0.825920 0.311996
O O4 0.754209 0.568746 0.375725
O O5 0.162877 0.595089 0.374147
O O6 0.224736 0.668607 0.544761
O O7 0.000000 0.000000 0.500000
O O8 0.206793 0.448570 0.199054
O O9 0.380242 0.157764 0.276302
O O10 0.000000 0.500000 0.500000
O O11 0.915887 0.831615 0.656077
O O12 0.470469 0.800383 0.907655
O O13 0.788505 0.438253 0.931650
O O14 0.791799 0.801880 0.965787
O O15 0.244770 0.898147 0.181935
O O16 0.249700 0.809926 0.011404
O O17 0.085622 0.007012 0.895782
#
# Coordination Sequence:
#
# PCOD8007492 Si02
#       8
#     2   2   2   2   2   2   2   2
#     4  10  24  42  63  89 123 171 203 263 312 364
#     4  10  20  41  64  91 125 166 208 256 313 364
#     4  10  22  41  63  90 128 166 206 259 304 377
#     4  12  23  42  63  92 126 164 214 258 310 374
#     4  11  21  43  63  91 129 164 207 253 316 368
#     4  12  23  41  64  91 129 165 209 261 312 370
#     4  10  24  39  66  94 123 167 205 256 314 375
#     4  11  22  40  65  94 126 162 207 259 311 370
#
# _framework density 20.859290000000001
#
# number of rings (size 3 to 8) (size 9 to 14) (size 15 to 20)
#    0.750    0.500    5.000    1.125    1.750    0.500 
#    2.250    1.250    0.000    0.000    0.000    0.000 
#    0.000    0.000    0.000    0.000    0.000    0.000 
#
# Total GULP energy -198347.759264 kJ/mol
# GULP energy per Si atom -12396.734954 kJ/mol
# Density = 2.081181 g / cm^3
# Si number density = 20.859290 Si / 1000 Ang^3
#
#
#
# Elastic Constant Matrix: (Units=GPa)
#
#
# Indices 1 2 3 4 5 6 
#
# 1 59.1882 49.5843 5.9496 -12.5848 9.2344 6.7848
# 2 49.5843 157.2741 44.8692 -24.2512 13.8176 10.0197
# 3 5.9496 44.8692 67.1609 -9.4640 3.6313 -4.8319
# 4 -12.5848 -24.2512 -9.4640 26.0165 -1.2131 0.8289
# 5 9.2344 13.8176 3.6313 -1.2131 21.0913 -5.0562
# 6 6.7848 10.0197 -4.8319 0.8289 -5.0562 43.9119
#
#
#
# Elastic Compliance Matrix: (Units=1/GPa)
#
#
# Indices 1 2 3 4 5 6 
#
# 1 0.025475 -0.007232 0.003709 0.006679 -0.007354 -0.002851
# 2 -0.007232 0.011792 -0.006525 0.005032 -0.003823 -0.002826
# 3 0.003709 -0.006525 0.019512 0.002721 0.000175 0.003032
# 4 0.006679 0.005032 0.002721 0.047231 -0.004769 -0.003321
# 5 -0.007354 -0.003823 0.000175 -0.004769 0.054855 0.008434
# 6 -0.002851 -0.002826 0.003032 -0.003321 0.008434 0.025226
#
#
# Mechanical properties :
#
#
# Convention : Reuss Voigt Hill
#
# Bulk Modulus (GPa) = 27.26101 53.82552 40.54326
# Shear Modulus (GPa) = 23.10369 30.41861 26.76115
#
# Velocity S-wave (km/s) = 3.33167 3.82288 3.58570
# Velocity P-wave (km/s) = 5.28180 6.73394 6.05159
#
# Compressibility (1/GPa) = 0.03668243
#
# Stress axis : x y z
#
# Youngs Moduli (GPa) = 39.25380 84.80501 51.24957
#
# Poissons Ratio (x) = 0.61333 -0.19006
# Poissons Ratio (y) = 0.28389 0.33439
# Poissons Ratio (z) = -0.14557 0.55334
#
# Static dielectric constant tensor:
#      x y z
#    x 3.752060 0.261060 -0.086660 
#    y 0.261060 3.866630 -0.181640 
#    z -0.086660 -0.181640 3.841080 
# 
# 
# High freq. dielectric constant tensor:
#      x y z
#    x 1.804050 0.015740 0.000090 
#    y 0.015740 1.821330 -0.008480 
#    z 0.000090 -0.008480 1.817530 
# 
# From -- ./inp_files/554601.got.cif
#   From: 2010.06.25/outbox.cif.g09.slc.cpg/sg2_278_cif.got.tgz:554601.got - 2010.06.27 13:26:56.
