data_PCOD8007732
_publ_section_title
;
Structure prediction by ZEFSAII (Michael W. Deem and Ramdas Pophale) SiO2 
 PCOD8007732
Probable space group: P -1
;
_chemical_formula_sum "Si O2"
_cell_formula_units_Z 16
_cell_length_a 9.365782
_cell_length_b 18.089922
_cell_length_c 7.823016
_cell_angle_alpha 86.220313
_cell_angle_beta 91.236907
_cell_angle_gamma 30.045643
_cell_volume 653.926343
_symmetry_space_group_name_H-M "P -1"
_symmetry_group_IT_number 2
_symmetry_cell_setting 'triclinic'
loop_
_space_group_symop_operation_xyz
x,y,z
-x,-y,-z
loop_
_atom_site_type_symbol
_atom_site_label
_atom_site_fract_x
_atom_site_fract_y
_atom_site_fract_z
Si Si1 0.266332 0.572320 0.757851
Si Si2 0.548392 0.898438 0.093288
Si Si3 0.436170 0.413906 0.119946
Si Si4 0.304800 0.715797 0.373613
Si Si5 0.258344 0.097113 0.616407
Si Si6 0.942907 0.110893 0.008891
Si Si7 0.675047 0.791756 0.770780
Si Si8 0.728784 0.614752 0.602864
O O1 0.407490 0.587058 0.790411
O O2 0.425285 0.460310 0.623611
O O3 0.920848 0.732445 0.692400
O O4 0.273296 0.513836 0.931445
O O5 0.744012 0.827239 0.276907
O O6 0.719936 0.767213 0.983966
O O7 0.233281 0.010585 0.119020
O O8 0.500000 0.000000 0.000000
O O9 0.679389 0.242457 0.111937
O O10 0.219089 0.474188 0.242805
O O11 0.434484 0.728673 0.472487
O O12 0.070748 0.773720 0.471261
O O13 0.142527 0.809197 0.180595
O O14 0.500000 0.000000 0.500000
O O15 0.365227 0.971984 0.728083
O O16 0.000000 0.000000 0.000000
O O17 0.672362 0.714584 0.690732
O O18 0.000000 0.500000 0.500000
#
# Coordination Sequence:
#
# PCOD8007732 Si02
#       8
#     2   2   2   2   2   2   2   2
#     4  10  23  45  72 102 132 183 254 294 346 417
#     4  10  20  41  67  95 139 168 234 279 337 407
#     4  10  24  41  74  98 134 186 243 297 353 419
#     4  11  25  46  69 102 146 184 237 295 355 420
#     4  11  26  43  71 110 142 182 234 293 360 421
#     4  11  22  43  69 105 135 188 233 290 350 426
#     4  11  23  45  69 100 142 188 231 295 350 426
#     4  12  27  48  64 103 151 190 232 290 371 430
#
# _framework density 24.467589
#
# number of rings (size 3 to 8) (size 9 to 14) (size 15 to 20)
#    0.000    1.250    3.750    2.250    7.000    3.500 
#    2.250    0.000    0.000    0.000    0.000    0.000 
#    0.000    0.000    0.000    0.000    0.000    0.000 
#
# Total GULP energy -198283.304045 kJ/mol
# GULP energy per Si atom -12392.706503 kJ/mol
# Density = 2.441190 g / cm^3
# Si number density = 24.467589 Si / 1000 Ang^3
#
#
#
# Elastic Constant Matrix: (Units=GPa)
#
#
# Indices 1 2 3 4 5 6 
#
# 1 142.0370 40.9454 46.9175 27.4063 19.2718 -19.6224
# 2 40.9454 101.8936 23.9930 36.7297 14.9787 -11.7393
# 3 46.9175 23.9930 82.8234 42.5087 18.5452 -6.8998
# 4 27.4063 36.7297 42.5087 36.0404 1.4109 1.4110
# 5 19.2718 14.9787 18.5452 1.4109 50.1961 7.8092
# 6 -19.6224 -11.7393 -6.8998 1.4110 7.8092 54.2654
#
#
#
# Elastic Compliance Matrix: (Units=1/GPa)
#
#
# Indices 1 2 3 4 5 6 
#
# 1 0.009742 -0.001900 -0.003477 -0.001398 -0.002322 0.003040
# 2 -0.001900 0.037975 0.042037 -0.086536 -0.026650 0.018958
# 3 -0.003477 0.042037 0.087302 -0.142580 -0.043963 0.028971
# 4 -0.001398 -0.086536 -0.142580 0.284249 0.079795 -0.056229
# 5 -0.002322 -0.026650 -0.043963 0.079795 0.046015 -0.020891
# 6 0.003040 0.018958 0.028971 -0.056229 -0.020891 0.031780
#
#
# Mechanical properties :
#
#
# Convention : Reuss Voigt Hill
#
# Bulk Modulus (GPa) = 4.79991 61.16284 32.98138
# Shear Modulus (GPa) = 10.13807 42.42694 26.28250
#
# Velocity S-wave (km/s) = 2.03776 4.16866 3.28102
# Velocity P-wave (km/s) = 2.73909 6.94421 5.27848
#
# Compressibility (1/GPa) = 0.20833706
#
# Stress axis : x y z
#
# Youngs Moduli (GPa) = 102.65298 26.33309 11.45448
#
# Poissons Ratio (x) = 0.05004 0.03983
# Poissons Ratio (y) = 0.19507 -0.48151
# Poissons Ratio (z) = 0.35694 -1.10695
#
# Static dielectric constant tensor:
#      x y z
#    x 4.378180 -0.023710 0.178930 
#    y -0.023710 4.625110 0.097260 
#    z 0.178930 0.097260 5.292030 
# 
# 
# High freq. dielectric constant tensor:
#      x y z
#    x 1.978700 -0.012820 0.004040 
#    y -0.012820 1.972850 0.017510 
#    z 0.004040 0.017510 1.975200 
# 
# From -- ./inp_files/217682.got.cif
#   From: 2010.06.25/outbox.cif.g09.slc.cpg/sg2_109_cif.got.tgz:217682.got - 2010.06.27 13:26:56.
