data_PCOD8007088
_publ_section_title
;
Structure prediction by ZEFSAII (Michael W. Deem and Ramdas Pophale) SiO2 
 PCOD8007088
Probable space group: P -1
;
_chemical_formula_sum "Si O2"
_cell_formula_units_Z 14
_cell_length_a 9.430527
_cell_length_b 8.819210
_cell_length_c 11.503353
_cell_angle_alpha 64.901858
_cell_angle_beta 103.598384
_cell_angle_gamma 60.728236
_cell_volume 626.057106
_symmetry_space_group_name_H-M "P -1"
_symmetry_group_IT_number 2
_symmetry_cell_setting 'triclinic'
loop_
_space_group_symop_operation_xyz
x,y,z
-x,-y,-z
loop_
_atom_site_type_symbol
_atom_site_label
_atom_site_fract_x
_atom_site_fract_y
_atom_site_fract_z
Si Si1 0.933583 0.459162 0.638069
Si Si2 0.453656 0.322186 0.174358
Si Si3 0.281165 0.111232 0.209575
Si Si4 0.684144 0.674834 0.316238
Si Si5 0.444659 0.707474 0.063481
Si Si6 0.928764 0.869642 0.043133
Si Si7 0.694636 0.947697 0.518116
O O1 0.803819 0.478292 0.502279
O O2 0.854313 0.705925 0.568554
O O3 0.164105 0.296554 0.703524
O O4 0.911860 0.355619 0.778583
O O5 0.284978 0.310787 0.163513
O O6 0.376323 0.566581 0.113952
O O7 0.640679 0.136330 0.354927
O O8 0.508177 0.285784 0.061591
O O9 0.230198 0.051036 0.339858
O O10 0.494284 0.901245 0.267017
O O11 0.103534 0.198234 0.063081
O O12 0.629703 0.600823 0.219478
O O13 0.277032 0.965115 0.983147
O O14 0.000000 0.000000 0.000000
O O15 0.500000 0.000000 0.500000
#
# Coordination Sequence:
#
# PCOD8007088 Si02
#       7
#     2   2   2   2   2   2   2
#     4  11  22  39  65  95 123 159 213 253 298 364
#     4  10  20  40  67  87 118 165 208 243 300 375
#     4  10  21  43  67  87 121 170 204 244 314 369
#     4  10  21  40  67  94 117 164 211 254 298 363
#     4  10  23  41  63  92 126 162 200 255 314 357
#     4  11  26  40  61  95 127 157 202 262 305 364
#     4  10  21  38  64  93 120 165 204 251 300 371
#
# _framework density 22.362176999999999
#
# number of rings (size 3 to 8) (size 9 to 14) (size 15 to 20)
#    0.000    1.714    2.857    1.714    6.000    4.000 
#    5.143    3.571    0.000    0.000    0.000    0.000 
#    0.000    0.000    0.000    0.000    0.000    0.000 
#
# Total GULP energy -173480.959066 kJ/mol
# GULP energy per Si atom -12391.497076 kJ/mol
# Density = 2.231128 g / cm^3
# Si number density = 22.362177 Si / 1000 Ang^3
#
#
#
# Elastic Constant Matrix: (Units=GPa)
#
#
# Indices 1 2 3 4 5 6 
#
# 1 47.9840 9.9903 41.4334 11.7289 -0.4613 13.8241
# 2 9.9903 73.6014 53.1808 15.1143 -12.9036 3.1047
# 3 41.4334 53.1808 195.9520 31.1566 -25.1118 19.8077
# 4 11.7289 15.1143 31.1566 39.5612 -2.5517 -0.0387
# 5 -0.4613 -12.9036 -25.1118 -2.5517 29.5727 -0.2271
# 6 13.8241 3.1047 19.8077 -0.0387 -0.2271 33.9153
#
#
#
# Elastic Compliance Matrix: (Units=1/GPa)
#
#
# Indices 1 2 3 4 5 6 
#
# 1 0.028862 0.000407 -0.005052 -0.005011 -0.004163 -0.008885
# 2 0.000407 0.017765 -0.003846 -0.003609 0.004185 0.000478
# 3 -0.005052 -0.003846 0.008735 -0.003571 0.005332 -0.002659
# 4 -0.005011 -0.003609 -0.003571 0.030830 -0.001990 0.004480
# 5 -0.004163 0.004185 0.005332 -0.001990 0.039920 -0.001535
# 6 -0.008885 0.000478 -0.002659 0.004480 -0.001535 0.034611
#
#
# Mechanical properties :
#
#
# Convention : Reuss Voigt Hill
#
# Bulk Modulus (GPa) = 26.05497 58.52739 42.29118
# Shear Modulus (GPa) = 26.24703 34.80535 30.52619
#
# Velocity S-wave (km/s) = 3.42968 3.94945 3.69871
# Velocity P-wave (km/s) = 5.23071 6.85761 6.09865
#
# Compressibility (1/GPa) = 0.03838040
#
# Stress axis : x y z
#
# Youngs Moduli (GPa) = 34.64724 56.29178 114.48171
#
# Poissons Ratio (x) = -0.02288 0.57834
# Poissons Ratio (y) = -0.01408 0.44024
# Poissons Ratio (z) = 0.17503 0.21647
#
# Static dielectric constant tensor:
#      x y z
#    x 3.701470 -0.164600 -0.109660 
#    y -0.164600 4.288930 0.387260 
#    z -0.109660 0.387260 4.892090 
# 
# 
# High freq. dielectric constant tensor:
#      x y z
#    x 1.846000 -0.016950 -0.007290 
#    y -0.016950 1.877700 0.017480 
#    z -0.007290 0.017480 1.907650 
# 
# From -- ./inp_files/160220.got.cif
#   From: 2010.06.25/outbox.cif.g09.slc.cpg/sg2_81_cif.got.tgz:160220.got - 2010.06.27 13:26:56.
