data_PCOD8007221
_publ_section_title
;
Structure prediction by ZEFSAII (Michael W. Deem and Ramdas Pophale) SiO2 
 PCOD8007221
Probable space group: P -1
;
_chemical_formula_sum "Si O2"
_cell_formula_units_Z 16
_cell_length_a 21.799417
_cell_length_b 12.950377
_cell_length_c 12.726352
_cell_angle_alpha 146.558045
_cell_angle_beta 26.376664
_cell_angle_gamma 154.235036
_cell_volume 686.691473
_symmetry_space_group_name_H-M "P -1"
_symmetry_group_IT_number 2
_symmetry_cell_setting 'triclinic'
loop_
_space_group_symop_operation_xyz
x,y,z
-x,-y,-z
loop_
_atom_site_type_symbol
_atom_site_label
_atom_site_fract_x
_atom_site_fract_y
_atom_site_fract_z
Si Si1 0.078690 0.834281 0.536517
Si Si2 0.707758 0.964779 0.217474
Si Si3 0.978012 0.661120 0.310051
Si Si4 0.299529 0.374011 0.670904
Si Si5 0.336888 0.734909 0.063334
Si Si6 0.619016 0.284612 0.638343
Si Si7 0.313463 0.453554 0.044210
Si Si8 0.044267 0.295479 0.848310
O O1 0.179585 0.736782 0.340041
O O2 0.066386 0.827152 0.420163
O O3 0.891329 0.666258 0.737237
O O4 0.184870 0.098342 0.647122
O O5 0.571551 0.887881 0.267093
O O6 0.691819 0.147757 0.460964
O O7 0.661041 0.749598 0.182004
O O8 0.897302 0.082577 0.972418
O O9 0.766408 0.472566 0.488155
O O10 0.006360 0.800746 0.276214
O O11 0.059822 0.528670 0.045818
O O12 0.500000 0.500000 0.500000
O O13 0.236387 0.364516 0.639674
O O14 0.249936 0.524748 0.932510
O O15 0.404100 0.651016 0.980713
O O16 0.500000 0.000000 0.000000
O O17 0.592246 0.413510 0.879582
#
# Coordination Sequence:
#
# PCOD8007221 Si02
#       8
#     2   2   2   2   2   2   2   2
#     4  11  23  45  68 100 131 176 229 279 335 399
#     4  10  20  41  64  99 136 171 224 276 329 404
#     4   9  20  39  69  97 133 175 215 275 340 397
#     4  12  25  44  68  97 137 177 227 279 333 406
#     4  12  27  47  65  94 135 177 230 286 335 397
#     4   9  21  40  63  99 140 170 215 276 340 397
#     4  11  24  42  69  95 131 183 224 274 334 407
#     4  10  20  40  68  98 133 176 220 274 334 394
#
# _framework density 23.300129999999999
#
# number of rings (size 3 to 8) (size 9 to 14) (size 15 to 20)
#    0.000    1.500    3.750    0.750    0.000    4.000 
#    4.500    0.000    0.000    0.000    0.000    0.000 
#    0.000    0.000    0.000    0.000    0.000    0.000 
#
# Total GULP energy -198233.070628 kJ/mol
# GULP energy per Si atom -12389.566914 kJ/mol
# Density = 2.324710 g / cm^3
# Si number density = 23.300130 Si / 1000 Ang^3
#
#
#
# Elastic Constant Matrix: (Units=GPa)
#
#
# Indices 1 2 3 4 5 6 
#
# 1 97.9634 33.7846 19.4217 -8.9902 -18.3958 -13.9145
# 2 33.7846 115.8216 27.1374 15.6779 1.5729 -5.2656
# 3 19.4217 27.1374 49.5985 9.1587 -10.8469 -2.3789
# 4 -8.9902 15.6779 9.1587 30.8494 5.1606 -4.4316
# 5 -18.3958 1.5729 -10.8469 5.1606 31.2136 -0.7282
# 6 -13.9145 -5.2656 -2.3789 -4.4316 -0.7282 44.6321
#
#
#
# Elastic Compliance Matrix: (Units=1/GPa)
#
#
# Indices 1 2 3 4 5 6 
#
# 1 0.014989 -0.004514 -0.002946 0.007058 0.006983 0.004798
# 2 -0.004514 0.011770 -0.004587 -0.005394 -0.003976 -0.000864
# 3 -0.002946 -0.004587 0.027378 -0.008319 0.009369 -0.000673
# 4 0.007058 -0.005394 -0.008319 0.041286 -0.005166 0.005136
# 5 0.006983 -0.003976 0.009369 -0.005166 0.040518 0.002355
# 6 0.004798 -0.000864 -0.000673 0.005136 0.002355 0.024312
#
#
# Mechanical properties :
#
#
# Convention : Reuss Voigt Hill
#
# Bulk Modulus (GPa) = 33.28500 47.11898 40.20199
# Shear Modulus (GPa) = 25.72528 33.54168 29.63348
#
# Velocity S-wave (km/s) = 3.32638 3.79826 3.57012
# Velocity P-wave (km/s) = 5.39160 6.28508 5.85541
#
# Compressibility (1/GPa) = 0.03004357
#
# Stress axis : x y z
#
# Youngs Moduli (GPa) = 66.71493 84.95825 36.52564
#
# Poissons Ratio (x) = 0.38352 0.10759
# Poissons Ratio (y) = 0.30116 0.16755
# Poissons Ratio (z) = 0.19651 0.38973
#
# Static dielectric constant tensor:
#      x y z
#    x 4.134900 0.085550 -0.089040 
#    y 0.085550 4.455250 0.530340 
#    z -0.089040 0.530340 4.420830 
# 
# 
# High freq. dielectric constant tensor:
#      x y z
#    x 1.915200 0.008060 -0.021980 
#    y 0.008060 1.920130 0.023160 
#    z -0.021980 0.023160 1.916950 
# 
# From -- ./inp_files/471236.got.cif
#   From: 2010.06.25/outbox.cif.g09.slc.cpg/sg2_236_cif.got.tgz:471236.got - 2010.06.27 13:26:56.
