data_PCOD8007178
_publ_section_title
;
Structure prediction by ZEFSAII (Michael W. Deem and Ramdas Pophale) SiO2 
 PCOD8007178
Probable space group: P -1
;
_chemical_formula_sum "Si O2"
_cell_formula_units_Z 14
_cell_length_a 17.769375
_cell_length_b 12.746827
_cell_length_c 9.046381
_cell_angle_alpha 32.265573
_cell_angle_beta 113.395282
_cell_angle_gamma 134.626790
_cell_volume 665.752376
_symmetry_space_group_name_H-M "P -1"
_symmetry_group_IT_number 2
_symmetry_cell_setting 'triclinic'
loop_
_space_group_symop_operation_xyz
x,y,z
-x,-y,-z
loop_
_atom_site_type_symbol
_atom_site_label
_atom_site_fract_x
_atom_site_fract_y
_atom_site_fract_z
Si Si1 0.255029 0.604645 0.339803
Si Si2 0.949887 0.705154 0.249802
Si Si3 0.738836 0.202714 0.489041
Si Si4 0.214114 0.080071 0.946935
Si Si5 0.336127 0.926376 0.737064
Si Si6 0.616173 0.648545 0.511360
Si Si7 0.470030 0.027612 0.212621
O O1 0.142159 0.533823 0.405299
O O2 0.244349 0.360086 0.676671
O O3 0.384034 0.916990 0.133651
O O4 0.259264 0.640018 0.125142
O O5 0.859537 0.544796 0.226679
O O6 0.000000 0.000000 0.000000
O O7 0.066209 0.777356 0.210827
O O8 0.745931 0.187689 0.336838
O O9 0.614571 0.101648 0.553385
O O10 0.724448 0.962286 0.840670
O O11 0.260754 0.128752 0.758630
O O12 0.471291 0.083759 0.614233
O O13 0.358405 0.170356 0.544648
O O14 0.500000 0.500000 0.500000
O O15 0.586870 0.383776 0.873607
#
# Coordination Sequence:
#
# PCOD8007178 Si02
#       7
#     2   2   2   2   2   2   2
#     4  10  20  40  68  88 119 170 208 245 300 372
#     4   9  21  43  67  86 116 168 210 245 305 374
#     4  11  24  40  61  96 125 154 206 263 308 351
#     4  11  21  41  66  89 120 164 211 250 297 377
#     4  12  24  39  61  96 130 158 200 261 310 350
#     4  12  21  39  65  92 121 168 211 241 299 373
#     4  11  22  41  62  88 129 168 205 241 305 379
#
# _framework density 21.028839999999999
#
# number of rings (size 3 to 8) (size 9 to 14) (size 15 to 20)
#    0.000    1.143    4.286    3.000    0.000    0.571 
#    7.714    5.714    0.000    0.000    0.000    0.000 
#    0.000    0.000    0.000    0.000    0.000    0.000 
#
# Total GULP energy -173501.879529 kJ/mol
# GULP energy per Si atom -12392.991395 kJ/mol
# Density = 2.098098 g / cm^3
# Si number density = 21.028840 Si / 1000 Ang^3
#
#
#
# Elastic Constant Matrix: (Units=GPa)
#
#
# Indices 1 2 3 4 5 6 
#
# 1 135.2493 47.0547 37.8710 -6.9050 -28.7530 -9.2662
# 2 47.0547 128.6187 48.1256 1.6796 -10.5822 -33.7563
# 3 37.8710 48.1256 96.1276 -13.1999 -2.9566 -7.8315
# 4 -6.9050 1.6796 -13.1999 26.8007 -1.2533 -3.0702
# 5 -28.7530 -10.5822 -2.9566 -1.2533 33.3795 -5.6370
# 6 -9.2662 -33.7563 -7.8315 -3.0702 -5.6370 28.3946
#
#
#
# Elastic Compliance Matrix: (Units=1/GPa)
#
#
# Indices 1 2 3 4 5 6 
#
# 1 0.011003 -0.001372 -0.002758 0.002386 0.009451 0.003333
# 2 -0.001372 0.015615 -0.005934 -0.001966 0.006121 0.017481
# 3 -0.002758 -0.005934 0.014930 0.006423 -0.003336 -0.003805
# 4 0.002386 -0.001966 0.006423 0.042075 0.004537 0.005663
# 5 0.009451 0.006121 -0.003336 0.004537 0.043035 0.018475
# 6 0.003333 0.017481 -0.003805 0.005663 0.018475 0.060318
#
#
# Mechanical properties :
#
#
# Convention : Reuss Voigt Hill
#
# Bulk Modulus (GPa) = 46.68904 69.56646 58.12775
# Shear Modulus (GPa) = 23.33800 32.84459 28.09129
#
# Velocity S-wave (km/s) = 3.33499 3.95635 3.65889
# Velocity P-wave (km/s) = 6.08935 7.35007 6.74921
#
# Compressibility (1/GPa) = 0.02141830
#
# Stress axis : x y z
#
# Youngs Moduli (GPa) = 90.88639 64.04241 66.98096
#
# Poissons Ratio (x) = 0.08789 0.18472
# Poissons Ratio (y) = 0.12472 0.39748
# Poissons Ratio (z) = 0.25065 0.38004
#
# Static dielectric constant tensor:
#      x y z
#    x 4.207930 -0.110460 -0.236380 
#    y -0.110460 3.474300 -0.193230 
#    z -0.236380 -0.193230 4.006090 
# 
# 
# High freq. dielectric constant tensor:
#      x y z
#    x 1.845980 -0.018950 -0.004790 
#    y -0.018950 1.785440 -0.013200 
#    z -0.004790 -0.013200 1.828860 
# 
# From -- ./inp_files/215570.got.cif
#   From: 2010.06.25/outbox.cif.g09.slc.cpg/sg2_108_cif.got.tgz:215570.got - 2010.06.27 13:26:56.
