data_PCOD8007328
_publ_section_title
;
Structure prediction by ZEFSAII (Michael W. Deem and Ramdas Pophale) SiO2 
 PCOD8007328
Probable space group: P -1
;
_chemical_formula_sum "Si O2"
_cell_formula_units_Z 14
_cell_length_a 18.518679
_cell_length_b 20.900828
_cell_length_c 8.158599
_cell_angle_alpha 41.680285
_cell_angle_beta 131.338167
_cell_angle_gamma 162.064698
_cell_volume 627.012395
_symmetry_space_group_name_H-M "P -1"
_symmetry_group_IT_number 2
_symmetry_cell_setting 'triclinic'
loop_
_space_group_symop_operation_xyz
x,y,z
-x,-y,-z
loop_
_atom_site_type_symbol
_atom_site_label
_atom_site_fract_x
_atom_site_fract_y
_atom_site_fract_z
Si Si1 0.029660 0.239625 0.431434
Si Si2 0.182358 0.206102 0.516039
Si Si3 0.190650 0.560181 0.240831
Si Si4 0.356409 0.886837 0.670233
Si Si5 0.106973 0.178393 0.966387
Si Si6 0.510056 0.803109 0.546916
Si Si7 0.511788 0.599761 0.030054
O O1 0.117734 0.254438 0.386718
O O2 0.175039 0.472796 0.229253
O O3 0.050028 0.209504 0.697363
O O4 0.757148 0.018410 0.404059
O O5 0.450982 0.469388 0.339335
O O6 0.000000 0.000000 0.500000
O O7 0.153940 0.098390 0.820896
O O8 0.302884 0.611041 0.468653
O O9 0.929280 0.353315 0.315481
O O10 0.364374 0.804966 0.966705
O O11 0.500000 0.000000 0.500000
O O12 0.501175 0.109165 0.536884
O O13 0.223178 0.186976 0.046637
O O14 0.299378 0.390252 0.980545
O O15 0.495620 0.698974 0.851037
#
# Coordination Sequence:
#
# PCOD8007328 Si02
#       7
#     2   2   2   2   2   2   2
#     4  11  22  40  65  90 127 170 208 251 302 365
#     4  10  22  36  56  87 124 167 211 250 294 350
#     4  10  23  45  66  93 126 157 201 256 316 368
#     4  10  24  45  69  95 120 155 203 257 315 382
#     4  10  20  41  58  84 130 166 207 255 293 356
#     4  11  22  42  66  92 126 163 202 255 314 367
#     4  10  21  37  61  88 123 167 208 250 305 352
#
# _framework density 22.328105999999998
#
# number of rings (size 3 to 8) (size 9 to 14) (size 15 to 20)
#    0.000    1.714    2.857    0.857    2.000    1.143 
#    2.571    0.000    0.000    0.000    0.000    0.000 
#    0.000    0.000    0.000    0.000    0.000    0.000 
#
# Total GULP energy -173475.429429 kJ/mol
# GULP energy per Si atom -12391.102102 kJ/mol
# Density = 2.227729 g / cm^3
# Si number density = 22.328106 Si / 1000 Ang^3
#
#
#
# Elastic Constant Matrix: (Units=GPa)
#
#
# Indices 1 2 3 4 5 6 
#
# 1 123.5822 14.9054 36.1082 -9.4863 9.4499 -4.7278
# 2 14.9054 68.0538 26.4936 -8.4039 -3.5450 6.6157
# 3 36.1082 26.4936 134.5462 -13.0619 8.3093 1.7721
# 4 -9.4863 -8.4039 -13.0619 31.6735 5.1463 -0.1157
# 5 9.4499 -3.5450 8.3093 5.1463 36.7194 -3.0800
# 6 -4.7278 6.6157 1.7721 -0.1157 -3.0800 24.2502
#
#
#
# Elastic Compliance Matrix: (Units=1/GPa)
#
#
# Indices 1 2 3 4 5 6 
#
# 1 0.009206 -0.001341 -0.001907 0.001976 -0.002173 0.002033
# 2 -0.001341 0.016919 -0.002774 0.002624 0.001867 -0.004425
# 3 -0.001907 -0.002774 0.008899 0.002721 -0.002217 -0.000534
# 4 0.001976 0.002624 0.002721 0.034930 -0.005859 -0.001107
# 5 -0.002173 0.001867 -0.002217 -0.005859 0.029544 0.002953
# 6 0.002033 -0.004425 -0.000534 -0.001107 0.002953 0.043249
#
#
# Mechanical properties :
#
#
# Convention : Reuss Voigt Hill
#
# Bulk Modulus (GPa) = 43.51666 53.46627 48.49146
# Shear Modulus (GPa) = 30.77838 35.10697 32.94267
#
# Velocity S-wave (km/s) = 3.71679 3.96955 3.84525
# Velocity P-wave (km/s) = 6.16046 6.70876 6.44045
#
# Compressibility (1/GPa) = 0.02297971
#
# Stress axis : x y z
#
# Youngs Moduli (GPa) = 108.61949 59.10403 112.37725
#
# Poissons Ratio (x) = 0.07924 0.21436
# Poissons Ratio (y) = 0.14563 0.31174
# Poissons Ratio (z) = 0.20719 0.16396
#
# Static dielectric constant tensor:
#      x y z
#    x 4.110070 -0.185930 0.082070 
#    y -0.185930 4.158240 -0.156870 
#    z 0.082070 -0.156870 4.258680 
# 
# 
# High freq. dielectric constant tensor:
#      x y z
#    x 1.871060 -0.019340 0.013460 
#    y -0.019340 1.900870 -0.011120 
#    z 0.013460 -0.011120 1.885430 
# 
# From -- ./inp_files/337482.got.cif
#   From: 2010.06.25/outbox.cif.g09.slc.cpg/sg2_169_cif.got.tgz:337482.got - 2010.06.27 13:26:56.
