data_PCOD8007218
_publ_section_title
;
Structure prediction by ZEFSAII (Michael W. Deem and Ramdas Pophale) SiO2 
 PCOD8007218
Probable space group: P -1
;
_chemical_formula_sum "Si O2"
_cell_formula_units_Z 14
_cell_length_a 8.304914
_cell_length_b 12.956163
_cell_length_c 8.725939
_cell_angle_alpha 40.568861
_cell_angle_beta 100.199879
_cell_angle_gamma 101.779859
_cell_volume 597.413068
_symmetry_space_group_name_H-M "P -1"
_symmetry_group_IT_number 2
_symmetry_cell_setting 'triclinic'
loop_
_space_group_symop_operation_xyz
x,y,z
-x,-y,-z
loop_
_atom_site_type_symbol
_atom_site_label
_atom_site_fract_x
_atom_site_fract_y
_atom_site_fract_z
Si Si1 0.766291 0.794276 0.114319
Si Si2 0.012301 0.687263 0.769967
Si Si3 0.545747 0.632087 0.023219
Si Si4 0.919439 0.283508 0.916933
Si Si5 0.755851 0.581498 0.629352
Si Si6 0.331770 0.899705 0.129725
Si Si7 0.334966 0.681664 0.660375
O O1 0.627713 0.773205 0.983321
O O2 0.691006 0.683307 0.366228
O O3 0.939598 0.739432 0.155657
O O4 0.788932 0.980255 0.953157
O O5 0.173680 0.744844 0.633246
O O6 0.848086 0.712431 0.616789
O O7 0.027766 0.776483 0.837181
O O8 0.000000 0.500000 0.000000
O O9 0.389615 0.529309 0.189430
O O10 0.684452 0.511379 0.150211
O O11 0.489029 0.716032 0.764592
O O12 0.888139 0.468736 0.712600
O O13 0.752657 0.182363 0.943180
O O14 0.373015 0.766984 0.408892
O O15 0.500000 0.000000 0.000000
#
# Coordination Sequence:
#
# PCOD8007218 Si02
#       7
#     2   2   2   2   2   2   2
#     4  12  25  41  66  96 132 174 212 257 325 385
#     4  10  20  40  68  98 130 159 211 270 322 369
#     4  11  22  39  71 101 124 162 224 266 320 370
#     4  11  23  43  66  95 129 165 221 265 317 378
#     4  11  21  41  70  98 129 163 215 274 315 374
#     4  12  27  47  63  91 134 175 215 260 322 387
#     4  11  23  42  69  94 133 164 214 269 320 376
#
# _framework density 23.434370999999999
#
# number of rings (size 3 to 8) (size 9 to 14) (size 15 to 20)
#    0.000    0.857    2.857    6.429    2.000    0.571 
#    0.000    1.429    0.000    0.000    0.000    0.000 
#    0.000    0.000    0.000    0.000    0.000    0.000 
#
# Total GULP energy -173589.276184 kJ/mol
# GULP energy per Si atom -12399.234013 kJ/mol
# Density = 2.338103 g / cm^3
# Si number density = 23.434371 Si / 1000 Ang^3
#
#
#
# Elastic Constant Matrix: (Units=GPa)
#
#
# Indices 1 2 3 4 5 6 
#
# 1 72.5680 21.5359 11.1652 10.0383 -7.7937 6.8428
# 2 21.5359 150.4608 41.5988 24.1507 5.9793 28.4503
# 3 11.1652 41.5988 53.4053 10.0482 -0.4990 9.1191
# 4 10.0383 24.1507 10.0482 26.2395 -4.3749 6.2064
# 5 -7.7937 5.9793 -0.4990 -4.3749 27.5014 2.4977
# 6 6.8428 28.4503 9.1191 6.2064 2.4977 43.0314
#
#
#
# Elastic Compliance Matrix: (Units=1/GPa)
#
#
# Indices 1 2 3 4 5 6 
#
# 1 0.015368 -0.001252 -0.001403 -0.003232 0.004187 -0.001095
# 2 -0.001252 0.010455 -0.005971 -0.006393 -0.003360 -0.004331
# 3 -0.001403 -0.005971 0.024345 -0.002992 0.000922 -0.000610
# 4 -0.003232 -0.006393 -0.002992 0.048246 0.008282 -0.002064
# 5 0.004187 -0.003360 0.000922 0.008282 0.039808 -0.002145
# 6 -0.001095 -0.004331 -0.000610 -0.002064 -0.002145 0.026828
#
#
# Mechanical properties :
#
#
# Convention : Reuss Voigt Hill
#
# Bulk Modulus (GPa) = 30.38143 47.22599 38.80371
# Shear Modulus (GPa) = 25.87013 32.83008 29.35010
#
# Velocity S-wave (km/s) = 3.32616 3.74697 3.54282
# Velocity P-wave (km/s) = 5.26724 6.23826 5.77320
#
# Compressibility (1/GPa) = 0.03291484
#
# Stress axis : x y z
#
# Youngs Moduli (GPa) = 65.07127 95.64984 41.07660
#
# Poissons Ratio (x) = 0.11977 0.05764
# Poissons Ratio (y) = 0.08148 0.24526
# Poissons Ratio (z) = 0.09131 0.57111
#
# Static dielectric constant tensor:
#      x y z
#    x 4.501010 0.278590 0.399280 
#    y 0.278590 5.063000 0.510260 
#    z 0.399280 0.510260 4.128330 
# 
# 
# High freq. dielectric constant tensor:
#      x y z
#    x 1.933450 0.001360 0.005580 
#    y 0.001360 1.936830 0.028970 
#    z 0.005580 0.028970 1.897650 
# 
# From -- ./inp_files/183833.got.cif
#   From: 2010.06.25/outbox.cif.g09.slc.cpg/sg2_92_cif.got.tgz:183833.got - 2010.06.27 13:26:56.
