data_PCOD8007188
_publ_section_title
;
Structure prediction by ZEFSAII (Michael W. Deem and Ramdas Pophale) SiO2 
 PCOD8007188
Probable space group: P -1
;
_chemical_formula_sum "Si O2"
_cell_formula_units_Z 16
_cell_length_a 7.711929
_cell_length_b 11.103736
_cell_length_c 9.295733
_cell_angle_alpha 99.896077
_cell_angle_beta 121.840302
_cell_angle_gamma 78.908425
_cell_volume 661.223882
_symmetry_space_group_name_H-M "P -1"
_symmetry_group_IT_number 2
_symmetry_cell_setting 'triclinic'
loop_
_space_group_symop_operation_xyz
x,y,z
-x,-y,-z
loop_
_atom_site_type_symbol
_atom_site_label
_atom_site_fract_x
_atom_site_fract_y
_atom_site_fract_z
Si Si1 0.821330 0.931394 0.846499
Si Si2 0.532547 0.564829 0.878831
Si Si3 0.761448 0.780420 0.042448
Si Si4 0.171346 0.628008 0.183043
Si Si5 0.981395 0.138155 0.574007
Si Si6 0.618778 0.156150 0.632779
Si Si7 0.285352 0.518688 0.493344
Si Si8 0.156683 0.252048 0.411309
O O1 0.928594 0.813103 0.778859
O O2 0.667871 0.027044 0.708333
O O3 0.694845 0.883069 0.913805
O O4 0.000000 0.000000 0.000000
O O5 0.741439 0.498718 0.881985
O O6 0.334210 0.566270 0.685447
O O7 0.500000 0.500000 0.000000
O O8 0.567584 0.704565 0.963193
O O9 0.834476 0.847400 0.229623
O O10 0.948655 0.684001 0.042207
O O11 0.331052 0.724796 0.230367
O O12 0.146059 0.611820 0.344957
O O13 0.007944 0.233205 0.475755
O O14 0.755478 0.163173 0.549862
O O15 0.000000 0.000000 0.500000
O O16 0.379029 0.172230 0.502868
O O17 0.500000 0.500000 0.500000
O O18 0.172951 0.396166 0.431426
#
# Coordination Sequence:
#
# PCOD8007188 Si02
#       8
#     2   2   2   2   2   2   2   2
#     4  12  22  41  66  97 129 172 217 273 329 381
#     4  11  22  40  64  96 133 161 209 278 320 374
#     4  11  24  41  68  92 130 173 210 271 336 372
#     4  10  21  42  66  88 129 175 215 253 326 401
#     4  11  23  43  66  98 133 167 225 271 313 396
#     4  11  23  43  71  93 131 178 221 262 329 397
#     4  10  20  40  68  92 127 172 220 258 317 404
#     4  12  23  42  73  91 129 182 214 265 336 386
#
# _framework density 24.197552999999999
#
# number of rings (size 3 to 8) (size 9 to 14) (size 15 to 20)
#    0.000    1.000    6.250    3.000    0.000    0.000 
#    0.000    8.750    5.500    0.000    0.000    0.000 
#    0.000    0.000    0.000    0.000    0.000    0.000 
#
# Total GULP energy -198298.644634 kJ/mol
# GULP energy per Si atom -12393.665290 kJ/mol
# Density = 2.414248 g / cm^3
# Si number density = 24.197553 Si / 1000 Ang^3
#
#
#
# Elastic Constant Matrix: (Units=GPa)
#
#
# Indices 1 2 3 4 5 6 
#
# 1 68.1198 23.0884 28.1542 -6.1260 -7.4115 26.2501
# 2 23.0884 119.9909 40.9767 3.6715 -0.5769 43.8635
# 3 28.1542 40.9767 114.1311 11.3519 -19.1333 20.6684
# 4 -6.1260 3.6715 11.3519 55.9508 9.9515 -2.5560
# 5 -7.4115 -0.5769 -19.1333 9.9515 33.2206 -8.4715
# 6 26.2501 43.8635 20.6684 -2.5560 -8.4715 48.8419
#
#
#
# Elastic Compliance Matrix: (Units=1/GPa)
#
#
# Indices 1 2 3 4 5 6 
#
# 1 0.019944 0.001127 -0.003955 0.002661 -0.001187 -0.010124
# 2 0.001127 0.013915 -0.003919 0.000333 -0.004999 -0.012294
# 3 -0.003955 -0.003919 0.012609 -0.004073 0.007906 0.001467
# 4 0.002661 0.000333 -0.004073 0.020364 -0.007927 -0.000314
# 5 -0.001187 -0.004999 0.007906 -0.007927 0.038740 0.008086
# 6 -0.010124 -0.012294 0.001467 -0.000314 0.008086 0.037721
#
#
# Mechanical properties :
#
#
# Convention : Reuss Voigt Hill
#
# Bulk Modulus (GPa) = 30.32596 54.07563 42.20080
# Shear Modulus (GPa) = 29.80099 41.60416 35.70257
#
# Velocity S-wave (km/s) = 3.51318 4.15101 3.84534
# Velocity P-wave (km/s) = 5.38669 6.73577 6.09865
#
# Compressibility (1/GPa) = 0.03297505
#
# Stress axis : x y z
#
# Youngs Moduli (GPa) = 50.14042 71.86354 79.30678
#
# Poissons Ratio (x) = -0.08097 0.31363
# Poissons Ratio (y) = -0.05649 0.31078
# Poissons Ratio (z) = 0.19829 0.28161
#
# Static dielectric constant tensor:
#      x y z
#    x 4.112920 0.260040 -0.237720 
#    y 0.260040 4.441060 0.316330 
#    z -0.237720 0.316330 4.690270 
# 
# 
# High freq. dielectric constant tensor:
#      x y z
#    x 1.933030 0.025940 -0.002720 
#    y 0.025940 1.981960 0.011640 
#    z -0.002720 0.011640 1.964820 
# 
# From -- ./inp_files/180703.got.cif
#   From: 2010.06.25/outbox.cif.g09.slc.cpg/sg2_91_cif.got.tgz:180703.got - 2010.06.27 13:26:56.
