data_PCOD8007735
_publ_section_title
;
Structure prediction by ZEFSAII (Michael W. Deem and Ramdas Pophale) SiO2 
 PCOD8007735
Probable space group: P -1
;
_chemical_formula_sum "Si O2"
_cell_formula_units_Z 14
_cell_length_a 12.213716
_cell_length_b 13.891087
_cell_length_c 20.170963
_cell_angle_alpha 150.248374
_cell_angle_beta 157.926224
_cell_angle_gamma 32.892333
_cell_volume 626.769421
_symmetry_space_group_name_H-M "P -1"
_symmetry_group_IT_number 2
_symmetry_cell_setting 'triclinic'
loop_
_space_group_symop_operation_xyz
x,y,z
-x,-y,-z
loop_
_atom_site_type_symbol
_atom_site_label
_atom_site_fract_x
_atom_site_fract_y
_atom_site_fract_z
Si Si1 0.215357 0.286863 0.178010
Si Si2 0.400611 0.532388 0.114586
Si Si3 0.591642 0.889717 0.174910
Si Si4 0.781803 0.411979 0.371541
Si Si5 0.377967 0.461485 0.498605
Si Si6 0.286345 0.112522 0.503186
Si Si7 0.172406 0.923347 0.459697
O O1 0.149188 0.400657 0.279794
O O2 0.512927 0.339453 0.343514
O O3 0.286919 0.049670 0.088026
O O4 0.937804 0.352913 0.013181
O O5 0.464271 0.461489 0.185227
O O6 0.603039 0.685104 0.293981
O O7 0.477351 0.330936 0.994704
O O8 0.823013 0.919352 0.264124
O O9 0.741178 0.916195 0.345389
O O10 0.768663 0.511314 0.495617
O O11 0.000000 0.500000 0.500000
O O12 0.938842 0.179302 0.325753
O O13 0.669486 0.293465 0.560203
O O14 0.500000 0.000000 0.500000
O O15 0.288721 0.967831 0.479438
#
# Coordination Sequence:
#
# PCOD8007735 Si02
#       7
#     2   2   2   2   2   2   2
#     4  10  22  40  69  98 129 166 212 274 314 378
#     4  11  24  43  65  99 131 165 222 271 306 390
#     4  10  22  40  67 100 129 163 219 266 320 374
#     4  10  23  42  61  88 129 173 208 260 322 383
#     4  10  20  42  67  95 131 170 213 258 332 380
#     4  11  25  44  66  89 131 179 211 259 336 384
#     4  10  20  41  67  96 131 172 209 262 325 388
#
# _framework density 22.336763000000001
#
# number of rings (size 3 to 8) (size 9 to 14) (size 15 to 20)
#    0.000    1.714    1.429    2.571    6.000    1.143 
#    5.143    2.857    0.000    0.000    0.000    0.000 
#    0.000    0.000    0.000    0.000    0.000    0.000 
#
# Total GULP energy -173509.301589 kJ/mol
# GULP energy per Si atom -12393.521542 kJ/mol
# Density = 2.228592 g / cm^3
# Si number density = 22.336763 Si / 1000 Ang^3
#
#
#
# Elastic Constant Matrix: (Units=GPa)
#
#
# Indices 1 2 3 4 5 6 
#
# 1 132.7166 7.4594 16.9628 -12.3353 -9.7678 -7.9000
# 2 7.4594 109.1555 34.2829 -13.5685 -9.9252 2.3894
# 3 16.9628 34.2829 65.2236 -16.9422 -14.6915 4.2067
# 4 -12.3353 -13.5685 -16.9422 36.5726 6.3387 -0.3545
# 5 -9.7678 -9.9252 -14.6915 6.3387 19.1916 0.7781
# 6 -7.9000 2.3894 4.2067 -0.3545 0.7781 34.0415
#
#
#
# Elastic Compliance Matrix: (Units=1/GPa)
#
#
# Indices 1 2 3 4 5 6 
#
# 1 0.008169 0.000282 -0.001349 0.001805 0.002594 0.002002
# 2 0.000282 0.011092 -0.005174 0.001569 0.001404 -0.000090
# 3 -0.001349 -0.005174 0.022953 0.006095 0.012318 -0.003004
# 4 0.001805 0.001569 0.006095 0.032085 -0.004201 -0.000014
# 5 0.002594 0.001404 0.012318 -0.004201 0.065073 -0.002550
# 6 0.002002 -0.000090 -0.003004 -0.000014 -0.002550 0.030276
#
#
# Mechanical properties :
#
#
# Convention : Reuss Voigt Hill
#
# Bulk Modulus (GPa) = 33.63237 47.16734 40.39986
# Shear Modulus (GPa) = 26.03614 34.52054 30.27834
#
# Velocity S-wave (km/s) = 3.41782 3.93550 3.68576
# Velocity P-wave (km/s) = 5.53760 6.46631 6.01989
#
# Compressibility (1/GPa) = 0.02973326
#
# Stress axis : x y z
#
# Youngs Moduli (GPa) = 122.41039 90.15857 43.56634
#
# Poissons Ratio (x) = -0.02540 0.05876
# Poissons Ratio (y) = -0.03448 0.22539
# Poissons Ratio (z) = 0.16510 0.46644
#
# Static dielectric constant tensor:
#      x y z
#    x 3.971200 0.324080 -0.450730 
#    y 0.324080 4.457240 -0.320510 
#    z -0.450730 -0.320510 4.196160 
# 
# 
# High freq. dielectric constant tensor:
#      x y z
#    x 1.866260 0.009750 -0.012840 
#    y 0.009750 1.904290 -0.007840 
#    z -0.012840 -0.007840 1.853650 
# 
# From -- ./inp_files/447979.got.cif
#   From: 2010.06.25/outbox.cif.g09.slc.cpg/sg2_224_cif.got.tgz:447979.got - 2010.06.27 13:26:56.
