data_PCOD8007931
_publ_section_title
;
Structure prediction by ZEFSAII (Michael W. Deem and Ramdas Pophale) SiO2 
 PCOD8007931
Probable space group: P -1
;
_chemical_formula_sum "Si O2"
_cell_formula_units_Z 16
_cell_length_a 9.345158
_cell_length_b 9.158220
_cell_length_c 14.050068
_cell_angle_alpha 70.697964
_cell_angle_beta 81.004937
_cell_angle_gamma 130.521492
_cell_volume 738.306091
_symmetry_space_group_name_H-M "P -1"
_symmetry_group_IT_number 2
_symmetry_cell_setting 'triclinic'
loop_
_space_group_symop_operation_xyz
x,y,z
-x,-y,-z
loop_
_atom_site_type_symbol
_atom_site_label
_atom_site_fract_x
_atom_site_fract_y
_atom_site_fract_z
Si Si1 0.137593 0.371147 0.821079
Si Si2 0.930258 0.064549 0.571233
Si Si3 0.725470 0.142471 0.993353
Si Si4 0.603163 0.436574 0.551330
Si Si5 0.498883 0.172469 0.439406
Si Si6 0.632209 0.746900 0.186770
Si Si7 0.287522 0.541447 0.979196
Si Si8 0.316237 0.311899 0.168296
O O1 0.298159 0.603498 0.691427
O O2 0.165258 0.211464 0.824844
O O3 0.165644 0.419893 0.919811
O O4 0.890259 0.239302 0.866081
O O5 0.130496 0.341685 0.514925
O O6 0.719364 0.976104 0.567101
O O7 0.871690 0.930043 0.703755
O O8 0.000000 0.000000 0.500000
O O9 0.773927 0.333861 0.009881
O O10 0.500000 0.000000 0.000000
O O11 0.717152 0.980251 0.092502
O O12 0.500000 0.500000 0.500000
O O13 0.516960 0.239579 0.531562
O O14 0.505861 0.331637 0.687841
O O15 0.500000 0.000000 0.500000
O O16 0.477498 0.533628 0.174462
O O17 0.547142 0.706689 0.903107
O O18 0.196072 0.342538 0.107901
#
# Coordination Sequence:
#
# PCOD8007931 Si02
#       8
#     2   2   2   2   2   2   2   2
#     4  11  24  48  64  96 142 176 231 283 345 422
#     4  12  22  44  76 101 138 187 234 287 340 421
#     4  12  26  41  67  99 137 174 231 290 342 403
#     4  12  24  45  75 106 135 185 241 279 350 419
#     4  12  28  48  70 106 146 182 231 298 350 412
#     4  11  22  44  69  99 136 181 228 284 343 417
#     4  10  22  42  65  97 130 180 220 280 345 405
#     4  10  20  41  72  97 139 175 230 278 347 416
#
# _framework density 21.671229
#
# number of rings (size 3 to 8) (size 9 to 14) (size 15 to 20)
#    0.000    0.750    7.500    0.750    1.750    4.500 
#    0.000    0.000    0.000    0.000    0.000    0.000 
#    0.000    0.000    0.000    0.000    0.000    0.000 
#
# Total GULP energy -198239.960860 kJ/mol
# GULP energy per Si atom -12389.997554 kJ/mol
# Density = 2.162190 g / cm^3
# Si number density = 21.671229 Si / 1000 Ang^3
#
#
#
# Elastic Constant Matrix: (Units=GPa)
#
#
# Indices 1 2 3 4 5 6 
#
# 1 141.2819 45.4119 88.3063 -19.3795 0.9016 -23.0550
# 2 45.4119 74.1679 23.8867 6.1019 -1.6086 -17.8887
# 3 88.3063 23.8867 137.5572 5.0038 -1.8331 -18.1173
# 4 -19.3795 6.1019 5.0038 29.6459 0.6752 3.6362
# 5 0.9016 -1.6086 -1.8331 0.6752 35.4688 -7.7322
# 6 -23.0550 -17.8887 -18.1173 3.6362 -7.7322 40.4822
#
#
#
# Elastic Compliance Matrix: (Units=1/GPa)
#
#
# Indices 1 2 3 4 5 6 
#
# 1 0.019948 -0.009926 -0.011757 0.017136 -0.001934 -0.000196
# 2 -0.009926 0.021069 0.004168 -0.012494 0.003245 0.007264
# 3 -0.011757 0.004168 0.014977 -0.011527 0.002202 0.003305
# 4 0.017136 -0.012494 -0.011527 0.050298 -0.003904 -0.006184
# 5 -0.001934 0.003245 0.002202 -0.003904 0.030199 0.007437
# 6 -0.000196 0.007264 0.003305 -0.006184 0.007437 0.031256
#
#
# Mechanical properties :
#
#
# Convention : Reuss Voigt Hill
#
# Bulk Modulus (GPa) = 47.70150 74.24631 60.97390
# Shear Modulus (GPa) = 23.83614 34.14619 28.99116
#
# Velocity S-wave (km/s) = 3.32007 3.97375 3.66152
# Velocity P-wave (km/s) = 6.06270 7.44237 6.78768
#
# Compressibility (1/GPa) = 0.02096370
#
# Stress axis : x y z
#
# Youngs Moduli (GPa) = 50.12991 47.46391 66.76705
#
# Poissons Ratio (x) = 0.47115 0.78499
# Poissons Ratio (y) = 0.49761 -0.27831
# Poissons Ratio (z) = 0.58938 -0.19784
#
# Static dielectric constant tensor:
#      x y z
#    x 3.949480 -0.008500 -0.138320 
#    y -0.008500 3.633090 0.207170 
#    z -0.138320 0.207170 4.112070 
# 
# 
# High freq. dielectric constant tensor:
#      x y z
#    x 1.857340 0.000640 -0.002820 
#    y 0.000640 1.852720 0.008640 
#    z -0.002820 0.008640 1.862630 
# 
# From -- ./inp_files/494658.got.cif
#   From: 2010.06.25/outbox.cif.g09.slc.cpg/sg2_248_cif.got.tgz:494658.got - 2010.06.27 13:26:56.
