data_PCOD8007822
_publ_section_title
;
Structure prediction by ZEFSAII (Michael W. Deem and Ramdas Pophale) SiO2 
 PCOD8007822
Probable space group: P -1
;
_chemical_formula_sum "Si O2"
_cell_formula_units_Z 14
_cell_length_a 9.592535
_cell_length_b 13.083659
_cell_length_c 8.300773
_cell_angle_alpha 126.905658
_cell_angle_beta 112.591552
_cell_angle_gamma 41.550078
_cell_volume 548.340288
_symmetry_space_group_name_H-M "P -1"
_symmetry_group_IT_number 2
_symmetry_cell_setting 'triclinic'
loop_
_space_group_symop_operation_xyz
x,y,z
-x,-y,-z
loop_
_atom_site_type_symbol
_atom_site_label
_atom_site_fract_x
_atom_site_fract_y
_atom_site_fract_z
Si Si1 0.665918 0.829053 0.281929
Si Si2 0.934320 0.428576 0.278845
Si Si3 0.544535 0.236986 0.686939
Si Si4 0.721793 0.655676 0.847491
Si Si5 0.959607 0.040075 0.833053
Si Si6 0.953901 0.292287 0.470687
Si Si7 0.671796 0.054070 0.256777
O O1 0.461032 0.908493 0.378506
O O2 0.854342 0.738260 0.403113
O O3 0.630831 0.948572 0.235536
O O4 0.718828 0.665927 0.050291
O O5 0.696576 0.571185 0.235857
O O6 0.952062 0.291950 0.271930
O O7 0.000000 0.500000 0.500000
O O8 0.107764 0.337371 0.129580
O O9 0.710772 0.216495 0.852842
O O10 0.634849 0.186786 0.499037
O O11 0.755158 0.489349 0.643061
O O12 0.493088 0.835320 0.854405
O O13 0.030717 0.863305 0.611624
O O14 0.095240 0.071771 0.838901
O O15 0.000000 0.000000 0.000000
#
# Coordination Sequence:
#
# PCOD8007822 Si02
#       7
#     2   2   2   2   2   2   2
#     4  12  24  39  75 110 134 176 227 290 342 407
#     4  10  20  41  69 103 134 171 221 292 339 400
#     4  12  23  46  72  99 141 181 231 280 346 403
#     4  11  23  42  70 108 138 167 233 286 351 395
#     4  12  30  49  67  98 140 190 237 273 338 417
#     4  11  23  43  71  96 140 180 219 291 336 402
#     4  12  25  46  68 102 143 185 225 282 341 416
#
# _framework density 25.531590999999999
#
# number of rings (size 3 to 8) (size 9 to 14) (size 15 to 20)
#    0.000    0.571    7.143    2.571    4.000    0.571 
#    0.000    0.714    0.000    0.000    0.000    0.000 
#    0.000    0.000    0.000    0.000    0.000    0.000 
#
# Total GULP energy -173485.956923 kJ/mol
# GULP energy per Si atom -12391.854066 kJ/mol
# Density = 2.547348 g / cm^3
# Si number density = 25.531591 Si / 1000 Ang^3
#
#
#
# Elastic Constant Matrix: (Units=GPa)
#
#
# Indices 1 2 3 4 5 6 
#
# 1 127.6527 39.2509 29.6180 -13.4005 -9.8774 -17.4589
# 2 39.2509 116.6096 20.9604 -30.1477 8.1646 -24.9721
# 3 29.6180 20.9604 71.1594 -35.1231 -7.7972 -5.3899
# 4 -13.4005 -30.1477 -35.1231 37.2003 7.5633 14.5553
# 5 -9.8774 8.1646 -7.7972 7.5633 26.7754 -6.2629
# 6 -17.4589 -24.9721 -5.3899 14.5553 -6.2629 49.0529
#
#
#
# Elastic Compliance Matrix: (Units=1/GPa)
#
#
# Indices 1 2 3 4 5 6 
#
# 1 0.010918 -0.004345 -0.006606 -0.009027 0.007037 0.004525
# 2 -0.004345 0.013975 0.004489 0.015715 -0.008936 0.000257
# 3 -0.006606 0.004489 0.031802 0.035743 -0.006515 -0.008009
# 4 -0.009027 0.015715 0.035743 0.082791 -0.025571 -0.019116
# 5 0.007037 -0.008936 -0.006515 -0.025571 0.050636 0.011292
# 6 0.004525 0.000257 -0.008009 -0.019116 0.011292 0.028362
#
#
# Mechanical properties :
#
#
# Convention : Reuss Voigt Hill
#
# Bulk Modulus (GPa) = 22.84655 55.00892 38.92773
# Shear Modulus (GPa) = 20.32534 37.64520 28.98527
#
# Velocity S-wave (km/s) = 2.82456 3.84403 3.37303
# Velocity P-wave (km/s) = 4.42779 6.42606 5.51813
#
# Compressibility (1/GPa) = 0.04377029
#
# Stress axis : x y z
#
# Youngs Moduli (GPa) = 91.58852 71.55713 31.44472
#
# Poissons Ratio (x) = 0.31092 0.20773
# Poissons Ratio (y) = 0.39796 -0.14116
# Poissons Ratio (z) = 0.60506 -0.32122
#
# Static dielectric constant tensor:
#      x y z
#    x 4.972890 0.349060 -0.287630 
#    y 0.349060 4.805170 -0.052360 
#    z -0.287630 -0.052360 4.881630 
# 
# 
# High freq. dielectric constant tensor:
#      x y z
#    x 2.002770 0.000490 -0.013810 
#    y 0.000490 2.024340 -0.017500 
#    z -0.013810 -0.017500 2.027760 
# 
# From -- ./inp_files/190203.got.cif
#   From: 2010.06.25/outbox.cif.g09.slc.cpg/sg2_96_cif.got.tgz:190203.got - 2010.06.27 13:26:56.
