data_PCOD8007183
_publ_section_title
;
Structure prediction by ZEFSAII (Michael W. Deem and Ramdas Pophale) SiO2 
 PCOD8007183
Probable space group: P -1
;
_chemical_formula_sum "Si O2"
_cell_formula_units_Z 12
_cell_length_a 8.507273
_cell_length_b 10.648490
_cell_length_c 9.164853
_cell_angle_alpha 118.060784
_cell_angle_beta 134.235855
_cell_angle_gamma 82.355824
_cell_volume 499.292828
_symmetry_space_group_name_H-M "P -1"
_symmetry_group_IT_number 2
_symmetry_cell_setting 'triclinic'
loop_
_space_group_symop_operation_xyz
x,y,z
-x,-y,-z
loop_
_atom_site_type_symbol
_atom_site_label
_atom_site_fract_x
_atom_site_fract_y
_atom_site_fract_z
Si Si1 0.154366 0.166922 0.225514
Si Si2 0.233125 0.380532 0.964685
Si Si3 0.296310 0.933640 0.723767
Si Si4 0.572459 0.341272 0.389359
Si Si5 0.993077 0.609037 0.896770
Si Si6 0.196529 0.138714 0.562852
O O1 0.365876 0.229395 0.286562
O O2 0.981695 0.267850 0.146118
O O3 0.267846 0.188614 0.471343
O O4 0.000000 0.000000 0.000000
O O5 0.218762 0.278715 0.759200
O O6 0.204462 0.540215 0.979548
O O7 0.476712 0.392694 0.205973
O O8 0.018964 0.320758 0.910524
O O9 0.256962 0.757260 0.583559
O O10 0.072825 0.959315 0.668593
O O11 0.341125 0.031157 0.655809
O O12 0.500000 0.000000 0.000000
O O13 0.730589 0.489989 0.652461
#
# Coordination Sequence:
#
# PCOD8007183 Si02
#       6
#     2   2   2   2   2   2
#     4  11  25  42  65  99 134 164 214 277 324 373
#     4  10  20  40  68  91 124 174 221 254 317 388
#     4  11  22  40  67  93 130 172 215 261 322 389
#     4  11  22  45  68  91 130 176 216 257 321 393
#     4  10  23  43  67  91 131 177 212 259 326 389
#     4  11  24  39  65  98 128 169 218 266 323 377
#
# _framework density 24.033992000000001
#
# number of rings (size 3 to 8) (size 9 to 14) (size 15 to 20)
#    0.000    1.333    3.333    3.000    7.000    1.333 
#    0.000   11.667    0.000    0.000    0.000    0.000 
#    0.000    0.000    0.000    0.000    0.000    0.000 
#
# Total GULP energy -148708.825198 kJ/mol
# GULP energy per Si atom -12392.402100 kJ/mol
# Density = 2.397929 g / cm^3
# Si number density = 24.033992 Si / 1000 Ang^3
#
#
#
# Elastic Constant Matrix: (Units=GPa)
#
#
# Indices 1 2 3 4 5 6 
#
# 1 40.9449 28.4833 39.2694 -1.7387 -3.6242 -5.7914
# 2 28.4833 195.5405 62.1633 -31.5164 -1.7726 -20.1820
# 3 39.2694 62.1633 121.9503 -18.9631 -18.1853 0.3657
# 4 -1.7387 -31.5164 -18.9631 53.5585 -4.5299 3.5608
# 5 -3.6242 -1.7726 -18.1853 -4.5299 34.1356 -1.3187
# 6 -5.7914 -20.1820 0.3657 3.5608 -1.3187 37.1515
#
#
#
# Elastic Compliance Matrix: (Units=1/GPa)
#
#
# Indices 1 2 3 4 5 6 
#
# 1 0.038018 -0.001798 -0.012584 -0.004911 -0.003203 0.005431
# 2 -0.001798 0.007014 -0.002676 0.002842 -0.000749 0.003257
# 3 -0.012584 -0.002676 0.015361 0.004307 0.007136 -0.003726
# 4 -0.004911 0.002842 0.004307 0.022197 0.004819 -0.001221
# 5 -0.003203 -0.000749 0.007136 0.004819 0.033347 -0.000255
# 6 0.005431 0.003257 -0.003726 -0.001221 -0.000255 0.029678
#
#
# Mechanical properties :
#
#
# Convention : Reuss Voigt Hill
#
# Bulk Modulus (GPa) = 38.05302 68.69640 53.37471
# Shear Modulus (GPa) = 26.52655 40.20375 33.36515
#
# Velocity S-wave (km/s) = 3.32582 4.09441 3.72996
# Velocity P-wave (km/s) = 5.53312 7.14124 6.38799
#
# Compressibility (1/GPa) = 0.02627913
#
# Stress axis : x y z
#
# Youngs Moduli (GPa) = 26.30314 142.57095 65.09863
#
# Poissons Ratio (x) = 0.25628 0.81917
# Poissons Ratio (y) = 0.04728 0.17422
# Poissons Ratio (z) = 0.33099 0.38155
#
# Static dielectric constant tensor:
#      x y z
#    x 4.320760 -0.792380 -0.139040 
#    y -0.792380 5.343170 -0.309550 
#    z -0.139040 -0.309550 4.447240 
# 
# 
# High freq. dielectric constant tensor:
#      x y z
#    x 1.911910 -0.031520 -0.007260 
#    y -0.031520 1.971840 -0.022820 
#    z -0.007260 -0.022820 1.966020 
# 
# From -- ./inp_files/172536.got.cif
#   From: 2010.06.25/outbox.cif.g09.slc.cpg/sg2_87_cif.got.tgz:172536.got - 2010.06.27 13:26:56.
