data_PCOD8007476
_publ_section_title
;
Structure prediction by ZEFSAII (Michael W. Deem and Ramdas Pophale) SiO2 
 PCOD8007476
Probable space group: P -1
;
_chemical_formula_sum "Si O2"
_cell_formula_units_Z 16
_cell_length_a 18.424788
_cell_length_b 24.220674
_cell_length_c 4.968801
_cell_angle_alpha 104.823076
_cell_angle_beta 74.664298
_cell_angle_gamma 160.552650
_cell_volume 711.825086
_symmetry_space_group_name_H-M "P -1"
_symmetry_group_IT_number 2
_symmetry_cell_setting 'triclinic'
loop_
_space_group_symop_operation_xyz
x,y,z
-x,-y,-z
loop_
_atom_site_type_symbol
_atom_site_label
_atom_site_fract_x
_atom_site_fract_y
_atom_site_fract_z
Si Si1 0.240127 0.154551 0.372054
Si Si2 0.312275 0.683688 0.440507
Si Si3 0.249847 0.883250 0.594658
Si Si4 0.560532 0.754221 0.196020
Si Si5 0.580343 0.494064 0.462850
Si Si6 0.837916 0.303973 0.440955
Si Si7 0.484189 0.892450 0.882804
Si Si8 0.782720 0.587969 0.892858
O O1 0.351298 0.192385 0.525621
O O2 0.370154 0.305246 0.383970
O O3 0.246110 0.123678 0.048751
O O4 0.000000 0.000000 0.500000
O O5 0.496851 0.775312 0.239930
O O6 0.255018 0.701405 0.348263
O O7 0.402512 0.768381 0.754103
O O8 0.098282 0.491789 0.429652
O O9 0.237879 0.806519 0.467186
O O10 0.027171 0.750190 0.761682
O O11 0.311931 0.952241 0.329587
O O12 0.443551 0.040213 0.804511
O O13 0.344388 0.561959 0.127994
O O14 0.500000 0.500000 0.500000
O O15 0.665723 0.546632 0.745609
O O16 0.776112 0.616681 0.218803
O O17 0.727861 0.220125 0.143861
#
# Coordination Sequence:
#
# PCOD8007476 Si02
#       8
#     2   2   2   2   2   2   2   2
#     4  10  22  40  65  90 118 158 194 249 320 368
#     4   9  20  42  62  94 123 169 214 254 304 361
#     4  12  21  42  61  90 127 164 211 255 307 365
#     4  10  20  41  64  88 124 158 207 248 295 380
#     4  10  21  41  61  89 119 151 201 249 304 377
#     4   9  20  41  65  87 128 173 213 251 310 365
#     4  10  24  38  61  89 126 159 212 259 308 347
#     4  10  21  37  65  87 117 165 201 244 305 370
#
# _framework density 22.477429999999998
#
# number of rings (size 3 to 8) (size 9 to 14) (size 15 to 20)
#    0.750    1.250    1.250    2.250    0.000    1.000 
#    6.750    5.000    0.000    0.000    0.000    0.000 
#    0.000    0.000    0.000    0.000    0.000    0.000 
#
# Total GULP energy -198218.940398 kJ/mol
# GULP energy per Si atom -12388.683775 kJ/mol
# Density = 2.242627 g / cm^3
# Si number density = 22.477430 Si / 1000 Ang^3
#
#
#
# Elastic Constant Matrix: (Units=GPa)
#
#
# Indices 1 2 3 4 5 6 
#
# 1 120.0640 25.7284 26.2462 -8.0981 -23.9952 9.3188
# 2 25.7284 102.1337 16.5560 -8.4056 -16.1339 0.1615
# 3 26.2462 16.5560 73.8200 -13.3936 -9.9570 -5.9655
# 4 -8.0981 -8.4056 -13.3936 26.1105 5.6707 -2.4575
# 5 -23.9952 -16.1339 -9.9570 5.6707 22.5559 -7.8923
# 6 9.3188 0.1615 -5.9655 -2.4575 -7.8923 12.9166
#
#
#
# Elastic Compliance Matrix: (Units=1/GPa)
#
#
# Indices 1 2 3 4 5 6 
#
# 1 0.011216 -0.001043 -0.003112 -0.000705 0.008411 -0.004511
# 2 -0.001043 0.011633 -0.000172 0.002008 0.008839 0.006311
# 3 -0.003112 -0.000172 0.018924 0.008407 0.009172 0.018191
# 4 -0.000705 0.002008 0.008407 0.044726 -0.002978 0.011056
# 5 0.008411 0.008839 0.009172 -0.002978 0.080798 0.046860
# 6 -0.004511 0.006311 0.018191 0.011056 0.046860 0.119732
#
#
# Mechanical properties :
#
#
# Convention : Reuss Voigt Hill
#
# Bulk Modulus (GPa) = 30.19349 48.11988 39.15668
# Shear Modulus (GPa) = 16.30134 27.48241 21.89188
#
# Velocity S-wave (km/s) = 2.69593 3.50046 3.12420
# Velocity P-wave (km/s) = 4.81173 6.14753 5.52019
#
# Compressibility (1/GPa) = 0.03311973
#
# Stress axis : x y z
#
# Youngs Moduli (GPa) = 89.15656 85.96067 52.84343
#
# Poissons Ratio (x) = 0.08968 0.16444
# Poissons Ratio (y) = 0.09301 0.00907
# Poissons Ratio (z) = 0.27744 0.01476
#
# Static dielectric constant tensor:
#      x y z
#    x 3.878650 -0.063110 -0.092540 
#    y -0.063110 4.112040 0.051960 
#    z -0.092540 0.051960 4.047320 
# 
# 
# High freq. dielectric constant tensor:
#      x y z
#    x 1.879800 -0.001070 -0.008220 
#    y -0.001070 1.887760 -0.004960 
#    z -0.008220 -0.004960 1.879440 
# 
# From -- ./inp_files/112895.got.cif
#   From: 2010.06.25/outbox.cif.g09.slc.cpg/sg2_57_cif.got.tgz:112895.got - 2010.06.27 13:26:56.
