data_PCOD8007044
_publ_section_title
;
Structure prediction by ZEFSAII (Michael W. Deem and Ramdas Pophale) SiO2 
 PCOD8007044
Probable space group: P -1
;
_chemical_formula_sum "Si O2"
_cell_formula_units_Z 16
_cell_length_a 18.679032
_cell_length_b 14.855367
_cell_length_c 5.560317
_cell_angle_alpha 97.444843
_cell_angle_beta 110.269238
_cell_angle_gamma 30.290486
_cell_volume 681.533017
_symmetry_space_group_name_H-M "P -1"
_symmetry_group_IT_number 2
_symmetry_cell_setting 'triclinic'
loop_
_space_group_symop_operation_xyz
x,y,z
-x,-y,-z
loop_
_atom_site_type_symbol
_atom_site_label
_atom_site_fract_x
_atom_site_fract_y
_atom_site_fract_z
Si Si1 0.387495 0.573996 0.197893
Si Si2 0.691195 0.807700 0.121899
Si Si3 0.429038 0.295731 0.524097
Si Si4 0.088555 0.173653 0.877192
Si Si5 0.842857 0.332534 0.937130
Si Si6 0.390175 0.750642 0.001874
Si Si7 0.173675 0.509741 0.662344
Si Si8 0.727357 0.870471 0.674631
O O1 0.500000 0.500000 0.500000
O O2 0.220625 0.704942 0.147284
O O3 0.334308 0.707942 0.996829
O O4 0.488942 0.386189 0.128753
O O5 0.791312 0.608675 0.152669
O O6 0.767144 0.774915 0.442250
O O7 0.730725 0.813523 0.914642
O O8 0.500000 0.000000 0.000000
O O9 0.300688 0.449535 0.225315
O O10 0.516088 0.299753 0.688268
O O11 0.344292 0.343170 0.674803
O O12 0.548967 0.094427 0.496561
O O13 0.992195 0.187917 0.880229
O O14 0.974455 0.356151 0.643730
O O15 0.149710 0.173993 0.166157
O O16 0.238264 0.973427 0.833770
O O17 0.885613 0.330946 0.243435
#
# Coordination Sequence:
#
# PCOD8007044 Si02
#       8
#     2   2   2   2   2   2   2   2
#     4  11  22  40  72 100 127 171 230 287 340 411
#     4  12  25  43  72 106 138 183 244 301 343 405
#     4  10  20  40  66  95 131 176 228 283 339 411
#     4  10  27  44  64  99 142 185 221 278 361 419
#     4  11  23  42  67  98 134 179 230 280 350 419
#     4  10  22  42  65 100 131 170 227 282 345 416
#     4  11  24  41  66  94 138 182 225 281 349 414
#     4  11  26  44  70 103 141 184 240 293 347 416
#
# _framework density 23.476485
#
# number of rings (size 3 to 8) (size 9 to 14) (size 15 to 20)
#    0.000    1.250    3.750    1.125    5.250    2.500 
#    0.000    1.250    0.000    0.000    0.000    0.000 
#    0.000    0.000    0.000    0.000    0.000    0.000 
#
# Total GULP energy -198294.235212 kJ/mol
# GULP energy per Si atom -12393.389701 kJ/mol
# Density = 2.342305 g / cm^3
# Si number density = 23.476485 Si / 1000 Ang^3
#
#
#
# Elastic Constant Matrix: (Units=GPa)
#
#
# Indices 1 2 3 4 5 6 
#
# 1 101.6062 10.3683 20.1869 -4.5749 2.8708 -4.5880
# 2 10.3683 67.0015 15.9299 -6.5522 10.7038 5.7094
# 3 20.1869 15.9299 80.4460 8.4095 6.0866 -0.6912
# 4 -4.5749 -6.5522 8.4095 36.5933 -0.9824 4.6824
# 5 2.8708 10.7038 6.0866 -0.9824 31.4414 2.7569
# 6 -4.5880 5.7094 -0.6912 4.6824 2.7569 29.4138
#
#
#
# Elastic Compliance Matrix: (Units=1/GPa)
#
#
# Indices 1 2 3 4 5 6 
#
# 1 0.010603 -0.000968 -0.002600 0.001545 -0.000223 0.001556
# 2 -0.000968 0.017337 -0.003295 0.004100 -0.004714 -0.003805
# 3 -0.002600 -0.003295 0.014339 -0.004439 -0.001681 0.001435
# 4 0.001545 0.004100 -0.004439 0.029999 0.000742 -0.005504
# 5 -0.000223 -0.004714 -0.001681 0.000742 0.033995 -0.002464
# 6 0.001556 -0.003805 0.001435 -0.005504 -0.002464 0.036120
#
#
# Mechanical properties :
#
#
# Convention : Reuss Voigt Hill
#
# Bulk Modulus (GPa) = 35.02326 38.00266 36.51296
# Shear Modulus (GPa) = 30.18642 32.99426 31.59034
#
# Velocity S-wave (km/s) = 3.58972 3.75296 3.67224
# Velocity P-wave (km/s) = 5.66853 5.91627 5.79373
#
# Compressibility (1/GPa) = 0.02855246
#
# Stress axis : x y z
#
# Youngs Moduli (GPa) = 94.30867 57.68175 69.73898
#
# Poissons Ratio (x) = 0.05586 0.18134
# Poissons Ratio (y) = 0.09134 0.22976
# Poissons Ratio (z) = 0.24523 0.19004
#
# Static dielectric constant tensor:
#      x y z
#    x 4.432550 -0.025620 0.175140 
#    y -0.025620 4.017850 -0.040790 
#    z 0.175140 -0.040790 4.127750 
# 
# 
# High freq. dielectric constant tensor:
#      x y z
#    x 1.932220 -0.002430 0.009070 
#    y -0.002430 1.913520 -0.001840 
#    z 0.009070 -0.001840 1.931610 
# 
# From -- ./inp_files/46507.got.cif
#   From: 2010.06.25/outbox.cif.g09.slc.cpg/sg2_24_cif.got.tgz:46507.got - 2010.06.27 13:26:56.
