data_PCOD8007361
_publ_section_title
;
Structure prediction by ZEFSAII (Michael W. Deem and Ramdas Pophale) SiO2 
 PCOD8007361
Probable space group: P -1
;
_chemical_formula_sum "Si O2"
_cell_formula_units_Z 16
_cell_length_a 20.901542
_cell_length_b 6.287860
_cell_length_c 19.945728
_cell_angle_alpha 112.156181
_cell_angle_beta 20.342795
_cell_angle_gamma 103.670983
_cell_volume 786.028676
_symmetry_space_group_name_H-M "P -1"
_symmetry_group_IT_number 2
_symmetry_cell_setting 'triclinic'
loop_
_space_group_symop_operation_xyz
x,y,z
-x,-y,-z
loop_
_atom_site_type_symbol
_atom_site_label
_atom_site_fract_x
_atom_site_fract_y
_atom_site_fract_z
Si Si1 0.805489 0.978427 0.658555
Si Si2 0.282130 0.886095 0.879303
Si Si3 0.612944 0.999261 0.483553
Si Si4 0.729529 0.129688 0.608031
Si Si5 0.619620 0.591766 0.340595
Si Si6 0.449357 0.322495 0.132052
Si Si7 0.140311 0.785914 0.646432
Si Si8 0.456428 0.248371 0.269991
O O1 0.846344 0.984659 0.540082
O O2 0.751617 0.733018 0.694469
O O3 0.617411 0.198262 0.897893
O O4 0.000000 0.000000 0.500000
O O5 0.443110 0.952299 0.687241
O O6 0.230393 0.659386 0.870541
O O7 0.359013 0.788367 0.866986
O O8 0.087728 0.135556 0.098622
O O9 0.719553 0.762040 0.301722
O O10 0.526220 0.243963 0.553353
O O11 0.772973 0.031532 0.379837
O O12 0.585969 0.393319 0.806912
O O13 0.871998 0.165135 0.415396
O O14 0.603387 0.983927 0.681911
O O15 0.500000 0.500000 0.500000
O O16 0.522612 0.236091 0.125786
O O17 0.271694 0.501238 0.498241
#
# Coordination Sequence:
#
# PCOD8007361 Si02
#       8
#     2   2   2   2   2   2   2   2
#     4  10  21  38  62  90 118 155 202 247 293 360
#     4  11  22  38  63  89 119 166 199 247 312 352
#     4  10  20  41  61  89 125 155 202 257 297 361
#     4  10  21  41  59  85 124 162 195 250 303 345
#     4   9  20  39  65  88 122 159 199 252 305 355
#     4   9  21  40  59  85 122 158 195 247 303 348
#     4  11  23  38  62  91 121 161 208 248 300 367
#     4  10  21  41  58  87 129 156 202 257 293 358
#
# _framework density 20.355491000000001
#
# number of rings (size 3 to 8) (size 9 to 14) (size 15 to 20)
#    0.000    2.000    2.500    0.375    1.750    2.000 
#    6.750    5.625    0.000    0.000    0.000    0.000 
#    0.000    0.000    0.000    0.000    0.000    0.000 
#
# Total GULP energy -198242.691421 kJ/mol
# GULP energy per Si atom -12390.168214 kJ/mol
# Density = 2.030916 g / cm^3
# Si number density = 20.355491 Si / 1000 Ang^3
#
#
#
# Elastic Constant Matrix: (Units=GPa)
#
#
# Indices 1 2 3 4 5 6 
#
# 1 97.8684 28.3139 34.2371 -3.4621 -0.9332 13.9838
# 2 28.3139 101.4390 33.5708 8.9595 -3.7082 18.7132
# 3 34.2371 33.5708 81.5550 1.5527 -7.9491 15.4670
# 4 -3.4621 8.9595 1.5527 25.7406 3.7098 5.9443
# 5 -0.9332 -3.7082 -7.9491 3.7098 21.2359 2.2955
# 6 13.9838 18.7132 15.4670 5.9443 2.2955 37.7757
#
#
#
# Elastic Compliance Matrix: (Units=1/GPa)
#
#
# Indices 1 2 3 4 5 6 
#
# 1 0.012768 -0.002078 -0.004291 0.003504 -0.001762 -0.002385
# 2 -0.002078 0.012640 -0.003385 -0.003919 0.001923 -0.003607
# 3 -0.004291 -0.003385 0.016790 -0.000371 0.005993 -0.003915
# 4 0.003504 -0.003919 -0.000371 0.043077 -0.007598 -0.005520
# 5 -0.001762 0.001923 0.005993 -0.007598 0.051426 -0.004684
# 6 -0.002385 -0.003607 -0.003915 -0.005520 -0.004684 0.031898
#
#
# Mechanical properties :
#
#
# Convention : Reuss Voigt Hill
#
# Bulk Modulus (GPa) = 44.07004 52.56731 48.31867
# Shear Modulus (GPa) = 25.55339 29.26648 27.40993
#
# Velocity S-wave (km/s) = 3.54694 3.79591 3.67353
# Velocity P-wave (km/s) = 6.20255 6.71510 6.46391
#
# Compressibility (1/GPa) = 0.02269115
#
# Stress axis : x y z
#
# Youngs Moduli (GPa) = 78.32160 79.11339 59.55900
#
# Poissons Ratio (x) = 0.16438 0.25557
# Poissons Ratio (y) = 0.16273 0.20159
# Poissons Ratio (z) = 0.33608 0.26778
#
# Static dielectric constant tensor:
#      x y z
#    x 4.099090 0.220380 0.283370 
#    y 0.220380 3.948110 0.158340 
#    z 0.283370 0.158340 3.301550 
# 
# 
# High freq. dielectric constant tensor:
#      x y z
#    x 1.818060 0.008100 0.022100 
#    y 0.008100 1.805940 0.010150 
#    z 0.022100 0.010150 1.752310 
# 
# From -- ./inp_files/10604.got.cif
#   From: 2010.06.25/outbox.cif.g09.slc.cpg/sg2_6_cif.got.tgz:10604.got - 2010.06.27 13:26:56.
