data_PCOD8007785
_publ_section_title
;
Structure prediction by ZEFSAII (Michael W. Deem and Ramdas Pophale) SiO2 
 PCOD8007785
Probable space group: P -1
;
_chemical_formula_sum "Si O2"
_cell_formula_units_Z 16
_cell_length_a 24.377771
_cell_length_b 19.075029
_cell_length_c 8.203543
_cell_angle_alpha 143.856920
_cell_angle_beta 133.070951
_cell_angle_gamma 20.464835
_cell_volume 734.726018
_symmetry_space_group_name_H-M "P -1"
_symmetry_group_IT_number 2
_symmetry_cell_setting 'triclinic'
loop_
_space_group_symop_operation_xyz
x,y,z
-x,-y,-z
loop_
_atom_site_type_symbol
_atom_site_label
_atom_site_fract_x
_atom_site_fract_y
_atom_site_fract_z
Si Si1 0.053171 0.565812 0.040988
Si Si2 0.546287 0.542140 0.789250
Si Si3 0.229171 0.365012 0.702508
Si Si4 0.656881 0.213315 0.861364
Si Si5 0.048469 0.071231 0.910528
Si Si6 0.912390 0.011066 0.543889
Si Si7 0.489251 0.854360 0.066620
Si Si8 0.248755 0.122245 0.824959
O O1 0.877220 0.744749 0.038849
O O2 0.125110 0.440418 0.770085
O O3 0.180725 0.338768 0.010664
O O4 0.028332 0.742455 0.347316
O O5 0.500000 0.500000 0.500000
O O6 0.726208 0.261758 0.713107
O O7 0.405294 0.760303 0.049107
O O8 0.567233 0.633264 0.903335
O O9 0.363384 0.258903 0.868611
O O10 0.326218 0.136128 0.355938
O O11 0.105861 0.617225 0.812010
O O12 0.733636 0.004058 0.510641
O O13 0.500000 0.500000 0.000000
O O14 0.803731 0.097375 0.986229
O O15 0.992877 0.022502 0.776254
O O16 0.111816 0.968731 0.661768
O O17 0.428680 0.897197 0.846301
#
# Coordination Sequence:
#
# PCOD8007785 Si02
#       8
#     2   2   2   2   2   2   2   2
#     4  10  23  43  64  98 129 175 218 263 328 392
#     4  12  22  41  67 100 130 171 222 269 325 383
#     4  10  23  44  69  97 124 171 229 269 323 380
#     4  12  26  42  64  99 137 172 215 269 333 391
#     4  10  22  40  67  95 130 166 219 270 317 392
#     4  10  20  41  68  96 124 171 218 270 321 373
#     4  11  24  43  69  96 131 169 219 279 320 389
#     4  11  26  43  63  96 138 172 214 267 335 389
#
# _framework density 21.776824000000001
#
# number of rings (size 3 to 8) (size 9 to 14) (size 15 to 20)
#    0.000    1.250    2.500    3.000    5.250    1.000 
#    0.000    6.250    0.000    0.000    0.000    0.000 
#    0.000    0.000    0.000    0.000    0.000    0.000 
#
# Total GULP energy -198471.169731 kJ/mol
# GULP energy per Si atom -12404.448108 kJ/mol
# Density = 2.172726 g / cm^3
# Si number density = 21.776824 Si / 1000 Ang^3
#
#
#
# Elastic Constant Matrix: (Units=GPa)
#
#
# Indices 1 2 3 4 5 6 
#
# 1 97.9670 35.7319 41.7863 1.6547 9.8104 -1.4570
# 2 35.7319 136.5194 48.2352 -6.7563 5.5514 -6.1526
# 3 41.7863 48.2352 100.5276 1.3357 5.1305 -6.6086
# 4 1.6547 -6.7563 1.3357 43.3977 1.5142 4.3721
# 5 9.8104 5.5514 5.1305 1.5142 31.4981 9.0774
# 6 -1.4570 -6.1526 -6.6086 4.3721 9.0774 30.8293
#
#
#
# Elastic Compliance Matrix: (Units=1/GPa)
#
#
# Indices 1 2 3 4 5 6 
#
# 1 0.013046 -0.001748 -0.004397 -0.000558 -0.003104 0.000318
# 2 -0.001748 0.009213 -0.003604 0.001539 -0.000860 0.001018
# 3 -0.004397 -0.003604 0.013722 -0.001029 -0.000878 0.002419
# 4 -0.000558 0.001539 -0.001029 0.023668 -0.000129 -0.003258
# 5 -0.003104 -0.000860 -0.000878 -0.000129 0.036230 -0.011156
# 6 0.000318 0.001018 0.002419 -0.003258 -0.011156 0.036920
#
#
# Mechanical properties :
#
#
# Convention : Reuss Voigt Hill
#
# Bulk Modulus (GPa) = 60.66934 65.16900 62.91917
# Shear Modulus (GPa) = 31.68757 35.09571 33.39164
#
# Velocity S-wave (km/s) = 3.81872 4.01884 3.92006
# Velocity P-wave (km/s) = 6.88212 7.17813 7.03168
#
# Compressibility (1/GPa) = 0.01648279
#
# Stress axis : x y z
#
# Youngs Moduli (GPa) = 76.65431 108.54595 72.87646
#
# Poissons Ratio (x) = 0.18973 0.32046
# Poissons Ratio (y) = 0.13399 0.26261
# Poissons Ratio (z) = 0.33707 0.39115
#
# Static dielectric constant tensor:
#      x y z
#    x 4.033390 -0.073170 0.071060 
#    y -0.073170 3.899670 0.286090 
#    z 0.071060 0.286090 4.033680 
# 
# 
# High freq. dielectric constant tensor:
#      x y z
#    x 1.854530 -0.008410 0.007260 
#    y -0.008410 1.858420 0.016780 
#    z 0.007260 0.016780 1.858490 
# 
# From -- ./inp_files/357818.got.cif
#   From: 2010.06.25/outbox.cif.g09.slc.cpg/sg2_179_cif.got.tgz:357818.got - 2010.06.27 13:26:56.
