data_PCOD8007532
_publ_section_title
;
Structure prediction by ZEFSAII (Michael W. Deem and Ramdas Pophale) SiO2 
 PCOD8007532
Probable space group: P -1
;
_chemical_formula_sum "Si O2"
_cell_formula_units_Z 14
_cell_length_a 11.441897
_cell_length_b 5.949290
_cell_length_c 17.639511
_cell_angle_alpha 89.941275
_cell_angle_beta 152.669992
_cell_angle_gamma 96.205010
_cell_volume 536.047104
_symmetry_space_group_name_H-M "P -1"
_symmetry_group_IT_number 2
_symmetry_cell_setting 'triclinic'
loop_
_space_group_symop_operation_xyz
x,y,z
-x,-y,-z
loop_
_atom_site_type_symbol
_atom_site_label
_atom_site_fract_x
_atom_site_fract_y
_atom_site_fract_z
Si Si1 0.206226 0.234829 0.771649
Si Si2 0.105675 0.291022 0.265108
Si Si3 0.134116 0.842402 0.627854
Si Si4 0.529108 0.360023 0.621141
Si Si5 0.058122 0.900139 0.113762
Si Si6 0.736162 0.376903 0.432841
Si Si7 0.708026 0.570426 0.021525
O O1 0.239889 0.236476 0.881821
O O2 0.905665 0.237306 0.580337
O O3 0.272035 0.996947 0.778048
O O4 0.395244 0.458458 0.838456
O O5 0.240029 0.234022 0.421327
O O6 0.282782 0.537159 0.339669
O O7 0.825065 0.351605 0.115414
O O8 0.094207 0.091148 0.198762
O O9 0.342377 0.751642 0.693530
O O10 0.904191 0.634807 0.520161
O O11 0.000000 0.000000 0.500000
O O12 0.666705 0.175646 0.741142
O O13 0.517564 0.579314 0.669388
O O14 0.826785 0.683246 0.009914
O O15 0.000000 0.000000 0.000000
#
# Coordination Sequence:
#
# PCOD8007532 Si02
#       7
#     2   2   2   2   2   2   2
#     4  10  21  41  68 102 137 181 225 281 344 406
#     4  10  22  45  68 100 132 178 236 289 337 404
#     4   9  21  39  60  98 142 174 222 273 347 410
#     4  10  22  42  74  97 131 178 233 291 338 407
#     4  11  26  47  67 103 138 182 233 285 353 410
#     4  10  20  41  65 103 136 174 228 284 338 416
#     4  10  23  42  70  99 139 182 230 282 339 418
#
# _framework density 26.117104999999999
#
# number of rings (size 3 to 8) (size 9 to 14) (size 15 to 20)
#    0.000    2.000    1.429    0.429    2.000    5.714 
#   20.571    2.857    0.000    0.000    0.000    0.000 
#    0.000    0.000    0.000    0.000    0.000    0.000 
#
# Total GULP energy -173514.479213 kJ/mol
# GULP energy per Si atom -12393.891372 kJ/mol
# Density = 2.605766 g / cm^3
# Si number density = 26.117105 Si / 1000 Ang^3
#
#
#
# Elastic Constant Matrix: (Units=GPa)
#
#
# Indices 1 2 3 4 5 6 
#
# 1 121.6402 45.4790 34.2689 -6.5109 -13.9873 -24.9349
# 2 45.4790 112.6746 40.9915 1.9693 -22.7487 -43.9789
# 3 34.2689 40.9915 77.7310 -28.2417 0.1306 -17.2810
# 4 -6.5109 1.9693 -28.2417 41.5025 -4.8479 -9.4984
# 5 -13.9873 -22.7487 0.1306 -4.8479 29.2886 1.6007
# 6 -24.9349 -43.9789 -17.2810 -9.4984 1.6007 65.1118
#
#
#
# Elastic Compliance Matrix: (Units=1/GPa)
#
#
# Indices 1 2 3 4 5 6 
#
# 1 0.010607 -0.001469 -0.003250 0.000477 0.003899 0.002181
# 2 -0.001469 0.018711 -0.008422 -0.003280 0.012832 0.009046
# 3 -0.003250 -0.008422 0.025555 0.017209 -0.005495 0.002495
# 4 0.000477 -0.003280 0.017209 0.038283 0.003501 0.008033
# 5 0.003899 0.012832 -0.005495 0.003501 0.046134 0.008078
# 6 0.002181 0.009046 0.002495 0.008033 0.008078 0.023939
#
#
# Mechanical properties :
#
#
# Convention : Reuss Voigt Hill
#
# Bulk Modulus (GPa) = 34.97522 61.50275 48.23898
# Shear Modulus (GPa) = 25.12062 39.93435 32.52748
#
# Velocity S-wave (km/s) = 3.10473 3.91455 3.53292
# Velocity P-wave (km/s) = 5.12574 6.63563 5.92894
#
# Compressibility (1/GPa) = 0.02859167
#
# Stress axis : x y z
#
# Youngs Moduli (GPa) = 94.28078 53.44537 39.13110
#
# Poissons Ratio (x) = 0.07849 0.12718
# Poissons Ratio (y) = 0.13847 0.32955
# Poissons Ratio (z) = 0.30643 0.45010
#
# Static dielectric constant tensor:
#      x y z
#    x 4.983410 -0.158590 -0.037410 
#    y -0.158590 3.962790 0.183620 
#    z -0.037410 0.183620 4.613600 
# 
# 
# High freq. dielectric constant tensor:
#      x y z
#    x 2.049520 -0.012500 -0.001590 
#    y -0.012500 2.052440 -0.007530 
#    z -0.001590 -0.007530 2.028960 
# 
# From -- ./inp_files/564495.got.cif
#   From: 2010.06.25/outbox.cif.g09.slc.cpg/sg2_283_cif.got.tgz:564495.got - 2010.06.27 13:26:56.
