data_PCOD8007233
_publ_section_title
;
Structure prediction by ZEFSAII (Michael W. Deem and Ramdas Pophale) SiO2 
 PCOD8007233
Probable space group: P -1
;
_chemical_formula_sum "Si O2"
_cell_formula_units_Z 16
_cell_length_a 11.645849
_cell_length_b 11.022236
_cell_length_c 11.301553
_cell_angle_alpha 49.085883
_cell_angle_beta 98.358765
_cell_angle_gamma 59.548735
_cell_volume 643.208801
_symmetry_space_group_name_H-M "P -1"
_symmetry_group_IT_number 2
_symmetry_cell_setting 'triclinic'
loop_
_space_group_symop_operation_xyz
x,y,z
-x,-y,-z
loop_
_atom_site_type_symbol
_atom_site_label
_atom_site_fract_x
_atom_site_fract_y
_atom_site_fract_z
Si Si1 0.845538 0.387838 0.868639
Si Si2 0.633017 0.621577 0.463675
Si Si3 0.766514 0.778942 0.268751
Si Si4 0.169358 0.449901 0.810884
Si Si5 0.234613 0.158742 0.427070
Si Si6 0.224537 0.102955 0.197658
Si Si7 0.460750 0.432533 0.148607
Si Si8 0.442634 0.393137 0.801226
O O1 0.805090 0.367348 0.741155
O O2 0.736279 0.682849 0.670710
O O3 0.760696 0.366226 0.973373
O O4 0.075969 0.153261 0.071295
O O5 0.662000 0.780941 0.347608
O O6 0.629104 0.536200 0.391260
O O7 0.438461 0.801350 0.392948
O O8 0.719304 0.769259 0.136620
O O9 0.000000 0.500000 0.500000
O O10 0.657647 0.073538 0.066210
O O11 0.273539 0.506936 0.789444
O O12 0.932907 0.717535 0.584585
O O13 0.201000 0.315471 0.021266
O O14 0.171744 0.157705 0.291489
O O15 0.437218 0.849338 0.688080
O O16 0.549857 0.428238 0.278056
O O17 0.500000 0.500000 0.000000
#
# Coordination Sequence:
#
# PCOD8007233 Si02
#       8
#     2   2   2   2   2   2   2   2
#     4  11  25  46  73 106 136 191 247 290 344 433
#     4  11  22  43  74 101 139 185 239 291 352 416
#     4  11  21  38  72 106 136 183 240 291 348 417
#     4  10  20  40  69 104 132 185 237 295 341 413
#     4  11  25  45  74 103 141 195 242 289 350 424
#     4  11  21  42  75 105 137 181 249 290 347 412
#     4  12  30  45  67 106 150 193 228 296 367 422
#     4  11  25  44  67 102 155 182 230 299 365 417
#
# _framework density 24.875278999999999
#
# number of rings (size 3 to 8) (size 9 to 14) (size 15 to 20)
#    0.000    1.000    3.750    4.125    7.000    1.000 
#    0.000    0.625    0.000    0.000    0.000    0.000 
#    0.000    0.000    0.000    0.000    0.000    0.000 
#
# Total GULP energy -198275.692004 kJ/mol
# GULP energy per Si atom -12392.230750 kJ/mol
# Density = 2.481866 g / cm^3
# Si number density = 24.875279 Si / 1000 Ang^3
#
#
#
# Elastic Constant Matrix: (Units=GPa)
#
#
# Indices 1 2 3 4 5 6 
#
# 1 130.1660 32.6768 12.3405 0.2595 13.1955 -23.2564
# 2 32.6768 77.4230 8.9861 15.4070 0.7776 -21.1522
# 3 12.3405 8.9861 57.1749 20.9903 9.2957 -12.2161
# 4 0.2595 15.4070 20.9903 32.2283 -1.0030 -1.4559
# 5 13.1955 0.7776 9.2957 -1.0030 30.5133 0.6515
# 6 -23.2564 -21.1522 -12.2161 -1.4559 0.6515 41.4134
#
#
#
# Elastic Compliance Matrix: (Units=1/GPa)
#
#
# Indices 1 2 3 4 5 6 
#
# 1 0.009638 -0.003398 -0.001003 0.002242 -0.003777 0.003519
# 2 -0.003398 0.018297 0.003646 -0.010746 -0.000635 0.008145
# 3 -0.001003 0.003646 0.027710 -0.019658 -0.008937 0.008922
# 4 0.002242 -0.010746 -0.019658 0.048791 0.007077 -0.008425
# 5 -0.003777 -0.000635 -0.008937 0.007077 0.037493 -0.005423
# 6 0.003519 0.008145 0.008922 -0.008425 -0.005423 0.032704
#
#
# Mechanical properties :
#
#
# Convention : Reuss Voigt Hill
#
# Bulk Modulus (GPa) = 18.47216 41.41898 29.94557
# Shear Modulus (GPa) = 25.74832 34.88169 30.31501
#
# Velocity S-wave (km/s) = 3.22078 3.74874 3.49475
# Velocity P-wave (km/s) = 4.61230 5.95183 5.32436
#
# Compressibility (1/GPa) = 0.05413552
#
# Stress axis : x y z
#
# Youngs Moduli (GPa) = 103.75808 54.65340 36.08824
#
# Poissons Ratio (x) = 0.18571 0.03620
# Poissons Ratio (y) = 0.35257 -0.13159
# Poissons Ratio (z) = 0.10408 -0.19929
#
# Static dielectric constant tensor:
#      x y z
#    x 4.586240 -0.171770 0.051530 
#    y -0.171770 4.685970 0.208180 
#    z 0.051530 0.208180 4.286180 
# 
# 
# High freq. dielectric constant tensor:
#      x y z
#    x 1.990860 -0.021400 0.011840 
#    y -0.021400 1.989510 0.021070 
#    z 0.011840 0.021070 1.973050 
# 
# From -- ./inp_files/427596.got.cif
#   From: 2010.06.25/outbox.cif.g09.slc.cpg/sg2_214_cif.got.tgz:427596.got - 2010.06.27 13:26:56.
