data_PCOD8007975
_publ_section_title
;
Structure prediction by ZEFSAII (Michael W. Deem and Ramdas Pophale) SiO2 
 PCOD8007975
Probable space group: P -1
;
_chemical_formula_sum "Si O2"
_cell_formula_units_Z 16
_cell_length_a 6.813600
_cell_length_b 14.785070
_cell_length_c 8.460504
_cell_angle_alpha 81.956957
_cell_angle_beta 102.438640
_cell_angle_gamma 67.547486
_cell_volume 745.536480
_symmetry_space_group_name_H-M "P -1"
_symmetry_group_IT_number 2
_symmetry_cell_setting 'triclinic'
loop_
_space_group_symop_operation_xyz
x,y,z
-x,-y,-z
loop_
_atom_site_type_symbol
_atom_site_label
_atom_site_fract_x
_atom_site_fract_y
_atom_site_fract_z
Si Si1 0.434536 0.775816 0.718498
Si Si2 0.080517 0.561264 0.616332
Si Si3 0.988824 0.050914 0.314053
Si Si4 0.369521 0.069519 0.200789
Si Si5 0.192617 0.084185 0.827744
Si Si6 0.193277 0.724739 0.419643
Si Si7 0.447907 0.552416 0.307868
Si Si8 0.795553 0.566638 0.843264
O O1 0.554153 0.850648 0.726199
O O2 0.370975 0.753807 0.536280
O O3 0.597121 0.668742 0.854989
O O4 0.196617 0.832436 0.751261
O O5 0.117331 0.652853 0.525879
O O6 0.321870 0.478094 0.741119
O O7 0.000000 0.500000 0.500000
O O8 0.895754 0.606509 0.707472
O O9 0.227442 0.046438 0.316147
O O10 0.000000 0.000000 0.500000
O O11 0.921967 0.993162 0.178376
O O12 0.575410 0.965009 0.215166
O O13 0.225254 0.112834 0.005633
O O14 0.034959 0.182414 0.682209
O O15 0.316029 0.672062 0.289988
O O16 0.500000 0.500000 0.500000
O O17 0.294275 0.514411 0.195685
O O18 0.000000 0.500000 0.000000
#
# Coordination Sequence:
#
# PCOD8007975 Si02
#       8
#     2   2   2   2   2   2   2   2
#     4  11  24  42  64  96 134 167 220 272 316 400
#     4  11  21  41  69  90 126 176 219 271 320 384
#     4  11  23  44  68 101 133 169 217 271 325 393
#     4  10  25  43  69  95 138 169 210 274 334 389
#     4  10  23  46  67  96 130 171 218 268 331 394
#     4  11  21  42  67  96 128 167 225 267 318 389
#     4  10  20  42  62  89 130 159 222 264 306 389
#     4  12  26  42  63  95 136 172 214 275 332 383
#
# _framework density 21.461058000000001
#
# number of rings (size 3 to 8) (size 9 to 14) (size 15 to 20)
#    0.000    1.250    6.250    0.375    3.500    3.500 
#    4.500    0.000    0.000    0.000    0.000    0.000 
#    0.000    0.000    0.000    0.000    0.000    0.000 
#
# Total GULP energy -198281.384964 kJ/mol
# GULP energy per Si atom -12392.586560 kJ/mol
# Density = 2.141221 g / cm^3
# Si number density = 21.461058 Si / 1000 Ang^3
#
#
#
# Elastic Constant Matrix: (Units=GPa)
#
#
# Indices 1 2 3 4 5 6 
#
# 1 134.8955 56.3740 44.9800 7.5006 19.7402 4.1268
# 2 56.3740 147.0669 48.3809 0.7769 17.2626 -9.9304
# 3 44.9800 48.3809 83.7255 -4.7595 26.7856 4.6003
# 4 7.5006 0.7769 -4.7595 32.7960 -2.8546 20.1648
# 5 19.7402 17.2626 26.7856 -2.8546 37.7006 1.4575
# 6 4.1268 -9.9304 4.6003 20.1648 1.4575 37.1692
#
#
#
# Elastic Compliance Matrix: (Units=1/GPa)
#
#
# Indices 1 2 3 4 5 6 
#
# 1 0.010064 -0.002385 -0.003652 -0.003271 -0.001851 0.000545
# 2 -0.002385 0.009704 -0.004740 -0.003791 -0.000327 0.005513
# 3 -0.003652 -0.004740 0.020553 0.007423 -0.009685 -0.007052
# 4 -0.003271 -0.003791 0.007423 0.050596 0.003132 -0.029140
# 5 -0.001851 -0.000327 -0.009685 0.003132 0.034830 -0.001748
# 6 0.000545 0.005513 -0.007052 -0.029140 -0.001748 0.045067
#
#
# Mechanical properties :
#
#
# Convention : Reuss Voigt Hill
#
# Bulk Modulus (GPa) = 53.28627 73.90643 63.59635
# Shear Modulus (GPa) = 25.17341 35.93004 30.55172
#
# Velocity S-wave (km/s) = 3.42860 4.09613 3.77714
# Velocity P-wave (km/s) = 6.36843 7.54210 6.97998
#
# Compressibility (1/GPa) = 0.01876656
#
# Stress axis : x y z
#
# Youngs Moduli (GPa) = 99.36704 103.05273 48.65553
#
# Poissons Ratio (x) = 0.24576 0.17769
# Poissons Ratio (y) = 0.23697 0.23062
# Poissons Ratio (z) = 0.36289 0.48846
#
# Static dielectric constant tensor:
#      x y z
#    x 4.213500 -0.436240 0.339340 
#    y -0.436240 4.504270 0.208610 
#    z 0.339340 0.208610 3.622040 
# 
# 
# High freq. dielectric constant tensor:
#      x y z
#    x 1.854640 -0.012310 0.032620 
#    y -0.012310 1.856470 0.013960 
#    z 0.032620 0.013960 1.813180 
# 
# From -- ./inp_files/135170.got.cif
#   From: 2010.06.25/outbox.cif.g09.slc.cpg/sg2_68_cif.got.tgz:135170.got - 2010.06.27 13:26:56.
