data_PCOD8007027
_publ_section_title
;
Structure prediction by ZEFSAII (Michael W. Deem and Ramdas Pophale) SiO2 
 PCOD8007027
Probable space group: P -1
;
_chemical_formula_sum "Si O2"
_cell_formula_units_Z 16
_cell_length_a 11.954643
_cell_length_b 24.650297
_cell_length_c 8.926016
_cell_angle_alpha 140.418449
_cell_angle_beta 50.142648
_cell_angle_gamma 153.429580
_cell_volume 738.765939
_symmetry_space_group_name_H-M "P -1"
_symmetry_group_IT_number 2
_symmetry_cell_setting 'triclinic'
loop_
_space_group_symop_operation_xyz
x,y,z
-x,-y,-z
loop_
_atom_site_type_symbol
_atom_site_label
_atom_site_fract_x
_atom_site_fract_y
_atom_site_fract_z
Si Si1 0.186993 0.164596 0.363210
Si Si2 0.428945 0.546124 0.476377
Si Si3 0.087656 0.783804 0.824295
Si Si4 0.569153 0.345999 0.006661
Si Si5 0.010378 0.106908 0.056590
Si Si6 0.854297 0.130814 0.718634
Si Si7 0.332158 0.804825 0.425045
Si Si8 0.128325 0.370212 0.758888
O O1 0.473616 0.338597 0.486152
O O2 0.059751 0.136140 0.254257
O O3 0.029164 0.129873 0.561087
O O4 0.191364 0.065474 0.163967
O O5 0.335954 0.555936 0.719897
O O6 0.665202 0.596189 0.419935
O O7 0.202805 0.382791 0.254336
O O8 0.254544 0.784114 0.621674
O O9 0.112414 0.867829 0.853249
O O10 0.203547 0.872326 0.067888
O O11 0.266511 0.207678 0.958956
O O12 0.723637 0.468306 0.001212
O O13 0.644495 0.283860 0.817228
O O14 0.012253 0.282678 0.828911
O O15 0.591670 0.980276 0.541287
O O16 0.109600 0.737326 0.374349
#
# Coordination Sequence:
#
# PCOD8007027 Si02
#       8
#     2   2   2   2   2   2   2   2
#     4   9  20  38  64  93 124 148 210 261 296 352
#     4  10  21  39  65  97 120 155 202 262 311 353
#     4  12  24  41  65  86 132 169 199 243 315 381
#     4  11  20  39  66  95 120 153 216 256 304 355
#     4  10  20  40  66  94 122 157 204 261 304 359
#     4  11  25  42  59  94 128 165 204 248 309 374
#     4  12  24  42  63  89 123 170 208 252 302 365
#     4  11  22  40  68  95 118 157 215 261 303 350
#
# _framework density 21.65774
#
# number of rings (size 3 to 8) (size 9 to 14) (size 15 to 20)
#    0.000    1.250    3.750    3.750    0.000    2.500 
#    0.000    0.625    0.000    0.000    0.000    0.000 
#    0.000    0.000    0.000    0.000    0.000    0.000 
#
# Total GULP energy -198305.583044 kJ/mol
# GULP energy per Si atom -12394.098940 kJ/mol
# Density = 2.160845 g / cm^3
# Si number density = 21.657740 Si / 1000 Ang^3
#
#
#
# Elastic Constant Matrix: (Units=GPa)
#
#
# Indices 1 2 3 4 5 6 
#
# 1 47.6766 26.1301 35.8579 4.5852 -7.7161 -3.1198
# 2 26.1301 98.6278 29.8966 19.0238 -13.4614 -6.1686
# 3 35.8579 29.8966 91.6440 0.7379 -9.9775 -6.9581
# 4 4.5852 19.0238 0.7379 47.1675 -3.3474 -3.6440
# 5 -7.7161 -13.4614 -9.9775 -3.3474 15.1931 -3.3861
# 6 -3.1198 -6.1686 -6.9581 -3.6440 -3.3861 24.4927
#
#
#
# Elastic Compliance Matrix: (Units=1/GPa)
#
#
# Indices 1 2 3 4 5 6 
#
# 1 0.032354 -0.004428 -0.010553 -0.000748 0.005562 0.000666
# 2 -0.004428 0.014042 -0.001613 -0.004339 0.008867 0.003095
# 3 -0.010553 -0.001613 0.016434 0.002106 0.005353 0.003972
# 4 -0.000748 -0.004339 0.002106 0.023466 0.003070 0.003326
# 5 0.005562 0.008867 0.005353 0.003070 0.084389 0.016586
# 6 0.000666 0.003095 0.003972 0.003326 0.016586 0.045609
#
#
# Mechanical properties :
#
#
# Convention : Reuss Voigt Hill
#
# Bulk Modulus (GPa) = 33.73470 46.85751 40.29611
# Shear Modulus (GPa) = 19.27808 27.10824 23.19316
#
# Velocity S-wave (km/s) = 2.98673 3.54173 3.27600
# Velocity P-wave (km/s) = 5.24444 6.19738 5.74072
#
# Compressibility (1/GPa) = 0.02964307
#
# Stress axis : x y z
#
# Youngs Moduli (GPa) = 30.90825 71.21500 60.84787
#
# Poissons Ratio (x) = 0.31533 0.64210
# Poissons Ratio (y) = 0.13686 0.09815
# Poissons Ratio (z) = 0.32616 0.11488
#
# Static dielectric constant tensor:
#      x y z
#    x 3.421660 -0.104380 -0.284610 
#    y -0.104380 4.385450 0.222230 
#    z -0.284610 0.222230 3.909330 
# 
# 
# High freq. dielectric constant tensor:
#      x y z
#    x 1.798370 -0.002900 -0.024480 
#    y -0.002900 1.875960 0.016210 
#    z -0.024480 0.016210 1.849650 
# 
# From -- ./inp_files/285013.got.cif
#   From: 2010.06.25/outbox.cif.g09.slc.cpg/sg2_143_cif.got.tgz:285013.got - 2010.06.27 13:26:56.
