data_PCOD8007748
_publ_section_title
;
Structure prediction by ZEFSAII (Michael W. Deem and Ramdas Pophale) SiO2 
 PCOD8007748
Probable space group: P -1
;
_chemical_formula_sum "Si O2"
_cell_formula_units_Z 16
_cell_length_a 14.723663
_cell_length_b 8.869439
_cell_length_c 15.466399
_cell_angle_alpha 80.699284
_cell_angle_beta 39.414364
_cell_angle_gamma 49.813489
_cell_volume 704.794184
_symmetry_space_group_name_H-M "P -1"
_symmetry_group_IT_number 2
_symmetry_cell_setting 'triclinic'
loop_
_space_group_symop_operation_xyz
x,y,z
-x,-y,-z
loop_
_atom_site_type_symbol
_atom_site_label
_atom_site_fract_x
_atom_site_fract_y
_atom_site_fract_z
Si Si1 0.963751 0.935114 0.160977
Si Si2 0.619471 0.740212 0.680773
Si Si3 0.932333 0.881125 0.543730
Si Si4 0.509331 0.945962 0.096291
Si Si5 0.990595 0.433040 0.879252
Si Si6 0.789102 0.108461 0.453821
Si Si7 0.605455 0.783254 0.288198
Si Si8 0.606723 0.330959 0.236027
O O1 0.881721 0.832144 0.228338
O O2 0.962142 0.002200 0.254242
O O3 0.768736 0.197190 0.217702
O O4 0.255013 0.686040 0.935275
O O5 0.399661 0.828564 0.791331
O O6 0.877702 0.410010 0.524648
O O7 0.577378 0.834282 0.800876
O O8 0.605636 0.900571 0.613677
O O9 0.651207 0.069187 0.764560
O O10 0.939034 0.868183 0.434874
O O11 0.000000 0.000000 0.500000
O O12 0.813604 0.657661 0.913714
O O13 0.500000 0.000000 0.000000
O O14 0.234886 0.321204 0.733001
O O15 0.809157 0.569111 0.082837
O O16 0.545944 0.236858 0.579588
O O17 0.680359 0.353227 0.562305
#
# Coordination Sequence:
#
# PCOD8007748 Si02
#       8
#     2   2   2   2   2   2   2   2
#     4  11  24  38  73  96 135 181 218 284 354 403
#     4  11  23  43  69  92 136 182 222 281 351 397
#     4  12  25  45  69  94 139 184 229 285 340 413
#     4  11  26  45  69 102 137 182 232 284 341 416
#     4  10  20  41  67  99 128 175 223 281 343 397
#     4  12  24  44  67 101 135 178 232 282 342 414
#     4  10  21  41  70  94 131 172 225 283 340 403
#     4  11  23  46  62 100 140 172 226 283 344 414
#
# _framework density 22.701664999999998
#
# number of rings (size 3 to 8) (size 9 to 14) (size 15 to 20)
#    0.000    1.000    6.250    0.750    1.750    1.500 
#    2.250    1.250    0.000    0.000    0.000    0.000 
#    0.000    0.000    0.000    0.000    0.000    0.000 
#
# Total GULP energy -198226.226620 kJ/mol
# GULP energy per Si atom -12389.139164 kJ/mol
# Density = 2.264999 g / cm^3
# Si number density = 22.701665 Si / 1000 Ang^3
#
#
#
# Elastic Constant Matrix: (Units=GPa)
#
#
# Indices 1 2 3 4 5 6 
#
# 1 127.7943 42.2982 40.9363 -12.9918 5.8712 -3.3633
# 2 42.2982 96.8591 36.9133 9.2529 6.9805 -10.8295
# 3 40.9363 36.9133 60.0267 -2.0678 17.2480 -10.9506
# 4 -12.9918 9.2529 -2.0678 35.8535 -6.8007 2.8667
# 5 5.8712 6.9805 17.2480 -6.8007 25.8379 -3.6577
# 6 -3.3633 -10.8295 -10.9506 2.8667 -3.6577 50.8249
#
#
#
# Elastic Compliance Matrix: (Units=1/GPa)
#
#
# Indices 1 2 3 4 5 6 
#
# 1 0.011542 -0.003327 -0.007140 0.005563 0.004296 -0.001488
# 2 -0.003327 0.015160 -0.006929 -0.005653 0.000059 0.001840
# 3 -0.007140 -0.006929 0.031452 -0.002633 -0.017670 0.003704
# 4 0.005563 -0.005653 -0.002633 0.033400 0.010453 -0.002535
# 5 0.004296 0.000059 -0.017670 0.010453 0.052209 -0.000343
# 6 -0.001488 0.001840 0.003704 -0.002535 -0.000343 0.020886
#
#
# Mechanical properties :
#
#
# Convention : Reuss Voigt Hill
#
# Bulk Modulus (GPa) = 42.80530 58.33064 50.56797
# Shear Modulus (GPa) = 24.12810 33.47208 28.80009
#
# Velocity S-wave (km/s) = 3.26365 3.84400 3.56565
# Velocity P-wave (km/s) = 5.75312 6.74181 6.26699
#
# Compressibility (1/GPa) = 0.02336159
#
# Stress axis : x y z
#
# Youngs Moduli (GPa) = 86.63733 65.96520 31.79461
#
# Poissons Ratio (x) = 0.21946 0.22701
# Poissons Ratio (y) = 0.28824 0.22032
# Poissons Ratio (z) = 0.61857 0.45710
#
# Static dielectric constant tensor:
#      x y z
#    x 4.527490 -0.009410 -0.077700 
#    y -0.009410 4.043060 0.152420 
#    z -0.077700 0.152420 3.816010 
# 
# 
# High freq. dielectric constant tensor:
#      x y z
#    x 1.914790 -0.003360 -0.002840 
#    y -0.003360 1.893330 0.010700 
#    z -0.002840 0.010700 1.863670 
# 
# From -- ./inp_files/529641.got.cif
#   From: 2010.06.25/outbox.cif.g09.slc.cpg/sg2_265_cif.got.tgz:529641.got - 2010.06.27 13:26:56.
