data_PCOD8007998
_publ_section_title
;
Structure prediction by ZEFSAII (Michael W. Deem and Ramdas Pophale) SiO2 
 PCOD8007998
Probable space group: P -1
;
_chemical_formula_sum "Si O2"
_cell_formula_units_Z 14
_cell_length_a 11.550248
_cell_length_b 11.761247
_cell_length_c 13.205225
_cell_angle_alpha 48.636443
_cell_angle_beta 146.224820
_cell_angle_gamma 117.272648
_cell_volume 730.437335
_symmetry_space_group_name_H-M "P -1"
_symmetry_group_IT_number 2
_symmetry_cell_setting 'triclinic'
loop_
_space_group_symop_operation_xyz
x,y,z
-x,-y,-z
loop_
_atom_site_type_symbol
_atom_site_label
_atom_site_fract_x
_atom_site_fract_y
_atom_site_fract_z
Si Si1 0.961552 0.578374 0.653394
Si Si2 0.354531 0.949803 0.564866
Si Si3 0.160829 0.558732 0.008246
Si Si4 0.690546 0.389902 0.258784
Si Si5 0.367443 0.598388 0.556924
Si Si6 0.075229 0.137704 0.416119
Si Si7 0.768557 0.041679 0.754525
O O1 0.791173 0.473417 0.583467
O O2 0.130631 0.494554 0.910771
O O3 0.082282 0.587122 0.630464
O O4 0.847442 0.752239 0.507692
O O5 0.328832 0.782922 0.680188
O O6 0.220702 0.993553 0.337377
O O7 0.607113 0.943546 0.741371
O O8 0.264870 0.071725 0.515502
O O9 0.112501 0.748496 0.853206
O O10 0.399126 0.488847 0.258222
O O11 0.000000 0.500000 0.000000
O O12 0.678470 0.431666 0.342629
O O13 0.500000 0.500000 0.000000
O O14 0.336599 0.779415 0.405898
O O15 0.000000 0.000000 0.500000
O O16 0.000000 0.000000 0.000000
#
# Coordination Sequence:
#
# PCOD8007998 Si02
#       7
#     2   2   2   2   2   2   2
#     4  10  23  39  64  89 126 158 205 258 307 365
#     4  10  21  42  63  87 125 160 203 250 309 364
#     4  10  22  40  63  88 124 169 201 252 305 369
#     4  11  20  39  67  88 120 163 202 257 307 363
#     4  11  23  40  64  95 120 159 212 252 314 362
#     4  10  20  42  63  88 125 164 203 248 311 365
#     4  10  24  40  63  91 121 160 204 258 304 362
#
# _framework density 19.166599000000001
#
# number of rings (size 3 to 8) (size 9 to 14) (size 15 to 20)
#    0.857    0.857    2.857    1.286    2.000    2.857 
#    2.571    0.714    0.000    0.000    0.000    0.000 
#    0.000    0.000    0.000    0.000    0.000    0.000 
#
# Total GULP energy -173519.777550 kJ/mol
# GULP energy per Si atom -12394.269825 kJ/mol
# Density = 1.912298 g / cm^3
# Si number density = 19.166599 Si / 1000 Ang^3
#
#
#
# Elastic Constant Matrix: (Units=GPa)
#
#
# Indices 1 2 3 4 5 6 
#
# 1 89.5440 15.4765 20.4384 -1.7243 13.9484 10.9227
# 2 15.4765 67.4883 11.5247 8.2029 3.4668 10.8471
# 3 20.4384 11.5247 91.1624 3.9553 6.4865 13.5512
# 4 -1.7243 8.2029 3.9553 36.2474 3.1877 1.0722
# 5 13.9484 3.4668 6.4865 3.1877 28.0460 -3.0198
# 6 10.9227 10.8471 13.5512 1.0722 -3.0198 34.4735
#
#
#
# Elastic Compliance Matrix: (Units=1/GPa)
#
#
# Indices 1 2 3 4 5 6 
#
# 1 0.013449 -0.002109 -0.001843 0.002003 -0.006608 -0.003515
# 2 -0.002109 0.016589 -0.000782 -0.003568 -0.000869 -0.004209
# 3 -0.001843 -0.000782 0.012296 -0.000938 -0.002172 -0.004164
# 4 0.002003 -0.003568 -0.000938 0.028926 -0.003665 -0.000364
# 5 -0.006608 -0.000869 -0.002172 -0.003665 0.040712 0.006901
# 6 -0.003515 -0.004209 -0.004164 -0.000364 0.006901 0.033699
#
#
# Mechanical properties :
#
#
# Convention : Reuss Voigt Hill
#
# Bulk Modulus (GPa) = 30.42560 38.11932 34.27246
# Shear Modulus (GPa) = 30.10328 33.13706 31.62017
#
# Velocity S-wave (km/s) = 3.96739 4.16251 4.06612
# Velocity P-wave (km/s) = 6.07418 6.56000 6.32176
#
# Compressibility (1/GPa) = 0.03286706
#
# Stress axis : x y z
#
# Youngs Moduli (GPa) = 74.35226 60.27949 81.32846
#
# Poissons Ratio (x) = 0.12711 0.14989
# Poissons Ratio (y) = 0.15678 0.06361
# Poissons Ratio (z) = 0.13703 0.04715
#
# Static dielectric constant tensor:
#      x y z
#    x 4.177360 -0.152030 -0.228040 
#    y -0.152030 3.434280 -0.113640 
#    z -0.228040 -0.113640 3.404700 
# 
# 
# High freq. dielectric constant tensor:
#      x y z
#    x 1.758430 0.005270 0.000810 
#    y 0.005270 1.745840 -0.013060 
#    z 0.000810 -0.013060 1.729360 
# 
# From -- ./inp_files/518691.got.cif
#   From: 2010.06.25/outbox.cif.g09.slc.cpg/sg2_260_cif.got.tgz:518691.got - 2010.06.27 13:26:56.
