data_PCOD8007948
_publ_section_title
;
Structure prediction by ZEFSAII (Michael W. Deem and Ramdas Pophale) SiO2 
 PCOD8007948
Probable space group: P -1
;
_chemical_formula_sum "Si O2"
_cell_formula_units_Z 12
_cell_length_a 14.949570
_cell_length_b 11.705198
_cell_length_c 8.841451
_cell_angle_alpha 132.651702
_cell_angle_beta 37.192390
_cell_angle_gamma 150.392745
_cell_volume 461.468809
_symmetry_space_group_name_H-M "P -1"
_symmetry_group_IT_number 2
_symmetry_cell_setting 'triclinic'
loop_
_space_group_symop_operation_xyz
x,y,z
-x,-y,-z
loop_
_atom_site_type_symbol
_atom_site_label
_atom_site_fract_x
_atom_site_fract_y
_atom_site_fract_z
Si Si1 0.546326 0.887650 0.436184
Si Si2 0.159331 0.151640 0.059565
Si Si3 0.704456 0.173803 0.770347
Si Si4 0.381607 0.545063 0.903669
Si Si5 0.170351 0.204563 0.599996
Si Si6 0.070748 0.409657 0.723443
O O1 0.700346 0.894404 0.138628
O O2 0.328247 0.623900 0.534530
O O3 0.500000 0.000000 0.500000
O O4 0.675138 0.032718 0.545609
O O5 0.323264 0.419647 0.031555
O O6 0.000000 0.000000 0.000000
O O7 0.012681 0.062420 0.329633
O O8 0.931046 0.303182 0.661981
O O9 0.712528 0.355818 0.863188
O O10 0.500000 0.000000 0.000000
O O11 0.268845 0.372385 0.760000
O O12 0.644588 0.745007 0.698349
O O13 0.038556 0.223513 0.689731
O O14 0.000000 0.500000 0.000000
#
# Coordination Sequence:
#
# PCOD8007948 Si02
#       6
#     2   2   2   2   2   2
#     4  12  27  49  73 110 152 193 248 309 368 440
#     4  10  23  42  74 104 144 200 240 297 376 430
#     4  12  27  45  78 112 144 197 252 299 373 446
#     4  10  21  43  71 108 146 191 246 303 364 440
#     4  10  20  41  75 101 145 197 238 302 370 432
#     4  12  22  45  74 106 148 191 241 303 370 432
#
# _framework density 26.003924000000001
#
# number of rings (size 3 to 8) (size 9 to 14) (size 15 to 20)
#    0.000    1.000    5.000    1.000    7.000    0.667 
#    0.000    3.333    0.000    0.000    0.000    0.000 
#    0.000    0.000    0.000    0.000    0.000    0.000 
#
# Total GULP energy -148832.882265 kJ/mol
# GULP energy per Si atom -12402.740189 kJ/mol
# Density = 2.594474 g / cm^3
# Si number density = 26.003924 Si / 1000 Ang^3
#
#
#
# Elastic Constant Matrix: (Units=GPa)
#
#
# Indices 1 2 3 4 5 6 
#
# 1 172.1372 65.5217 48.5548 -10.1658 -16.6244 -19.6596
# 2 65.5217 107.8770 54.2180 -34.5042 14.9946 -13.2637
# 3 48.5548 54.2180 107.3538 -31.6314 -7.1852 -11.5603
# 4 -10.1658 -34.5042 -31.6314 40.3181 -3.5417 12.6500
# 5 -16.6244 14.9946 -7.1852 -3.5417 43.3950 3.3552
# 6 -19.6596 -13.2637 -11.5603 12.6500 3.3552 64.7187
#
#
#
# Elastic Compliance Matrix: (Units=1/GPa)
#
#
# Indices 1 2 3 4 5 6 
#
# 1 0.009316 -0.006912 -0.001651 -0.004983 0.005136 0.001826
# 2 -0.006912 0.020833 -0.004624 0.011756 -0.009618 -0.000455
# 3 -0.001651 -0.004624 0.014935 0.007874 0.004122 -0.000534
# 4 -0.004983 0.011756 0.007874 0.041522 -0.000833 -0.005771
# 5 0.005136 -0.009618 0.004122 -0.000833 0.029028 -0.001017
# 6 0.001826 -0.000455 -0.000534 -0.005771 -0.001017 0.016998
#
#
# Mechanical properties :
#
#
# Convention : Reuss Voigt Hill
#
# Bulk Modulus (GPa) = 53.44425 80.43967 66.94196
# Shear Modulus (GPa) = 30.25840 44.29127 37.27484
#
# Velocity S-wave (km/s) = 3.41487 4.13153 3.79018
# Velocity P-wave (km/s) = 6.01211 7.33213 6.70469
#
# Compressibility (1/GPa) = 0.01871109
#
# Stress axis : x y z
#
# Youngs Moduli (GPa) = 107.33978 48.00049 66.95605
#
# Poissons Ratio (x) = 0.33178 0.11052
# Poissons Ratio (y) = 0.74194 0.30961
# Poissons Ratio (z) = 0.17717 0.22196
#
# Static dielectric constant tensor:
#      x y z
#    x 4.916110 -0.153170 0.238010 
#    y -0.153170 4.943200 -0.371950 
#    z 0.238010 -0.371950 4.951910 
# 
# 
# High freq. dielectric constant tensor:
#      x y z
#    x 2.058660 -0.002580 -0.005200 
#    y -0.002580 2.048500 -0.004810 
#    z -0.005200 -0.004810 2.045860 
# 
# From -- ./inp_files/149803.got.cif
#   From: 2010.06.25/outbox.cif.g09.slc.cpg/sg2_75_cif.got.tgz:149803.got - 2010.06.27 13:26:56.
