data_PCOD8007585
_publ_section_title
;
Structure prediction by ZEFSAII (Michael W. Deem and Ramdas Pophale) SiO2 
 PCOD8007585
Probable space group: P -1
;
_chemical_formula_sum "Si O2"
_cell_formula_units_Z 14
_cell_length_a 8.850626
_cell_length_b 10.679883
_cell_length_c 7.889829
_cell_angle_alpha 63.126397
_cell_angle_beta 86.399644
_cell_angle_gamma 91.185274
_cell_volume 662.913754
_symmetry_space_group_name_H-M "P -1"
_symmetry_group_IT_number 2
_symmetry_cell_setting 'triclinic'
loop_
_space_group_symop_operation_xyz
x,y,z
-x,-y,-z
loop_
_atom_site_type_symbol
_atom_site_label
_atom_site_fract_x
_atom_site_fract_y
_atom_site_fract_z
Si Si1 0.090268 0.260304 0.369292
Si Si2 0.237745 0.658553 0.590751
Si Si3 0.549944 0.073405 0.624176
Si Si4 0.711965 0.526275 0.591342
Si Si5 0.254477 0.156891 0.100892
Si Si6 0.744324 0.820791 0.281854
Si Si7 0.573112 0.556953 0.129199
O O1 0.180440 0.412971 0.298820
O O2 0.131117 0.194885 0.225950
O O3 0.136489 0.156157 0.583984
O O4 0.911883 0.274211 0.371446
O O5 0.376674 0.773366 0.516676
O O6 0.208534 0.597968 0.439150
O O7 0.279716 0.530560 0.787486
O O8 0.399788 0.085898 0.739645
O O9 0.500000 0.000000 0.500000
O O10 0.670921 0.986414 0.768418
O O11 0.687827 0.655074 0.382747
O O12 0.549315 0.465369 0.699671
O O13 0.178606 0.137954 0.930299
O O14 0.386393 0.278803 0.001998
O O15 0.500000 0.500000 0.000000
#
# Coordination Sequence:
#
# PCOD8007585 Si02
#       7
#     2   2   2   2   2   2   2
#     4  10  23  43  63  98 136 166 202 270 324 387
#     4  12  23  40  70  91 127 179 207 255 340 372
#     4  12  23  44  67  94 126 176 217 266 312 380
#     4  10  20  41  65  94 130 160 213 268 318 370
#     4  12  23  40  68  94 132 166 218 264 317 372
#     4  10  21  43  67  92 129 164 214 267 316 368
#     4  12  20  39  64  95 121 164 218 266 302 375
#
# _framework density 21.118886
#
# number of rings (size 3 to 8) (size 9 to 14) (size 15 to 20)
#    0.857    0.000    5.714    3.000    0.000    1.143 
#    2.571    0.714    0.000    0.000    0.000    0.000 
#    0.000    0.000    0.000    0.000    0.000    0.000 
#
# Total GULP energy -173576.450577 kJ/mol
# GULP energy per Si atom -12398.317898 kJ/mol
# Density = 2.107082 g / cm^3
# Si number density = 21.118886 Si / 1000 Ang^3
#
#
#
# Elastic Constant Matrix: (Units=GPa)
#
#
# Indices 1 2 3 4 5 6 
#
# 1 91.9056 16.7555 26.1416 21.5823 -0.4162 -27.5157
# 2 16.7555 88.2026 30.7263 20.5963 -3.7192 -18.8302
# 3 26.1416 30.7263 104.3618 31.5043 4.8490 -17.2462
# 4 21.5823 20.5963 31.5043 45.2163 -4.8309 -7.0029
# 5 -0.4162 -3.7192 4.8490 -4.8309 11.7812 6.9894
# 6 -27.5157 -18.8302 -17.2462 -7.0029 6.9894 34.5314
#
#
#
# Elastic Compliance Matrix: (Units=1/GPa)
#
#
# Indices 1 2 3 4 5 6 
#
# 1 0.016816 0.001116 0.000979 -0.008120 -0.011831 0.015246
# 2 0.001116 0.014346 -0.001884 -0.004756 -0.000732 0.006955
# 3 0.000979 -0.001884 0.015276 -0.010673 -0.016274 0.008512
# 4 -0.008120 -0.004756 -0.010673 0.036368 0.024640 -0.012007
# 5 -0.011831 -0.000732 -0.016274 0.024640 0.123558 -0.037966
# 6 0.015246 0.006955 0.008512 -0.012007 -0.037966 0.054401
#
#
# Mechanical properties :
#
#
# Convention : Reuss Voigt Hill
#
# Bulk Modulus (GPa) = 21.33927 47.96852 34.65390
# Shear Modulus (GPa) = 18.11833 32.36223 25.24028
#
# Velocity S-wave (km/s) = 2.93221 3.91881 3.46085
# Velocity P-wave (km/s) = 4.64651 6.57564 5.69338
#
# Compressibility (1/GPa) = 0.04686195
#
# Stress axis : x y z
#
# Youngs Moduli (GPa) = 59.46582 69.70357 65.46090
#
# Poissons Ratio (x) = -0.07781 -0.06412
# Poissons Ratio (y) = -0.06638 0.12336
# Poissons Ratio (z) = -0.05825 0.13135
#
# Static dielectric constant tensor:
#      x y z
#    x 3.534520 -0.074900 0.078120 
#    y -0.074900 3.906320 0.106880 
#    z 0.078120 0.106880 3.895660 
# 
# 
# High freq. dielectric constant tensor:
#      x y z
#    x 1.806430 -0.006880 0.004550 
#    y -0.006880 1.835460 0.016330 
#    z 0.004550 0.016330 1.823550 
# 
# From -- ./inp_files/167608.got.cif
#   From: 2010.06.25/outbox.cif.g09.slc.cpg/sg2_84_cif.got.tgz:167608.got - 2010.06.27 13:26:56.
