data_PCOD8007318
_publ_section_title
;
Structure prediction by ZEFSAII (Michael W. Deem and Ramdas Pophale) SiO2 
 PCOD8007318
Probable space group: P -1
;
_chemical_formula_sum "Si O2"
_cell_formula_units_Z 16
_cell_length_a 5.314798
_cell_length_b 7.811942
_cell_length_c 20.669840
_cell_angle_alpha 101.755222
_cell_angle_beta 75.098620
_cell_angle_gamma 90.000793
_cell_volume 810.689167
_symmetry_space_group_name_H-M "P -1"
_symmetry_group_IT_number 2
_symmetry_cell_setting 'triclinic'
loop_
_space_group_symop_operation_xyz
x,y,z
-x,-y,-z
loop_
_atom_site_type_symbol
_atom_site_label
_atom_site_fract_x
_atom_site_fract_y
_atom_site_fract_z
Si Si1 0.811312 0.873511 0.188813
Si Si2 0.154623 0.855942 0.345409
Si Si3 0.077060 0.897090 0.922944
Si Si4 0.679999 0.191636 0.320032
Si Si5 0.364891 0.265620 0.135111
Si Si6 0.297078 0.669815 0.203028
Si Si7 0.580852 0.959912 0.419159
Si Si8 0.778188 0.802826 0.721778
O O1 0.571362 0.755106 0.180568
O O2 0.068001 0.755308 0.180526
O O3 0.873550 0.968948 0.126375
O O4 0.738051 0.009527 0.262065
O O5 0.214730 0.682935 0.285261
O O6 0.355649 0.853782 0.391834
O O7 0.860734 0.853824 0.391836
O O8 0.193745 0.017805 0.306361
O O9 0.340049 0.778177 0.910589
O O10 0.838761 0.778201 0.910587
O O11 0.000000 0.000000 0.000000
O O12 0.444206 0.302610 0.308314
O O13 0.939240 0.302612 0.308341
O O14 0.605332 0.145250 0.394648
O O15 0.330860 0.467616 0.169107
O O16 0.304166 0.154870 0.195826
O O17 0.500000 0.000000 0.500000
#
# Coordination Sequence:
#
# PCOD8007318 Si02
#       8
#     2   2   2   2   2   2   2   2
#     4  12  19  40  61  81 114 153 189 227 288 339
#     4  10  17  32  50  77 109 147 186 219 290 324
#     4  12  25  43  63  83 113 155 190 228 279 348
#     4  10  16  30  56  75 106 136 196 214 272 315
#     4  12  23  39  59  93 115 137 197 241 279 329
#     4  12  22  35  61  91 115 145 183 248 286 328
#     4  10  18  27  47  81 113 138 182 235 269 321
#     4  10  16  32  55  79 101 141 187 236 251 327
#
# _framework density 19.736294999999998
#
# number of rings (size 3 to 8) (size 9 to 14) (size 15 to 20)
#    0.000    1.000    7.500    2.250    0.000    0.000 
#    0.000    3.750    0.000    0.000    0.000   21.000 
#    0.000    0.000    0.000    0.000    0.000    0.000 
#
# Total GULP energy -198296.847772 kJ/mol
# GULP energy per Si atom -12393.552986 kJ/mol
# Density = 1.969137 g / cm^3
# Si number density = 19.736295 Si / 1000 Ang^3
#
#
#
# Elastic Constant Matrix: (Units=GPa)
#
#
# Indices 1 2 3 4 5 6 
#
# 1 222.0976 36.3852 40.8125 14.4324 8.4768 -15.4664
# 2 36.3852 57.4894 40.8257 14.5030 0.4110 -1.2275
# 3 40.8125 40.8257 106.0303 7.4347 -0.1003 0.0345
# 4 14.4324 14.5030 7.4347 19.6432 0.2288 -0.6664
# 5 8.4768 0.4110 -0.1003 0.2288 23.6184 3.5958
# 6 -15.4664 -1.2275 0.0345 -0.6664 3.5958 14.9189
#
#
#
# Elastic Compliance Matrix: (Units=1/GPa)
#
#
# Indices 1 2 3 4 5 6 
#
# 1 0.005772 -0.002086 -0.001286 -0.001960 -0.003004 0.006451
# 2 -0.002086 0.029634 -0.009429 -0.016802 0.000441 -0.000559
# 3 -0.001286 -0.009429 0.013365 0.002760 0.000999 -0.002257
# 4 -0.001960 -0.016802 0.002760 0.063680 0.000497 -0.000696
# 5 -0.003004 0.000441 0.000999 0.000497 0.045547 -0.014036
# 6 0.006451 -0.000559 -0.002257 -0.000696 -0.014036 0.077028
#
#
# Mechanical properties :
#
#
# Convention : Reuss Voigt Hill
#
# Bulk Modulus (GPa) = 43.16008 69.07381 56.11694
# Shear Modulus (GPa) = 18.63236 29.47568 24.05402
#
# Velocity S-wave (km/s) = 3.07590 3.86874 3.49488
# Velocity P-wave (km/s) = 5.87628 7.41826 6.69183
#
# Compressibility (1/GPa) = 0.02316956
#
# Stress axis : x y z
#
# Youngs Moduli (GPa) = 173.25394 33.74482 74.82358
#
# Poissons Ratio (x) = 0.07040 0.09622
# Poissons Ratio (y) = 0.36144 0.70548
# Poissons Ratio (z) = 0.22279 0.31816
#
# Static dielectric constant tensor:
#      x y z
#    x 5.489990 -0.204640 0.077020 
#    y -0.204640 3.147220 -0.152790 
#    z 0.077020 -0.152790 3.529320 
# 
# 
# High freq. dielectric constant tensor:
#      x y z
#    x 1.817030 -0.008010 0.001810 
#    y -0.008010 1.721160 -0.014250 
#    z 0.001810 -0.014250 1.750160 
# 
# From -- ./inp_files/548226.got.cif
#   From: 2010.06.25/outbox.cif.g09.slc.cpg/sg2_275_cif.got.tgz:548226.got - 2010.06.27 13:26:56.
