data_PCOD8007381
_publ_section_title
;
Structure prediction by ZEFSAII (Michael W. Deem and Ramdas Pophale) SiO2 
 PCOD8007381
Probable space group: P -1
;
_chemical_formula_sum "Si O2"
_cell_formula_units_Z 14
_cell_length_a 11.777185
_cell_length_b 14.145299
_cell_length_c 12.462824
_cell_angle_alpha 39.848811
_cell_angle_beta 50.404939
_cell_angle_gamma 31.191307
_cell_volume 687.810022
_symmetry_space_group_name_H-M "P -1"
_symmetry_group_IT_number 2
_symmetry_cell_setting 'triclinic'
loop_
_space_group_symop_operation_xyz
x,y,z
-x,-y,-z
loop_
_atom_site_type_symbol
_atom_site_label
_atom_site_fract_x
_atom_site_fract_y
_atom_site_fract_z
Si Si1 0.454607 0.365340 0.665415
Si Si2 0.667122 0.646784 0.829494
Si Si3 0.952509 0.719022 0.597660
Si Si4 0.180432 0.026235 0.756605
Si Si5 0.769131 0.099905 0.525560
Si Si6 0.535554 0.555893 0.177983
Si Si7 0.819556 0.284524 0.904981
O O1 0.500000 0.500000 0.500000
O O2 0.630403 0.149813 0.671311
O O3 0.496982 0.313484 0.812229
O O4 0.204722 0.511669 0.659975
O O5 0.854125 0.629463 0.733431
O O6 0.429569 0.897710 0.734758
O O7 0.700247 0.513562 0.825353
O O8 0.686431 0.538017 0.021585
O O9 0.940685 0.800315 0.417273
O O10 0.809540 0.923027 0.587315
O O11 0.171237 0.855159 0.891306
O O12 0.057358 0.155238 0.830194
O O13 0.639554 0.319895 0.346039
O O14 0.000000 0.000000 0.500000
O O15 0.304396 0.692576 0.143298
#
# Coordination Sequence:
#
# PCOD8007381 Si02
#       7
#     2   2   2   2   2   2   2
#     4  10  21  39  60  90 113 149 200 245 294 338
#     4  11  24  39  57  90 126 157 189 241 303 344
#     4  12  23  38  62  89 123 154 193 247 294 351
#     4  10  21  38  62  88 117 157 206 235 282 354
#     4  11  21  38  63  88 109 153 204 238 288 349
#     4  10  20  41  62  84 124 151 197 247 285 352
#     4  10  21  39  63  88 116 160 198 242 291 341
#
# _framework density 20.354457
#
# number of rings (size 3 to 8) (size 9 to 14) (size 15 to 20)
#    0.000    1.429    2.857    5.571    0.000    2.286 
#    2.571    0.714    0.000    0.000    0.000    0.000 
#    0.000    0.000    0.000    0.000    0.000    0.000 
#
# Total GULP energy -173551.502225 kJ/mol
# GULP energy per Si atom -12396.535873 kJ/mol
# Density = 2.030813 g / cm^3
# Si number density = 20.354457 Si / 1000 Ang^3
#
#
#
# Elastic Constant Matrix: (Units=GPa)
#
#
# Indices 1 2 3 4 5 6 
#
# 1 97.6612 44.3473 61.2136 24.2086 1.8083 -11.3242
# 2 44.3473 123.1295 41.8447 23.2686 2.0861 -5.6951
# 3 61.2136 41.8447 77.2117 9.9207 3.2679 6.3774
# 4 24.2086 23.2686 9.9207 21.6491 -2.4152 0.3948
# 5 1.8083 2.0861 3.2679 -2.4152 26.7832 6.2709
# 6 -11.3242 -5.6951 6.3774 0.3948 6.2709 28.2578
#
#
#
# Elastic Compliance Matrix: (Units=1/GPa)
#
#
# Indices 1 2 3 4 5 6 
#
# 1 0.040441 0.004581 -0.031607 -0.037135 -0.008841 0.026744
# 2 0.004581 0.012852 -0.009108 -0.015267 -0.003315 0.007431
# 3 -0.031607 -0.009108 0.041276 0.027386 0.006269 -0.025591
# 4 -0.037135 -0.015267 0.027386 0.093843 0.015586 -0.028909
# 5 -0.008841 -0.003315 0.006269 0.015586 0.042404 -0.015254
# 6 0.026744 0.007431 -0.025591 -0.028909 -0.015254 0.057168
#
#
# Mechanical properties :
#
#
# Convention : Reuss Voigt Hill
#
# Bulk Modulus (GPa) = 44.84644 65.86819 55.35732
# Shear Modulus (GPa) = 13.59850 25.37780 19.48815
#
# Velocity S-wave (km/s) = 2.58754 3.53483 3.09761
# Velocity P-wave (km/s) = 5.56846 7.00648 6.32845
#
# Compressibility (1/GPa) = 0.02229831
#
# Stress axis : x y z
#
# Youngs Moduli (GPa) = 24.72746 77.80755 24.22722
#
# Poissons Ratio (x) = -0.35640 0.76576
# Poissons Ratio (y) = -0.11326 0.22067
# Poissons Ratio (z) = 0.78157 0.70871
#
# Static dielectric constant tensor:
#      x y z
#    x 3.691740 -0.007640 0.298050 
#    y -0.007640 2.684970 0.469560 
#    z 0.298050 0.469560 3.924800 
# 
# 
# High freq. dielectric constant tensor:
#      x y z
#    x 1.782030 -0.005170 0.013950 
#    y -0.005170 1.811390 0.013140 
#    z 0.013950 0.013140 1.785220 
# 
# From -- ./inp_files/381390.got.cif
#   From: 2010.06.25/outbox.cif.g09.slc.cpg/sg2_191_cif.got.tgz:381390.got - 2010.06.27 13:26:56.
