data_PCOD8007876
_publ_section_title
;
Structure prediction by ZEFSAII (Michael W. Deem and Ramdas Pophale) SiO2 
 PCOD8007876
Probable space group: P -1
;
_chemical_formula_sum "Si O2"
_cell_formula_units_Z 16
_cell_length_a 9.566689
_cell_length_b 15.489428
_cell_length_c 9.434910
_cell_angle_alpha 101.883212
_cell_angle_beta 71.494741
_cell_angle_gamma 143.053137
_cell_volume 794.104080
_symmetry_space_group_name_H-M "P -1"
_symmetry_group_IT_number 2
_symmetry_cell_setting 'triclinic'
loop_
_space_group_symop_operation_xyz
x,y,z
-x,-y,-z
loop_
_atom_site_type_symbol
_atom_site_label
_atom_site_fract_x
_atom_site_fract_y
_atom_site_fract_z
Si Si1 0.418071 0.385461 0.596285
Si Si2 0.093863 0.905190 0.935929
Si Si3 0.928009 0.881466 0.563095
Si Si4 0.272230 0.399309 0.940442
Si Si5 0.215298 0.569557 0.049884
Si Si6 0.280177 0.146474 0.112944
Si Si7 0.258041 0.618314 0.385387
Si Si8 0.406354 0.047389 0.614575
O O1 0.500000 0.500000 0.500000
O O2 0.177384 0.237089 0.552082
O O3 0.337271 0.386666 0.768847
O O4 0.602484 0.393144 0.577501
O O5 0.877800 0.861184 0.929625
O O6 0.322266 0.996789 0.788627
O O7 0.973907 0.756340 0.967293
O O8 0.180420 0.999327 0.079894
O O9 0.722194 0.816775 0.715917
O O10 0.000000 0.000000 0.500000
O O11 0.160021 0.950146 0.582393
O O12 0.500000 0.500000 0.000000
O O13 0.227298 0.478408 0.954746
O O14 0.196396 0.564573 0.224612
O O15 0.452236 0.734924 0.990162
O O16 0.000000 0.500000 0.000000
O O17 0.403265 0.780985 0.403515
O O18 0.000000 0.500000 0.500000
O O19 0.500000 0.000000 0.500000
#
# Coordination Sequence:
#
# PCOD8007876 Si02
#       8
#     2   2   2   2   2   2   2   2
#     4  12  27  45  72 108 142 183 242 293 347 423
#     4  10  21  41  73  97 129 180 236 292 337 411
#     4  11  23  41  70  99 135 180 236 290 344 413
#     4  12  24  44  71 103 136 184 241 282 342 415
#     4  12  27  45  70 102 144 187 231 286 354 420
#     4  10  20  41  70  95 128 178 235 284 344 401
#     4  12  28  48  70 101 148 188 231 295 364 419
#     4  11  26  44  70 102 141 186 234 288 361 424
#
# _framework density 20.148492999999998
#
# number of rings (size 3 to 8) (size 9 to 14) (size 15 to 20)
#    0.000    0.750    5.000    1.500   10.500    0.000 
#    0.000    0.625    0.000    0.000    0.000    0.000 
#    0.000    0.000    0.000    0.000    0.000    0.000 
#
# Total GULP energy -198226.657050 kJ/mol
# GULP energy per Si atom -12389.166066 kJ/mol
# Density = 2.010263 g / cm^3
# Si number density = 20.148493 Si / 1000 Ang^3
#
#
#
# Elastic Constant Matrix: (Units=GPa)
#
#
# Indices 1 2 3 4 5 6 
#
# 1 85.8186 33.1180 38.8592 0.0556 -6.8254 -4.2797
# 2 33.1180 146.9893 61.0149 -0.9250 -2.8146 -5.4707
# 3 38.8592 61.0149 137.5121 5.1700 -5.2908 12.8330
# 4 0.0556 -0.9250 5.1700 44.7202 -1.0179 -3.4117
# 5 -6.8254 -2.8146 -5.2908 -1.0179 31.7044 -3.6433
# 6 -4.2797 -5.4707 12.8330 -3.4117 -3.6433 30.8560
#
#
#
# Elastic Compliance Matrix: (Units=1/GPa)
#
#
# Indices 1 2 3 4 5 6 
#
# 1 0.014279 -0.001524 -0.003617 0.000708 0.002774 0.003620
# 2 -0.001524 0.008850 -0.003806 0.000863 0.000202 0.003060
# 3 -0.003617 -0.003806 0.010585 -0.001740 -0.000070 -0.005780
# 4 0.000708 0.000863 -0.001740 0.022881 0.001091 0.003634
# 5 0.002774 0.000202 -0.000070 0.001091 0.032689 0.004430
# 6 0.003620 0.003060 -0.005780 0.003634 0.004430 0.036782
#
#
# Mechanical properties :
#
#
# Convention : Reuss Voigt Hill
#
# Bulk Modulus (GPa) = 63.20988 70.70046 66.95517
# Shear Modulus (GPa) = 33.50472 37.27799 35.39135
#
# Velocity S-wave (km/s) = 4.08228 4.30602 4.19564
# Velocity P-wave (km/s) = 7.32531 7.73875 7.53486
#
# Compressibility (1/GPa) = 0.01582031
#
# Stress axis : x y z
#
# Youngs Moduli (GPa) = 70.03375 112.99838 94.47180
#
# Poissons Ratio (x) = 0.17215 0.34168
# Poissons Ratio (y) = 0.10670 0.35960
# Poissons Ratio (z) = 0.25330 0.43012
#
# Static dielectric constant tensor:
#      x y z
#    x 3.544650 -0.262430 -0.072980 
#    y -0.262430 3.932870 -0.062910 
#    z -0.072980 -0.062910 3.802190 
# 
# 
# High freq. dielectric constant tensor:
#      x y z
#    x 1.775890 -0.003840 -0.001980 
#    y -0.003840 1.810190 0.006170 
#    z -0.001980 0.006170 1.803300 
# 
# From -- ./inp_files/207696.got.cif
#   From: 2010.06.25/outbox.cif.g09.slc.cpg/sg2_104_cif.got.tgz:207696.got - 2010.06.27 13:26:56.
