data_PCOD8007757
_publ_section_title
;
Structure prediction by ZEFSAII (Michael W. Deem and Ramdas Pophale) SiO2 
 PCOD8007757
Probable space group: P -1
;
_chemical_formula_sum "Si O2"
_cell_formula_units_Z 16
_cell_length_a 9.801001
_cell_length_b 9.620244
_cell_length_c 14.350939
_cell_angle_alpha 109.021669
_cell_angle_beta 99.597942
_cell_angle_gamma 134.936042
_cell_volume 729.083205
_symmetry_space_group_name_H-M "P -1"
_symmetry_group_IT_number 2
_symmetry_cell_setting 'triclinic'
loop_
_space_group_symop_operation_xyz
x,y,z
-x,-y,-z
loop_
_atom_site_type_symbol
_atom_site_label
_atom_site_fract_x
_atom_site_fract_y
_atom_site_fract_z
Si Si1 0.098522 0.167877 0.138096
Si Si2 0.446761 0.722972 0.266898
Si Si3 0.808330 0.079176 0.235876
Si Si4 0.816101 0.206850 0.735592
Si Si5 0.433559 0.206164 0.244765
Si Si6 0.772554 0.610443 0.522449
Si Si7 0.332536 0.174599 0.500915
Si Si8 0.312829 0.754756 0.861773
O O1 0.214467 0.419004 0.171081
O O2 0.297973 0.243039 0.228681
O O3 0.889897 0.027539 0.158067
O O4 0.000000 0.000000 0.000000
O O5 0.360571 0.810163 0.304932
O O6 0.643680 0.840303 0.390393
O O7 0.556579 0.813192 0.194951
O O8 0.790220 0.224860 0.222609
O O9 0.986293 0.251693 0.381354
O O10 0.092480 0.495943 0.837875
O O11 0.751908 0.074322 0.797253
O O12 0.780575 0.063717 0.615090
O O13 0.661156 0.417418 0.384932
O O14 0.535896 0.246317 0.166177
O O15 0.593253 0.450348 0.554724
O O16 0.833618 0.827708 0.539296
O O17 0.500000 0.000000 0.000000
#
# Coordination Sequence:
#
# PCOD8007757 Si02
#       8
#     2   2   2   2   2   2   2   2
#     4  12  26  48  72  99 145 187 234 294 348 418
#     4  12  24  43  71 105 143 185 233 288 353 417
#     4  12  25  44  71 104 139 185 233 290 355 411
#     4  11  24  43  72 102 138 186 232 289 347 419
#     4  11  25  45  72 109 135 185 236 289 356 409
#     4  10  20  42  72  99 149 173 229 296 350 418
#     4  10  20  41  68 104 142 184 225 284 360 413
#     4  12  27  47  70 101 142 187 237 287 351 419
#
# _framework density 21.945367999999998
#
# number of rings (size 3 to 8) (size 9 to 14) (size 15 to 20)
#    0.000    0.750    5.000    2.625    1.750    6.000 
#    0.000    0.000    0.000    0.000    0.000    0.000 
#    0.000    0.000    0.000    0.000    0.000    0.000 
#
# Total GULP energy -198453.465372 kJ/mol
# GULP energy per Si atom -12403.341586 kJ/mol
# Density = 2.189542 g / cm^3
# Si number density = 21.945368 Si / 1000 Ang^3
#
#
#
# Elastic Constant Matrix: (Units=GPa)
#
#
# Indices 1 2 3 4 5 6 
#
# 1 103.3174 51.5719 27.1902 6.8751 -10.4840 -3.8046
# 2 51.5719 124.6282 38.4026 7.9965 -5.6876 3.2507
# 3 27.1902 38.4026 100.7012 14.2046 -11.6517 5.1188
# 4 6.8751 7.9965 14.2046 23.5517 -0.5602 -4.6852
# 5 -10.4840 -5.6876 -11.6517 -0.5602 31.8726 -6.6462
# 6 -3.8046 3.2507 5.1188 -4.6852 -6.6462 40.2176
#
#
#
# Elastic Compliance Matrix: (Units=1/GPa)
#
#
# Indices 1 2 3 4 5 6 
#
# 1 0.012883 -0.004794 -0.001252 -0.000855 0.003373 0.002223
# 2 -0.004794 0.010914 -0.002785 -0.000894 -0.000921 -0.001238
# 3 -0.001252 -0.002785 0.012734 -0.006639 0.003265 -0.001748
# 4 -0.000855 -0.000894 -0.006639 0.048262 -0.000697 0.006344
# 5 0.003373 -0.000921 0.003265 -0.000697 0.034675 0.005627
# 6 0.002223 -0.001238 -0.001748 0.006344 0.005627 0.027066
#
#
# Mechanical properties :
#
#
# Convention : Reuss Voigt Hill
#
# Bulk Modulus (GPa) = 53.00311 62.55292 57.77801
# Shear Modulus (GPa) = 29.32808 33.22720 31.27764
#
# Velocity S-wave (km/s) = 3.65966 3.89535 3.77934
# Velocity P-wave (km/s) = 6.48554 6.98552 6.74017
#
# Compressibility (1/GPa) = 0.01886682
#
# Stress axis : x y z
#
# Youngs Moduli (GPa) = 77.62419 91.62958 78.53218
#
# Poissons Ratio (x) = 0.43929 0.09835
# Poissons Ratio (y) = 0.37215 0.21871
# Poissons Ratio (z) = 0.09721 0.25518
#
# Static dielectric constant tensor:
#      x y z
#    x 4.025590 -0.094180 0.019050 
#    y -0.094180 4.172910 -0.077380 
#    z 0.019050 -0.077380 3.710300 
# 
# 
# High freq. dielectric constant tensor:
#      x y z
#    x 1.868740 -0.004630 -0.002580 
#    y -0.004630 1.870590 -0.004080 
#    z -0.002580 -0.004080 1.852760 
# 
# From -- ./inp_files/346098.got.cif
#   From: 2010.06.25/outbox.cif.g09.slc.cpg/sg2_174_cif.got.tgz:346098.got - 2010.06.27 13:26:56.
