data_PCOD8007957
_publ_section_title
;
Structure prediction by ZEFSAII (Michael W. Deem and Ramdas Pophale) SiO2 
 PCOD8007957
Probable space group: P -1
;
_chemical_formula_sum "Si O2"
_cell_formula_units_Z 12
_cell_length_a 20.728940
_cell_length_b 12.796176
_cell_length_c 7.145847
_cell_angle_alpha 125.748810
_cell_angle_beta 54.725091
_cell_angle_gamma 161.352857
_cell_volume 489.762769
_symmetry_space_group_name_H-M "P -1"
_symmetry_group_IT_number 2
_symmetry_cell_setting 'triclinic'
loop_
_space_group_symop_operation_xyz
x,y,z
-x,-y,-z
loop_
_atom_site_type_symbol
_atom_site_label
_atom_site_fract_x
_atom_site_fract_y
_atom_site_fract_z
Si Si1 0.386185 0.713411 0.143939
Si Si2 0.128242 0.702536 0.794242
Si Si3 0.366292 0.157786 0.201773
Si Si4 0.214016 0.559348 0.614066
Si Si5 0.931190 0.646556 0.973886
Si Si6 0.672404 0.818948 0.294496
O O1 0.251660 0.502750 0.340510
O O2 0.264618 0.599780 0.063588
O O3 0.580529 0.090848 0.259850
O O4 0.450520 0.669917 0.919486
O O5 0.122028 0.539332 0.621414
O O6 0.930228 0.485211 0.822877
O O7 0.323585 0.049376 0.710750
O O8 0.170415 0.810749 0.053472
O O9 0.458498 0.423729 0.224798
O O10 0.287105 0.074572 0.450961
O O11 0.066877 0.294765 0.753440
O O12 0.141767 0.998836 0.886195
#
# Coordination Sequence:
#
# PCOD8007957 Si02
#       6
#     2   2   2   2   2   2
#     4  10  23  37  59  83 118 153 185 234 291 333
#     4   9  21  36  60  86 110 151 191 230 281 335
#     4  10  20  42  60  82 117 152 189 234 284 340
#     4  10  21  40  57  84 119 152 186 232 287 343
#     4  10  22  36  59  90 112 148 195 234 281 333
#     4   9  22  37  64  84 111 151 198 230 279 338
#
# _framework density 24.501657999999999
#
# number of rings (size 3 to 8) (size 9 to 14) (size 15 to 20)
#    1.000    1.333    0.000    1.500    2.333    8.000 
#    0.000    0.833    0.000    0.000    0.000    0.000 
#    0.000    0.000    0.000    0.000    0.000    0.000 
#
# Total GULP energy -148675.920802 kJ/mol
# GULP energy per Si atom -12389.660067 kJ/mol
# Density = 2.444589 g / cm^3
# Si number density = 24.501658 Si / 1000 Ang^3
#
#
#
# Elastic Constant Matrix: (Units=GPa)
#
#
# Indices 1 2 3 4 5 6 
#
# 1 104.6758 22.6748 32.9151 -9.2224 8.7007 24.7383
# 2 22.6748 49.4963 37.2624 -14.7441 -6.4218 7.2524
# 3 32.9151 37.2624 122.4496 -46.3144 -3.6502 -9.7744
# 4 -9.2224 -14.7441 -46.3144 44.0250 1.2033 3.4208
# 5 8.7007 -6.4218 -3.6502 1.2033 23.8409 -5.7606
# 6 24.7383 7.2524 -9.7744 3.4208 -5.7606 32.5132
#
#
#
# Elastic Compliance Matrix: (Units=1/GPa)
#
#
# Indices 1 2 3 4 5 6 
#
# 1 0.016446 -0.002939 -0.005968 -0.002311 -0.011315 -0.015414
# 2 -0.002939 0.029639 -0.008099 0.001067 0.006362 -0.005795
# 3 -0.005968 -0.008099 0.018939 0.014948 0.004880 0.011333
# 4 -0.002311 0.001067 0.014948 0.038071 0.002072 0.002375
# 5 -0.011315 0.006362 0.004880 0.002072 0.052727 0.017781
# 6 -0.015414 -0.005795 0.011333 0.002375 0.017781 0.050085
#
#
# Mechanical properties :
#
#
# Convention : Reuss Voigt Hill
#
# Bulk Modulus (GPa) = 32.24464 51.36961 41.80712
# Shear Modulus (GPa) = 19.97940 32.32711 26.15326
#
# Velocity S-wave (km/s) = 2.85867 3.63627 3.27066
# Velocity P-wave (km/s) = 4.90762 6.21621 5.60027
#
# Compressibility (1/GPa) = 0.03101291
#
# Stress axis : x y z
#
# Youngs Moduli (GPa) = 60.80361 33.73890 52.80060
#
# Poissons Ratio (x) = 0.09917 0.31512
# Poissons Ratio (y) = 0.17871 0.42762
# Poissons Ratio (z) = 0.36288 0.27324
#
# Static dielectric constant tensor:
#      x y z
#    x 4.230720 0.049850 0.072690 
#    y 0.049850 4.210510 -0.558600 
#    z 0.072690 -0.558600 4.667260 
# 
# 
# High freq. dielectric constant tensor:
#      x y z
#    x 1.955410 0.012110 0.019000 
#    y 0.012110 1.956530 -0.040670 
#    z 0.019000 -0.040670 1.985000 
# 
# From -- ./inp_files/124367.got.cif
#   From: 2010.06.25/outbox.cif.g09.slc.cpg/sg2_63_cif.got.tgz:124367.got - 2010.06.27 13:26:56.
