data_PCOD8007169
_publ_section_title
;
Structure prediction by ZEFSAII (Michael W. Deem and Ramdas Pophale) SiO2 
 PCOD8007169
Probable space group: P -1
;
_chemical_formula_sum "Si O2"
_cell_formula_units_Z 12
_cell_length_a 15.018135
_cell_length_b 7.040868
_cell_length_c 6.845252
_cell_angle_alpha 85.493233
_cell_angle_beta 44.604097
_cell_angle_gamma 95.169081
_cell_volume 495.550108
_symmetry_space_group_name_H-M "P -1"
_symmetry_group_IT_number 2
_symmetry_cell_setting 'triclinic'
loop_
_space_group_symop_operation_xyz
x,y,z
-x,-y,-z
loop_
_atom_site_type_symbol
_atom_site_label
_atom_site_fract_x
_atom_site_fract_y
_atom_site_fract_z
Si Si1 0.537712 0.235491 0.938574
Si Si2 0.909555 0.602415 0.771292
Si Si3 0.232309 0.687397 0.702990
Si Si4 0.372884 0.900906 0.818646
Si Si5 0.281107 0.235225 0.168402
Si Si6 0.072705 0.937374 0.710600
O O1 0.637188 0.342279 0.608014
O O2 0.597071 0.263816 0.062238
O O3 0.406513 0.322407 0.103891
O O4 0.500000 0.000000 0.000000
O O5 0.769778 0.599017 0.887432
O O6 0.000000 0.500000 0.500000
O O7 0.981705 0.824075 0.690303
O O8 0.872241 0.503266 0.050621
O O9 0.263790 0.802505 0.846610
O O10 0.168726 0.800163 0.632409
O O11 0.500000 0.000000 0.500000
O O12 0.317862 0.071650 0.988476
O O13 0.155442 0.142457 0.496089
O O14 0.000000 0.000000 0.000000
#
# Coordination Sequence:
#
# PCOD8007169 Si02
#       6
#     2   2   2   2   2   2
#     4  10  20  40  68 103 134 179 237 289 350 417
#     4  12  28  45  68 106 149 186 231 295 358 407
#     4  12  23  42  71 100 145 177 229 300 357 402
#     4  11  19  40  72 102 136 184 231 286 350 425
#     4  11  22  44  70 100 140 181 246 282 343 434
#     4  12  24  46  73  98 137 196 246 279 337 430
#
# _framework density 24.215509999999998
#
# number of rings (size 3 to 8) (size 9 to 14) (size 15 to 20)
#    0.000    0.667    6.667    4.000    0.000    0.667 
#    0.000    0.833    0.000    0.000    0.000    0.000 
#    0.000    0.000    0.000    0.000    0.000    0.000 
#
# Total GULP energy -148751.468785 kJ/mol
# GULP energy per Si atom -12395.955732 kJ/mol
# Density = 2.416039 g / cm^3
# Si number density = 24.215510 Si / 1000 Ang^3
#
#
#
# Elastic Constant Matrix: (Units=GPa)
#
#
# Indices 1 2 3 4 5 6 
#
# 1 121.9818 21.4271 12.6885 11.5375 -0.5702 -18.7922
# 2 21.4271 27.6632 9.7764 15.4862 1.0440 -10.6490
# 3 12.6885 9.7764 152.9201 7.0300 -7.6604 12.4095
# 4 11.5375 15.4862 7.0300 41.5488 -4.0458 -2.0745
# 5 -0.5702 1.0440 -7.6604 -4.0458 37.5503 -6.1301
# 6 -18.7922 -10.6490 12.4095 -2.0745 -6.1301 39.5170
#
#
#
# Elastic Compliance Matrix: (Units=1/GPa)
#
#
# Indices 1 2 3 4 5 6 
#
# 1 0.009867 -0.006067 -0.000662 -0.000128 0.000720 0.003370
# 2 -0.006067 0.057370 -0.003421 -0.018740 -0.002397 0.012294
# 3 -0.000662 -0.003421 0.007124 0.000188 0.001019 -0.003306
# 4 -0.000128 -0.018740 0.000188 0.031241 0.003434 -0.002997
# 5 0.000720 -0.002397 0.001019 0.003434 0.027921 0.003888
# 6 0.003370 0.012294 -0.003306 -0.002997 0.003888 0.031705
#
#
# Mechanical properties :
#
#
# Convention : Reuss Voigt Hill
#
# Bulk Modulus (GPa) = 18.49724 43.37212 30.93468
# Shear Modulus (GPa) = 24.56409 40.96808 32.76609
#
# Velocity S-wave (km/s) = 3.18841 4.11763 3.68245
# Velocity P-wave (km/s) = 4.60541 6.36838 5.55725
#
# Compressibility (1/GPa) = 0.05406212
#
# Stress axis : x y z
#
# Youngs Moduli (GPa) = 101.34546 17.43057 140.37646
#
# Poissons Ratio (x) = 0.10574 0.09299
# Poissons Ratio (y) = 0.61482 0.48018
# Poissons Ratio (z) = 0.06714 0.05962
#
# Static dielectric constant tensor:
#      x y z
#    x 5.280060 -0.083010 -0.201540 
#    y -0.083010 4.288210 -0.268430 
#    z -0.201540 -0.268430 4.481000 
# 
# 
# High freq. dielectric constant tensor:
#      x y z
#    x 1.982420 -0.004620 -0.004180 
#    y -0.004620 1.939360 -0.008770 
#    z -0.004180 -0.008770 1.975230 
# 
# From -- ./inp_files/86298.got.cif
#   From: 2010.06.25/outbox.cif.g09.slc.cpg/sg2_44_cif.got.tgz:86298.got - 2010.06.27 13:26:56.
