data_PCOD8007648
_publ_section_title
;
Structure prediction by ZEFSAII (Michael W. Deem and Ramdas Pophale) SiO2 
 PCOD8007648
Probable space group: P -1
;
_chemical_formula_sum "Si O2"
_cell_formula_units_Z 16
_cell_length_a 15.456228
_cell_length_b 15.262983
_cell_length_c 5.049551
_cell_angle_alpha 108.387135
_cell_angle_beta 90.230080
_cell_angle_gamma 139.714978
_cell_volume 670.304518
_symmetry_space_group_name_H-M "P -1"
_symmetry_group_IT_number 2
_symmetry_cell_setting 'triclinic'
loop_
_space_group_symop_operation_xyz
x,y,z
-x,-y,-z
loop_
_atom_site_type_symbol
_atom_site_label
_atom_site_fract_x
_atom_site_fract_y
_atom_site_fract_z
Si Si1 0.212908 0.835954 0.492159
Si Si2 0.084299 0.492286 0.835107
Si Si3 0.739220 0.327388 0.523184
Si Si4 0.747622 0.749569 0.222640
Si Si5 0.468082 0.693768 0.465748
Si Si6 0.761932 0.027099 0.890588
Si Si7 0.456621 0.568873 0.839492
Si Si8 0.026027 0.942563 0.156917
O O1 0.288167 0.800057 0.493860
O O2 0.232264 0.885460 0.239469
O O3 0.039638 0.687131 0.418542
O O4 0.284264 0.968656 0.824634
O O5 0.163660 0.594269 0.666288
O O6 0.193985 0.551995 0.121380
O O7 0.000000 0.500000 0.000000
O O8 0.589280 0.253133 0.405199
O O9 0.629005 0.690080 0.959453
O O10 0.850982 0.919252 0.500504
O O11 0.648613 0.610435 0.303110
O O12 0.865874 0.782119 0.122162
O O13 0.422682 0.616736 0.106160
O O14 0.642065 0.849405 0.634308
O O15 0.411542 0.570741 0.558807
O O16 0.914523 0.103156 0.001459
O O17 0.000000 0.000000 0.000000
#
# Coordination Sequence:
#
# PCOD8007648 Si02
#       8
#     2   2   2   2   2   2   2   2
#     4  11  24  42  67  97 132 177 223 269 335 405
#     4  10  20  41  66  94 129 172 219 278 334 387
#     4  11  23  42  68  97 135 178 220 276 333 394
#     4  10  25  44  72 100 132 181 222 281 340 413
#     4  12  26  44  67  98 138 176 225 281 328 396
#     4  12  26  43  67  96 136 177 222 278 337 397
#     4  11  25  46  71 100 136 179 230 272 342 401
#     4  11  25  45  70 100 140 174 221 283 346 398
#
# _framework density 23.869745999999999
#
# number of rings (size 3 to 8) (size 9 to 14) (size 15 to 20)
#    0.000    1.000    1.250    6.000    5.250    5.000 
#    0.000    0.000    0.000    0.000    0.000    0.000 
#    0.000    0.000    0.000    0.000    0.000    0.000 
#
# Total GULP energy -198310.399763 kJ/mol
# GULP energy per Si atom -12394.399985 kJ/mol
# Density = 2.381542 g / cm^3
# Si number density = 23.869746 Si / 1000 Ang^3
#
#
#
# Elastic Constant Matrix: (Units=GPa)
#
#
# Indices 1 2 3 4 5 6 
#
# 1 133.9755 29.0785 7.6783 -7.9725 7.0167 9.2931
# 2 29.0785 82.6437 17.6386 -5.7246 12.6960 0.0480
# 3 7.6783 17.6386 63.3381 -5.7949 0.5023 2.0900
# 4 -7.9725 -5.7246 -5.7949 36.0317 -2.5805 9.9409
# 5 7.0167 12.6960 0.5023 -2.5805 29.5175 -0.2309
# 6 9.2931 0.0480 2.0900 9.9409 -0.2309 30.6992
#
#
#
# Elastic Compliance Matrix: (Units=1/GPa)
#
#
# Indices 1 2 3 4 5 6 
#
# 1 0.008454 -0.002723 0.000060 0.002314 -0.000663 -0.003313
# 2 -0.002723 0.014743 -0.003713 0.000509 -0.005579 0.000847
# 3 0.000060 -0.003713 0.017134 0.002866 0.001525 -0.002096
# 4 0.002314 0.000509 0.002866 0.032050 0.001896 -0.011260
# 5 -0.000663 -0.005579 0.001525 0.001896 0.036574 -0.000233
# 6 -0.003313 0.000847 -0.002096 -0.011260 -0.000233 0.037363
#
#
# Mechanical properties :
#
#
# Convention : Reuss Voigt Hill
#
# Bulk Modulus (GPa) = 36.25969 43.19423 39.72696
# Shear Modulus (GPa) = 29.71561 34.28715 32.00138
#
# Velocity S-wave (km/s) = 3.53215 3.79413 3.66548
# Velocity P-wave (km/s) = 5.64433 6.10975 5.88164
#
# Compressibility (1/GPa) = 0.02757883
#
# Stress axis : x y z
#
# Youngs Moduli (GPa) = 118.28818 67.83073 58.36276
#
# Poissons Ratio (x) = 0.18472 -0.00349
# Poissons Ratio (y) = 0.32213 0.21667
# Poissons Ratio (z) = -0.00708 0.25182
#
# Static dielectric constant tensor:
#      x y z
#    x 4.373940 0.246260 0.334530 
#    y 0.246260 4.264770 0.115700 
#    z 0.334530 0.115700 4.662000 
# 
# 
# High freq. dielectric constant tensor:
#      x y z
#    x 1.949950 0.006450 0.005200 
#    y 0.006450 1.940180 -0.006080 
#    z 0.005200 -0.006080 1.948580 
# 
# From -- ./inp_files/98457.got.cif
#   From: 2010.06.25/outbox.cif.g09.slc.cpg/sg2_50_cif.got.tgz:98457.got - 2010.06.27 13:26:56.
