data_PCOD8007383
_publ_section_title
;
Structure prediction by ZEFSAII (Michael W. Deem and Ramdas Pophale) SiO2 
 PCOD8007383
Probable space group: P -1
;
_chemical_formula_sum "Si O2"
_cell_formula_units_Z 16
_cell_length_a 11.951883
_cell_length_b 11.576383
_cell_length_c 13.640749
_cell_angle_alpha 31.344398
_cell_angle_beta 110.747739
_cell_angle_gamma 92.174166
_cell_volume 770.365598
_symmetry_space_group_name_H-M "P -1"
_symmetry_group_IT_number 2
_symmetry_cell_setting 'triclinic'
loop_
_space_group_symop_operation_xyz
x,y,z
-x,-y,-z
loop_
_atom_site_type_symbol
_atom_site_label
_atom_site_fract_x
_atom_site_fract_y
_atom_site_fract_z
Si Si1 0.241263 0.602779 0.084380
Si Si2 0.844042 0.403883 0.536371
Si Si3 0.166498 0.079066 0.837531
Si Si4 0.960791 0.683761 0.945863
Si Si5 0.739155 0.570164 0.001886
Si Si6 0.254756 0.715711 0.595588
Si Si7 0.650773 0.257531 0.687499
Si Si8 0.550450 0.153703 0.537472
O O1 0.110002 0.609654 0.093868
O O2 0.381277 0.342311 0.358317
O O3 0.230151 0.596035 0.967979
O O4 0.231427 0.870017 0.919302
O O5 0.838117 0.661628 0.385536
O O6 0.770478 0.449801 0.373399
O O7 0.757604 0.349030 0.628156
O O8 0.008169 0.156705 0.761835
O O9 0.275233 0.957777 0.049063
O O10 0.863316 0.625828 0.026794
O O11 0.000000 0.500000 0.000000
O O12 0.878657 0.984368 0.665541
O O13 0.726542 0.408308 0.202148
O O14 0.593639 0.859853 0.731371
O O15 0.398114 0.711417 0.621812
O O16 0.500000 0.500000 0.500000
O O17 0.628431 0.117358 0.690990
#
# Coordination Sequence:
#
# PCOD8007383 Si02
#       8
#     2   2   2   2   2   2   2   2
#     4  11  21  40  61  91 128 153 204 255 291 360
#     4  10  23  41  63  89 122 159 203 250 300 361
#     4  11  22  42  61  90 124 159 200 252 302 352
#     4   9  20  38  60  88 119 155 199 252 291 349
#     4  10  22  40  66  87 119 169 198 242 311 358
#     4  10  20  41  62  85 122 161 200 244 302 361
#     4  11  22  41  66  89 120 161 200 248 308 356
#     4  10  22  41  61  89 122 160 201 250 300 360
#
# _framework density 20.769359999999999
#
# number of rings (size 3 to 8) (size 9 to 14) (size 15 to 20)
#    0.000    1.750    2.500    1.500    0.000    3.000 
#    6.750    3.750    0.000    0.000    0.000    0.000 
#    0.000    0.000    0.000    0.000    0.000    0.000 
#
# Total GULP energy -198373.512212 kJ/mol
# GULP energy per Si atom -12398.344513 kJ/mol
# Density = 2.072209 g / cm^3
# Si number density = 20.769360 Si / 1000 Ang^3
#
#
#
# Elastic Constant Matrix: (Units=GPa)
#
#
# Indices 1 2 3 4 5 6 
#
# 1 75.7665 25.4700 59.6158 -2.6735 9.7492 0.6322
# 2 25.4700 98.4311 37.0003 -16.0871 -8.5884 -2.1842
# 3 59.6158 37.0003 110.1206 -5.3168 13.4027 0.0179
# 4 -2.6735 -16.0871 -5.3168 38.7377 -3.6000 3.7132
# 5 9.7492 -8.5884 13.4027 -3.6000 35.1600 2.8019
# 6 0.6322 -2.1842 0.0179 3.7132 2.8019 24.3476
#
#
#
# Elastic Compliance Matrix: (Units=1/GPa)
#
#
# Indices 1 2 3 4 5 6 
#
# 1 0.023410 -0.002063 -0.011713 -0.001061 -0.002613 -0.000322
# 2 -0.002063 0.013582 -0.003905 0.005541 0.005966 -0.000257
# 3 -0.011713 -0.003905 0.017241 -0.000520 -0.004373 0.000524
# 4 -0.001061 0.005541 -0.000520 0.028879 0.005159 -0.004473
# 5 -0.002613 0.005966 -0.004373 0.005159 0.033137 -0.003994
# 6 -0.000322 -0.000257 0.000524 -0.004473 -0.003994 0.042199
#
#
# Mechanical properties :
#
#
# Convention : Reuss Voigt Hill
#
# Bulk Modulus (GPa) = 52.99426 58.72114 55.85770
# Shear Modulus (GPa) = 24.98745 30.46452 27.72598
#
# Velocity S-wave (km/s) = 3.47232 3.83404 3.65766
# Velocity P-wave (km/s) = 6.45345 6.92345 6.69258
#
# Compressibility (1/GPa) = 0.01886997
#
# Stress axis : x y z
#
# Youngs Moduli (GPa) = 42.71690 73.62931 58.00005
#
# Poissons Ratio (x) = 0.15190 0.67938
# Poissons Ratio (y) = 0.08812 0.22649
# Poissons Ratio (z) = 0.50036 0.28753
#
# Static dielectric constant tensor:
#      x y z
#    x 4.071670 0.180620 0.343450 
#    y 0.180620 3.897490 -0.132530 
#    z 0.343450 -0.132530 3.591600 
# 
# 
# High freq. dielectric constant tensor:
#      x y z
#    x 1.808660 0.007120 0.021850 
#    y 0.007120 1.822250 -0.015770 
#    z 0.021850 -0.015770 1.805440 
# 
# From -- ./inp_files/364396.got.cif
#   From: 2010.06.25/outbox.cif.g09.slc.cpg/sg2_183_cif.got.tgz:364396.got - 2010.06.27 13:26:56.
