data_PCOD8007660
_publ_section_title
;
Structure prediction by ZEFSAII (Michael W. Deem and Ramdas Pophale) SiO2 
 PCOD8007660
Probable space group: P -1
;
_chemical_formula_sum "Si O2"
_cell_formula_units_Z 16
_cell_length_a 21.032317
_cell_length_b 14.844267
_cell_length_c 9.179992
_cell_angle_alpha 67.592693
_cell_angle_beta 56.980741
_cell_angle_gamma 19.512695
_cell_volume 707.281082
_symmetry_space_group_name_H-M "P -1"
_symmetry_group_IT_number 2
_symmetry_cell_setting 'triclinic'
loop_
_space_group_symop_operation_xyz
x,y,z
-x,-y,-z
loop_
_atom_site_type_symbol
_atom_site_label
_atom_site_fract_x
_atom_site_fract_y
_atom_site_fract_z
Si Si1 0.773815 0.238376 0.543091
Si Si2 0.057859 0.538656 0.061871
Si Si3 0.091675 0.120675 0.505104
Si Si4 0.866877 0.769582 0.849418
Si Si5 0.642004 0.557876 0.916608
Si Si6 0.284940 0.455194 0.850176
Si Si7 0.630878 0.138584 0.406290
Si Si8 0.039404 0.992148 0.112306
O O1 0.521543 0.599555 0.667575
O O2 0.760481 0.136572 0.622575
O O3 0.000000 0.000000 0.500000
O O4 0.818792 0.212599 0.336137
O O5 0.148252 0.322812 0.133296
O O6 0.258644 0.372294 0.960309
O O7 0.806852 0.865861 0.249932
O O8 0.052045 0.550825 0.885565
O O9 0.053548 0.262764 0.367513
O O10 0.832160 0.394033 0.698625
O O11 0.225508 0.978168 0.576793
O O12 0.618721 0.105248 0.026577
O O13 0.711036 0.358207 0.925688
O O14 0.618653 0.609776 0.085779
O O15 0.460553 0.264775 0.614930
O O16 0.010964 0.830059 0.927349
O O17 0.000000 0.000000 0.000000
#
# Coordination Sequence:
#
# PCOD8007660 Si02
#       8
#     2   2   2   2   2   2   2   2
#     4  10  23  38  65 102 134 165 208 258 319 395
#     4  11  27  45  63  93 128 170 224 272 323 378
#     4  11  23  43  68  97 132 172 211 261 325 384
#     4  11  27  45  63  93 128 170 224 272 323 378
#     4  10  20  41  66  95 129 165 211 269 316 384
#     4  10  20  41  66  95 129 165 211 269 316 384
#     4  11  23  43  68  97 132 172 211 261 325 384
#     4   8  18  34  61  91 125 160 203 243 318 388
#
# _framework density 22.621842000000001
#
# number of rings (size 3 to 8) (size 9 to 14) (size 15 to 20)
#    0.000    1.750    2.500    0.375    7.000    3.000 
#    0.000    3.750    0.000    0.000    0.000    0.000 
#    0.000    0.000    0.000    0.000    0.000    0.000 
#
# Total GULP energy -198238.638635 kJ/mol
# GULP energy per Si atom -12389.914915 kJ/mol
# Density = 2.257035 g / cm^3
# Si number density = 22.621842 Si / 1000 Ang^3
#
#
#
# Elastic Constant Matrix: (Units=GPa)
#
#
# Indices 1 2 3 4 5 6 
#
# 1 59.0757 -0.6007 -4.5829 -11.9959 -0.2286 17.0656
# 2 -0.6007 66.2713 3.6481 -8.1895 -0.7840 11.9533
# 3 -4.5829 3.6481 64.6202 -5.0077 1.8214 4.0350
# 4 -11.9959 -8.1895 -5.0077 35.8734 7.2720 -1.1005
# 5 -0.2286 -0.7840 1.8214 7.2720 19.0058 -0.7937
# 6 17.0656 11.9533 4.0350 -1.1005 -0.7937 38.4182
#
#
#
# Elastic Compliance Matrix: (Units=1/GPa)
#
#
# Indices 1 2 3 4 5 6 
#
# 1 0.022132 0.003069 0.002875 0.008929 -0.003755 -0.010910
# 2 0.003069 0.016886 0.000099 0.004991 -0.001458 -0.006515
# 3 0.002875 0.000099 0.016239 0.003786 -0.003090 -0.002969
# 4 0.008929 0.004991 0.003786 0.035151 -0.013716 -0.005193
# 5 -0.003755 -0.001458 -0.003090 -0.013716 0.058190 0.003255
# 6 -0.010910 -0.006515 -0.002969 -0.005193 0.003255 0.033133
#
#
# Mechanical properties :
#
#
# Convention : Reuss Voigt Hill
#
# Bulk Modulus (GPa) = 14.84895 20.76623 17.80759
# Shear Modulus (GPa) = 26.02910 31.42632 28.72771
#
# Velocity S-wave (km/s) = 3.39576 3.73124 3.56745
# Velocity P-wave (km/s) = 4.68542 5.26902 4.98576
#
# Compressibility (1/GPa) = 0.06734484
#
# Stress axis : x y z
#
# Youngs Moduli (GPa) = 45.18349 59.21913 61.57900
#
# Poissons Ratio (x) = -0.18175 -0.17706
# Poissons Ratio (y) = -0.13868 -0.00610
# Poissons Ratio (z) = -0.12992 -0.00586
#
# Static dielectric constant tensor:
#      x y z
#    x 3.897510 0.369660 0.109500 
#    y 0.369660 4.485370 -0.071880 
#    z 0.109500 -0.071880 4.056880 
# 
# 
# High freq. dielectric constant tensor:
#      x y z
#    x 1.875500 0.014000 0.007190 
#    y 0.014000 1.889290 -0.005730 
#    z 0.007190 -0.005730 1.895100 
# 
# From -- ./inp_files/347562.got.cif
#   From: 2010.06.25/outbox.cif.g09.slc.cpg/sg2_174_cif.got.tgz:347562.got - 2010.06.27 13:26:56.
