data_PCOD8007298
_publ_section_title
;
Structure prediction by ZEFSAII (Michael W. Deem and Ramdas Pophale) SiO2 
 PCOD8007298
Probable space group: P -1
;
_chemical_formula_sum "Si O2"
_cell_formula_units_Z 16
_cell_length_a 20.263746
_cell_length_b 11.075920
_cell_length_c 8.004718
_cell_angle_alpha 99.283644
_cell_angle_beta 99.900403
_cell_angle_gamma 23.112006
_cell_volume 694.684210
_symmetry_space_group_name_H-M "P -1"
_symmetry_group_IT_number 2
_symmetry_cell_setting 'triclinic'
loop_
_space_group_symop_operation_xyz
x,y,z
-x,-y,-z
loop_
_atom_site_type_symbol
_atom_site_label
_atom_site_fract_x
_atom_site_fract_y
_atom_site_fract_z
Si Si1 0.092439 0.768520 0.847378
Si Si2 0.913548 0.647176 0.816686
Si Si3 0.516099 0.291732 0.328444
Si Si4 0.616211 0.606368 0.276548
Si Si5 0.795743 0.329499 0.626576
Si Si6 0.174506 0.375719 0.719993
Si Si7 0.434517 0.690162 0.275924
Si Si8 0.255215 0.309404 0.367935
O O1 0.283494 0.499352 0.854706
O O2 0.114600 0.587192 0.862118
O O3 0.979823 0.970533 0.675178
O O4 0.000000 0.000000 0.000000
O O5 0.862898 0.593005 0.747063
O O6 0.035259 0.501175 0.694920
O O7 0.747563 0.009793 0.821723
O O8 0.000000 0.500000 0.000000
O O9 0.340896 0.514030 0.285988
O O10 0.508335 0.431977 0.258470
O O11 0.575286 0.221972 0.529251
O O12 0.652887 0.977722 0.225356
O O13 0.756382 0.360941 0.426950
O O14 0.558356 0.566507 0.189190
O O15 0.454922 0.954652 0.345889
O O16 0.787667 0.488656 0.687368
O O17 0.208610 0.383832 0.559448
#
# Coordination Sequence:
#
# PCOD8007298 Si02
#       8
#     2   2   2   2   2   2   2   2
#     4  12  28  43  62 100 144 182 222 279 351 416
#     4  11  25  43  65 104 148 182 216 278 354 419
#     4  10  20  40  71 105 128 176 232 286 327 399
#     4  10  20  43  69  99 130 174 230 285 331 403
#     4  11  21  41  68  97 132 175 229 287 338 397
#     4  12  23  44  70  96 137 179 234 284 332 403
#     4   9  20  41  70 103 137 171 230 278 341 398
#     4  11  22  42  74 101 130 176 237 283 339 401
#
# _framework density 23.032048
#
# number of rings (size 3 to 8) (size 9 to 14) (size 15 to 20)
#    0.000    1.250    5.000    2.625    1.750    1.000 
#    4.500    1.875    0.000    0.000    0.000    0.000 
#    0.000    0.000    0.000    0.000    0.000    0.000 
#
# Total GULP energy -198328.739291 kJ/mol
# GULP energy per Si atom -12395.546206 kJ/mol
# Density = 2.297963 g / cm^3
# Si number density = 23.032048 Si / 1000 Ang^3
#
#
#
# Elastic Constant Matrix: (Units=GPa)
#
#
# Indices 1 2 3 4 5 6 
#
# 1 158.7160 78.3963 11.2763 12.4557 10.3004 -1.0611
# 2 78.3963 147.3866 31.7865 3.3593 6.6162 -1.0609
# 3 11.2763 31.7865 45.2363 6.5332 7.3857 -2.3060
# 4 12.4557 3.3593 6.5332 31.9541 4.3396 1.4304
# 5 10.3004 6.6162 7.3857 4.3396 19.1591 6.1403
# 6 -1.0611 -1.0609 -2.3060 1.4304 6.1403 56.4209
#
#
#
# Elastic Compliance Matrix: (Units=1/GPa)
#
#
# Indices 1 2 3 4 5 6 
#
# 1 0.009150 -0.005149 0.002395 -0.003058 -0.003577 0.000640
# 2 -0.005149 0.010906 -0.006918 0.002114 0.001309 -0.000371
# 3 0.002395 -0.006918 0.028758 -0.004883 -0.009603 0.002259
# 4 -0.003058 0.002114 -0.004883 0.033928 -0.004707 -0.000565
# 5 -0.003577 0.001309 -0.009603 -0.004707 0.060651 -0.006916
# 6 0.000640 -0.000371 0.002259 -0.000565 -0.006916 0.018588
#
#
# Mechanical properties :
#
#
# Convention : Reuss Voigt Hill
#
# Bulk Modulus (GPa) = 33.93054 66.02855 49.97955
# Shear Modulus (GPa) = 26.15794 36.83213 31.49503
#
# Velocity S-wave (km/s) = 3.37370 4.00330 3.70191
# Velocity P-wave (km/s) = 5.47171 7.07806 6.32608
#
# Compressibility (1/GPa) = 0.02947197
#
# Stress axis : x y z
#
# Youngs Moduli (GPa) = 109.29078 91.69438 34.77263
#
# Poissons Ratio (x) = 0.47210 -0.08329
# Poissons Ratio (y) = 0.56270 0.24054
# Poissons Ratio (z) = -0.26178 0.63431
#
# Static dielectric constant tensor:
#      x y z
#    x 4.574370 -0.138900 0.035540 
#    y -0.138900 4.216950 -0.056810 
#    z 0.035540 -0.056810 3.659060 
# 
# 
# High freq. dielectric constant tensor:
#      x y z
#    x 1.938120 -0.005950 0.002720 
#    y -0.005950 1.918460 -0.004040 
#    z 0.002720 -0.004040 1.865310 
# 
# From -- ./inp_files/346241.got.cif
#   From: 2010.06.25/outbox.cif.g09.slc.cpg/sg2_174_cif.got.tgz:346241.got - 2010.06.27 13:26:56.
