data_PCOD8007905
_publ_section_title
;
Structure prediction by ZEFSAII (Michael W. Deem and Ramdas Pophale) SiO2 
 PCOD8007905
Probable space group: P -1
;
_chemical_formula_sum "Si O2"
_cell_formula_units_Z 16
_cell_length_a 15.845229
_cell_length_b 9.000755
_cell_length_c 11.119169
_cell_angle_alpha 138.209092
_cell_angle_beta 69.129141
_cell_angle_gamma 132.158486
_cell_volume 749.300600
_symmetry_space_group_name_H-M "P -1"
_symmetry_group_IT_number 2
_symmetry_cell_setting 'triclinic'
loop_
_space_group_symop_operation_xyz
x,y,z
-x,-y,-z
loop_
_atom_site_type_symbol
_atom_site_label
_atom_site_fract_x
_atom_site_fract_y
_atom_site_fract_z
Si Si1 0.528753 0.363064 0.502934
Si Si2 0.200759 0.193782 0.322788
Si Si3 0.939513 0.336613 0.758219
Si Si4 0.428371 0.062884 0.844275
Si Si5 0.004412 0.931298 0.090963
Si Si6 0.400130 0.291573 0.757658
Si Si7 0.809268 0.479256 0.271002
Si Si8 0.162699 0.088852 0.662920
O O1 0.500000 0.500000 0.500000
O O2 0.658777 0.613863 0.644597
O O3 0.435256 0.230210 0.578093
O O4 0.519947 0.104533 0.291894
O O5 0.168384 0.357875 0.516987
O O6 0.142018 0.884198 0.226578
O O7 0.142145 0.128887 0.181844
O O8 0.074793 0.474922 0.792390
O O9 0.889272 0.183316 0.562453
O O10 0.931279 0.586054 0.926758
O O11 0.408760 0.124937 0.758019
O O12 0.305197 0.864554 0.862900
O O13 0.519502 0.362410 0.051253
O O14 0.942877 0.010397 0.256028
O O15 0.000000 0.000000 0.000000
O O16 0.264607 0.150689 0.731945
O O17 0.784512 0.620802 0.265303
#
# Coordination Sequence:
#
# PCOD8007905 Si02
#       8
#     2   2   2   2   2   2   2   2
#     4  11  24  43  71  98 130 170 226 272 324 386
#     4  10  21  43  65  98 130 165 217 270 320 383
#     4  11  22  41  69  90 129 172 210 268 328 367
#     4  10  25  43  65  99 130 175 218 267 330 384
#     4  12  27  39  61  99 132 172 213 260 322 397
#     4  11  25  43  67  94 137 176 213 270 325 388
#     4  10  20  41  71  90 128 169 216 270 319 379
#     4  11  24  44  64  98 130 166 223 264 317 392
#
# _framework density 21.353247
#
# number of rings (size 3 to 8) (size 9 to 14) (size 15 to 20)
#    0.000    1.250    2.500    3.750    3.500    7.500 
#    0.000    0.000    0.000    0.000    0.000    0.000 
#    0.000    0.000    0.000    0.000    0.000    0.000 
#
# Total GULP energy -198477.563479 kJ/mol
# GULP energy per Si atom -12404.847717 kJ/mol
# Density = 2.130465 g / cm^3
# Si number density = 21.353247 Si / 1000 Ang^3
#
#
#
# Elastic Constant Matrix: (Units=GPa)
#
#
# Indices 1 2 3 4 5 6 
#
# 1 91.6216 11.0279 30.4214 7.3812 12.6141 -6.9634
# 2 11.0279 48.7099 5.8439 0.1619 5.2297 0.2333
# 3 30.4214 5.8439 60.9438 4.9822 10.9644 -7.8252
# 4 7.3812 0.1619 4.9822 30.0339 -6.5105 7.1651
# 5 12.6141 5.2297 10.9644 -6.5105 31.5845 -1.0591
# 6 -6.9634 0.2333 -7.8252 7.1651 -1.0591 30.9852
#
#
#
# Elastic Compliance Matrix: (Units=1/GPa)
#
#
# Indices 1 2 3 4 5 6 
#
# 1 0.014056 -0.002088 -0.005403 -0.004067 -0.004143 0.002609
# 2 -0.002088 0.021353 -0.000703 0.000209 -0.002446 -0.000939
# 3 -0.005403 -0.000703 0.021265 -0.004678 -0.005903 0.005041
# 4 -0.004067 0.000209 -0.004678 0.040101 0.011111 -0.010990
# 5 -0.004143 -0.002446 -0.005903 0.011111 0.037937 -0.003676
# 6 0.002609 -0.000939 0.005041 -0.010990 -0.003676 0.036556
#
#
# Mechanical properties :
#
#
# Convention : Reuss Voigt Hill
#
# Bulk Modulus (GPa) = 24.82270 32.87356 28.84813
# Shear Modulus (GPa) = 24.86509 28.78621 26.82565
#
# Velocity S-wave (km/s) = 3.41613 3.67562 3.54825
# Velocity P-wave (km/s) = 5.21631 5.78292 5.50691
#
# Compressibility (1/GPa) = 0.04028570
#
# Stress axis : x y z
#
# Youngs Moduli (GPa) = 71.14264 46.83134 47.02590
#
# Poissons Ratio (x) = 0.09779 0.25410
# Poissons Ratio (y) = 0.14856 0.03305
# Poissons Ratio (z) = 0.38441 0.03291
#
# Static dielectric constant tensor:
#      x y z
#    x 3.896440 0.032720 0.092290 
#    y 0.032720 3.958120 0.115650 
#    z 0.092290 0.115650 4.159740 
# 
# 
# High freq. dielectric constant tensor:
#      x y z
#    x 1.840230 0.001160 0.001880 
#    y 0.001160 1.836760 -0.001580 
#    z 0.001880 -0.001580 1.847100 
# 
# From -- ./inp_files/271736.got.cif
#   From: 2010.06.25/outbox.cif.g09.slc.cpg/sg2_136_cif.got.tgz:271736.got - 2010.06.27 13:26:56.
