data_PCOD8007563
_publ_section_title
;
Structure prediction by ZEFSAII (Michael W. Deem and Ramdas Pophale) SiO2 
 PCOD8007563
Probable space group: P -1
;
_chemical_formula_sum "Si O2"
_cell_formula_units_Z 12
_cell_length_a 12.450990
_cell_length_b 8.296845
_cell_length_c 12.219241
_cell_angle_alpha 113.287860
_cell_angle_beta 133.081005
_cell_angle_gamma 101.730570
_cell_volume 600.125943
_symmetry_space_group_name_H-M "P -1"
_symmetry_group_IT_number 2
_symmetry_cell_setting 'triclinic'
loop_
_space_group_symop_operation_xyz
x,y,z
-x,-y,-z
loop_
_atom_site_type_symbol
_atom_site_label
_atom_site_fract_x
_atom_site_fract_y
_atom_site_fract_z
Si Si1 0.359773 0.870432 0.614959
Si Si2 0.689070 0.144488 0.752457
Si Si3 0.808303 0.461387 0.384391
Si Si4 0.456466 0.262040 0.933719
Si Si5 0.041964 0.994815 0.655137
Si Si6 0.982722 0.295024 0.826193
O O1 0.307952 0.696216 0.630109
O O2 0.166532 0.708425 0.353185
O O3 0.577418 0.985160 0.743828
O O4 0.389250 0.097293 0.735149
O O5 0.862796 0.162379 0.823830
O O6 0.500000 0.000000 0.500000
O O7 0.799872 0.424556 0.926842
O O8 0.000000 0.500000 0.500000
O O9 0.878758 0.721233 0.518310
O O10 0.651583 0.324268 0.136541
O O11 0.270253 0.101137 0.849247
O O12 0.500000 0.500000 0.000000
O O13 0.000000 0.000000 0.500000
O O14 0.035953 0.159643 0.769562
#
# Coordination Sequence:
#
# PCOD8007563 Si02
#       6
#     2   2   2   2   2   2
#     4  11  22  36  61  92 126 162 212 258 310 369
#     4   9  21  38  65  91 119 166 218 257 306 369
#     4  12  25  39  58  95 135 170 205 256 324 374
#     4  12  23  37  62  92 127 169 209 256 310 378
#     4  12  22  39  61  93 128 164 208 256 318 379
#     4  10  20  41  65  91 124 166 213 256 307 382
#
# _framework density 19.995802999999999
#
# number of rings (size 3 to 8) (size 9 to 14) (size 15 to 20)
#    0.000    1.000    5.000    1.500    2.333    1.333 
#    0.000    0.833    0.000   10.000    0.000    0.000 
#    0.000    0.000    0.000    0.000    0.000    0.000 
#
# Total GULP energy -148737.037345 kJ/mol
# GULP energy per Si atom -12394.753112 kJ/mol
# Density = 1.995029 g / cm^3
# Si number density = 19.995803 Si / 1000 Ang^3
#
#
#
# Elastic Constant Matrix: (Units=GPa)
#
#
# Indices 1 2 3 4 5 6 
#
# 1 153.7864 45.7387 51.4912 9.8253 -2.0790 18.3054
# 2 45.7387 101.2721 43.7761 13.4789 -2.3055 20.5268
# 3 51.4912 43.7761 130.6568 15.4548 1.6302 -2.2991
# 4 9.8253 13.4789 15.4548 30.4868 -6.9323 8.4819
# 5 -2.0790 -2.3055 1.6302 -6.9323 38.3300 8.6279
# 6 18.3054 20.5268 -2.2991 8.4819 8.6279 35.1751
#
#
#
# Elastic Compliance Matrix: (Units=1/GPa)
#
#
# Indices 1 2 3 4 5 6 
#
# 1 0.008486 -0.001805 -0.002966 0.001113 0.001630 -0.004225
# 2 -0.001805 0.014302 -0.004166 -0.000766 0.002633 -0.008140
# 3 -0.002966 -0.004166 0.011029 -0.005476 -0.003414 0.006853
# 4 0.001113 -0.000766 -0.005476 0.041666 0.010748 -0.013173
# 5 0.001630 0.002633 -0.003414 0.010748 0.031325 -0.012883
# 6 -0.004225 -0.008140 0.006853 -0.013173 -0.012883 0.042163
#
#
# Mechanical properties :
#
#
# Convention : Reuss Voigt Hill
#
# Bulk Modulus (GPa) = 62.72124 74.19193 68.45659
# Shear Modulus (GPa) = 29.04257 37.11234 33.07746
#
# Velocity S-wave (km/s) = 3.81521 4.31281 4.07162
# Velocity P-wave (km/s) = 7.13044 7.87304 7.51092
#
# Compressibility (1/GPa) = 0.01594356
#
# Stress axis : x y z
#
# Youngs Moduli (GPa) = 117.83631 69.91817 90.66844
#
# Poissons Ratio (x) = 0.12623 0.26891
# Poissons Ratio (y) = 0.21275 0.37772
# Poissons Ratio (z) = 0.34948 0.29127
#
# Static dielectric constant tensor:
#      x y z
#    x 4.175010 0.373580 0.169150 
#    y 0.373580 3.525000 0.220870 
#    z 0.169150 0.220870 4.085150 
# 
# 
# High freq. dielectric constant tensor:
#      x y z
#    x 1.791030 0.014150 0.008470 
#    y 0.014150 1.746420 0.020790 
#    z 0.008470 0.020790 1.802690 
# 
# From -- ./inp_files/19109.got.cif
#   From: 2010.06.25/outbox.cif.g09.slc.cpg/sg2_10_cif.got.tgz:19109.got - 2010.06.27 13:26:56.
