data_PCOD8007029
_publ_section_title
;
Structure prediction by ZEFSAII (Michael W. Deem and Ramdas Pophale) SiO2 
 PCOD8007029
Probable space group: P -1
;
_chemical_formula_sum "Si O2"
_cell_formula_units_Z 16
_cell_length_a 15.276285
_cell_length_b 8.806817
_cell_length_c 9.105798
_cell_angle_alpha 81.498670
_cell_angle_beta 114.015632
_cell_angle_gamma 136.784591
_cell_volume 744.240256
_symmetry_space_group_name_H-M "P -1"
_symmetry_group_IT_number 2
_symmetry_cell_setting 'triclinic'
loop_
_space_group_symop_operation_xyz
x,y,z
-x,-y,-z
loop_
_atom_site_type_symbol
_atom_site_label
_atom_site_fract_x
_atom_site_fract_y
_atom_site_fract_z
Si Si1 0.420664 0.516260 0.333262
Si Si2 0.243642 0.508854 0.739679
Si Si3 0.495328 0.331964 0.943465
Si Si4 0.338266 0.863957 0.943470
Si Si5 0.984262 0.972354 0.227238
Si Si6 0.839123 0.979320 0.891058
Si Si7 0.163204 0.678211 0.132399
Si Si8 0.766550 0.514174 0.597174
O O1 0.500000 0.500000 0.500000
O O2 0.520295 0.682514 0.242122
O O3 0.291543 0.280751 0.200171
O O4 0.367381 0.600086 0.376299
O O5 0.231071 0.668665 0.772543
O O6 0.292081 0.576254 0.594606
O O7 0.102615 0.236125 0.687701
O O8 0.360368 0.578140 0.919489
O O9 0.352646 0.067072 0.927421
O O10 0.500000 0.500000 0.000000
O O11 0.267633 0.733947 0.069745
O O12 0.500000 0.000000 0.000000
O O13 0.030047 0.904403 0.143903
O O14 0.117631 0.211107 0.363282
O O15 0.888507 0.994680 0.087799
O O16 0.788236 0.093993 0.821481
O O17 0.170061 0.571464 0.290419
O O18 0.000000 0.500000 0.000000
#
# Coordination Sequence:
#
# PCOD8007029 Si02
#       8
#     2   2   2   2   2   2   2   2
#     4  11  23  42  64  95 128 172 224 274 329 398
#     4  11  22  41  61  91 131 173 211 269 333 387
#     4  11  22  40  65  91 126 171 219 268 324 398
#     4  10  24  41  62  93 131 177 217 264 334 395
#     4  10  20  40  66  94 128 168 224 271 335 392
#     4  10  21  38  68  96 122 171 220 277 329 396
#     4  12  23  42  67  98 128 172 228 272 333 399
#     4  11  24  39  65  96 133 171 221 279 328 395
#
# _framework density 21.498432000000001
#
# number of rings (size 3 to 8) (size 9 to 14) (size 15 to 20)
#    0.000    1.250    2.500    4.125    1.750    2.000 
#    0.000    7.500    0.000    0.000    0.000    0.000 
#    0.000    0.000    0.000    0.000    0.000    0.000 
#
# Total GULP energy -198306.026551 kJ/mol
# GULP energy per Si atom -12394.126659 kJ/mol
# Density = 2.144950 g / cm^3
# Si number density = 21.498432 Si / 1000 Ang^3
#
#
#
# Elastic Constant Matrix: (Units=GPa)
#
#
# Indices 1 2 3 4 5 6 
#
# 1 85.8921 27.0266 29.0192 -9.2557 -9.0403 -13.4012
# 2 27.0266 96.3366 17.9441 -14.9118 -16.0463 -11.4835
# 3 29.0192 17.9441 114.5209 -18.4252 -12.0769 -1.6753
# 4 -9.2557 -14.9118 -18.4252 25.0063 1.0704 -4.6508
# 5 -9.0403 -16.0463 -12.0769 1.0704 36.8325 4.2410
# 6 -13.4012 -11.4835 -1.6753 -4.6508 4.2410 39.9915
#
#
#
# Elastic Compliance Matrix: (Units=1/GPa)
#
#
# Indices 1 2 3 4 5 6 
#
# 1 0.014359 -0.002456 -0.002662 0.002624 0.001022 0.004192
# 2 -0.002456 0.013408 0.000318 0.007758 0.004721 0.003442
# 3 -0.002662 0.000318 0.010792 0.007069 0.002798 0.000177
# 4 0.002624 0.007758 0.007069 0.052325 0.003775 0.009088
# 5 0.001022 0.004721 0.002798 0.003775 0.030376 -0.000967
# 6 0.004192 0.003442 0.000177 0.009088 -0.000967 0.028565
#
#
# Mechanical properties :
#
#
# Convention : Reuss Voigt Hill
#
# Bulk Modulus (GPa) = 34.53346 49.41438 41.97392
# Shear Modulus (GPa) = 29.57192 35.21671 32.39431
#
# Velocity S-wave (km/s) = 3.71285 4.05174 3.88599
# Velocity P-wave (km/s) = 5.87183 6.70252 6.30088
#
# Compressibility (1/GPa) = 0.02895742
#
# Stress axis : x y z
#
# Youngs Moduli (GPa) = 69.64112 74.58428 92.66314
#
# Poissons Ratio (x) = 0.18320 0.24670
# Poissons Ratio (y) = 0.17106 -0.02947
# Poissons Ratio (z) = 0.18541 -0.02372
#
# Static dielectric constant tensor:
#      x y z
#    x 27.551490 -27.727840 -5.288070 
#    y -27.727840 36.104000 5.589240 
#    z -5.288070 5.589240 4.565790 
# 
# 
# High freq. dielectric constant tensor:
#      x y z
#    x 1.841520 -0.008560 -0.014860 
#    y -0.008560 1.857360 -0.004170 
#    z -0.014860 -0.004170 1.825880 
# 
# From -- ./inp_files/174956.got.cif
#   From: 2010.06.25/outbox.cif.g09.slc.cpg/sg2_88_cif.got.tgz:174956.got - 2010.06.27 13:26:56.
