data_PCOD8007019
_publ_section_title
;
Structure prediction by ZEFSAII (Michael W. Deem and Ramdas Pophale) SiO2 
 PCOD8007019
Probable space group: P -1
;
_chemical_formula_sum "Si O2"
_cell_formula_units_Z 16
_cell_length_a 9.366983
_cell_length_b 11.318005
_cell_length_c 14.292758
_cell_angle_alpha 29.086561
_cell_angle_beta 85.592779
_cell_angle_gamma 94.740850
_cell_volume 698.475677
_symmetry_space_group_name_H-M "P -1"
_symmetry_group_IT_number 2
_symmetry_cell_setting 'triclinic'
loop_
_space_group_symop_operation_xyz
x,y,z
-x,-y,-z
loop_
_atom_site_type_symbol
_atom_site_label
_atom_site_fract_x
_atom_site_fract_y
_atom_site_fract_z
Si Si1 0.700028 0.812523 0.595536
Si Si2 0.387785 0.565397 0.700050
Si Si3 0.172907 0.154742 0.231121
Si Si4 0.857301 0.378438 0.189380
Si Si5 0.357002 0.573511 0.491845
Si Si6 0.736866 0.974382 0.881595
Si Si7 0.975996 0.682719 0.295765
Si Si8 0.946274 0.626630 0.656666
O O1 0.523736 0.722635 0.648894
O O2 0.720977 0.812127 0.706725
O O3 0.770868 0.613837 0.677001
O O4 0.774373 0.094352 0.352144
O O5 0.235608 0.566782 0.755890
O O6 0.399736 0.696387 0.507407
O O7 0.378085 0.266556 0.892979
O O8 0.263245 0.111425 0.166444
O O9 0.119101 0.407300 0.041264
O O10 0.029316 0.908727 0.418548
O O11 0.014347 0.391864 0.222620
O O12 0.500000 0.500000 0.500000
O O13 0.200987 0.332507 0.678321
O O14 0.326247 0.783637 0.278582
O O15 0.903626 0.040506 0.877826
O O16 0.000000 0.500000 0.500000
O O17 0.020653 0.591506 0.256468
#
# Coordination Sequence:
#
# PCOD8007019 Si02
#       8
#     2   2   2   2   2   2   2   2
#     4  11  25  37  63  94 131 164 204 262 312 362
#     4  11  24  42  62  94 126 168 210 255 314 368
#     4  10  20  40  66  93 124 163 212 251 310 375
#     4  10  21  41  65  90 123 169 209 257 308 374
#     4  11  23  41  65  92 126 160 205 261 308 368
#     4  10  23  42  67  90 125 170 207 255 309 373
#     4  10  20  42  68  87 124 168 204 252 316 369
#     4  11  21  41  62  92 128 164 206 259 311 367
#
# _framework density 22.907024
#
# number of rings (size 3 to 8) (size 9 to 14) (size 15 to 20)
#    0.000    1.500    3.750    2.625    3.500    6.000 
#    0.000    0.000    0.000    0.000    0.000    0.000 
#    0.000    0.000    0.000    0.000    0.000    0.000 
#
# Total GULP energy -198311.903015 kJ/mol
# GULP energy per Si atom -12394.493938 kJ/mol
# Density = 2.285489 g / cm^3
# Si number density = 22.907024 Si / 1000 Ang^3
#
#
#
# Elastic Constant Matrix: (Units=GPa)
#
#
# Indices 1 2 3 4 5 6 
#
# 1 83.6966 26.3993 10.6224 -7.8869 7.3222 6.9141
# 2 26.3993 71.1833 13.6377 -0.6726 -8.7747 16.4004
# 3 10.6224 13.6377 83.3886 -5.3506 14.3501 12.8262
# 4 -7.8869 -0.6726 -5.3506 26.3179 -2.6617 -3.3015
# 5 7.3222 -8.7747 14.3501 -2.6617 20.1729 -3.4650
# 6 6.9141 16.4004 12.8262 -3.3015 -3.4650 38.5833
#
#
#
# Elastic Compliance Matrix: (Units=1/GPa)
#
#
# Indices 1 2 3 4 5 6 
#
# 1 0.015084 -0.006674 0.001009 0.003586 -0.008739 -0.000679
# 2 -0.006674 0.020003 -0.003979 -0.001617 0.012888 -0.004965
# 3 0.001009 -0.003979 0.015752 0.001382 -0.013955 -0.004861
# 4 0.003586 -0.001617 0.001382 0.040009 0.002852 0.003265
# 5 -0.008739 0.012888 -0.013955 0.002852 0.069897 0.007248
# 6 -0.000679 -0.004965 -0.004861 0.003265 0.007248 0.030696
#
#
# Mechanical properties :
#
#
# Convention : Reuss Voigt Hill
#
# Bulk Modulus (GPa) = 31.69634 37.73190 34.71412
# Shear Modulus (GPa) = 22.59918 29.52210 26.06064
#
# Velocity S-wave (km/s) = 3.14436 3.59385 3.37660
# Velocity P-wave (km/s) = 5.20093 5.80763 5.51263
#
# Compressibility (1/GPa) = 0.03154939
#
# Stress axis : x y z
#
# Youngs Moduli (GPa) = 66.29749 49.99255 63.48359
#
# Poissons Ratio (x) = 0.33365 -0.06402
# Poissons Ratio (y) = 0.44247 0.25261
# Poissons Ratio (z) = -0.06686 0.19893
#
# Static dielectric constant tensor:
#      x y z
#    x 2.822930 -2.050080 2.105830 
#    y -2.050080 0.555940 3.170550 
#    z 2.105830 3.170550 1.643990 
# 
# 
# High freq. dielectric constant tensor:
#      x y z
#    x 1.900720 0.002110 0.011330 
#    y 0.002110 1.900540 0.008470 
#    z 0.011330 0.008470 1.899230 
# 
# From -- ./inp_files/400044.got.cif
#   From: 2010.06.25/outbox.cif.g09.slc.cpg/sg2_201_cif.got.tgz:400044.got - 2010.06.27 13:26:56.
