data_PCOD8007385
_publ_section_title
;
Structure prediction by ZEFSAII (Michael W. Deem and Ramdas Pophale) SiO2 
 PCOD8007385
Probable space group: P -1
;
_chemical_formula_sum "Si O2"
_cell_formula_units_Z 16
_cell_length_a 24.475479
_cell_length_b 8.253246
_cell_length_c 6.932007
_cell_angle_alpha 94.169545
_cell_angle_beta 55.545654
_cell_angle_gamma 57.274108
_cell_volume 813.964330
_symmetry_space_group_name_H-M "P -1"
_symmetry_group_IT_number 2
_symmetry_cell_setting 'triclinic'
loop_
_space_group_symop_operation_xyz
x,y,z
-x,-y,-z
loop_
_atom_site_type_symbol
_atom_site_label
_atom_site_fract_x
_atom_site_fract_y
_atom_site_fract_z
Si Si1 0.179803 0.046201 0.277090
Si Si2 0.113079 0.504879 0.544519
Si Si3 0.197957 0.563057 0.708167
Si Si4 0.298078 0.586907 0.189863
Si Si5 0.270992 0.356996 0.946143
Si Si6 0.632138 0.125900 0.218069
Si Si7 0.944255 0.968882 0.740529
Si Si8 0.470364 0.505479 0.850226
O O1 0.120098 0.296881 0.511998
O O2 0.112644 0.054392 0.282219
O O3 0.222582 0.863587 0.348909
O O4 0.266457 0.964111 0.969586
O O5 0.145405 0.512976 0.689849
O O6 0.008744 0.746941 0.730318
O O7 0.174506 0.471504 0.247004
O O8 0.272305 0.522314 0.418077
O O9 0.257432 0.379594 0.745333
O O10 0.123515 0.818122 0.962356
O O11 0.296866 0.490379 0.982416
O O12 0.403965 0.463984 0.989629
O O13 0.354985 0.089773 0.812039
O O14 0.566491 0.302964 0.532678
O O15 0.585244 0.248981 0.116718
O O16 0.000000 0.000000 0.500000
O O17 0.500000 0.500000 0.000000
#
# Coordination Sequence:
#
# PCOD8007385 Si02
#       8
#     2   2   2   2   2   2   2   2
#     4  10  21  41  62  86 126 160 200 251 303 357
#     4  10  22  39  58  92 122 157 210 254 291 356
#     4  11  22  39  63  86 122 167 198 249 306 351
#     4  10  22  39  60  91 118 159 202 248 299 366
#     4  10  20  41  62  85 124 160 204 243 301 356
#     4   9  22  40  63  87 120 160 195 247 301 352
#     4  12  21  39  64  86 123 162 205 249 305 355
#     4  10  22  39  63  91 123 151 200 248 298 361
#
# _framework density 19.656880000000001
#
# number of rings (size 3 to 8) (size 9 to 14) (size 15 to 20)
#    0.000    1.750    2.500    1.500    1.750    5.500 
#    2.250    2.500    0.000    0.000    0.000    0.000 
#    0.000    0.000    0.000    0.000    0.000    0.000 
#
# Total GULP energy -198419.346760 kJ/mol
# GULP energy per Si atom -12401.209172 kJ/mol
# Density = 1.961214 g / cm^3
# Si number density = 19.656880 Si / 1000 Ang^3
#
#
#
# Elastic Constant Matrix: (Units=GPa)
#
#
# Indices 1 2 3 4 5 6 
#
# 1 146.8641 62.2998 50.7550 -3.4850 14.1860 -0.7475
# 2 62.2998 124.6313 46.2711 12.5600 10.9332 2.1540
# 3 50.7550 46.2711 68.0250 -2.4652 14.4616 -8.6900
# 4 -3.4850 12.5600 -2.4652 30.9046 -5.4553 6.7820
# 5 14.1860 10.9332 14.4616 -5.4553 28.4734 -0.0203
# 6 -0.7475 2.1540 -8.6900 6.7820 -0.0203 30.6217
#
#
#
# Elastic Compliance Matrix: (Units=1/GPa)
#
#
# Indices 1 2 3 4 5 6 
#
# 1 0.010132 -0.003223 -0.005340 0.002246 -0.000669 -0.001539
# 2 -0.003223 0.012745 -0.006421 -0.005935 -0.001165 -0.001484
# 3 -0.005340 -0.006421 0.025669 0.001081 -0.007699 0.007361
# 4 0.002246 -0.005935 0.001081 0.038192 0.007923 -0.007674
# 5 -0.000669 -0.001165 -0.007699 0.007923 0.041326 -0.003847
# 6 -0.001539 -0.001484 0.007361 -0.007674 -0.003847 0.036510
#
#
# Mechanical properties :
#
#
# Convention : Reuss Voigt Hill
#
# Bulk Modulus (GPa) = 53.83201 73.13024 63.48113
# Shear Modulus (GPa) = 24.90845 30.01292 27.46068
#
# Velocity S-wave (km/s) = 3.56358 3.91172 3.74170
# Velocity P-wave (km/s) = 6.66164 7.59514 7.14366
#
# Compressibility (1/GPa) = 0.01857631
#
# Stress axis : x y z
#
# Youngs Moduli (GPa) = 98.69823 78.46379 38.95739
#
# Poissons Ratio (x) = 0.25289 0.20805
# Poissons Ratio (y) = 0.31811 0.25016
# Poissons Ratio (z) = 0.52709 0.50384
#
# Static dielectric constant tensor:
#      x y z
#    x 3.400580 0.135510 0.066360 
#    y 0.135510 3.817560 0.087570 
#    z 0.066360 0.087570 3.555760 
# 
# 
# High freq. dielectric constant tensor:
#      x y z
#    x 1.766760 0.000490 -0.000500 
#    y 0.000490 1.777840 0.004760 
#    z -0.000500 0.004760 1.759890 
# 
# From -- ./inp_files/37287.got.cif
#   From: 2010.06.25/outbox.cif.g09.slc.cpg/sg2_19_cif.got.tgz:37287.got - 2010.06.27 13:26:56.
