data_PCOD8007500
_publ_section_title
;
Structure prediction by ZEFSAII (Michael W. Deem and Ramdas Pophale) SiO2 
 PCOD8007500
Probable space group: P -1
;
_chemical_formula_sum "Si O2"
_cell_formula_units_Z 16
_cell_length_a 9.594545
_cell_length_b 7.846290
_cell_length_c 13.342649
_cell_angle_alpha 98.364209
_cell_angle_beta 51.154212
_cell_angle_gamma 80.204228
_cell_volume 728.098099
_symmetry_space_group_name_H-M "P -1"
_symmetry_group_IT_number 2
_symmetry_cell_setting 'triclinic'
loop_
_space_group_symop_operation_xyz
x,y,z
-x,-y,-z
loop_
_atom_site_type_symbol
_atom_site_label
_atom_site_fract_x
_atom_site_fract_y
_atom_site_fract_z
Si Si1 0.788234 0.739861 0.699540
Si Si2 0.600951 0.268208 0.110047
Si Si3 0.145019 0.868168 0.844875
Si Si4 0.186018 0.465427 0.521297
Si Si5 0.554892 0.361306 0.699536
Si Si6 0.023531 0.814230 0.188973
Si Si7 0.802146 0.546963 0.260197
Si Si8 0.858551 0.082409 0.658607
O O1 0.587049 0.768471 0.847142
O O2 0.773683 0.712418 0.583080
O O3 0.958560 0.564122 0.647395
O O4 0.833628 0.920056 0.722120
O O5 0.652902 0.185844 0.193257
O O6 0.544090 0.484592 0.161677
O O7 0.774765 0.196721 0.949680
O O8 0.112536 0.673051 0.819646
O O9 0.131698 0.990286 0.761046
O O10 0.000000 0.000000 0.000000
O O11 0.283627 0.599014 0.437031
O O12 0.269374 0.412109 0.589562
O O13 0.387089 0.339487 0.705433
O O14 0.655723 0.189472 0.709750
O O15 0.051284 0.806795 0.296309
O O16 0.959366 0.642452 0.171667
O O17 0.000000 0.000000 0.500000
#
# Coordination Sequence:
#
# PCOD8007500 Si02
#       8
#     2   2   2   2   2   2   2   2
#     4  10  21  38  66  88 134 170 209 270 335 367
#     4   9  22  43  64  94 128 170 215 267 320 388
#     4   9  21  42  64  94 130 166 213 268 317 382
#     4  10  20  41  64  92 126 172 219 262 327 391
#     4  10  23  41  65  92 132 165 216 268 327 383
#     4  11  25  43  67  99 132 168 227 261 319 395
#     4  11  23  41  69  96 126 177 211 269 330 377
#     4  12  24  42  62  99 133 169 215 276 317 386
#
# _framework density 21.975062999999999
#
# number of rings (size 3 to 8) (size 9 to 14) (size 15 to 20)
#    0.000    1.750    1.250    1.875    5.250    5.500 
#    2.250    1.250    0.000    0.000    0.000    0.000 
#    0.000    0.000    0.000    0.000    0.000    0.000 
#
# Total GULP energy -198255.164377 kJ/mol
# GULP energy per Si atom -12390.947774 kJ/mol
# Density = 2.192505 g / cm^3
# Si number density = 21.975063 Si / 1000 Ang^3
#
#
#
# Elastic Constant Matrix: (Units=GPa)
#
#
# Indices 1 2 3 4 5 6 
#
# 1 118.6586 39.0129 33.2735 4.5446 -2.4350 3.7473
# 2 39.0129 98.3493 15.9942 11.6492 -3.1148 -0.6637
# 3 33.2735 15.9942 66.1787 3.5931 -7.5846 -2.8754
# 4 4.5446 11.6492 3.5931 29.7411 0.3824 -4.7295
# 5 -2.4350 -3.1148 -7.5846 0.3824 36.3701 -4.4262
# 6 3.7473 -0.6637 -2.8754 -4.7295 -4.4262 36.6444
#
#
#
# Elastic Compliance Matrix: (Units=1/GPa)
#
#
# Indices 1 2 3 4 5 6 
#
# 1 0.011005 -0.003625 -0.004822 0.000068 -0.000781 -0.001655
# 2 -0.003625 0.012254 -0.000832 -0.004142 0.000686 0.000076
# 3 -0.004822 -0.000832 0.018304 -0.000838 0.003706 0.002254
# 4 0.000068 -0.004142 -0.000838 0.036051 -0.000361 0.004462
# 5 -0.000781 0.000686 0.003706 -0.000361 0.028742 0.003808
# 6 -0.001655 0.000076 0.002254 0.004462 0.003808 0.028673
#
#
# Mechanical properties :
#
#
# Convention : Reuss Voigt Hill
#
# Bulk Modulus (GPa) = 43.46955 51.08308 47.27631
# Shear Modulus (GPa) = 31.00649 33.54484 32.27567
#
# Velocity S-wave (km/s) = 3.76038 3.91128 3.83657
# Velocity P-wave (km/s) = 6.21918 6.61013 6.41764
#
# Compressibility (1/GPa) = 0.02300461
#
# Stress axis : x y z
#
# Youngs Moduli (GPa) = 90.86501 81.60553 54.63155
#
# Poissons Ratio (x) = 0.29584 0.26345
# Poissons Ratio (y) = 0.32941 0.04546
# Poissons Ratio (z) = 0.43818 0.06790
#
# Static dielectric constant tensor:
#      x y z
#    x 4.248110 1.380270 -0.297390 
#    y 1.380270 -8.260470 0.935280 
#    z -0.297390 0.935280 3.758900 
# 
# 
# High freq. dielectric constant tensor:
#      x y z
#    x 1.876750 -0.004190 -0.004230 
#    y -0.004190 1.855600 0.012080 
#    z -0.004230 0.012080 1.846870 
# 
# From -- ./inp_files/495145.got.cif
#   From: 2010.06.25/outbox.cif.g09.slc.cpg/sg2_248_cif.got.tgz:495145.got - 2010.06.27 13:26:56.
