data_PCOD8007059
_publ_section_title
;
Structure prediction by ZEFSAII (Michael W. Deem and Ramdas Pophale) SiO2 
 PCOD8007059
Probable space group: P -1
;
_chemical_formula_sum "Si O2"
_cell_formula_units_Z 16
_cell_length_a 22.878567
_cell_length_b 8.854796
_cell_length_c 8.794072
_cell_angle_alpha 84.561648
_cell_angle_beta 50.790498
_cell_angle_gamma 44.916610
_cell_volume 744.830061
_symmetry_space_group_name_H-M "P -1"
_symmetry_group_IT_number 2
_symmetry_cell_setting 'triclinic'
loop_
_space_group_symop_operation_xyz
x,y,z
-x,-y,-z
loop_
_atom_site_type_symbol
_atom_site_label
_atom_site_fract_x
_atom_site_fract_y
_atom_site_fract_z
Si Si1 0.734101 0.276935 0.514873
Si Si2 0.234889 0.238534 0.116307
Si Si3 0.432532 0.738425 0.286676
Si Si4 0.031621 0.209394 0.034945
Si Si5 0.807412 0.755802 0.164048
Si Si6 0.512939 0.121784 0.074357
Si Si7 0.258155 0.854855 0.161364
Si Si8 0.003583 0.158329 0.406387
O O1 0.636514 0.304662 0.624547
O O2 0.639680 0.588116 0.630558
O O3 0.785993 0.159394 0.611977
O O4 0.865307 0.069513 0.207430
O O5 0.101835 0.552774 0.363420
O O6 0.236384 0.069853 0.204427
O O7 0.226287 0.242373 0.949369
O O8 0.373836 0.093350 0.957238
O O9 0.342634 0.982745 0.533326
O O10 0.439592 0.814323 0.108919
O O11 0.587381 0.446574 0.122397
O O12 0.109965 0.225275 0.969662
O O13 0.900299 0.473926 0.122567
O O14 0.972677 0.208356 0.271675
O O15 0.500000 0.000000 0.000000
O O16 0.158026 0.965122 0.183617
O O17 0.000000 0.000000 0.500000
#
# Coordination Sequence:
#
# PCOD8007059 Si02
#       8
#     2   2   2   2   2   2   2   2
#     4  10  20  40  69  99 126 170 220 270 322 388
#     4  12  23  42  66  94 130 175 226 269 320 388
#     4  10  20  40  66  97 132 165 219 269 326 389
#     4  10  22  41  69  97 134 169 218 273 329 385
#     4  10  22  39  68 105 126 171 222 275 319 382
#     4  11  23  40  65  97 134 178 213 265 333 392
#     4  11  21  40  67  94 129 174 223 269 317 389
#     4  12  28  43  63  96 135 174 217 271 335 396
#
# _framework density 21.481408999999999
#
# number of rings (size 3 to 8) (size 9 to 14) (size 15 to 20)
#    0.000    1.250    3.750    2.625    7.000    1.500 
#    2.250    1.875    0.000    0.000    0.000    0.000 
#    0.000    0.000    0.000    0.000    0.000    0.000 
#
# Total GULP energy -198433.612093 kJ/mol
# GULP energy per Si atom -12402.100756 kJ/mol
# Density = 2.143252 g / cm^3
# Si number density = 21.481409 Si / 1000 Ang^3
#
#
#
# Elastic Constant Matrix: (Units=GPa)
#
#
# Indices 1 2 3 4 5 6 
#
# 1 90.3385 40.8940 32.7184 21.6005 10.6399 -17.7978
# 2 40.8940 111.9474 62.9182 23.5748 4.0367 -14.9447
# 3 32.7184 62.9182 135.3646 30.7367 33.6074 0.6843
# 4 21.6005 23.5748 30.7367 39.9541 -1.1086 4.9587
# 5 10.6399 4.0367 33.6074 -1.1086 30.6602 -1.6388
# 6 -17.7978 -14.9447 0.6843 4.9587 -1.6388 35.0681
#
#
#
# Elastic Compliance Matrix: (Units=1/GPa)
#
#
# Indices 1 2 3 4 5 6 
#
# 1 0.016765 -0.003670 0.001349 -0.009102 -0.006721 0.007891
# 2 -0.003670 0.015585 -0.008157 -0.001390 0.008408 0.005528
# 3 0.001349 -0.008157 0.018009 -0.009987 -0.019637 -0.002648
# 4 -0.009102 -0.001390 -0.009987 0.040113 0.015206 -0.009978
# 5 -0.006721 0.008408 -0.019637 0.015206 0.055970 0.001021
# 6 0.007891 0.005528 -0.002648 -0.009978 0.001021 0.036387
#
#
# Mechanical properties :
#
#
# Convention : Reuss Voigt Hill
#
# Bulk Modulus (GPa) = 34.00927 67.85684 50.93305
# Shear Modulus (GPa) = 23.40983 34.54448 28.97716
#
# Velocity S-wave (km/s) = 3.30475 4.01448 3.67678
# Velocity P-wave (km/s) = 5.51617 7.29008 6.46426
#
# Compressibility (1/GPa) = 0.02940375
#
# Stress axis : x y z
#
# Youngs Moduli (GPa) = 59.64961 64.16344 55.52690
#
# Poissons Ratio (x) = 0.23546 -0.07490
# Poissons Ratio (y) = 0.21889 0.45293
# Poissons Ratio (z) = -0.08046 0.52338
#
# Static dielectric constant tensor:
#      x y z
#    x 3.756750 -0.074520 0.032470 
#    y -0.074520 3.751750 0.482290 
#    z 0.032470 0.482290 3.996060 
# 
# 
# High freq. dielectric constant tensor:
#      x y z
#    x 1.837350 -0.011720 0.006710 
#    y -0.011720 1.844230 0.020880 
#    z 0.006710 0.020880 1.844670 
# 
# From -- ./inp_files/205216.got.cif
#   From: 2010.06.25/outbox.cif.g09.slc.cpg/sg2_103_cif.got.tgz:205216.got - 2010.06.27 13:26:56.
