data_PCOD8007862
_publ_section_title
;
Structure prediction by ZEFSAII (Michael W. Deem and Ramdas Pophale) SiO2 
 PCOD8007862
Probable space group: P -1
;
_chemical_formula_sum "Si O2"
_cell_formula_units_Z 14
_cell_length_a 9.009706
_cell_length_b 8.157088
_cell_length_c 17.708769
_cell_angle_alpha 52.067605
_cell_angle_beta 59.808751
_cell_angle_gamma 100.903982
_cell_volume 605.526054
_symmetry_space_group_name_H-M "P -1"
_symmetry_group_IT_number 2
_symmetry_cell_setting 'triclinic'
loop_
_space_group_symop_operation_xyz
x,y,z
-x,-y,-z
loop_
_atom_site_type_symbol
_atom_site_label
_atom_site_fract_x
_atom_site_fract_y
_atom_site_fract_z
Si Si1 0.368393 0.250630 0.501286
Si Si2 0.443195 0.401526 0.128856
Si Si3 0.066498 0.241367 0.011588
Si Si4 0.429106 0.152813 0.675331
Si Si5 0.896200 0.626211 0.203460
Si Si6 0.858525 0.228193 0.556180
Si Si7 0.933224 0.641417 0.696478
O O1 0.313145 0.152108 0.630242
O O2 0.413765 0.539645 0.401678
O O3 0.618136 0.349881 0.385108
O O4 0.140387 0.976482 0.585355
O O5 0.692222 0.518813 0.065784
O O6 0.345675 0.519589 0.165669
O O7 0.216296 0.037183 0.299944
O O8 0.500000 0.500000 0.000000
O O9 0.125393 0.406128 0.871616
O O10 0.818992 0.141263 0.133322
O O11 0.018621 0.952302 0.102399
O O12 0.606935 0.117339 0.620860
O O13 0.060037 0.584729 0.207700
O O14 0.031127 0.323322 0.413087
O O15 0.000000 0.500000 0.500000
#
# Coordination Sequence:
#
# PCOD8007862 Si02
#       7
#     2   2   2   2   2   2   2
#     4  10  20  41  70 103 131 176 231 287 342 406
#     4  12  29  47  68 102 147 186 228 288 349 421
#     4  10  24  43  66 100 140 176 228 281 353 408
#     4  10  22  41  71  99 140 175 226 289 339 414
#     4  10  22  40  71 102 130 177 233 289 339 414
#     4  12  28  46  71 104 139 186 237 288 352 411
#     4  12  25  44  74 100 140 185 236 289 346 415
#
# _framework density 23.12039
#
# number of rings (size 3 to 8) (size 9 to 14) (size 15 to 20)
#    0.000    1.143    1.429    3.429    6.000    4.571 
#    0.000    0.000    0.000    0.000    0.000    0.000 
#    0.000    0.000    0.000    0.000    0.000    0.000 
#
# Total GULP energy -173639.623809 kJ/mol
# GULP energy per Si atom -12402.830272 kJ/mol
# Density = 2.306777 g / cm^3
# Si number density = 23.120390 Si / 1000 Ang^3
#
#
#
# Elastic Constant Matrix: (Units=GPa)
#
#
# Indices 1 2 3 4 5 6 
#
# 1 71.5745 16.0155 40.4705 17.5817 9.0920 -5.9162
# 2 16.0155 81.2803 52.9085 30.4882 2.7300 20.5736
# 3 40.4705 52.9085 104.6024 24.0614 21.7087 -0.7911
# 4 17.5817 30.4882 24.0614 41.5023 0.2995 -4.2474
# 5 9.0920 2.7300 21.7087 0.2995 40.9719 10.9495
# 6 -5.9162 20.5736 -0.7911 -4.2474 10.9495 43.9454
#
#
#
# Elastic Compliance Matrix: (Units=1/GPa)
#
#
# Indices 1 2 3 4 5 6 
#
# 1 0.019110 0.003415 -0.007599 -0.006158 -0.000494 0.000365
# 2 0.003415 0.035065 -0.017180 -0.019489 0.011786 -0.021086
# 3 -0.007599 -0.017180 0.022959 0.003728 -0.012260 0.010848
# 4 -0.006158 -0.019489 0.003728 0.040213 -0.003083 0.013017
# 5 -0.000494 0.011786 -0.012260 -0.003083 0.034155 -0.014613
# 6 0.000365 -0.021086 0.010848 0.013017 -0.014613 0.037771
#
#
# Mechanical properties :
#
#
# Convention : Reuss Voigt Hill
#
# Bulk Modulus (GPa) = 29.06525 52.91624 40.99074
# Shear Modulus (GPa) = 20.53663 35.15477 27.84570
#
# Velocity S-wave (km/s) = 2.98358 3.90360 3.47418
# Velocity P-wave (km/s) = 4.94647 6.57681 5.81902
#
# Compressibility (1/GPa) = 0.03440534
#
# Stress axis : x y z
#
# Youngs Moduli (GPa) = 52.32976 28.51876 43.55675
#
# Poissons Ratio (x) = -0.09739 0.33099
# Poissons Ratio (y) = -0.17871 0.74829
# Poissons Ratio (z) = 0.39766 0.48994
#
# Static dielectric constant tensor:
#      x y z
#    x 4.156800 -0.217250 -0.058790 
#    y -0.217250 4.191630 0.130990 
#    z -0.058790 0.130990 4.285750 
# 
# 
# High freq. dielectric constant tensor:
#      x y z
#    x 1.915640 -0.009540 0.001630 
#    y -0.009540 1.914360 0.007350 
#    z 0.001630 0.007350 1.923130 
# 
# From -- ./inp_files/159563.got.cif
#   From: 2010.06.25/outbox.cif.g09.slc.cpg/sg2_80_cif.got.tgz:159563.got - 2010.06.27 13:26:56.
