data_PCOD8007511
_publ_section_title
;
Structure prediction by ZEFSAII (Michael W. Deem and Ramdas Pophale) SiO2 
 PCOD8007511
Probable space group: P -1
;
_chemical_formula_sum "Si O2"
_cell_formula_units_Z 14
_cell_length_a 12.517932
_cell_length_b 18.797438
_cell_length_c 8.226744
_cell_angle_alpha 127.192382
_cell_angle_beta 68.976155
_cell_angle_gamma 153.619725
_cell_volume 586.750115
_symmetry_space_group_name_H-M "P -1"
_symmetry_group_IT_number 2
_symmetry_cell_setting 'triclinic'
loop_
_space_group_symop_operation_xyz
x,y,z
-x,-y,-z
loop_
_atom_site_type_symbol
_atom_site_label
_atom_site_fract_x
_atom_site_fract_y
_atom_site_fract_z
Si Si1 0.396584 0.012929 0.158318
Si Si2 0.070240 0.105177 0.948928
Si Si3 0.187657 0.382859 0.234551
Si Si4 0.858342 0.218188 0.692515
Si Si5 0.422063 0.624388 0.114129
Si Si6 0.426455 0.803314 0.195259
Si Si7 0.539974 0.274119 0.271210
O O1 0.353154 0.964316 0.302704
O O2 0.609853 0.246869 0.328687
O O3 0.123274 0.842644 0.970775
O O4 0.500000 0.000000 0.000000
O O5 0.267464 0.183853 0.840494
O O6 0.246526 0.323381 0.180835
O O7 0.766048 0.905261 0.760789
O O8 0.000000 0.000000 0.000000
O O9 0.384944 0.558689 0.223392
O O10 0.234034 0.484670 0.500145
O O11 0.828720 0.305451 0.811103
O O12 0.726020 0.070943 0.407411
O O13 0.174537 0.413935 0.834949
O O14 0.403366 0.719341 0.246140
O O15 0.431426 0.744963 0.951733
#
# Coordination Sequence:
#
# PCOD8007511 Si02
#       7
#     2   2   2   2   2   2   2
#     4  10  20  41  64  93 131 169 215 259 318 379
#     4  11  24  45  66  95 129 166 219 268 322 382
#     4  10  25  42  67  97 128 171 213 266 325 382
#     4  10  23  41  64  93 131 173 214 263 318 378
#     4  11  23  44  66  95 128 169 220 261 320 386
#     4  11  22  41  63  96 133 168 213 268 317 380
#     4  11  23  42  64  98 131 167 217 264 322 382
#
# _framework density 23.860244000000002
#
# number of rings (size 3 to 8) (size 9 to 14) (size 15 to 20)
#    0.000    1.429    2.857    1.714    0.000    5.143 
#    2.571    0.000    0.000    0.000    0.000    0.000 
#    0.000    0.000    0.000    0.000    0.000    0.000 
#
# Total GULP energy -173469.344476 kJ/mol
# GULP energy per Si atom -12390.667463 kJ/mol
# Density = 2.380594 g / cm^3
# Si number density = 23.860244 Si / 1000 Ang^3
#
#
#
# Elastic Constant Matrix: (Units=GPa)
#
#
# Indices 1 2 3 4 5 6 
#
# 1 128.0831 33.1140 18.7033 -0.3168 -32.6781 -32.8031
# 2 33.1140 69.3578 -1.9015 -0.6910 -12.4430 -18.1934
# 3 18.7033 -1.9015 100.8619 -6.6056 -22.5397 -16.1661
# 4 -0.3168 -0.6910 -6.6056 22.6716 -5.6054 -7.4567
# 5 -32.6781 -12.4430 -22.5397 -5.6054 29.4955 14.2973
# 6 -32.8031 -18.1934 -16.1661 -7.4567 14.2973 49.2384
#
#
#
# Elastic Compliance Matrix: (Units=1/GPa)
#
#
# Indices 1 2 3 4 5 6 
#
# 1 0.012867 -0.002294 0.001715 0.005598 0.013073 0.005339
# 2 -0.002294 0.018069 0.003220 0.004624 0.005904 0.005191
# 3 0.001715 0.003220 0.013964 0.008964 0.013525 0.004347
# 4 0.005598 0.004624 0.008964 0.055538 0.020271 0.010906
# 5 0.013073 0.005904 0.013525 0.020271 0.065343 -0.000572
# 6 0.005339 0.005191 0.004347 0.010906 -0.000572 0.029029
#
#
# Mechanical properties :
#
#
# Convention : Reuss Voigt Hill
#
# Bulk Modulus (GPa) = 19.92831 44.23714 32.08272
# Shear Modulus (GPa) = 24.24185 36.84025 30.54105
#
# Velocity S-wave (km/s) = 3.19092 3.93364 3.58159
# Velocity P-wave (km/s) = 4.68468 6.26193 5.52983
#
# Compressibility (1/GPa) = 0.05017988
#
# Stress axis : x y z
#
# Youngs Moduli (GPa) = 77.71899 55.34459 71.61463
#
# Poissons Ratio (x) = 0.12699 -0.12279
# Poissons Ratio (y) = 0.17833 -0.23062
# Poissons Ratio (z) = -0.13326 -0.17822
#
# Static dielectric constant tensor:
#      x y z
#    x 4.743590 -0.319430 -0.288050 
#    y -0.319430 4.471220 -0.041210 
#    z -0.288050 -0.041210 4.422390 
# 
# 
# High freq. dielectric constant tensor:
#      x y z
#    x 1.959920 -0.020060 -0.012430 
#    y -0.020060 1.942200 0.014430 
#    z -0.012430 0.014430 1.937540 
# 
# From -- ./inp_files/68200.got.cif
#   From: 2010.06.25/outbox.cif.g09.slc.cpg/sg2_35_cif.got.tgz:68200.got - 2010.06.27 13:26:56.
