data_PCOD8007984
_publ_section_title
;
Structure prediction by ZEFSAII (Michael W. Deem and Ramdas Pophale) SiO2 
 PCOD8007984
Probable space group: P -1
;
_chemical_formula_sum "Si O2"
_cell_formula_units_Z 16
_cell_length_a 9.519906
_cell_length_b 18.823782
_cell_length_c 21.935802
_cell_angle_alpha 22.336877
_cell_angle_beta 32.130710
_cell_angle_gamma 41.791399
_cell_volume 780.603798
_symmetry_space_group_name_H-M "P -1"
_symmetry_group_IT_number 2
_symmetry_cell_setting 'triclinic'
loop_
_space_group_symop_operation_xyz
x,y,z
-x,-y,-z
loop_
_atom_site_type_symbol
_atom_site_label
_atom_site_fract_x
_atom_site_fract_y
_atom_site_fract_z
Si Si1 0.091873 0.680594 0.361735
Si Si2 0.417340 0.200956 0.493401
Si Si3 0.036950 0.783850 0.653115
Si Si4 0.131654 0.459556 0.209233
Si Si5 0.128466 0.822897 0.845718
Si Si6 0.709060 0.366611 0.540931
Si Si7 0.567539 0.957753 0.939794
Si Si8 0.636950 0.438715 0.114202
O O1 0.851225 0.791252 0.376355
O O2 0.000000 0.500000 0.500000
O O3 0.217287 0.620541 0.425534
O O4 0.311970 0.800895 0.139364
O O5 0.485710 0.379763 0.279894
O O6 0.656604 0.215350 0.442160
O O7 0.361513 0.002386 0.634485
O O8 0.982629 0.703860 0.668067
O O9 0.837981 0.643619 0.883510
O O10 0.000000 0.000000 0.500000
O O11 0.972281 0.428038 0.355574
O O12 0.439110 0.453295 0.118357
O O13 0.103009 0.667230 0.031948
O O14 0.201404 0.728172 0.830958
O O15 0.845924 0.885340 0.889206
O O16 0.500000 0.500000 0.500000
O O17 0.582156 0.148313 0.743271
O O18 0.500000 0.000000 0.000000
#
# Coordination Sequence:
#
# PCOD8007984 Si02
#       8
#     2   2   2   2   2   2   2   2
#     4  11  25  43  66  94 130 164 214 265 326 372
#     4  12  23  42  64  95 128 166 212 271 318 375
#     4  11  25  42  61  94 137 167 205 265 323 376
#     4  11  22  42  65  97 126 169 214 260 318 383
#     4  11  21  38  71  91 129 168 212 262 313 389
#     4  11  23  42  69  95 125 166 219 262 308 389
#     4  10  20  42  62  94 122 172 210 252 315 380
#     4  11  23  42  66  96 125 170 221 255 320 383
#
# _framework density 20.496953999999999
#
# number of rings (size 3 to 8) (size 9 to 14) (size 15 to 20)
#    0.000    1.000    3.750    5.250    5.250    1.000 
#    2.250    0.625    0.000    0.000    0.000    0.000 
#    0.000    0.000    0.000    0.000    0.000    0.000 
#
# Total GULP energy -198378.050613 kJ/mol
# GULP energy per Si atom -12398.628163 kJ/mol
# Density = 2.045030 g / cm^3
# Si number density = 20.496954 Si / 1000 Ang^3
#
#
#
# Elastic Constant Matrix: (Units=GPa)
#
#
# Indices 1 2 3 4 5 6 
#
# 1 77.0735 37.4407 38.6131 -3.6556 -13.3784 -22.8796
# 2 37.4407 113.8460 50.0895 -9.7074 -7.4700 -28.9472
# 3 38.6131 50.0895 149.7335 -13.4042 -12.1575 -10.3550
# 4 -3.6556 -9.7074 -13.4042 38.8640 -0.9717 -2.3828
# 5 -13.3784 -7.4700 -12.1575 -0.9717 39.6746 1.9657
# 6 -22.8796 -28.9472 -10.3550 -2.3828 1.9657 37.3235
#
#
#
# Elastic Compliance Matrix: (Units=1/GPa)
#
#
# Indices 1 2 3 4 5 6 
#
# 1 0.019127 -0.002289 -0.003101 0.000820 0.004648 0.008897
# 2 -0.002289 0.013161 -0.002986 0.002551 0.000451 0.008115
# 3 -0.003101 -0.002986 0.008615 0.001855 0.001165 -0.001769
# 4 0.000820 0.002551 0.001855 0.027414 0.001766 0.004652
# 5 0.004648 0.000451 0.001165 0.001766 0.027148 0.002205
# 6 0.008897 0.008115 -0.001769 0.004652 0.002205 0.038230
#
#
# Mechanical properties :
#
#
# Convention : Reuss Voigt Hill
#
# Bulk Modulus (GPa) = 41.40569 65.88217 53.64393
# Shear Modulus (GPa) = 31.54630 37.47307 34.50968
#
# Velocity S-wave (km/s) = 3.92736 4.28041 4.10768
# Velocity P-wave (km/s) = 6.38829 7.52605 6.98039
#
# Compressibility (1/GPa) = 0.02415127
#
# Stress axis : x y z
#
# Youngs Moduli (GPa) = 52.28304 75.98308 116.07227
#
# Poissons Ratio (x) = 0.17392 0.35990
# Poissons Ratio (y) = 0.11968 0.34661
# Poissons Ratio (z) = 0.16211 0.22690
#
# Static dielectric constant tensor:
#      x y z
#    x 3.683030 -0.064560 0.141460 
#    y -0.064560 3.792830 0.134030 
#    z 0.141460 0.134030 5.143670 
# 
# 
# High freq. dielectric constant tensor:
#      x y z
#    x 1.783420 -0.009800 -0.001590 
#    y -0.009800 1.807770 0.004140 
#    z -0.001590 0.004140 1.826240 
# 
# From -- ./inp_files/189817.got.cif
#   From: 2010.06.25/outbox.cif.g09.slc.cpg/sg2_95_cif.got.tgz:189817.got - 2010.06.27 13:26:56.
