data_PCOD8007242
_publ_section_title
;
Structure prediction by ZEFSAII (Michael W. Deem and Ramdas Pophale) SiO2 
 PCOD8007242
Probable space group: P -1
;
_chemical_formula_sum "Si O2"
_cell_formula_units_Z 12
_cell_length_a 11.213384
_cell_length_b 8.987299
_cell_length_c 8.620371
_cell_angle_alpha 61.030539
_cell_angle_beta 63.531332
_cell_angle_gamma 44.856729
_cell_volume 528.659183
_symmetry_space_group_name_H-M "P -1"
_symmetry_group_IT_number 2
_symmetry_cell_setting 'triclinic'
loop_
_space_group_symop_operation_xyz
x,y,z
-x,-y,-z
loop_
_atom_site_type_symbol
_atom_site_label
_atom_site_fract_x
_atom_site_fract_y
_atom_site_fract_z
Si Si1 0.309986 0.165194 0.230604
Si Si2 0.431631 0.824167 0.083041
Si Si3 0.952736 0.560289 0.173887
Si Si4 0.825295 0.036505 0.070000
Si Si5 0.645059 0.191487 0.417333
Si Si6 0.322928 0.500118 0.620110
O O1 0.130535 0.403981 0.243025
O O2 0.316554 0.059669 0.116130
O O3 0.328103 0.022854 0.435660
O O4 0.464124 0.177608 0.122632
O O5 0.563346 0.635459 0.223323
O O6 0.291498 0.812559 0.087054
O O7 0.831886 0.501032 0.320270
O O8 0.863671 0.806455 0.147206
O O9 0.000000 0.500000 0.000000
O O10 0.709937 0.165118 0.220872
O O11 0.000000 0.000000 0.000000
O O12 0.442388 0.396551 0.450174
O O13 0.743501 0.252670 0.439125
#
# Coordination Sequence:
#
# PCOD8007242 Si02
#       6
#     2   2   2   2   2   2
#     4  10  21  40  69  96 121 170 213 257 309 382
#     4  10  20  40  69  91 124 172 213 248 318 382
#     4  12  21  40  70  94 126 169 217 253 310 383
#     4  12  26  42  63  96 131 165 210 272 315 368
#     4  10  24  43  61 100 131 159 213 263 323 363
#     4  10  22  44  69  93 124 175 209 257 312 383
#
# _framework density 22.698934000000001
#
# number of rings (size 3 to 8) (size 9 to 14) (size 15 to 20)
#    0.000    1.333    3.333    3.000    0.000    4.667 
#    6.000    0.000    0.000    0.000    0.000    0.000 
#    0.000    0.000    0.000    0.000    0.000    0.000 
#
# Total GULP energy -148699.795260 kJ/mol
# GULP energy per Si atom -12391.649605 kJ/mol
# Density = 2.264727 g / cm^3
# Si number density = 22.698934 Si / 1000 Ang^3
#
#
#
# Elastic Constant Matrix: (Units=GPa)
#
#
# Indices 1 2 3 4 5 6 
#
# 1 105.5113 -3.0301 13.9826 16.6889 -16.3511 -20.2501
# 2 -3.0301 73.7034 7.1319 20.0895 6.1779 -4.7137
# 3 13.9826 7.1319 68.3821 26.2810 -13.8714 -10.0733
# 4 16.6889 20.0895 26.2810 41.4978 -0.7204 0.3001
# 5 -16.3511 6.1779 -13.8714 -0.7204 35.0570 -5.3303
# 6 -20.2501 -4.7137 -10.0733 0.3001 -5.3303 28.2752
#
#
#
# Elastic Compliance Matrix: (Units=1/GPa)
#
#
# Indices 1 2 3 4 5 6 
#
# 1 0.015214 0.003171 0.005168 -0.010852 0.010700 0.015398
# 2 0.003171 0.016881 0.002982 -0.011375 0.000415 0.006347
# 3 0.005168 0.002982 0.026315 -0.020057 0.014394 0.016499
# 4 -0.010852 -0.011375 -0.020057 0.046587 -0.013041 -0.019767
# 5 0.010700 0.000415 0.014394 -0.013041 0.042052 0.020926
# 6 0.015398 0.006347 0.016499 -0.019767 0.020926 0.057485
#
#
# Mechanical properties :
#
#
# Convention : Reuss Voigt Hill
#
# Bulk Modulus (GPa) = 12.33783 31.52951 21.93367
# Shear Modulus (GPa) = 23.93386 36.26682 30.10034
#
# Velocity S-wave (km/s) = 3.25068 4.00150 3.64547
# Velocity P-wave (km/s) = 4.42001 5.93884 5.23480
#
# Compressibility (1/GPa) = 0.08105156
#
# Stress axis : x y z
#
# Youngs Moduli (GPa) = 65.72985 59.23709 38.00179
#
# Poissons Ratio (x) = -0.18786 -0.19639
# Poissons Ratio (y) = -0.20845 -0.11331
# Poissons Ratio (z) = -0.33969 -0.17663
#
# Static dielectric constant tensor:
#      x y z
#    x 4.472140 -0.313430 -0.304920 
#    y -0.313430 4.626070 0.030440 
#    z -0.304920 0.030440 4.033350 
# 
# 
# High freq. dielectric constant tensor:
#      x y z
#    x 1.884040 -0.000960 -0.021940 
#    y -0.000960 1.898450 0.008320 
#    z -0.021940 0.008320 1.888140 
# 
# From -- ./inp_files/159501.got.cif
#   From: 2010.06.25/outbox.cif.g09.slc.cpg/sg2_80_cif.got.tgz:159501.got - 2010.06.27 13:26:56.
