data_PCOD8007555
_publ_section_title
;
Structure prediction by ZEFSAII (Michael W. Deem and Ramdas Pophale) SiO2 
 PCOD8007555
Probable space group: P -1
;
_chemical_formula_sum "Si O2"
_cell_formula_units_Z 12
_cell_length_a 12.279871
_cell_length_b 22.174527
_cell_length_c 8.823333
_cell_angle_alpha 27.470911
_cell_angle_beta 34.931466
_cell_angle_gamma 31.838053
_cell_volume 562.685414
_symmetry_space_group_name_H-M "P -1"
_symmetry_group_IT_number 2
_symmetry_cell_setting 'triclinic'
loop_
_space_group_symop_operation_xyz
x,y,z
-x,-y,-z
loop_
_atom_site_type_symbol
_atom_site_label
_atom_site_fract_x
_atom_site_fract_y
_atom_site_fract_z
Si Si1 0.777291 0.411169 0.765986
Si Si2 0.981971 0.887312 0.385188
Si Si3 0.674323 0.409326 0.231365
Si Si4 0.719459 0.875028 0.464710
Si Si5 0.145516 0.423184 0.149038
Si Si6 0.048459 0.914577 0.789101
O O1 0.579411 0.536877 0.617217
O O2 0.992717 0.419397 0.464765
O O3 0.754877 0.432849 0.923373
O O4 0.789159 0.256337 0.042887
O O5 0.863290 0.810627 0.598187
O O6 0.207360 0.761450 0.473824
O O7 0.847157 0.998044 0.428716
O O8 0.000000 0.000000 0.000000
O O9 0.716836 0.501691 0.109015
O O10 0.687372 0.743525 0.718905
O O11 0.500000 0.000000 0.500000
O O12 0.833235 0.934403 0.079268
O O13 0.000000 0.500000 0.000000
O O14 0.000000 0.000000 0.500000
#
# Coordination Sequence:
#
# PCOD8007555 Si02
#       6
#     2   2   2   2   2   2
#     4  10  24  41  65  94 126 171 210 261 322 379
#     4  10  21  39  63  89 126 165 207 262 317 382
#     4  11  22  43  65  93 129 165 213 261 322 380
#     4  10  23  41  59  93 126 165 211 261 325 375
#     4  11  23  41  62  93 127 166 212 263 315 379
#     4  10  20  41  65  88 124 164 214 260 311 382
#
# _framework density 21.326305000000001
#
# number of rings (size 3 to 8) (size 9 to 14) (size 15 to 20)
#    0.000    1.667    3.333    0.500    2.333    3.333 
#    0.000    0.833    0.000    0.000    0.000    0.000 
#    0.000    0.000    0.000    0.000    0.000    0.000 
#
# Total GULP energy -148658.744588 kJ/mol
# GULP energy per Si atom -12388.228716 kJ/mol
# Density = 2.127777 g / cm^3
# Si number density = 21.326305 Si / 1000 Ang^3
#
#
#
# Elastic Constant Matrix: (Units=GPa)
#
#
# Indices 1 2 3 4 5 6 
#
# 1 118.6559 28.7043 24.9890 -14.1151 11.4229 16.8534
# 2 28.7043 104.1122 12.8151 -13.0019 5.2655 1.9431
# 3 24.9890 12.8151 50.6269 -18.0108 10.1190 1.1104
# 4 -14.1151 -13.0019 -18.0108 34.1912 2.4454 3.4532
# 5 11.4229 5.2655 10.1190 2.4454 36.7233 -12.3963
# 6 16.8534 1.9431 1.1104 3.4532 -12.3963 43.5863
#
#
#
# Elastic Compliance Matrix: (Units=1/GPa)
#
#
# Indices 1 2 3 4 5 6 
#
# 1 0.011132 -0.001980 -0.002795 0.003271 -0.004550 -0.005698
# 2 -0.001980 0.010650 -0.000374 0.003141 -0.001106 -0.000263
# 3 -0.002795 -0.000374 0.028276 0.014576 -0.008962 -0.003326
# 4 0.003271 0.003141 0.014576 0.041078 -0.010971 -0.008151
# 5 -0.004550 -0.001106 -0.008962 -0.010971 0.036488 0.013284
# 6 -0.005698 -0.000263 -0.003326 -0.008151 0.013284 0.029666
#
#
# Mechanical properties :
#
#
# Convention : Reuss Voigt Hill
#
# Bulk Modulus (GPa) = 25.15161 45.15685 35.15423
# Shear Modulus (GPa) = 27.64825 36.69260 32.17043
#
# Velocity S-wave (km/s) = 3.60452 4.15243 3.88814
# Velocity P-wave (km/s) = 5.39840 6.64909 6.05612
#
# Compressibility (1/GPa) = 0.03975889
#
# Stress axis : x y z
#
# Youngs Moduli (GPa) = 89.83241 93.89573 35.36516
#
# Poissons Ratio (x) = 0.18592 0.09886
# Poissons Ratio (y) = 0.17788 0.01324
# Poissons Ratio (z) = 0.25112 0.03514
#
# Static dielectric constant tensor:
#      x y z
#    x 4.836240 0.547930 -0.154160 
#    y 0.547930 3.988030 -0.261550 
#    z -0.154160 -0.261550 3.838420 
# 
# 
# High freq. dielectric constant tensor:
#      x y z
#    x 1.846740 0.030460 0.011520 
#    y 0.030460 1.837930 -0.021330 
#    z 0.011520 -0.021330 1.826360 
# 
# From -- ./inp_files/61110.got.cif
#   From: 2010.06.25/outbox.cif.g09.slc.cpg/sg2_31_cif.got.tgz:61110.got - 2010.06.27 13:26:56.
