data_PCOD8007177
_publ_section_title
;
Structure prediction by ZEFSAII (Michael W. Deem and Ramdas Pophale) SiO2 
 PCOD8007177
Probable space group: P -1
;
_chemical_formula_sum "Si O2"
_cell_formula_units_Z 16
_cell_length_a 9.204266
_cell_length_b 10.122356
_cell_length_c 11.524065
_cell_angle_alpha 142.281433
_cell_angle_beta 96.196723
_cell_angle_gamma 78.522933
_cell_volume 641.534217
_symmetry_space_group_name_H-M "P -1"
_symmetry_group_IT_number 2
_symmetry_cell_setting 'triclinic'
loop_
_space_group_symop_operation_xyz
x,y,z
-x,-y,-z
loop_
_atom_site_type_symbol
_atom_site_label
_atom_site_fract_x
_atom_site_fract_y
_atom_site_fract_z
Si Si1 0.304473 0.109843 0.759491
Si Si2 0.298353 0.469171 0.431268
Si Si3 0.730770 0.375076 0.212593
Si Si4 0.022424 0.523150 0.293916
Si Si5 0.558185 0.011983 0.887252
Si Si6 0.201849 0.574402 0.116875
Si Si7 0.996598 0.001589 0.639103
Si Si8 0.558728 0.318498 0.622540
O O1 0.161078 0.002668 0.705397
O O2 0.411295 0.132112 0.891415
O O3 0.403391 0.948771 0.563727
O O4 0.241321 0.361537 0.886812
O O5 0.266177 0.633103 0.652009
O O6 0.382343 0.233570 0.325260
O O7 0.396702 0.574487 0.420140
O O8 0.150506 0.419286 0.322540
O O9 0.894540 0.380231 0.183101
O O10 0.614936 0.590706 0.308181
O O11 0.685412 0.159762 0.001849
O O12 0.087189 0.522891 0.169457
O O13 0.954652 0.768795 0.508099
O O14 0.500000 0.000000 0.000000
O O15 0.124508 0.787160 0.182988
O O16 0.352986 0.616467 0.214989
O O17 0.000000 0.000000 0.500000
#
# Coordination Sequence:
#
# PCOD8007177 Si02
#       8
#     2   2   2   2   2   2   2   2
#     4  12  20  37  67  93 115 154 210 253 290 355
#     4  11  21  39  59  87 120 171 203 236 298 365
#     4  12  23  39  59  89 133 156 199 253 302 360
#     4  10  23  41  59  91 126 160 196 255 309 352
#     4  12  23  35  62  93 121 163 204 244 295 357
#     4  10  21  41  65  91 115 155 210 250 300 359
#     4  10  20  40  68  88 116 158 208 254 300 355
#     4  11  20  37  64  87 120 160 207 245 291 364
#
# _framework density 24.940214999999998
#
# number of rings (size 3 to 8) (size 9 to 14) (size 15 to 20)
#    0.000    1.000    7.500    2.625    0.000    0.500 
#    2.250    0.625    0.000    3.750    0.000    0.000 
#    0.000    0.000    0.000    0.000    0.000    0.000 
#
# Total GULP energy -198337.433343 kJ/mol
# GULP energy per Si atom -12396.089584 kJ/mol
# Density = 2.488345 g / cm^3
# Si number density = 24.940215 Si / 1000 Ang^3
#
#
#
# Elastic Constant Matrix: (Units=GPa)
#
#
# Indices 1 2 3 4 5 6 
#
# 1 106.6910 24.4659 18.2577 -8.7517 27.7553 -25.5502
# 2 24.4659 41.0983 14.8896 13.3919 -1.5888 -18.0844
# 3 18.2577 14.8896 134.1067 23.8858 8.2026 -6.7296
# 4 -8.7517 13.3919 23.8858 36.3789 -16.9108 -10.8576
# 5 27.7553 -1.5888 8.2026 -16.9108 44.3049 -0.6076
# 6 -25.5502 -18.0844 -6.7296 -10.8576 -0.6076 21.9513
#
#
#
# Elastic Compliance Matrix: (Units=1/GPa)
#
#
# Indices 1 2 3 4 5 6 
#
# 1 0.019231 -0.004114 -0.002645 0.011792 -0.006878 0.023826
# 2 -0.004114 0.040559 -0.001716 -0.006232 0.002315 0.025081
# 3 -0.002645 -0.001716 0.009793 -0.010459 -0.004303 -0.006783
# 4 0.011792 -0.006232 -0.010459 0.057506 0.016745 0.034292
# 5 -0.006878 0.002315 -0.004303 0.016745 0.034175 0.001811
# 6 0.023826 0.025081 -0.006783 0.034292 0.001811 0.108883
#
#
# Mechanical properties :
#
#
# Convention : Reuss Voigt Hill
#
# Bulk Modulus (GPa) = 18.99964 44.12472 31.56218
# Shear Modulus (GPa) = 16.41262 35.47921 25.94591
#
# Velocity S-wave (km/s) = 2.56809 3.77579 3.22891
# Velocity P-wave (km/s) = 4.05315 6.06130 5.15594
#
# Compressibility (1/GPa) = 0.05263257
#
# Stress axis : x y z
#
# Youngs Moduli (GPa) = 51.99828 24.65514 102.11257
#
# Poissons Ratio (x) = 0.10144 0.27013
# Poissons Ratio (y) = 0.21393 0.17523
# Poissons Ratio (z) = 0.13756 0.04231
#
# Static dielectric constant tensor:
#      x y z
#    x 4.087090 -0.406820 0.177260 
#    y -0.406820 4.339230 0.492170 
#    z 0.177260 0.492170 5.491880 
# 
# 
# High freq. dielectric constant tensor:
#      x y z
#    x 1.974610 -0.045590 0.011080 
#    y -0.045590 1.971240 0.003610 
#    z 0.011080 0.003610 2.010240 
# 
# From -- ./inp_files/346436.got.cif
#   From: 2010.06.25/outbox.cif.g09.slc.cpg/sg2_174_cif.got.tgz:346436.got - 2010.06.27 13:26:56.
