data_PCOD8007090
_publ_section_title
;
Structure prediction by ZEFSAII (Michael W. Deem and Ramdas Pophale) SiO2 
 PCOD8007090
Probable space group: P -1
;
_chemical_formula_sum "Si O2"
_cell_formula_units_Z 16
_cell_length_a 22.041229
_cell_length_b 11.816485
_cell_length_c 17.083656
_cell_angle_alpha 31.131812
_cell_angle_beta 160.358513
_cell_angle_gamma 148.520460
_cell_volume 744.857805
_symmetry_space_group_name_H-M "P -1"
_symmetry_group_IT_number 2
_symmetry_cell_setting 'triclinic'
loop_
_space_group_symop_operation_xyz
x,y,z
-x,-y,-z
loop_
_atom_site_type_symbol
_atom_site_label
_atom_site_fract_x
_atom_site_fract_y
_atom_site_fract_z
Si Si1 0.452089 0.233080 0.295349
Si Si2 0.749384 0.672134 0.381016
Si Si3 0.500452 0.823410 0.879756
Si Si4 0.312073 0.452686 0.133979
Si Si5 0.308659 0.195152 0.604512
Si Si6 0.932376 0.277574 0.383949
Si Si7 0.348939 0.263645 0.445789
Si Si8 0.747570 0.666368 0.145876
O O1 0.634952 0.413200 0.373757
O O2 0.410694 0.302438 0.290578
O O3 0.500000 0.000000 0.500000
O O4 0.270629 0.219554 0.027751
O O5 0.785381 0.692923 0.506108
O O6 0.943132 0.749501 0.523844
O O7 0.611598 0.826151 0.095574
O O8 0.322060 0.605874 0.786078
O O9 0.440681 0.055950 0.663266
O O10 0.637459 0.791123 0.996495
O O11 0.467982 0.692894 0.197443
O O12 0.234548 0.306048 0.204896
O O13 0.136041 0.497981 0.847555
O O14 0.224520 0.221695 0.399418
O O15 0.255066 0.928263 0.716309
O O16 0.041669 0.290262 0.591366
O O17 0.500000 0.500000 0.500000
#
# Coordination Sequence:
#
# PCOD8007090 Si02
#       8
#     2   2   2   2   2   2   2   2
#     4  10  20  40  67  88 123 164 204 246 304 375
#     4   9  21  38  64  92 115 159 208 252 303 361
#     4   9  18  37  63  85 119 158 204 252 296 369
#     4  10  23  39  61  90 122 161 205 255 308 357
#     4  10  22  39  62  85 119 165 206 246 301 370
#     4  11  22  39  61  94 125 155 204 258 305 362
#     4  10  22  38  61  89 121 161 207 251 306 364
#     4   9  20  37  61  92 117 159 205 247 306 359
#
# _framework density 21.480611
#
# number of rings (size 3 to 8) (size 9 to 14) (size 15 to 20)
#    0.000    2.250    0.000    2.250    8.750    0.500 
#    2.250    1.875    0.000    0.000    0.000    0.000 
#    0.000    0.000    0.000    0.000    0.000    0.000 
#
# Total GULP energy -198216.312936 kJ/mol
# GULP energy per Si atom -12388.519558 kJ/mol
# Density = 2.143172 g / cm^3
# Si number density = 21.480611 Si / 1000 Ang^3
#
#
#
# Elastic Constant Matrix: (Units=GPa)
#
#
# Indices 1 2 3 4 5 6 
#
# 1 118.6223 37.8385 42.5950 -0.4675 -29.9159 1.9725
# 2 37.8385 92.3509 62.4096 -27.0996 -7.6511 -10.1247
# 3 42.5950 62.4096 127.9709 -19.7962 -24.0749 -0.6429
# 4 -0.4675 -27.0996 -19.7962 28.3206 2.5585 -1.1592
# 5 -29.9159 -7.6511 -24.0749 2.5585 29.5489 -2.9077
# 6 1.9725 -10.1247 -0.6429 -1.1592 -2.9077 27.1109
#
#
#
# Elastic Compliance Matrix: (Units=1/GPa)
#
#
# Indices 1 2 3 4 5 6 
#
# 1 0.013986 -0.007403 0.000093 -0.008052 0.012745 -0.002757
# 2 -0.007403 0.025908 -0.008677 0.019787 -0.008591 0.009933
# 3 0.000093 -0.008677 0.013725 0.000418 0.008801 -0.001960
# 4 -0.008052 0.019787 0.000418 0.055388 -0.006534 0.009653
# 5 0.012745 -0.008591 0.008801 -0.006534 0.052397 0.001413
# 6 -0.002757 0.009933 -0.001960 0.009653 0.001413 0.041313
#
#
# Mechanical properties :
#
#
# Convention : Reuss Voigt Hill
#
# Bulk Modulus (GPa) = 46.19422 69.40336 57.79879
# Shear Modulus (GPa) = 20.66912 30.06947 25.36930
#
# Velocity S-wave (km/s) = 3.10534 3.74551 3.44034
# Velocity P-wave (km/s) = 5.86594 7.14738 6.53813
#
# Compressibility (1/GPa) = 0.02164773
#
# Stress axis : x y z
#
# Youngs Moduli (GPa) = 71.49839 38.59743 72.85809
#
# Poissons Ratio (x) = 0.28572 -0.00678
# Poissons Ratio (y) = 0.52927 0.63217
# Poissons Ratio (z) = -0.00666 0.33490
#
# Static dielectric constant tensor:
#      x y z
#    x 4.376100 -0.028950 -0.564870 
#    y -0.028950 3.829540 -0.001070 
#    z -0.564870 -0.001070 3.727500 
# 
# 
# High freq. dielectric constant tensor:
#      x y z
#    x 1.853790 -0.009510 -0.025290 
#    y -0.009510 1.835430 -0.007240 
#    z -0.025290 -0.007240 1.816150 
# 
# From -- ./inp_files/420007.got.cif
#   From: 2010.06.25/outbox.cif.g09.slc.cpg/sg2_211_cif.got.tgz:420007.got - 2010.06.27 13:26:56.
