data_PCOD8007286
_publ_section_title
;
Structure prediction by ZEFSAII (Michael W. Deem and Ramdas Pophale) SiO2 
 PCOD8007286
Probable space group: P -1
;
_chemical_formula_sum "Si O2"
_cell_formula_units_Z 16
_cell_length_a 16.159914
_cell_length_b 9.639393
_cell_length_c 9.575122
_cell_angle_alpha 64.702656
_cell_angle_beta 68.906952
_cell_angle_gamma 34.189785
_cell_volume 757.709625
_symmetry_space_group_name_H-M "P -1"
_symmetry_group_IT_number 2
_symmetry_cell_setting 'triclinic'
loop_
_space_group_symop_operation_xyz
x,y,z
-x,-y,-z
loop_
_atom_site_type_symbol
_atom_site_label
_atom_site_fract_x
_atom_site_fract_y
_atom_site_fract_z
Si Si1 0.258692 0.373107 0.143162
Si Si2 0.512249 0.412708 0.376566
Si Si3 0.632655 0.909784 0.522331
Si Si4 0.754112 0.197261 0.819745
Si Si5 0.990436 0.115884 0.756061
Si Si6 0.044084 0.571203 0.547814
Si Si7 0.883946 0.707171 0.868857
Si Si8 0.697701 0.368526 0.085745
O O1 0.356737 0.163760 0.294533
O O2 0.109181 0.649417 0.178473
O O3 0.220825 0.292924 0.092082
O O4 0.344995 0.391855 0.004370
O O5 0.500000 0.500000 0.500000
O O6 0.354753 0.589409 0.326941
O O7 0.585950 0.440863 0.224926
O O8 0.609129 0.125118 0.444633
O O9 0.778450 0.669230 0.447452
O O10 0.500000 0.000000 0.500000
O O11 0.907135 0.078765 0.769769
O O12 0.780302 0.982813 0.871140
O O13 0.683137 0.312370 0.966379
O O14 0.023062 0.175345 0.575295
O O15 0.137333 0.869055 0.853503
O O16 0.000000 0.500000 0.500000
O O17 0.971761 0.640381 0.709183
O O18 0.000000 0.500000 0.000000
#
# Coordination Sequence:
#
# PCOD8007286 Si02
#       8
#     2   2   2   2   2   2   2   2
#     4  10  21  42  66  98 130 172 219 275 320 393
#     4  12  27  45  67  98 135 178 220 270 327 396
#     4  11  23  44  71  94 135 175 227 265 326 395
#     4  11  25  43  66 100 134 169 218 278 325 395
#     4  10  20  40  70  96 128 170 225 266 329 387
#     4  11  22  40  72  96 128 180 221 270 328 391
#     4  12  24  41  66 104 136 163 223 279 330 385
#     4  11  23  44  71  94 132 180 218 264 341 392
#
# _framework density 21.116267000000001
#
# number of rings (size 3 to 8) (size 9 to 14) (size 15 to 20)
#    0.000    1.000    2.500    7.125    3.500    0.500 
#    6.750    1.250    0.000    0.000    0.000    0.000 
#    0.000    0.000    0.000    0.000    0.000    0.000 
#
# Total GULP energy -198452.024461 kJ/mol
# GULP energy per Si atom -12403.251529 kJ/mol
# Density = 2.106821 g / cm^3
# Si number density = 21.116267 Si / 1000 Ang^3
#
#
#
# Elastic Constant Matrix: (Units=GPa)
#
#
# Indices 1 2 3 4 5 6 
#
# 1 142.0395 39.8152 57.9476 2.0957 4.8722 17.1551
# 2 39.8152 59.3767 35.3976 -15.8278 4.3022 18.3497
# 3 57.9476 35.3976 152.7487 -5.9402 -2.8510 13.9980
# 4 2.0957 -15.8278 -5.9402 40.4613 -1.1255 0.4350
# 5 4.8722 4.3022 -2.8510 -1.1255 50.5155 -10.4879
# 6 17.1551 18.3497 13.9980 0.4350 -10.4879 41.6754
#
#
#
# Elastic Compliance Matrix: (Units=1/GPa)
#
#
# Indices 1 2 3 4 5 6 
#
# 1 0.009797 -0.005551 -0.002479 -0.003057 -0.000876 -0.000945
# 2 -0.005551 0.029065 -0.003305 0.011172 -0.004066 -0.010542
# 3 -0.002479 -0.003305 0.008280 0.000079 0.000977 -0.000060
# 4 -0.003057 0.011172 0.000079 0.029276 -0.000875 -0.004213
# 5 -0.000876 -0.004066 0.000977 -0.000875 0.021781 0.007313
# 6 -0.000945 -0.010542 -0.000060 -0.004213 0.007313 0.030930
#
#
# Mechanical properties :
#
#
# Convention : Reuss Voigt Hill
#
# Bulk Modulus (GPa) = 40.86322 68.94284 54.90303
# Shear Modulus (GPa) = 31.25872 41.26409 36.26141
#
# Velocity S-wave (km/s) = 3.85166 4.42536 4.14844
# Velocity P-wave (km/s) = 6.25891 7.67019 7.00020
#
# Compressibility (1/GPa) = 0.02447188
#
# Stress axis : x y z
#
# Youngs Moduli (GPa) = 102.07357 34.40600 120.77564
#
# Poissons Ratio (x) = 0.19099 0.29939
# Poissons Ratio (y) = 0.56661 0.39915
# Poissons Ratio (z) = 0.25303 0.11371
#
# Static dielectric constant tensor:
#      x y z
#    x 4.111900 -0.009040 -0.344310 
#    y -0.009040 3.778750 -0.376580 
#    z -0.344310 -0.376580 3.901240 
# 
# 
# High freq. dielectric constant tensor:
#      x y z
#    x 1.844040 0.004620 -0.001910 
#    y 0.004620 1.813170 -0.020630 
#    z -0.001910 -0.020630 1.842180 
# 
# From -- ./inp_files/297850.got.cif
#   From: 2010.06.25/outbox.cif.g09.slc.cpg/sg2_149_cif.got.tgz:297850.got - 2010.06.27 13:26:56.
