data_PCOD8007871
_publ_section_title
;
Structure prediction by ZEFSAII (Michael W. Deem and Ramdas Pophale) SiO2 
 PCOD8007871
Probable space group: P -1
;
_chemical_formula_sum "Si O2"
_cell_formula_units_Z 16
_cell_length_a 29.740061
_cell_length_b 15.101273
_cell_length_c 8.549143
_cell_angle_alpha 133.922919
_cell_angle_beta 38.242637
_cell_angle_gamma 160.889376
_cell_volume 755.558367
_symmetry_space_group_name_H-M "P -1"
_symmetry_group_IT_number 2
_symmetry_cell_setting 'triclinic'
loop_
_space_group_symop_operation_xyz
x,y,z
-x,-y,-z
loop_
_atom_site_type_symbol
_atom_site_label
_atom_site_fract_x
_atom_site_fract_y
_atom_site_fract_z
Si Si1 0.298896 0.988507 0.940243
Si Si2 0.410677 0.358973 0.317082
Si Si3 0.489930 0.249269 0.157391
Si Si4 0.863799 0.664948 0.129008
Si Si5 0.213014 0.283765 0.871136
Si Si6 0.273783 0.002355 0.693244
Si Si7 0.437845 0.770686 0.380864
Si Si8 0.040409 0.459093 0.212482
O O1 0.206821 0.850425 0.855543
O O2 0.468881 0.171742 0.676929
O O3 0.182554 0.735688 0.062012
O O4 0.357832 0.210279 0.119098
O O5 0.418410 0.273739 0.333363
O O6 0.266145 0.238571 0.585346
O O7 0.591711 0.694313 0.239678
O O8 0.674125 0.526458 0.055132
O O9 0.362785 0.029173 0.378848
O O10 0.500121 0.174730 0.893266
O O11 0.773618 0.578220 0.112264
O O12 0.755518 0.530258 0.415714
O O13 0.893713 0.563926 0.911194
O O14 0.031791 0.996383 0.087100
O O15 0.117751 0.819213 0.801224
O O16 0.500000 0.000000 0.500000
O O17 0.000000 0.500000 0.500000
#
# Coordination Sequence:
#
# PCOD8007871 Si02
#       8
#     2   2   2   2   2   2   2   2
#     4  11  23  41  66  95 127 165 213 262 317 376
#     4  10  20  41  70  94 127 163 210 263 319 373
#     4  10  21  39  64  94 120 164 210 255 313 370
#     4  11  23  40  64  87 133 164 205 261 315 381
#     4  10  21  41  64 100 122 160 212 262 316 368
#     4  11  22  39  66  97 122 161 219 267 306 376
#     4  11  22  41  60  87 128 171 202 247 317 381
#     4  12  24  43  64  92 128 172 210 261 324 376
#
# _framework density 21.176392
#
# number of rings (size 3 to 8) (size 9 to 14) (size 15 to 20)
#    0.000    1.250    1.250    7.500    0.000    1.500 
#    2.250    3.750    0.000    0.000    0.000    0.000 
#    0.000    0.000    0.000    0.000    0.000    0.000 
#
# Total GULP energy -198212.934031 kJ/mol
# GULP energy per Si atom -12388.308377 kJ/mol
# Density = 2.112819 g / cm^3
# Si number density = 21.176392 Si / 1000 Ang^3
#
#
#
# Elastic Constant Matrix: (Units=GPa)
#
#
# Indices 1 2 3 4 5 6 
#
# 1 134.9159 42.6957 73.1980 14.3485 -0.7349 8.3092
# 2 42.6957 87.9099 57.4169 -3.9015 0.5771 0.5191
# 3 73.1980 57.4169 118.8933 -5.7303 -7.7540 -5.9148
# 4 14.3485 -3.9015 -5.7303 31.1185 -2.9747 -1.2156
# 5 -0.7349 0.5771 -7.7540 -2.9747 32.1769 -3.5619
# 6 8.3092 0.5191 -5.9148 -1.2156 -3.5619 33.4517
#
#
#
# Elastic Compliance Matrix: (Units=1/GPa)
#
#
# Indices 1 2 3 4 5 6 
#
# 1 0.013863 -0.001309 -0.008813 -0.008707 -0.003213 -0.005640
# 2 -0.001309 0.017039 -0.007590 0.001071 -0.002229 -0.001480
# 3 -0.008813 -0.007590 0.018556 0.007336 0.005801 0.006472
# 4 -0.008707 0.001071 0.007336 0.038393 0.005702 0.005446
# 5 -0.003213 -0.002229 0.005801 0.005702 0.033595 0.005643
# 6 -0.005640 -0.001480 0.006472 0.005446 0.005643 0.033261
#
#
# Mechanical properties :
#
#
# Convention : Reuss Voigt Hill
#
# Bulk Modulus (GPa) = 71.25215 76.48227 73.86721
# Shear Modulus (GPa) = 25.66611 30.57665 28.12138
#
# Velocity S-wave (km/s) = 3.48518 3.80399 3.64807
# Velocity P-wave (km/s) = 7.06508 7.44909 7.25962
#
# Compressibility (1/GPa) = 0.01403466
#
# Stress axis : x y z
#
# Youngs Moduli (GPa) = 72.13195 58.68734 53.89127
#
# Poissons Ratio (x) = 0.07684 0.47493
# Poissons Ratio (y) = 0.09444 0.40904
# Poissons Ratio (z) = 0.63567 0.44544
#
# Static dielectric constant tensor:
#      x y z
#    x 4.121420 0.061700 -0.016080 
#    y 0.061700 3.785080 -0.235200 
#    z -0.016080 -0.235200 4.263220 
# 
# 
# High freq. dielectric constant tensor:
#      x y z
#    x 1.837490 0.002820 0.000220 
#    y 0.002820 1.822210 -0.017970 
#    z 0.000220 -0.017970 1.835180 
# 
# From -- ./inp_files/358867.got.cif
#   From: 2010.06.25/outbox.cif.g09.slc.cpg/sg2_180_cif.got.tgz:358867.got - 2010.06.27 13:26:56.
