data_PCOD8007023
_publ_section_title
;
Structure prediction by ZEFSAII (Michael W. Deem and Ramdas Pophale) SiO2 
 PCOD8007023
Probable space group: P -1
;
_chemical_formula_sum "Si O2"
_cell_formula_units_Z 16
_cell_length_a 6.994082
_cell_length_b 7.879220
_cell_length_c 18.786591
_cell_angle_alpha 82.519878
_cell_angle_beta 129.496694
_cell_angle_gamma 77.807952
_cell_volume 731.283909
_symmetry_space_group_name_H-M "P -1"
_symmetry_group_IT_number 2
_symmetry_cell_setting 'triclinic'
loop_
_space_group_symop_operation_xyz
x,y,z
-x,-y,-z
loop_
_atom_site_type_symbol
_atom_site_label
_atom_site_fract_x
_atom_site_fract_y
_atom_site_fract_z
Si Si1 0.263362 0.987043 0.650902
Si Si2 0.917784 0.300091 0.452289
Si Si3 0.952926 0.835749 0.106639
Si Si4 0.687260 0.192210 0.189395
Si Si5 0.401311 0.397376 0.541277
Si Si6 0.246181 0.559282 0.072001
Si Si7 0.236596 0.969430 0.288933
Si Si8 0.546563 0.219815 0.991980
O O1 0.169579 0.822031 0.616269
O O2 0.307861 0.975499 0.747736
O O3 0.549819 0.946711 0.687041
O O4 0.051641 0.183847 0.562311
O O5 0.662842 0.479487 0.408100
O O6 0.129709 0.366270 0.458014
O O7 0.156991 0.717552 0.101367
O O8 0.130627 0.883889 0.203787
O O9 0.738473 0.026366 0.011790
O O10 0.769155 0.731356 0.103489
O O11 0.505367 0.387356 0.172526
O O12 0.559701 0.193559 0.082014
O O13 0.002706 0.149654 0.257279
O O14 0.500000 0.500000 0.500000
O O15 0.639255 0.197442 0.617027
O O16 0.350495 0.624615 0.020824
O O17 0.000000 0.500000 0.000000
#
# Coordination Sequence:
#
# PCOD8007023 Si02
#       8
#     2   2   2   2   2   2   2   2
#     4  10  22  42  66  91 126 164 208 257 313 364
#     4   9  21  41  65  94 126 163 206 253 306 379
#     4  10  23  41  64  88 122 169 204 256 314 367
#     4  11  24  38  63  94 123 162 207 263 305 367
#     4  10  20  40  66  93 129 164 202 252 314 372
#     4  12  25  40  66  89 123 168 211 259 316 363
#     4  10  24  41  64  91 128 163 211 257 307 371
#     4  10  23  44  61  88 127 161 210 256 312 376
#
# _framework density 21.879325999999999
#
# number of rings (size 3 to 8) (size 9 to 14) (size 15 to 20)
#    0.000    1.750    1.250    1.500    5.250    4.000 
#    2.250    3.750    0.000    0.000    0.000    0.000 
#    0.000    0.000    0.000    0.000    0.000    0.000 
#
# Total GULP energy -198272.867318 kJ/mol
# GULP energy per Si atom -12392.054207 kJ/mol
# Density = 2.182953 g / cm^3
# Si number density = 21.879326 Si / 1000 Ang^3
#
#
#
# Elastic Constant Matrix: (Units=GPa)
#
#
# Indices 1 2 3 4 5 6 
#
# 1 126.2624 50.7763 55.1109 -7.6227 -1.1419 14.3258
# 2 50.7763 75.3164 24.3818 -0.4253 7.9617 5.0699
# 3 55.1109 24.3818 76.9132 -11.1601 3.7449 0.8898
# 4 -7.6227 -0.4253 -11.1601 25.4865 -3.0337 10.7072
# 5 -1.1419 7.9617 3.7449 -3.0337 36.1223 -10.2812
# 6 14.3258 5.0699 0.8898 10.7072 -10.2812 51.3379
#
#
#
# Elastic Compliance Matrix: (Units=1/GPa)
#
#
# Indices 1 2 3 4 5 6 
#
# 1 0.015025 -0.007502 -0.008092 0.002514 0.002213 -0.003393
# 2 -0.007502 0.019093 -0.000857 -0.002801 -0.004626 -0.000120
# 3 -0.008092 -0.000857 0.020004 0.005955 -0.001512 0.000451
# 4 0.002514 -0.002801 0.005955 0.046923 0.001150 -0.010084
# 5 0.002213 -0.004626 -0.001512 0.001150 0.030668 0.005768
# 6 -0.003393 -0.000120 0.000451 -0.010084 0.005768 0.023688
#
#
# Mechanical properties :
#
#
# Convention : Reuss Voigt Hill
#
# Bulk Modulus (GPa) = 47.12214 59.89220 53.50717
# Shear Modulus (GPa) = 25.59150 32.47089 29.03120
#
# Velocity S-wave (km/s) = 3.42375 3.85657 3.64659
# Velocity P-wave (km/s) = 6.10028 6.87489 6.49914
#
# Compressibility (1/GPa) = 0.02122145
#
# Stress axis : x y z
#
# Youngs Moduli (GPa) = 66.55370 52.37396 49.98968
#
# Poissons Ratio (x) = 0.39288 0.40451
# Poissons Ratio (y) = 0.49925 0.04286
# Poissons Ratio (z) = 0.53855 0.04490
#
# Static dielectric constant tensor:
#      x y z
#    x 4.177130 -0.073780 0.207270 
#    y -0.073780 3.996790 -0.280930 
#    z 0.207270 -0.280930 3.964080 
# 
# 
# High freq. dielectric constant tensor:
#      x y z
#    x 1.873530 -0.000830 0.015420 
#    y -0.000830 1.855120 -0.014810 
#    z 0.015420 -0.014810 1.846420 
# 
# From -- ./inp_files/581918.got.cif
#   From: 2010.06.25/outbox.cif.g09.slc.cpg/sg2_291_cif.got.tgz:581918.got - 2010.06.27 13:26:56.
