data_PCOD8007230
_publ_section_title
;
Structure prediction by ZEFSAII (Michael W. Deem and Ramdas Pophale) SiO2 
 PCOD8007230
Probable space group: P -1
;
_chemical_formula_sum "Si O2"
_cell_formula_units_Z 14
_cell_length_a 13.621460
_cell_length_b 9.006673
_cell_length_c 7.641118
_cell_angle_alpha 108.260157
_cell_angle_beta 43.794094
_cell_angle_gamma 101.625235
_cell_volume 615.671192
_symmetry_space_group_name_H-M "P -1"
_symmetry_group_IT_number 2
_symmetry_cell_setting 'triclinic'
loop_
_space_group_symop_operation_xyz
x,y,z
-x,-y,-z
loop_
_atom_site_type_symbol
_atom_site_label
_atom_site_fract_x
_atom_site_fract_y
_atom_site_fract_z
Si Si1 0.189033 0.197969 0.524797
Si Si2 0.985594 0.674432 0.512353
Si Si3 0.360262 0.907236 0.681136
Si Si4 0.751064 0.132492 0.804308
Si Si5 0.191745 0.191507 0.904231
Si Si6 0.483445 0.303200 0.105905
Si Si7 0.541550 0.636640 0.234250
O O1 0.116006 0.317441 0.524259
O O2 0.357878 0.216702 0.331783
O O3 0.164107 0.020590 0.432833
O O4 0.125751 0.230708 0.812445
O O5 0.926627 0.782041 0.785882
O O6 0.000000 0.500000 0.500000
O O7 0.138113 0.730336 0.274706
O O8 0.392860 0.730710 0.506339
O O9 0.500000 0.000000 0.500000
O O10 0.320535 0.904892 0.933731
O O11 0.235178 0.005491 0.778548
O O12 0.621836 0.188420 0.864998
O O13 0.325310 0.300428 0.808278
O O14 0.520968 0.453606 0.231908
O O15 0.424296 0.349308 0.009267
#
# Coordination Sequence:
#
# PCOD8007230 Si02
#       7
#     2   2   2   2   2   2   2
#     4  12  25  46  75 101 138 192 241 285 359 419
#     4  12  28  50  70 102 150 186 234 296 351 420
#     4  10  20  40  69 102 140 178 231 295 343 409
#     4  12  25  44  74 106 143 189 235 290 355 423
#     4  11  23  45  71  98 143 185 237 291 346 423
#     4  11  22  40  71 104 141 178 235 295 354 412
#     4  10  21  39  67 105 142 180 228 298 355 403
#
# _framework density 22.739408999999998
#
# number of rings (size 3 to 8) (size 9 to 14) (size 15 to 20)
#    0.000    0.857    2.857    5.143    2.000    4.571 
#    2.571    0.000    0.000    0.000    0.000    0.000 
#    0.000    0.000    0.000    0.000    0.000    0.000 
#
# Total GULP energy -173619.260323 kJ/mol
# GULP energy per Si atom -12401.375737 kJ/mol
# Density = 2.268765 g / cm^3
# Si number density = 22.739409 Si / 1000 Ang^3
#
#
#
# Elastic Constant Matrix: (Units=GPa)
#
#
# Indices 1 2 3 4 5 6 
#
# 1 114.7769 36.6205 43.7813 -4.4456 12.1521 -16.9698
# 2 36.6205 109.7568 20.3876 0.4124 -2.8218 -8.5425
# 3 43.7813 20.3876 107.0092 -8.2074 11.7496 -3.2151
# 4 -4.4456 0.4124 -8.2074 39.4898 2.3529 -6.6781
# 5 12.1521 -2.8218 11.7496 2.3529 43.1156 1.5188
# 6 -16.9698 -8.5425 -3.2151 -6.6781 1.5188 33.4142
#
#
#
# Elastic Compliance Matrix: (Units=1/GPa)
#
#
# Indices 1 2 3 4 5 6 
#
# 1 0.012364 -0.003055 -0.003853 0.001746 -0.002928 0.005609
# 2 -0.003055 0.010420 -0.000957 -0.000622 0.001809 0.000814
# 3 -0.003853 -0.000957 0.011479 0.001991 -0.002193 -0.000599
# 4 0.001746 -0.000622 0.001991 0.027202 -0.002788 0.006483
# 5 -0.002928 0.001809 -0.002193 -0.002788 0.024990 -0.002928
# 6 0.005609 0.000814 -0.000599 0.006483 -0.002928 0.034355
#
#
# Mechanical properties :
#
#
# Convention : Reuss Voigt Hill
#
# Bulk Modulus (GPa) = 53.95555 59.23575 56.59565
# Shear Modulus (GPa) = 35.03411 38.58747 36.81079
#
# Velocity S-wave (km/s) = 3.92941 4.12387 4.02781
# Velocity P-wave (km/s) = 6.66080 6.98437 6.82450
#
# Compressibility (1/GPa) = 0.01853378
#
# Stress axis : x y z
#
# Youngs Moduli (GPa) = 80.88191 95.96634 87.11501
#
# Poissons Ratio (x) = 0.29316 0.33561
# Poissons Ratio (y) = 0.24708 0.08340
# Poissons Ratio (z) = 0.31160 0.09187
#
# Static dielectric constant tensor:
#      x y z
#    x 3.948690 -0.194500 -0.019550 
#    y -0.194500 4.389440 0.251420 
#    z -0.019550 0.251420 4.262370 
# 
# 
# High freq. dielectric constant tensor:
#      x y z
#    x 1.887180 -0.012720 0.008110 
#    y -0.012720 1.898680 -0.000550 
#    z 0.008110 -0.000550 1.898980 
# 
# From -- ./inp_files/295939.got.cif
#   From: 2010.06.25/outbox.cif.g09.slc.cpg/sg2_148_cif.got.tgz:295939.got - 2010.06.27 13:26:56.
