data_PCOD8007641
_publ_section_title
;
Structure prediction by ZEFSAII (Michael W. Deem and Ramdas Pophale) SiO2 
 PCOD8007641
Probable space group: P -1
;
_chemical_formula_sum "Si O2"
_cell_formula_units_Z 16
_cell_length_a 9.060718
_cell_length_b 21.162220
_cell_length_c 12.030829
_cell_angle_alpha 41.693431
_cell_angle_beta 35.970364
_cell_angle_gamma 35.861027
_cell_volume 765.627927
_symmetry_space_group_name_H-M "P -1"
_symmetry_group_IT_number 2
_symmetry_cell_setting 'triclinic'
loop_
_space_group_symop_operation_xyz
x,y,z
-x,-y,-z
loop_
_atom_site_type_symbol
_atom_site_label
_atom_site_fract_x
_atom_site_fract_y
_atom_site_fract_z
Si Si1 0.127582 0.553074 0.434535
Si Si2 0.556753 0.206065 0.156605
Si Si3 0.228715 0.103054 0.086877
Si Si4 0.266392 0.425992 0.182665
Si Si5 0.654643 0.394144 0.197773
Si Si6 0.299504 0.935225 0.531261
Si Si7 0.873356 0.804859 0.199416
Si Si8 0.816950 0.830268 0.743397
O O1 0.474832 0.478499 0.298058
O O2 0.000000 0.500000 0.500000
O O3 0.052457 0.548975 0.615114
O O4 0.992595 0.681069 0.323734
O O5 0.412129 0.332930 0.121059
O O6 0.561639 0.127078 0.355408
O O7 0.356835 0.207232 0.178412
O O8 0.884231 0.161073 0.965016
O O9 0.345364 0.133176 0.085655
O O10 0.971565 0.080905 0.313686
O O11 0.122310 0.199146 0.933104
O O12 0.500000 0.000000 0.000000
O O13 0.471496 0.379497 0.230005
O O14 0.187229 0.547582 0.031867
O O15 0.859067 0.275293 0.287671
O O16 0.554575 0.888049 0.341896
O O17 0.169940 0.067234 0.453432
#
# Coordination Sequence:
#
# PCOD8007641 Si02
#       8
#     2   2   2   2   2   2   2   2
#     4  10  21  35  67  96 118 166 222 270 312 378
#     4  11  24  44  66  94 136 176 215 267 328 400
#     4  11  25  43  67 100 129 166 218 279 322 379
#     4  10  20  41  66  93 125 172 219 262 324 386
#     4  10  22  40  64  94 128 165 221 271 315 382
#     4  11  24  46  70  93 130 175 223 265 322 396
#     4  11  22  43  70  93 130 174 221 267 327 384
#     4  12  26  43  64 100 137 171 213 275 334 384
#
# _framework density 20.897879
#
# number of rings (size 3 to 8) (size 9 to 14) (size 15 to 20)
#    0.000    1.250    3.750    2.250    5.250    1.000 
#    2.250    0.625    0.000    0.000    0.000    0.000 
#    0.000    0.000    0.000    0.000    0.000    0.000 
#
# Total GULP energy -198250.436746 kJ/mol
# GULP energy per Si atom -12390.652297 kJ/mol
# Density = 2.085031 g / cm^3
# Si number density = 20.897879 Si / 1000 Ang^3
#
#
#
# Elastic Constant Matrix: (Units=GPa)
#
#
# Indices 1 2 3 4 5 6 
#
# 1 97.9122 26.2203 23.6768 3.0313 1.7695 16.2262
# 2 26.2203 123.5738 46.3688 -2.7886 0.2189 6.6610
# 3 23.6768 46.3688 130.2678 10.0027 4.6095 6.7289
# 4 3.0313 -2.7886 10.0027 42.3515 -4.3136 5.8209
# 5 1.7695 0.2189 4.6095 -4.3136 11.4783 -3.0687
# 6 16.2262 6.6610 6.7289 5.8209 -3.0687 19.3768
#
#
#
# Elastic Compliance Matrix: (Units=1/GPa)
#
#
# Indices 1 2 3 4 5 6 
#
# 1 0.012726 -0.001742 -0.001021 0.000220 -0.004227 -0.010439
# 2 -0.001742 0.009807 -0.003331 0.001887 0.001854 -0.001029
# 3 -0.001021 -0.003331 0.009497 -0.002720 -0.004953 -0.001265
# 4 0.000220 0.001887 -0.002720 0.026162 0.009171 -0.006295
# 5 -0.004227 0.001854 -0.004953 0.009171 0.097814 0.017358
# 6 -0.010439 -0.001029 -0.001265 -0.006295 0.017358 0.065783
#
#
# Mechanical properties :
#
#
# Convention : Reuss Voigt Hill
#
# Bulk Modulus (GPa) = 50.40000 60.47617 55.43809
# Shear Modulus (GPa) = 20.78206 31.67384 26.22795
#
# Velocity S-wave (km/s) = 3.15692 3.89736 3.54652
# Velocity P-wave (km/s) = 6.12028 7.01814 6.58453
#
# Compressibility (1/GPa) = 0.01984127
#
# Stress axis : x y z
#
# Youngs Moduli (GPa) = 78.57816 101.96995 105.29189
#
# Poissons Ratio (x) = 0.17763 0.10751
# Poissons Ratio (y) = 0.13688 0.35078
# Poissons Ratio (z) = 0.08023 0.33971
#
# Static dielectric constant tensor:
#      x y z
#    x -0.887840 -1.445510 -2.313440 
#    y -1.445510 3.661060 -0.581320 
#    z -2.313440 -0.581320 2.895830 
# 
# 
# High freq. dielectric constant tensor:
#      x y z
#    x 1.780240 0.001660 0.011570 
#    y 0.001660 1.832070 -0.002960 
#    z 0.011570 -0.002960 1.836160 
# 
# From -- ./inp_files/405360.got.cif
#   From: 2010.06.25/outbox.cif.g09.slc.cpg/sg2_203_cif.got.tgz:405360.got - 2010.06.27 13:26:56.
