data_PCOD8007068
_publ_section_title
;
Structure prediction by ZEFSAII (Michael W. Deem and Ramdas Pophale) SiO2 
 PCOD8007068
Probable space group: P -1
;
_chemical_formula_sum "Si O2"
_cell_formula_units_Z 16
_cell_length_a 9.453403
_cell_length_b 9.050117
_cell_length_c 11.783239
_cell_angle_alpha 60.188188
_cell_angle_beta 108.115631
_cell_angle_gamma 123.468655
_cell_volume 728.720303
_symmetry_space_group_name_H-M "P -1"
_symmetry_group_IT_number 2
_symmetry_cell_setting 'triclinic'
loop_
_space_group_symop_operation_xyz
x,y,z
-x,-y,-z
loop_
_atom_site_type_symbol
_atom_site_label
_atom_site_fract_x
_atom_site_fract_y
_atom_site_fract_z
Si Si1 0.305560 0.412713 0.002772
Si Si2 0.283470 0.740993 0.796624
Si Si3 0.607032 0.792394 0.719206
Si Si4 0.053958 0.433514 0.364476
Si Si5 0.100843 0.797020 0.359849
Si Si6 0.877904 0.872668 0.115607
Si Si7 0.594042 0.920806 0.136123
Si Si8 0.590265 0.506751 0.638225
O O1 0.266220 0.255643 0.152240
O O2 0.500000 0.500000 0.000000
O O3 0.263372 0.588006 0.951769
O O4 0.224123 0.336829 0.887878
O O5 0.428123 0.752342 0.742484
O O6 0.100409 0.659530 0.725899
O O7 0.343148 0.951624 0.783065
O O8 0.565338 0.664172 0.644939
O O9 0.715394 0.022513 0.633242
O O10 0.121085 0.660623 0.322193
O O11 0.210196 0.413665 0.360549
O O12 0.988975 0.315451 0.507863
O O13 0.974755 0.868986 0.252824
O O14 0.754397 0.956195 0.087887
O O15 0.000000 0.000000 0.000000
O O16 0.487476 0.697226 0.235207
O O17 0.500000 0.000000 0.000000
O O18 0.500000 0.500000 0.500000
#
# Coordination Sequence:
#
# PCOD8007068 Si02
#       8
#     2   2   2   2   2   2   2   2
#     4  10  20  40  66  98 135 180 227 278 347 413
#     4  11  24  43  72 104 140 183 236 288 350 410
#     4  11  24  44  71  98 139 188 230 285 356 423
#     4  11  27  44  71 103 139 181 238 296 338 422
#     4  11  25  45  70 100 141 182 238 285 356 415
#     4  12  24  43  71 102 139 184 230 288 351 413
#     4  12  27  47  71 106 146 185 238 292 348 421
#     4  12  29  49  72 103 145 186 235 288 361 420
#
# _framework density 21.956299999999999
#
# number of rings (size 3 to 8) (size 9 to 14) (size 15 to 20)
#    0.000    0.750    2.500    5.250    8.750    1.000 
#    0.000    1.875    0.000    0.000    0.000    0.000 
#    0.000    0.000    0.000    0.000    0.000    0.000 
#
# Total GULP energy -198326.561836 kJ/mol
# GULP energy per Si atom -12395.410115 kJ/mol
# Density = 2.190633 g / cm^3
# Si number density = 21.956300 Si / 1000 Ang^3
#
#
#
# Elastic Constant Matrix: (Units=GPa)
#
#
# Indices 1 2 3 4 5 6 
#
# 1 123.9343 38.6667 31.6362 -4.8007 -3.2848 13.2708
# 2 38.6667 157.9648 31.7698 2.2804 -6.7325 7.2510
# 3 31.6362 31.7698 100.2087 2.1044 9.4186 13.0086
# 4 -4.8007 2.2804 2.1044 32.7927 0.2538 1.8177
# 5 -3.2848 -6.7325 9.4186 0.2538 31.1584 8.9936
# 6 13.2708 7.2510 13.0086 1.8177 8.9936 30.9307
#
#
#
# Elastic Compliance Matrix: (Units=1/GPa)
#
#
# Indices 1 2 3 4 5 6 
#
# 1 0.009705 -0.001666 -0.002333 0.001867 0.002391 -0.003597
# 2 -0.001666 0.007252 -0.001862 -0.000601 0.002191 -0.000804
# 3 -0.002333 -0.001862 0.011983 -0.000814 -0.003535 -0.002527
# 4 0.001867 -0.000601 -0.000814 0.030987 0.000740 -0.002354
# 5 0.002391 0.002191 -0.003535 0.000740 0.037017 -0.010860
# 6 -0.003597 -0.000804 -0.002527 -0.002354 -0.010860 0.038421
#
#
# Mechanical properties :
#
#
# Convention : Reuss Voigt Hill
#
# Bulk Modulus (GPa) = 58.07814 65.13924 61.60869
# Shear Modulus (GPa) = 32.71703 37.64538 35.18121
#
# Velocity S-wave (km/s) = 3.86437 4.14522 4.00725
# Velocity P-wave (km/s) = 6.81324 7.25552 7.03785
#
# Compressibility (1/GPa) = 0.01721818
#
# Stress axis : x y z
#
# Youngs Moduli (GPa) = 103.03942 137.89574 83.45000
#
# Poissons Ratio (x) = 0.22979 0.19465
# Poissons Ratio (y) = 0.17170 0.15538
# Poissons Ratio (z) = 0.24035 0.25676
#
# Static dielectric constant tensor:
#      x y z
#    x 3.826350 -0.021260 -0.296600 
#    y -0.021260 4.321500 -0.279540 
#    z -0.296600 -0.279540 2.860510 
# 
# 
# High freq. dielectric constant tensor:
#      x y z
#    x 1.862180 0.006190 0.008020 
#    y 0.006190 1.882860 -0.002800 
#    z 0.008020 -0.002800 1.869220 
# 
# From -- ./inp_files/189555.got.cif
#   From: 2010.06.25/outbox.cif.g09.slc.cpg/sg2_95_cif.got.tgz:189555.got - 2010.06.27 13:26:56.
