data_PCOD8007597
_publ_section_title
;
Structure prediction by ZEFSAII (Michael W. Deem and Ramdas Pophale) SiO2 
 PCOD8007597
Probable space group: P -1
;
_chemical_formula_sum "Si O2"
_cell_formula_units_Z 14
_cell_length_a 9.529529
_cell_length_b 20.053433
_cell_length_c 8.153582
_cell_angle_alpha 147.935373
_cell_angle_beta 45.572047
_cell_angle_gamma 122.715037
_cell_volume 584.967723
_symmetry_space_group_name_H-M "P -1"
_symmetry_group_IT_number 2
_symmetry_cell_setting 'triclinic'
loop_
_space_group_symop_operation_xyz
x,y,z
-x,-y,-z
loop_
_atom_site_type_symbol
_atom_site_label
_atom_site_fract_x
_atom_site_fract_y
_atom_site_fract_z
Si Si1 0.231082 0.700298 0.538014
Si Si2 0.117620 0.194322 0.740057
Si Si3 0.772610 0.547861 0.809940
Si Si4 0.970941 0.682219 0.398413
Si Si5 0.499436 0.902234 0.650672
Si Si6 0.716439 0.499371 0.390463
Si Si7 0.838339 0.938921 0.902332
O O1 0.318342 0.553029 0.205938
O O2 0.093260 0.710746 0.516008
O O3 0.413492 0.775810 0.516454
O O4 0.102156 0.762537 0.925226
O O5 0.263866 0.139504 0.659073
O O6 0.099062 0.087637 0.394699
O O7 0.226967 0.311181 0.820216
O O8 0.679369 0.552411 0.714046
O O9 0.000000 0.500000 0.500000
O O10 0.822095 0.584632 0.357367
O O11 0.822893 0.805293 0.719949
O O12 0.134601 0.634905 0.022811
O O13 0.500000 0.000000 0.000000
O O14 0.374161 0.967969 0.734748
O O15 0.500000 0.500000 0.500000
O O16 0.000000 0.000000 0.000000
#
# Coordination Sequence:
#
# PCOD8007597 Si02
#       7
#     2   2   2   2   2   2   2
#     4  11  22  41  70  95 125 176 209 256 332 379
#     4  10  23  42  68  91 133 161 216 271 312 385
#     4  10  20  41  65  98 127 165 209 256 329 391
#     4  11  23  42  67  92 134 168 208 263 324 378
#     4  10  24  43  63  94 128 167 224 261 306 378
#     4  11  25  41  66 100 133 162 208 267 327 382
#     4  11  23  43  66  92 127 176 215 263 317 371
#
# _framework density 23.932943000000002
#
# number of rings (size 3 to 8) (size 9 to 14) (size 15 to 20)
#    0.000    1.429    4.286    1.714    4.000    5.143 
#    0.000    2.143    0.000    0.000    0.000    0.000 
#    0.000    0.000    0.000    0.000    0.000    0.000 
#
# Total GULP energy -173433.098585 kJ/mol
# GULP energy per Si atom -12388.078470 kJ/mol
# Density = 2.387847 g / cm^3
# Si number density = 23.932943 Si / 1000 Ang^3
#
#
#
# Elastic Constant Matrix: (Units=GPa)
#
#
# Indices 1 2 3 4 5 6 
#
# 1 151.1804 23.3054 28.8755 1.9487 -4.4055 10.6420
# 2 23.3054 63.8381 18.3136 7.0297 -3.9880 3.6332
# 3 28.8755 18.3136 66.5114 10.8646 -3.5362 4.7015
# 4 1.9487 7.0297 10.8646 29.1145 -5.5652 -0.1317
# 5 -4.4055 -3.9880 -3.5362 -5.5652 49.8692 6.0783
# 6 10.6420 3.6332 4.7015 -0.1317 6.0783 33.7102
#
#
#
# Elastic Compliance Matrix: (Units=1/GPa)
#
#
# Indices 1 2 3 4 5 6 
#
# 1 0.007583 -0.001946 -0.002767 0.001116 0.000676 -0.001916
# 2 -0.001946 0.017783 -0.003497 -0.002706 0.000819 -0.000973
# 3 -0.002767 -0.003497 0.018248 -0.005729 0.000298 -0.001371
# 4 0.001116 -0.002706 -0.005729 0.037765 0.003663 0.000226
# 5 0.000676 0.000819 0.000298 0.003663 0.021112 -0.004135
# 6 -0.001916 -0.000973 -0.001371 0.000226 -0.004135 0.031312
#
#
# Mechanical properties :
#
#
# Convention : Reuss Voigt Hill
#
# Bulk Modulus (GPa) = 36.77425 46.94654 41.86040
# Shear Modulus (GPa) = 31.38967 36.60781 33.99874
#
# Velocity S-wave (km/s) = 3.62549 3.91525 3.77315
# Velocity P-wave (km/s) = 5.73798 6.33225 6.04243
#
# Compressibility (1/GPa) = 0.02719294
#
# Stress axis : x y z
#
# Youngs Moduli (GPa) = 131.86780 56.23387 54.80089
#
# Poissons Ratio (x) = 0.10944 0.15165
# Poissons Ratio (y) = 0.25664 0.19165
# Poissons Ratio (z) = 0.36491 0.19666
#
# Static dielectric constant tensor:
#      x y z
#    x 4.583060 0.256700 -0.396360 
#    y 0.256700 6.208720 0.174710 
#    z -0.396360 0.174710 5.323460 
# 
# 
# High freq. dielectric constant tensor:
#      x y z
#    x 1.969600 0.007260 -0.011140 
#    y 0.007260 1.914440 0.022680 
#    z -0.011140 0.022680 1.959060 
# 
# From -- ./inp_files/224313.got.cif
#   From: 2010.06.25/outbox.cif.g09.slc.cpg/sg2_113_cif.got.tgz:224313.got - 2010.06.27 13:26:56.
