data_PCOD8007715
_publ_section_title
;
Structure prediction by ZEFSAII (Michael W. Deem and Ramdas Pophale) SiO2 
 PCOD8007715
Probable space group: P -1
;
_chemical_formula_sum "Si O2"
_cell_formula_units_Z 14
_cell_length_a 8.777881
_cell_length_b 8.282706
_cell_length_c 25.198621
_cell_angle_alpha 140.572387
_cell_angle_beta 32.569421
_cell_angle_gamma 129.016399
_cell_volume 625.130534
_symmetry_space_group_name_H-M "P -1"
_symmetry_group_IT_number 2
_symmetry_cell_setting 'triclinic'
loop_
_space_group_symop_operation_xyz
x,y,z
-x,-y,-z
loop_
_atom_site_type_symbol
_atom_site_label
_atom_site_fract_x
_atom_site_fract_y
_atom_site_fract_z
Si Si1 0.749983 0.538307 0.397176
Si Si2 0.873020 0.077455 0.500127
Si Si3 0.294183 0.421058 0.277651
Si Si4 0.671704 0.231032 0.027482
Si Si5 0.280901 0.054503 0.280968
Si Si6 0.359535 0.490995 0.095194
Si Si7 0.132044 0.856728 0.825272
O O1 0.500000 0.500000 0.500000
O O2 0.716240 0.337177 0.309848
O O3 0.055531 0.479214 0.318436
O O4 0.718502 0.833115 0.460975
O O5 0.658067 0.325747 0.636634
O O6 0.000000 0.000000 0.500000
O O7 0.113293 0.160241 0.409217
O O8 0.576819 0.332335 0.139643
O O9 0.187015 0.205178 0.293541
O O10 0.606251 0.442528 0.055084
O O11 0.500000 0.000000 0.000000
O O12 0.002251 0.125921 0.906470
O O13 0.203107 0.762695 0.223643
O O14 0.620443 0.077859 0.190658
O O15 0.127742 0.279303 0.105771
O O16 0.500000 0.500000 0.000000
#
# Coordination Sequence:
#
# PCOD8007715 Si02
#       7
#     2   2   2   2   2   2   2
#     4  11  22  43  69  94 128 179 225 267 335 401
#     4  10  21  42  65  92 132 173 217 276 330 383
#     4  11  22  41  68  94 135 174 219 279 331 387
#     4  10  20  41  67  92 132 176 214 272 331 386
#     4  12  24  42  67 102 135 172 222 280 329 387
#     4  11  23  41  66  97 138 174 220 277 329 385
#     4  11  23  43  67  96 134 175 226 263 331 406
#
# _framework density 22.395322
#
# number of rings (size 3 to 8) (size 9 to 14) (size 15 to 20)
#    0.000    1.143    4.286    4.714    0.000    2.857 
#    2.571    4.286    0.000    0.000    0.000    0.000 
#    0.000    0.000    0.000    0.000    0.000    0.000 
#
# Total GULP energy -173536.766050 kJ/mol
# GULP energy per Si atom -12395.483289 kJ/mol
# Density = 2.234435 g / cm^3
# Si number density = 22.395322 Si / 1000 Ang^3
#
#
#
# Elastic Constant Matrix: (Units=GPa)
#
#
# Indices 1 2 3 4 5 6 
#
# 1 45.4970 19.8968 16.4390 -0.2106 18.2767 -13.7629
# 2 19.8968 83.8954 34.0727 6.9946 2.3467 -16.4381
# 3 16.4390 34.0727 122.2121 11.9617 31.4980 -1.3294
# 4 -0.2106 6.9946 11.9617 48.4617 -6.6050 -1.0778
# 5 18.2767 2.3467 31.4980 -6.6050 33.0900 -12.0839
# 6 -13.7629 -16.4381 -1.3294 -1.0778 -12.0839 37.9662
#
#
#
# Elastic Compliance Matrix: (Units=1/GPa)
#
#
# Indices 1 2 3 4 5 6 
#
# 1 0.033208 -0.008080 0.003368 -0.002298 -0.020702 0.002003
# 2 -0.008080 0.018254 -0.007672 0.001353 0.014114 0.009236
# 3 0.003368 -0.007672 0.015543 -0.005651 -0.020217 -0.008151
# 4 -0.002298 0.001353 -0.005651 0.023673 0.012855 0.004318
# 5 -0.020702 0.014114 -0.020217 0.012855 0.069962 0.020531
# 6 0.002003 0.009236 -0.008151 0.004318 0.020531 0.037436
#
#
# Mechanical properties :
#
#
# Convention : Reuss Voigt Hill
#
# Bulk Modulus (GPa) = 23.67607 43.60239 33.63923
# Shear Modulus (GPa) = 21.10396 35.98329 28.54362
#
# Velocity S-wave (km/s) = 3.07308 4.01276 3.57394
# Velocity P-wave (km/s) = 4.81525 6.40166 5.66427
#
# Compressibility (1/GPa) = 0.04223674
#
# Stress axis : x y z
#
# Youngs Moduli (GPa) = 30.11339 54.78278 64.33646
#
# Poissons Ratio (x) = 0.44267 -0.21671
# Poissons Ratio (y) = 0.24333 0.49359
# Poissons Ratio (z) = -0.10143 0.42029
#
# Static dielectric constant tensor:
#      x y z
#    x 4.006150 -0.138100 0.157870 
#    y -0.138100 4.389100 0.527250 
#    z 0.157870 0.527250 4.493500 
# 
# 
# High freq. dielectric constant tensor:
#      x y z
#    x 1.858790 -0.011900 0.017940 
#    y -0.011900 1.883390 0.019080 
#    z 0.017940 0.019080 1.896120 
# 
# From -- ./inp_files/185502.got.cif
#   From: 2010.06.25/outbox.cif.g09.slc.cpg/sg2_93_cif.got.tgz:185502.got - 2010.06.27 13:26:56.
