data_PCOD8007601
_publ_section_title
;
Structure prediction by ZEFSAII (Michael W. Deem and Ramdas Pophale) SiO2 
 PCOD8007601
Probable space group: P -1
;
_chemical_formula_sum "Si O2"
_cell_formula_units_Z 12
_cell_length_a 9.289711
_cell_length_b 7.470870
_cell_length_c 15.300105
_cell_angle_alpha 34.491242
_cell_angle_beta 64.735763
_cell_angle_gamma 76.991428
_cell_volume 526.897339
_symmetry_space_group_name_H-M "P -1"
_symmetry_group_IT_number 2
_symmetry_cell_setting 'triclinic'
loop_
_space_group_symop_operation_xyz
x,y,z
-x,-y,-z
loop_
_atom_site_type_symbol
_atom_site_label
_atom_site_fract_x
_atom_site_fract_y
_atom_site_fract_z
Si Si1 0.056527 0.846226 0.801471
Si Si2 0.478846 0.833572 0.329171
Si Si3 0.891563 0.220895 0.580481
Si Si4 0.017885 0.328009 0.767237
Si Si5 0.726943 0.849101 0.108691
Si Si6 0.401689 0.794572 0.686053
O O1 0.232113 0.899121 0.690761
O O2 0.929470 0.885006 0.741003
O O3 0.073217 0.108773 0.767521
O O4 0.000000 0.500000 0.000000
O O5 0.500000 0.500000 0.500000
O O6 0.299316 0.792679 0.351846
O O7 0.610276 0.944098 0.173381
O O8 0.504899 0.115937 0.282100
O O9 0.000000 0.500000 0.500000
O O10 0.950698 0.308430 0.429113
O O11 0.138666 0.335101 0.814838
O O12 0.826932 0.182657 0.901702
O O13 0.622335 0.593285 0.168740
O O14 0.500000 0.000000 0.500000
#
# Coordination Sequence:
#
# PCOD8007601 Si02
#       6
#     2   2   2   2   2   2
#     4  11  22  43  68  96 135 175 222 281 329 395
#     4  12  21  42  67  98 137 176 219 279 334 392
#     4  10  22  41  70  96 130 180 223 270 338 396
#     4  10  20  41  65  99 131 176 224 265 332 399
#     4  11  22  37  71  98 132 178 222 266 336 397
#     4  12  23  38  68  99 129 178 224 269 336 397
#
# _framework density 22.774836000000001
#
# number of rings (size 3 to 8) (size 9 to 14) (size 15 to 20)
#    0.000    1.000    6.667    1.000    0.000    0.000 
#    0.000    9.167    0.000    0.000    0.000    0.000 
#    0.000    0.000    0.000    0.000    0.000    0.000 
#
# Total GULP energy -148783.755469 kJ/mol
# GULP energy per Si atom -12398.646289 kJ/mol
# Density = 2.272300 g / cm^3
# Si number density = 22.774836 Si / 1000 Ang^3
#
#
#
# Elastic Constant Matrix: (Units=GPa)
#
#
# Indices 1 2 3 4 5 6 
#
# 1 134.6236 30.4313 53.2116 7.0537 -10.9794 -12.2503
# 2 30.4313 99.1624 42.2860 28.1975 -19.2579 10.0103
# 3 53.2116 42.2860 153.3391 28.4528 -3.5378 -22.9157
# 4 7.0537 28.1975 28.4528 40.5671 -11.6642 -13.8359
# 5 -10.9794 -19.2579 -3.5378 -11.6642 44.9253 0.8094
# 6 -12.2503 10.0103 -22.9157 -13.8359 0.8094 39.4701
#
#
#
# Elastic Compliance Matrix: (Units=1/GPa)
#
#
# Indices 1 2 3 4 5 6 
#
# 1 0.009369 -0.002855 -0.002632 0.003891 0.001807 0.003431
# 2 -0.002855 0.017827 -0.003270 -0.012578 0.003633 -0.011789
# 3 -0.002632 -0.003270 0.009525 -0.003029 -0.002163 0.004525
# 4 0.003891 -0.012578 -0.003029 0.042521 0.006047 0.017421
# 5 0.001807 0.003633 -0.002163 0.006047 0.025658 -0.000023
# 6 0.003431 -0.011789 0.004525 0.017421 -0.000023 0.038125
#
#
# Mechanical properties :
#
#
# Convention : Reuss Voigt Hill
#
# Bulk Modulus (GPa) = 52.05856 70.99813 61.52834
# Shear Modulus (GPa) = 29.95081 42.40558 36.17819
#
# Velocity S-wave (km/s) = 3.63034 4.31971 3.98994
# Velocity P-wave (km/s) = 6.36239 7.49143 6.94988
#
# Compressibility (1/GPa) = 0.01920914
#
# Stress axis : x y z
#
# Youngs Moduli (GPa) = 106.73105 56.09414 104.99039
#
# Poissons Ratio (x) = 0.16014 0.27629
# Poissons Ratio (y) = 0.30470 0.34328
# Poissons Ratio (z) = 0.28087 0.18340
#
# Static dielectric constant tensor:
#      x y z
#    x 3.985660 0.330810 -0.159520 
#    y 0.330810 4.103050 0.309410 
#    z -0.159520 0.309410 4.512410 
# 
# 
# High freq. dielectric constant tensor:
#      x y z
#    x 1.890550 0.012410 -0.017070 
#    y 0.012410 1.890120 0.020810 
#    z -0.017070 0.020810 1.903660 
# 
# From -- ./inp_files/553980.got.cif
#   From: 2010.06.25/outbox.cif.g09.slc.cpg/sg2_277_cif.got.tgz:553980.got - 2010.06.27 13:26:56.
