data_PCOD8007171
_publ_section_title
;
Structure prediction by ZEFSAII (Michael W. Deem and Ramdas Pophale) SiO2 
 PCOD8007171
Probable space group: P -1
;
_chemical_formula_sum "Si O2"
_cell_formula_units_Z 14
_cell_length_a 17.346621
_cell_length_b 11.624670
_cell_length_c 8.235227
_cell_angle_alpha 108.176217
_cell_angle_beta 75.693834
_cell_angle_gamma 159.231656
_cell_volume 554.541836
_symmetry_space_group_name_H-M "P -1"
_symmetry_group_IT_number 2
_symmetry_cell_setting 'triclinic'
loop_
_space_group_symop_operation_xyz
x,y,z
-x,-y,-z
loop_
_atom_site_type_symbol
_atom_site_label
_atom_site_fract_x
_atom_site_fract_y
_atom_site_fract_z
Si Si1 0.645285 0.898464 0.330123
Si Si2 0.766922 0.835366 0.770287
Si Si3 0.628823 0.300296 0.423207
Si Si4 0.205976 0.335345 0.825246
Si Si5 0.637066 0.236856 0.881198
Si Si6 0.885792 0.037819 0.433569
Si Si7 0.068816 0.706155 0.941334
O O1 0.463831 0.542956 0.216887
O O2 0.540394 0.864399 0.455135
O O3 0.815283 0.072589 0.438895
O O4 0.777194 0.130400 0.206278
O O5 0.779615 0.848514 0.574921
O O6 0.952995 0.014054 0.826083
O O7 0.789760 0.004674 0.892104
O O8 0.683918 0.451615 0.298266
O O9 0.849680 0.588299 0.535523
O O10 0.503699 0.995780 0.309473
O O11 0.208442 0.192730 0.752322
O O12 0.322076 0.559564 0.024622
O O13 0.865941 0.488878 0.870342
O O14 0.500000 0.000000 0.000000
O O15 0.000000 0.500000 0.000000
#
# Coordination Sequence:
#
# PCOD8007171 Si02
#       7
#     2   2   2   2   2   2   2
#     4  12  24  41  73 110 137 182 243 290 348 421
#     4  10  20  42  71 103 143 182 232 289 350 418
#     4  10  20  40  68 104 147 182 227 291 349 415
#     4   9  17  38  69 102 141 185 231 279 350 426
#     4   9  21  42  68  94 140 191 227 278 357 422
#     4  11  21  39  74 108 139 178 235 291 345 422
#     4  11  27  47  65 100 146 188 236 290 357 424
#
# _framework density 25.246065000000002
#
# number of rings (size 3 to 8) (size 9 to 14) (size 15 to 20)
#    0.000    1.714    2.857    2.571    2.000    1.714 
#    2.571    3.571    0.000    0.000    0.000    0.000 
#    0.000    0.000    0.000    0.000    0.000    0.000 
#
# Total GULP energy -173589.048591 kJ/mol
# GULP energy per Si atom -12399.217757 kJ/mol
# Density = 2.518860 g / cm^3
# Si number density = 25.246065 Si / 1000 Ang^3
#
#
#
# Elastic Constant Matrix: (Units=GPa)
#
#
# Indices 1 2 3 4 5 6 
#
# 1 69.6154 41.0526 36.3459 1.1121 -5.4644 8.3902
# 2 41.0526 143.0475 82.3175 0.2705 -11.4074 7.2483
# 3 36.3459 82.3175 105.3532 33.8253 -35.6501 9.3585
# 4 1.1121 0.2705 33.8253 48.3099 2.0782 -12.9099
# 5 -5.4644 -11.4074 -35.6501 2.0782 18.6792 -8.5587
# 6 8.3902 7.2483 9.3585 -12.9099 -8.5587 27.4213
#
#
#
# Elastic Compliance Matrix: (Units=1/GPa)
#
#
# Indices 1 2 3 4 5 6 
#
# 1 0.016878 -0.007692 0.007130 -0.007239 0.012302 -0.005133
# 2 -0.007692 0.000569 0.020436 -0.015834 0.038810 -0.000113
# 3 0.007130 0.020436 -0.051436 0.039890 -0.087360 0.001485
# 4 -0.007239 -0.015834 0.039890 -0.006932 0.070381 0.011490
# 5 0.012302 0.038810 -0.087360 0.070381 -0.083206 0.022957
# 6 -0.005133 -0.000113 0.001485 0.011490 0.022957 0.050136
#
#
# Mechanical properties :
#
#
# Convention : Reuss Voigt Hill
#
# Bulk Modulus (GPa) = 173.65943 70.82758 122.24350
# Shear Modulus (GPa) = -44.71501 29.43540 -7.63980
#
# Velocity S-wave (km/s) = -4.21309 3.41829 -1.74147
# Velocity P-wave (km/s) = 6.72824 6.61025 6.66951
#
# Compressibility (1/GPa) = 0.00575840
#
# Stress axis : x y z
#
# Youngs Moduli (GPa) = 59.24897 1757.70065 -19.44169
#
# Poissons Ratio (x) = 13.52027 0.13862
# Poissons Ratio (y) = 0.45574 0.39730
# Poissons Ratio (z) = -0.42245 -35.91973
#
# Static dielectric constant tensor:
#      x y z
#    x 4.217320 0.109170 -0.276160 
#    y 0.109170 4.885860 0.307590 
#    z -0.276160 0.307590 4.880660 
# 
# 
# High freq. dielectric constant tensor:
#      x y z
#    x 1.988120 0.002690 -0.018350 
#    y 0.002690 2.024940 0.001100 
#    z -0.018350 0.001100 2.011540 
# 
# From -- ./inp_files/333514.got.cif
#   From: 2010.06.25/outbox.cif.g09.slc.cpg/sg2_167_cif.got.tgz:333514.got - 2010.06.27 13:26:56.
