data_PCOD8007108
_publ_section_title
;
Structure prediction by ZEFSAII (Michael W. Deem and Ramdas Pophale) SiO2 
 PCOD8007108
Probable space group: P -1
;
_chemical_formula_sum "Si O2"
_cell_formula_units_Z 16
_cell_length_a 21.590986
_cell_length_b 7.750834
_cell_length_c 9.054716
_cell_angle_alpha 146.418068
_cell_angle_beta 74.222192
_cell_angle_gamma 114.137186
_cell_volume 757.739592
_symmetry_space_group_name_H-M "P -1"
_symmetry_group_IT_number 2
_symmetry_cell_setting 'triclinic'
loop_
_space_group_symop_operation_xyz
x,y,z
-x,-y,-z
loop_
_atom_site_type_symbol
_atom_site_label
_atom_site_fract_x
_atom_site_fract_y
_atom_site_fract_z
Si Si1 0.645995 0.643691 0.835826
Si Si2 0.159026 0.153165 0.528896
Si Si3 0.549758 0.327316 0.912051
Si Si4 0.922249 0.964235 0.004631
Si Si5 0.922311 0.378509 0.014780
Si Si6 0.262694 0.677331 0.628310
Si Si7 0.842545 0.223161 0.458023
Si Si8 0.497036 0.558084 0.372428
O O1 0.624378 0.503363 0.916321
O O2 0.690116 0.444868 0.595461
O O3 0.580512 0.605765 0.749571
O O4 0.690996 0.028472 0.088922
O O5 0.221306 0.392821 0.565272
O O6 0.125526 0.808004 0.220271
O O7 0.187136 0.054719 0.593788
O O8 0.099758 0.310766 0.704252
O O9 0.524079 0.949455 0.607247
O O10 0.500000 0.500000 0.000000
O O11 0.546597 0.389067 0.134774
O O12 0.905666 0.156508 0.290527
O O13 0.871198 0.586659 0.770080
O O14 0.910229 0.124156 0.974987
O O15 0.000000 0.000000 0.000000
O O16 0.000000 0.500000 0.000000
O O17 0.215007 0.810174 0.650806
O O18 0.500000 0.500000 0.500000
#
# Coordination Sequence:
#
# PCOD8007108 Si02
#       8
#     2   2   2   2   2   2   2   2
#     4  11  23  42  69  93 129 179 217 253 323 395
#     4  12  25  45  66  92 133 171 218 274 333 387
#     4  10  20  40  67  92 128 171 208 257 317 375
#     4  12  23  42  67  98 128 165 221 277 335 401
#     4  12  23  42  67  98 128 166 216 281 340 393
#     4  12  24  45  66  93 137 177 221 264 323 399
#     4  12  25  45  66  93 129 175 218 272 332 391
#     4  11  22  41  68 103 138 161 211 278 323 365
#
# _framework density 21.115431999999998
#
# number of rings (size 3 to 8) (size 9 to 14) (size 15 to 20)
#    0.000    0.500    2.500    8.625    0.000    0.000 
#    6.750    0.000    0.000    0.000    0.000    0.000 
#    0.000    0.000    0.000    0.000    0.000    0.000 
#
# Total GULP energy -198450.923359 kJ/mol
# GULP energy per Si atom -12403.182710 kJ/mol
# Density = 2.106737 g / cm^3
# Si number density = 21.115432 Si / 1000 Ang^3
#
#
#
# Elastic Constant Matrix: (Units=GPa)
#
#
# Indices 1 2 3 4 5 6 
#
# 1 77.8518 52.9164 23.8422 -6.4818 1.4196 -3.2904
# 2 52.9164 181.3408 48.7789 -15.4347 -2.3295 14.5651
# 3 23.8422 48.7789 117.6479 -2.7930 -2.9242 16.0459
# 4 -6.4818 -15.4347 -2.7930 45.1087 7.4391 0.7770
# 5 1.4196 -2.3295 -2.9242 7.4391 40.2914 -6.9182
# 6 -3.2904 14.5651 16.0459 0.7770 -6.9182 45.5011
#
#
#
# Elastic Compliance Matrix: (Units=1/GPa)
#
#
# Indices 1 2 3 4 5 6 
#
# 1 0.016759 -0.004573 -0.001941 0.000762 -0.000577 0.003260
# 2 -0.004573 0.007706 -0.001930 0.001942 -0.000268 -0.002191
# 3 -0.001941 -0.001930 0.010108 -0.000298 0.000222 -0.003048
# 4 0.000762 0.001942 -0.000298 0.023707 -0.004582 -0.001563
# 5 -0.000577 -0.000268 0.000222 -0.004582 0.026382 0.004055
# 6 0.003260 -0.002191 -0.003048 -0.001563 0.004055 0.024633
#
#
# Mechanical properties :
#
#
# Convention : Reuss Voigt Hill
#
# Bulk Modulus (GPa) = 56.54546 69.76839 63.15693
# Shear Modulus (GPa) = 37.85660 42.93378 40.39519
#
# Velocity S-wave (km/s) = 4.23879 4.51409 4.37860
# Velocity P-wave (km/s) = 7.12698 7.76418 7.45239
#
# Compressibility (1/GPa) = 0.01768489
#
# Stress axis : x y z
#
# Youngs Moduli (GPa) = 59.66864 129.77311 98.93358
#
# Poissons Ratio (x) = 0.59340 0.19206
# Poissons Ratio (y) = 0.27284 0.19095
# Poissons Ratio (z) = 0.11583 0.25047
#
# Static dielectric constant tensor:
#      x y z
#    x 3.832860 0.245090 0.095960 
#    y 0.245090 4.503280 0.366450 
#    z 0.095960 0.366450 6.341330 
# 
# 
# High freq. dielectric constant tensor:
#      x y z
#    x 1.811840 0.002390 -0.010040 
#    y 0.002390 1.843260 -0.005830 
#    z -0.010040 -0.005830 1.851320 
# 
# From -- ./inp_files/351934.got.cif
#   From: 2010.06.25/outbox.cif.g09.slc.cpg/sg2_176_cif.got.tgz:351934.got - 2010.06.27 13:26:56.
