data_PCOD8007744
_publ_section_title
;
Structure prediction by ZEFSAII (Michael W. Deem and Ramdas Pophale) SiO2 
 PCOD8007744
Probable space group: P -1
;
_chemical_formula_sum "Si O2"
_cell_formula_units_Z 14
_cell_length_a 10.096750
_cell_length_b 9.304098
_cell_length_c 13.347474
_cell_angle_alpha 72.918416
_cell_angle_beta 51.989064
_cell_angle_gamma 111.696001
_cell_volume 644.366644
_symmetry_space_group_name_H-M "P -1"
_symmetry_group_IT_number 2
_symmetry_cell_setting 'triclinic'
loop_
_space_group_symop_operation_xyz
x,y,z
-x,-y,-z
loop_
_atom_site_type_symbol
_atom_site_label
_atom_site_fract_x
_atom_site_fract_y
_atom_site_fract_z
Si Si1 0.458514 0.624901 0.250977
Si Si2 0.756992 0.607950 0.242476
Si Si3 0.987548 0.124754 0.558520
Si Si4 0.716198 0.255242 0.376789
Si Si5 0.050001 0.002674 0.170198
Si Si6 0.890781 0.207789 0.133279
Si Si7 0.630518 0.131179 0.653169
O O1 0.559300 0.607406 0.308315
O O2 0.226538 0.380571 0.369735
O O3 0.360910 0.725028 0.304024
O O4 0.667497 0.775041 0.037041
O O5 0.630846 0.374324 0.391387
O O6 0.959159 0.804116 0.184825
O O7 0.875665 0.629938 0.079395
O O8 0.738551 0.057081 0.673672
O O9 0.000000 0.000000 0.500000
O O10 0.977793 0.056198 0.689334
O O11 0.928025 0.355156 0.175550
O O12 0.800773 0.276288 0.446354
O O13 0.500000 0.000000 0.500000
O O14 0.875385 0.031007 0.224242
O O15 0.647224 0.082342 0.208284
#
# Coordination Sequence:
#
# PCOD8007744 Si02
#       7
#     2   2   2   2   2   2   2
#     4  11  24  44  71  98 133 170 227 272 323 396
#     4  11  21  41  71 101 126 170 218 282 331 381
#     4  12  29  44  65  95 139 182 218 263 334 395
#     4  10  23  35  64  98 133 171 211 273 329 381
#     4  11  23  46  72  97 129 176 218 277 330 385
#     4  10  20  41  67  98 133 162 222 275 325 386
#     4  11  22  44  62  96 134 169 223 270 315 396
#
# _framework density 21.726759999999999
#
# number of rings (size 3 to 8) (size 9 to 14) (size 15 to 20)
#    0.000    1.143    2.857    3.429    8.000    2.286 
#    2.571    0.000    0.000    0.000    0.000    0.000 
#    0.000    0.000    0.000    0.000    0.000    0.000 
#
# Total GULP energy -173568.054067 kJ/mol
# GULP energy per Si atom -12397.718148 kJ/mol
# Density = 2.167731 g / cm^3
# Si number density = 21.726760 Si / 1000 Ang^3
#
#
#
# Elastic Constant Matrix: (Units=GPa)
#
#
# Indices 1 2 3 4 5 6 
#
# 1 120.5715 26.4835 30.3118 -6.1150 -1.5264 -15.8333
# 2 26.4835 88.1391 32.2367 3.6539 -4.9795 -20.8682
# 3 30.3118 32.2367 70.7430 1.2647 -0.0771 3.5156
# 4 -6.1150 3.6539 1.2647 38.4644 0.2604 4.8790
# 5 -1.5264 -4.9795 -0.0771 0.2604 32.7479 -0.1917
# 6 -15.8333 -20.8682 3.5156 4.8790 -0.1917 31.0803
#
#
#
# Elastic Compliance Matrix: (Units=1/GPa)
#
#
# Indices 1 2 3 4 5 6 
#
# 1 0.010271 -0.000095 -0.004651 0.001091 0.000477 0.005527
# 2 -0.000095 0.018130 -0.008839 -0.003197 0.002837 0.013644
# 3 -0.004651 -0.008839 0.020676 0.000798 -0.001582 -0.010778
# 4 0.001091 -0.003197 0.000798 0.027209 -0.000685 -0.005956
# 5 0.000477 0.002837 -0.001582 -0.000685 0.031007 0.002625
# 6 0.005527 0.013644 -0.010778 -0.005956 0.002625 0.046322
#
#
# Mechanical properties :
#
#
# Convention : Reuss Voigt Hill
#
# Bulk Modulus (GPa) = 45.64679 50.83531 48.24105
# Shear Modulus (GPa) = 26.58335 33.15329 29.86832
#
# Velocity S-wave (km/s) = 3.50169 3.91054 3.71175
# Velocity P-wave (km/s) = 6.11590 6.62104 6.37347
#
# Compressibility (1/GPa) = 0.02190735
#
# Stress axis : x y z
#
# Youngs Moduli (GPa) = 97.36034 55.15664 48.36491
#
# Poissons Ratio (x) = 0.00522 0.22497
# Poissons Ratio (y) = 0.00922 0.42749
# Poissons Ratio (z) = 0.45287 0.48753
#
# Static dielectric constant tensor:
#      x y z
#    x 3.885050 -0.240370 0.065190 
#    y -0.240370 4.171680 0.393370 
#    z 0.065190 0.393370 4.246820 
# 
# 
# High freq. dielectric constant tensor:
#      x y z
#    x 1.842020 -0.018340 0.007430 
#    y -0.018340 1.862830 0.012770 
#    z 0.007430 0.012770 1.858790 
# 
# From -- ./inp_files/156671.got.cif
#   From: 2010.06.25/outbox.cif.g09.slc.cpg/sg2_79_cif.got.tgz:156671.got - 2010.06.27 13:26:56.
