data_PCOD8007477
_publ_section_title
;
Structure prediction by ZEFSAII (Michael W. Deem and Ramdas Pophale) SiO2 
 PCOD8007477
Probable space group: P -1
;
_chemical_formula_sum "Si O2"
_cell_formula_units_Z 16
_cell_length_a 19.408561
_cell_length_b 11.555901
_cell_length_c 7.548619
_cell_angle_alpha 95.774831
_cell_angle_beta 123.404552
_cell_angle_gamma 39.053179
_cell_volume 697.565617
_symmetry_space_group_name_H-M "P -1"
_symmetry_group_IT_number 2
_symmetry_cell_setting 'triclinic'
loop_
_space_group_symop_operation_xyz
x,y,z
-x,-y,-z
loop_
_atom_site_type_symbol
_atom_site_label
_atom_site_fract_x
_atom_site_fract_y
_atom_site_fract_z
Si Si1 0.387745 0.350398 0.649338
Si Si2 0.897449 0.582396 0.704094
Si Si3 0.243863 0.501446 0.867871
Si Si4 0.476896 0.000568 0.763086
Si Si5 0.072860 0.223777 0.397787
Si Si6 0.375055 0.743981 0.945091
Si Si7 0.869041 0.120179 0.184022
Si Si8 0.043438 0.732946 0.130599
O O1 0.309428 0.442478 0.752471
O O2 0.491978 0.107362 0.706279
O O3 0.231024 0.546922 0.324979
O O4 0.511454 0.305734 0.791610
O O5 0.701753 0.836842 0.504703
O O6 0.937820 0.621165 0.603857
O O7 0.945613 0.386109 0.723595
O O8 0.000000 0.500000 0.000000
O O9 0.226673 0.644997 0.968537
O O10 0.066948 0.649017 0.641662
O O11 0.377440 0.263958 0.134289
O O12 0.500000 0.000000 0.000000
O O13 0.258650 0.956680 0.675027
O O14 0.043331 0.202434 0.160993
O O15 0.258814 0.819683 0.925961
O O16 0.500000 0.500000 0.000000
O O17 0.000000 0.000000 0.500000
O O18 0.955009 0.956580 0.112487
#
# Coordination Sequence:
#
# PCOD8007477 Si02
#       8
#     2   2   2   2   2   2   2   2
#     4  10  20  41  64  88 125 163 207 259 310 361
#     4   9  20  40  63  88 126 162 198 256 312 360
#     4  11  21  38  61  92 126 164 206 253 311 363
#     4   9  19  36  62  88 116 159 208 254 296 358
#     4  11  23  39  66  93 122 170 207 254 311 371
#     4  12  23  40  64  90 123 164 206 256 312 368
#     4  12  22  42  62  89 129 167 202 260 310 368
#     4  10  22  43  64  92 125 164 208 253 311 373
#
# _framework density 22.936910999999998
#
# number of rings (size 3 to 8) (size 9 to 14) (size 15 to 20)
#    0.000    1.500    3.750    1.500    0.000    1.500 
#    0.000   16.875    0.000    0.000    0.000    0.000 
#    0.000    0.000    0.000    0.000    0.000    0.000 
#
# Total GULP energy -198238.657376 kJ/mol
# GULP energy per Si atom -12389.916086 kJ/mol
# Density = 2.288471 g / cm^3
# Si number density = 22.936911 Si / 1000 Ang^3
#
#
#
# Elastic Constant Matrix: (Units=GPa)
#
#
# Indices 1 2 3 4 5 6 
#
# 1 100.1051 21.2586 26.7693 -2.6320 28.4125 26.0144
# 2 21.2586 120.7545 37.6555 -24.9978 -0.1447 29.3233
# 3 26.7693 37.6555 122.3845 -9.9237 22.6098 18.2455
# 4 -2.6320 -24.9978 -9.9237 33.8279 9.2338 -2.0092
# 5 28.4125 -0.1447 22.6098 9.2338 38.3645 4.8699
# 6 26.0144 29.3233 18.2455 -2.0092 4.8699 34.7222
#
#
#
# Elastic Compliance Matrix: (Units=1/GPa)
#
#
# Indices 1 2 3 4 5 6 
#
# 1 0.016028 0.000546 0.000478 0.004379 -0.011832 -0.010808
# 2 0.000546 0.012921 -0.001950 0.008434 0.000009 -0.009810
# 3 0.000478 -0.001950 0.010738 0.003506 -0.007134 -0.003150
# 4 0.004379 0.008434 0.003506 0.040519 -0.014023 -0.007934
# 5 -0.011832 0.000009 -0.007134 -0.014023 0.041652 0.005952
# 6 -0.010808 -0.009810 -0.003150 -0.007934 0.005952 0.045543
#
#
# Mechanical properties :
#
#
# Convention : Reuss Voigt Hill
#
# Bulk Modulus (GPa) = 26.43046 57.17897 41.80472
# Shear Modulus (GPa) = 27.49270 38.55363 33.02316
#
# Velocity S-wave (km/s) = 3.46587 4.10427 3.79851
# Velocity P-wave (km/s) = 5.25019 6.88789 6.12403
#
# Compressibility (1/GPa) = 0.03783513
#
# Stress axis : x y z
#
# Youngs Moduli (GPa) = 62.39266 77.39105 93.12300
#
# Poissons Ratio (x) = -0.04225 -0.04455
# Poissons Ratio (y) = -0.03406 0.18164
# Poissons Ratio (z) = -0.02985 0.15095
#
# Static dielectric constant tensor:
#      x y z
#    x 4.168780 0.868520 -0.102840 
#    y 0.868520 4.297380 -0.220520 
#    z -0.102840 -0.220520 4.082530 
# 
# 
# High freq. dielectric constant tensor:
#      x y z
#    x 1.895960 0.030780 0.013980 
#    y 0.030780 1.903280 -0.014000 
#    z 0.013980 -0.014000 1.911700 
# 
# From -- ./inp_files/345406.got.cif
#   From: 2010.06.25/outbox.cif.g09.slc.cpg/sg2_173_cif.got.tgz:345406.got - 2010.06.27 13:26:56.
