data_PCOD8007795
_publ_section_title
;
Structure prediction by ZEFSAII (Michael W. Deem and Ramdas Pophale) SiO2 
 PCOD8007795
Probable space group: P -1
;
_chemical_formula_sum "Si O2"
_cell_formula_units_Z 16
_cell_length_a 12.815528
_cell_length_b 12.237462
_cell_length_c 11.183872
_cell_angle_alpha 56.355360
_cell_angle_beta 63.633094
_cell_angle_gamma 29.937509
_cell_volume 725.957511
_symmetry_space_group_name_H-M "P -1"
_symmetry_group_IT_number 2
_symmetry_cell_setting 'triclinic'
loop_
_space_group_symop_operation_xyz
x,y,z
-x,-y,-z
loop_
_atom_site_type_symbol
_atom_site_label
_atom_site_fract_x
_atom_site_fract_y
_atom_site_fract_z
Si Si1 0.146310 0.464750 0.324048
Si Si2 0.210107 0.475184 0.866985
Si Si3 0.122716 0.184850 0.546580
Si Si4 0.519719 0.285699 0.205807
Si Si5 0.325844 0.885169 0.172637
Si Si6 0.084943 0.339827 0.907174
Si Si7 0.771492 0.192524 0.939989
Si Si8 0.924592 0.924327 0.605399
O O1 0.196483 0.265907 0.446212
O O2 0.362274 0.312803 0.248879
O O3 0.952663 0.662794 0.209891
O O4 0.076582 0.618645 0.380606
O O5 0.431692 0.336904 0.848391
O O6 0.181832 0.395414 0.823482
O O7 0.063642 0.736140 0.756231
O O8 0.141383 0.463253 0.030512
O O9 0.054144 0.184090 0.457435
O O10 0.311018 0.914689 0.658947
O O11 0.370291 0.546051 0.161539
O O12 0.645098 0.201844 0.073286
O O13 0.202351 0.890251 0.155701
O O14 0.302214 0.872588 0.334897
O O15 0.247114 0.101259 0.042670
O O16 0.000000 0.000000 0.000000
O O17 0.000000 0.000000 0.500000
#
# Coordination Sequence:
#
# PCOD8007795 Si02
#       8
#     2   2   2   2   2   2   2   2
#     4  11  23  44  71  96 137 172 219 283 332 388
#     4  10  22  42  67  97 130 170 220 266 331 392
#     4  11  25  45  65 101 132 179 222 271 335 386
#     4  11  24  41  71  99 130 173 221 278 323 405
#     4  11  24  41  67  97 126 179 220 266 331 394
#     4  10  20  41  68  97 131 165 214 283 325 384
#     4  11  25  44  68 101 134 170 222 279 337 385
#     4  11  27  44  66  93 139 177 218 272 320 401
#
# _framework density 22.039856
#
# number of rings (size 3 to 8) (size 9 to 14) (size 15 to 20)
#    0.000    1.250    1.250    3.750    5.250    3.500 
#    4.500    0.000    0.000    0.000    0.000    0.000 
#    0.000    0.000    0.000    0.000    0.000    0.000 
#
# Total GULP energy -198291.105354 kJ/mol
# GULP energy per Si atom -12393.194085 kJ/mol
# Density = 2.198969 g / cm^3
# Si number density = 22.039856 Si / 1000 Ang^3
#
#
#
# Elastic Constant Matrix: (Units=GPa)
#
#
# Indices 1 2 3 4 5 6 
#
# 1 104.0552 46.8601 34.6014 14.1620 2.6919 4.6672
# 2 46.8601 85.5878 32.8794 -3.8711 -1.5608 2.4432
# 3 34.6014 32.8794 105.2398 -3.4658 -8.8610 4.2074
# 4 14.1620 -3.8711 -3.4658 35.6157 7.9069 1.1799
# 5 2.6919 -1.5608 -8.8610 7.9069 39.8142 6.4794
# 6 4.6672 2.4432 4.2074 1.1799 6.4794 40.9681
#
#
#
# Elastic Compliance Matrix: (Units=1/GPa)
#
#
# Indices 1 2 3 4 5 6 
#
# 1 0.014823 -0.007331 -0.002818 -0.006843 -0.000445 -0.000695
# 2 -0.007331 0.016961 -0.002771 0.004570 -0.000369 0.000035
# 3 -0.002818 -0.002771 0.011604 0.001416 0.002571 -0.001153
# 4 -0.006843 0.004570 0.001416 0.032662 -0.005579 0.000303
# 5 -0.000445 -0.000369 0.002571 -0.005579 0.027526 -0.004384
# 6 -0.000695 0.000035 -0.001153 0.000303 -0.004384 0.025289
#
#
# Mechanical properties :
#
#
# Convention : Reuss Voigt Hill
#
# Bulk Modulus (GPa) = 56.98746 58.17384 57.58065
# Shear Modulus (GPa) = 31.14240 35.31573 33.22906
#
# Velocity S-wave (km/s) = 3.76307 4.00729 3.88710
# Velocity P-wave (km/s) = 6.69280 6.91833 6.80650
#
# Compressibility (1/GPa) = 0.01754772
#
# Stress axis : x y z
#
# Youngs Moduli (GPa) = 67.46351 58.95899 86.18058
#
# Poissons Ratio (x) = 0.43222 0.24288
# Poissons Ratio (y) = 0.49456 0.23878
# Poissons Ratio (z) = 0.19013 0.16336
#
# Static dielectric constant tensor:
#      x y z
#    x 3.828850 0.009420 -0.164470 
#    y 0.009420 4.081060 0.132870 
#    z -0.164470 0.132870 4.170410 
# 
# 
# High freq. dielectric constant tensor:
#      x y z
#    x 1.865110 0.004610 -0.012300 
#    y 0.004610 1.866570 0.002280 
#    z -0.012300 0.002280 1.875190 
# 
# From -- ./inp_files/427777.got.cif
#   From: 2010.06.25/outbox.cif.g09.slc.cpg/sg2_214_cif.got.tgz:427777.got - 2010.06.27 13:26:56.
