data_PCOD8007267
_publ_section_title
;
Structure prediction by ZEFSAII (Michael W. Deem and Ramdas Pophale) SiO2 
 PCOD8007267
Probable space group: P -1
;
_chemical_formula_sum "Si O2"
_cell_formula_units_Z 16
_cell_length_a 9.356237
_cell_length_b 23.620427
_cell_length_c 8.857829
_cell_angle_alpha 129.816367
_cell_angle_beta 31.024495
_cell_angle_gamma 130.657267
_cell_volume 748.379462
_symmetry_space_group_name_H-M "P -1"
_symmetry_group_IT_number 2
_symmetry_cell_setting 'triclinic'
loop_
_space_group_symop_operation_xyz
x,y,z
-x,-y,-z
loop_
_atom_site_type_symbol
_atom_site_label
_atom_site_fract_x
_atom_site_fract_y
_atom_site_fract_z
Si Si1 0.434576 0.001796 0.884043
Si Si2 0.931590 0.748086 0.463453
Si Si3 0.890888 0.408901 0.435862
Si Si4 0.288206 0.377928 0.799338
Si Si5 0.863487 0.950644 0.183851
Si Si6 0.006978 0.377078 0.589078
Si Si7 0.463914 0.149613 0.935731
Si Si8 0.618941 0.470798 0.194116
O O1 0.685675 0.989338 0.526823
O O2 0.380005 0.083231 0.025169
O O3 0.500000 0.000000 0.000000
O O4 0.134737 0.937301 0.010987
O O5 0.006575 0.704775 0.468328
O O6 0.866249 0.690679 0.285459
O O7 0.652362 0.778437 0.791958
O O8 0.192671 0.821753 0.325147
O O9 0.620004 0.381635 0.524389
O O10 0.805071 0.372873 0.617674
O O11 0.000000 0.500000 0.500000
O O12 0.129096 0.369181 0.088434
O O13 0.253348 0.458696 0.909316
O O14 0.650707 0.876090 0.174492
O O15 0.000000 0.000000 0.000000
O O16 0.328444 0.412952 0.296609
O O17 0.874132 0.427942 0.916001
O O18 0.500000 0.500000 0.500000
#
# Coordination Sequence:
#
# PCOD8007267 Si02
#       8
#     2   2   2   2   2   2   2   2
#     4  11  22  41  72 110 133 161 216 272 307 358
#     4  12  26  42  61  90 130 177 210 253 316 401
#     4  12  23  41  61  89 115 154 204 284 337 368
#     4  12  24  40  62  88 122 162 210 267 337 371
#     4  10  20  40  70 100 133 170 215 261 302 364
#     4  12  25  39  62  88 120 157 216 265 318 378
#     4  11  23  44  65  92 133 175 211 248 315 384
#     4  12  22  37  63  91 113 149 218 283 310 358
#
# _framework density 21.379529000000002
#
# number of rings (size 3 to 8) (size 9 to 14) (size 15 to 20)
#    0.000    0.500    3.750    7.125    1.750    0.000 
#    0.000    7.500    0.000    0.000    0.000    0.000 
#    0.000    0.000    0.000    0.000    0.000    0.000 
#
# Total GULP energy -198327.044744 kJ/mol
# GULP energy per Si atom -12395.440297 kJ/mol
# Density = 2.133087 g / cm^3
# Si number density = 21.379529 Si / 1000 Ang^3
#
#
#
# Elastic Constant Matrix: (Units=GPa)
#
#
# Indices 1 2 3 4 5 6 
#
# 1 135.5982 45.2509 31.0381 -2.0371 6.4523 4.5258
# 2 45.2509 80.9682 21.3235 1.6025 4.0152 10.6389
# 3 31.0381 21.3235 128.0099 6.0176 9.5682 0.0157
# 4 -2.0371 1.6025 6.0176 27.7487 1.6964 -15.7293
# 5 6.4523 4.0152 9.5682 1.6964 31.1065 -8.2250
# 6 4.5258 10.6389 0.0157 -15.7293 -8.2250 37.1867
#
#
#
# Elastic Compliance Matrix: (Units=1/GPa)
#
#
# Indices 1 2 3 4 5 6 
#
# 1 0.009411 -0.004990 -0.001485 0.001862 -0.000711 0.000913
# 2 -0.004990 0.016511 -0.001154 -0.004664 -0.002227 -0.006581
# 3 -0.001485 -0.001154 0.008649 -0.002343 -0.002341 -0.001001
# 4 0.001862 -0.004664 -0.002343 0.049799 0.004337 0.023132
# 5 -0.000711 -0.002227 -0.002341 0.004337 0.035839 0.010486
# 6 0.000913 -0.006581 -0.001001 0.023132 0.010486 0.040767
#
#
# Mechanical properties :
#
#
# Convention : Reuss Voigt Hill
#
# Bulk Modulus (GPa) = 51.77841 59.97791 55.87816
# Shear Modulus (GPa) = 27.37139 35.67263 31.52201
#
# Velocity S-wave (km/s) = 3.58196 4.08921 3.84396
# Velocity P-wave (km/s) = 6.43261 7.10002 6.77454
#
# Compressibility (1/GPa) = 0.01931307
#
# Stress axis : x y z
#
# Youngs Moduli (GPa) = 106.25511 60.56653 115.61497
#
# Poissons Ratio (x) = 0.30224 0.17171
# Poissons Ratio (y) = 0.53023 0.13340
# Poissons Ratio (z) = 0.15781 0.06988
#
# Static dielectric constant tensor:
#      x y z
#    x 4.133380 0.271960 -0.128930 
#    y 0.271960 3.675690 -0.046540 
#    z -0.128930 -0.046540 3.749730 
# 
# 
# High freq. dielectric constant tensor:
#      x y z
#    x 1.844250 0.017310 -0.006360 
#    y 0.017310 1.808530 -0.008670 
#    z -0.006360 -0.008670 1.860420 
# 
# From -- ./inp_files/226415.got.cif
#   From: 2010.06.25/outbox.cif.g09.slc.cpg/sg2_114_cif.got.tgz:226415.got - 2010.06.27 13:26:56.
