data_PCOD8007185
_publ_section_title
;
Structure prediction by ZEFSAII (Michael W. Deem and Ramdas Pophale) SiO2 
 PCOD8007185
Probable space group: P -1
;
_chemical_formula_sum "Si O2"
_cell_formula_units_Z 16
_cell_length_a 6.448767
_cell_length_b 11.876992
_cell_length_c 10.919307
_cell_angle_alpha 89.104895
_cell_angle_beta 66.203991
_cell_angle_gamma 104.508263
_cell_volume 734.373146
_symmetry_space_group_name_H-M "P -1"
_symmetry_group_IT_number 2
_symmetry_cell_setting 'triclinic'
loop_
_space_group_symop_operation_xyz
x,y,z
-x,-y,-z
loop_
_atom_site_type_symbol
_atom_site_label
_atom_site_fract_x
_atom_site_fract_y
_atom_site_fract_z
Si Si1 0.550489 0.812844 0.283612
Si Si2 0.345633 0.247242 0.269234
Si Si3 0.055595 0.899554 0.062477
Si Si4 0.848503 0.363717 0.766231
Si Si5 0.837322 0.308489 0.052398
Si Si6 0.817968 0.764328 0.427810
Si Si7 0.743739 0.029204 0.732223
Si Si8 0.247491 0.426830 0.115171
O O1 0.811237 0.818557 0.174906
O O2 0.366152 0.706159 0.265132
O O3 0.580894 0.783877 0.420443
O O4 0.477267 0.933197 0.275583
O O5 0.623811 0.312119 0.192369
O O6 0.252889 0.283139 0.418576
O O7 0.233468 0.301723 0.182610
O O8 0.281262 0.106721 0.279545
O O9 0.244998 0.945037 0.125227
O O10 0.155405 0.825890 0.941801
O O11 0.000000 0.000000 0.000000
O O12 0.852280 0.500027 0.758899
O O13 0.085099 0.334284 0.663719
O O14 0.790755 0.330320 0.921883
O O15 0.074198 0.401778 0.040304
O O16 0.016879 0.889890 0.387345
O O17 0.500000 0.500000 0.000000
#
# Coordination Sequence:
#
# PCOD8007185 Si02
#       8
#     2   2   2   2   2   2   2   2
#     4  10  20  40  68  91 126 182 213 269 327 385
#     4  12  27  42  66 103 135 174 223 276 326 392
#     4  11  21  34  62  99 134 169 214 268 330 394
#     4  11  23  44  70  93 128 177 224 267 330 398
#     4  12  24  41  67 101 129 168 228 270 327 398
#     4  10  24  45  68  96 137 178 220 267 330 400
#     4  10  22  41  66  98 138 175 220 264 329 403
#     4  12  27  44  72  97 135 173 217 286 338 378
#
# _framework density 21.787289000000001
#
# number of rings (size 3 to 8) (size 9 to 14) (size 15 to 20)
#    0.000    1.000    5.000    3.000    1.750    5.000 
#    0.000    1.250    0.000    0.000    0.000    0.000 
#    0.000    0.000    0.000    0.000    0.000    0.000 
#
# Total GULP energy -198317.015150 kJ/mol
# GULP energy per Si atom -12394.813447 kJ/mol
# Density = 2.173770 g / cm^3
# Si number density = 21.787289 Si / 1000 Ang^3
#
#
#
# Elastic Constant Matrix: (Units=GPa)
#
#
# Indices 1 2 3 4 5 6 
#
# 1 123.5797 30.8650 40.1957 5.6286 7.3292 -4.3355
# 2 30.8650 92.9697 27.5277 16.0704 -4.3847 -16.3931
# 3 40.1957 27.5277 113.7620 1.4100 -4.0101 1.0960
# 4 5.6286 16.0704 1.4100 22.8732 -5.2375 -1.3935
# 5 7.3292 -4.3847 -4.0101 -5.2375 25.7715 1.8833
# 6 -4.3355 -16.3931 1.0960 -1.3935 1.8833 39.0795
#
#
#
# Elastic Compliance Matrix: (Units=1/GPa)
#
#
# Indices 1 2 3 4 5 6 
#
# 1 0.009992 -0.002240 -0.003116 -0.001599 -0.004062 0.000395
# 2 -0.002240 0.014965 -0.002754 -0.009343 0.000436 0.005752
# 3 -0.003116 -0.002754 0.010640 0.002558 0.002727 -0.001839
# 4 -0.001599 -0.009343 0.002558 0.052679 0.010172 -0.002780
# 5 -0.004062 0.000436 0.002727 0.010172 0.042672 -0.002038
# 6 0.000395 0.005752 -0.001839 -0.002780 -0.002038 0.028096
#
#
# Mechanical properties :
#
#
# Convention : Reuss Voigt Hill
#
# Bulk Modulus (GPa) = 51.60658 58.60979 55.10818
# Shear Modulus (GPa) = 27.51422 32.99304 30.25363
#
# Velocity S-wave (km/s) = 3.55752 3.89565 3.73042
# Velocity P-wave (km/s) = 6.37280 6.86980 6.62596
#
# Compressibility (1/GPa) = 0.01937738
#
# Stress axis : x y z
#
# Youngs Moduli (GPa) = 100.07539 66.82162 93.98791
#
# Poissons Ratio (x) = 0.14971 0.29284
# Poissons Ratio (y) = 0.22422 0.25883
# Poissons Ratio (z) = 0.31180 0.18402
#
# Static dielectric constant tensor:
#      x y z
#    x 4.270680 -0.378750 -0.122410 
#    y -0.378750 4.156470 0.192610 
#    z -0.122410 0.192610 3.830480 
# 
# 
# High freq. dielectric constant tensor:
#      x y z
#    x 1.871400 -0.014250 0.005080 
#    y -0.014250 1.855580 0.003890 
#    z 0.005080 0.003890 1.837740 
# 
# From -- ./inp_files/364468.got.cif
#   From: 2010.06.25/outbox.cif.g09.slc.cpg/sg2_183_cif.got.tgz:364468.got - 2010.06.27 13:26:56.
