data_PCOD8007471
_publ_section_title
;
Structure prediction by ZEFSAII (Michael W. Deem and Ramdas Pophale) SiO2 
 PCOD8007471
Probable space group: P -1
;
_chemical_formula_sum "Si O2"
_cell_formula_units_Z 14
_cell_length_a 14.348861
_cell_length_b 9.569630
_cell_length_c 5.381931
_cell_angle_alpha 76.111190
_cell_angle_beta 76.696625
_cell_angle_gamma 64.807760
_cell_volume 642.246832
_symmetry_space_group_name_H-M "P -1"
_symmetry_group_IT_number 2
_symmetry_cell_setting 'triclinic'
loop_
_space_group_symop_operation_xyz
x,y,z
-x,-y,-z
loop_
_atom_site_type_symbol
_atom_site_label
_atom_site_fract_x
_atom_site_fract_y
_atom_site_fract_z
Si Si1 0.763361 0.224653 0.005532
Si Si2 0.337144 0.195858 0.714427
Si Si3 0.576318 0.293474 0.757280
Si Si4 0.373528 0.039103 0.265016
Si Si5 0.353987 0.498369 0.733087
Si Si6 0.976482 0.099039 0.721243
Si Si7 0.818555 0.904683 0.371746
O O1 0.737218 0.393164 0.077293
O O2 0.802035 0.081952 0.234360
O O3 0.655555 0.222924 0.964918
O O4 0.853654 0.211283 0.754854
O O5 0.403651 0.117787 0.456458
O O6 0.316055 0.378152 0.664623
O O7 0.225307 0.179456 0.774823
O O8 0.398785 0.105129 0.962136
O O9 0.459631 0.404718 0.866102
O O10 0.624769 0.390134 0.523166
O O11 0.565642 0.148964 0.675221
O O12 0.247928 0.081789 0.339906
O O13 0.056638 0.188941 0.627315
O O14 0.000000 0.000000 0.500000
O O15 0.000000 0.000000 0.000000
#
# Coordination Sequence:
#
# PCOD8007471 Si02
#       7
#     2   2   2   2   2   2   2
#     4  11  21  40  62  94 126 165 208 268 310 370
#     4  10  23  39  63  91 130 163 204 261 314 367
#     4  11  22  41  64  86 128 169 220 254 309 368
#     4  10  20  41  64  86 126 164 210 258 302 368
#     4  11  25  39  59  95 127 172 205 262 316 377
#     4  10  22  35  66  97 121 157 212 261 308 365
#     4   9  20  39  63  94 119 162 206 261 305 370
#
# _framework density 21.798473000000001
#
# number of rings (size 3 to 8) (size 9 to 14) (size 15 to 20)
#    0.857    0.857    2.857    1.286    6.000    1.143 
#    0.000    0.714    0.000    1.714    0.000    0.000 
#    0.000    0.000    0.000    0.000    0.000    0.000 
#
# Total GULP energy -173440.367015 kJ/mol
# GULP energy per Si atom -12388.597644 kJ/mol
# Density = 2.174886 g / cm^3
# Si number density = 21.798473 Si / 1000 Ang^3
#
#
#
# Elastic Constant Matrix: (Units=GPa)
#
#
# Indices 1 2 3 4 5 6 
#
# 1 87.6560 45.6328 13.6450 10.5659 1.9668 2.0037
# 2 45.6328 146.9282 48.8502 22.5141 -3.6807 28.7766
# 3 13.6450 48.8502 100.8426 9.6159 17.6373 9.0133
# 4 10.5659 22.5141 9.6159 30.9540 4.1156 -2.4314
# 5 1.9668 -3.6807 17.6373 4.1156 24.7757 7.7752
# 6 2.0037 28.7766 9.0133 -2.4314 7.7752 30.2149
#
#
#
# Elastic Compliance Matrix: (Units=1/GPa)
#
#
# Indices 1 2 3 4 5 6 
#
# 1 0.014389 -0.006268 0.001400 0.000338 -0.004980 0.005906
# 2 -0.006268 0.017082 -0.007475 -0.011580 0.016152 -0.018712
# 3 0.001400 -0.007475 0.015030 0.002713 -0.014401 0.006467
# 4 0.000338 -0.011580 0.002713 0.043375 -0.016512 0.017937
# 5 -0.004980 0.016152 -0.014401 -0.016512 0.065211 -0.028867
# 6 0.005906 -0.018712 0.006467 0.017937 -0.028867 0.057468
#
#
# Mechanical properties :
#
#
# Convention : Reuss Voigt Hill
#
# Bulk Modulus (GPa) = 45.83887 61.29808 53.56847
# Shear Modulus (GPa) = 20.44884 32.34216 26.39550
#
# Velocity S-wave (km/s) = 3.06614 3.85605 3.48356
# Velocity P-wave (km/s) = 5.79734 6.92870 6.38811
#
# Compressibility (1/GPa) = 0.02181555
#
# Stress axis : x y z
#
# Youngs Moduli (GPa) = 69.49647 58.54187 66.53288
#
# Poissons Ratio (x) = 0.36693 -0.09315
# Poissons Ratio (y) = 0.43559 0.49734
# Poissons Ratio (z) = -0.09730 0.43760
#
# Static dielectric constant tensor:
#      x y z
#    x 4.471140 -0.099040 -0.237880 
#    y -0.099040 3.825610 0.237720 
#    z -0.237880 0.237720 3.786000 
# 
# 
# High freq. dielectric constant tensor:
#      x y z
#    x 1.864210 0.007000 -0.007730 
#    y 0.007000 1.830180 0.013260 
#    z -0.007730 0.013260 1.847980 
# 
# From -- ./inp_files/92277.got.cif
#   From: 2010.06.25/outbox.cif.g09.slc.cpg/sg2_47_cif.got.tgz:92277.got - 2010.06.27 13:26:56.
