data_PCOD8007219
_publ_section_title
;
Structure prediction by ZEFSAII (Michael W. Deem and Ramdas Pophale) SiO2 
 PCOD8007219
Probable space group: P -1
;
_chemical_formula_sum "Si O2"
_cell_formula_units_Z 16
_cell_length_a 12.551775
_cell_length_b 15.220289
_cell_length_c 8.737004
_cell_angle_alpha 75.235982
_cell_angle_beta 83.813123
_cell_angle_gamma 27.847198
_cell_volume 727.953753
_symmetry_space_group_name_H-M "P -1"
_symmetry_group_IT_number 2
_symmetry_cell_setting 'triclinic'
loop_
_space_group_symop_operation_xyz
x,y,z
-x,-y,-z
loop_
_atom_site_type_symbol
_atom_site_label
_atom_site_fract_x
_atom_site_fract_y
_atom_site_fract_z
Si Si1 0.282550 0.699875 0.844264
Si Si2 0.788260 0.094640 0.445084
Si Si3 0.289902 0.505007 0.801408
Si Si4 0.623346 0.997511 0.785181
Si Si5 0.884222 0.819545 0.512917
Si Si6 0.244639 0.910004 0.209571
Si Si7 0.991005 0.408363 0.972714
Si Si8 0.107969 0.340101 0.657073
O O1 0.367274 0.727041 0.729247
O O2 0.217844 0.664920 0.760027
O O3 0.500000 0.500000 0.000000
O O4 0.025724 0.915690 0.867363
O O5 0.663166 0.172814 0.592333
O O6 0.866964 0.940344 0.420868
O O7 0.000000 0.000000 0.500000
O O8 0.573178 0.283253 0.839680
O O9 0.205880 0.507170 0.955821
O O10 0.143225 0.591116 0.633179
O O11 0.693562 0.942972 0.619266
O O12 0.743865 0.824616 0.932620
O O13 0.720322 0.010280 0.859785
O O14 0.345062 0.201719 0.753250
O O15 0.834840 0.796298 0.381529
O O16 0.000000 0.500000 0.000000
O O17 0.937235 0.449467 0.780095
O O18 0.000000 0.500000 0.500000
#
# Coordination Sequence:
#
# PCOD8007219 Si02
#       8
#     2   2   2   2   2   2   2   2
#     4  11  23  45  65  97 138 167 226 286 332 406
#     4   9  18  42  68  93 129 175 222 274 340 395
#     4  11  22  44  68  93 135 183 218 273 345 399
#     4  10  20  43  64  92 137 175 216 270 341 406
#     4  10  20  40  68  98 133 174 229 284 327 399
#     4  10  20  41  72  94 128 179 221 267 342 405
#     4  11  23  43  66  91 138 184 219 269 342 405
#     4  12  24  39  65 104 134 174 235 275 328 399
#
# _framework density 21.979419
#
# number of rings (size 3 to 8) (size 9 to 14) (size 15 to 20)
#    0.000    1.500    5.000    3.750    0.000    1.000 
#   11.250    0.000    0.000    0.000    0.000    0.000 
#    0.000    0.000    0.000    0.000    0.000    0.000 
#
# Total GULP energy -198272.372401 kJ/mol
# GULP energy per Si atom -12392.023275 kJ/mol
# Density = 2.192939 g / cm^3
# Si number density = 21.979419 Si / 1000 Ang^3
#
#
#
# Elastic Constant Matrix: (Units=GPa)
#
#
# Indices 1 2 3 4 5 6 
#
# 1 89.3649 23.6878 36.6042 -1.2969 -23.0549 17.5309
# 2 23.6878 116.9569 42.0900 -8.4774 -18.1510 -7.9549
# 3 36.6042 42.0900 121.6620 -14.5230 -24.9316 4.4102
# 4 -1.2969 -8.4774 -14.5230 37.7273 6.3117 8.2836
# 5 -23.0549 -18.1510 -24.9316 6.3117 32.0041 -11.6102
# 6 17.5309 -7.9549 4.4102 8.2836 -11.6102 41.4119
#
#
#
# Elastic Compliance Matrix: (Units=1/GPa)
#
#
# Indices 1 2 3 4 5 6 
#
# 1 0.015237 -0.001458 -0.002671 -0.000988 0.006676 -0.004377
# 2 -0.001458 0.010755 -0.002510 -0.000348 0.004740 0.004349
# 3 -0.002671 -0.002510 0.011228 0.002774 0.004956 0.000288
# 4 -0.000988 -0.000348 0.002774 0.030569 -0.007764 -0.008235
# 5 0.006676 0.004740 0.004956 -0.007764 0.048773 0.012784
# 6 -0.004377 0.004349 0.000288 -0.008235 0.012784 0.032037
#
#
# Mechanical properties :
#
#
# Convention : Reuss Voigt Hill
#
# Bulk Modulus (GPa) = 41.76776 59.19419 50.48097
# Shear Modulus (GPa) = 29.43642 37.26878 33.35260
#
# Velocity S-wave (km/s) = 3.66358 4.12226 3.89967
# Velocity P-wave (km/s) = 6.07784 7.04610 6.57980
#
# Compressibility (1/GPa) = 0.02394191
#
# Stress axis : x y z
#
# Youngs Moduli (GPa) = 65.62890 92.98036 89.06435
#
# Poissons Ratio (x) = 0.13557 0.23791
# Poissons Ratio (y) = 0.09569 0.22353
# Poissons Ratio (z) = 0.17531 0.23336
#
# Static dielectric constant tensor:
#      x y z
#    x 4.242310 0.101240 -0.561880 
#    y 0.101240 4.087570 -0.207000 
#    z -0.561880 -0.207000 4.550880 
# 
# 
# High freq. dielectric constant tensor:
#      x y z
#    x 1.867230 0.009930 -0.016990 
#    y 0.009930 1.860310 -0.009380 
#    z -0.016990 -0.009380 1.853590 
# 
# From -- ./inp_files/272502.got.cif
#   From: 2010.06.25/outbox.cif.g09.slc.cpg/sg2_137_cif.got.tgz:272502.got - 2010.06.27 13:26:56.
