data_PCOD8007531
_publ_section_title
;
Structure prediction by ZEFSAII (Michael W. Deem and Ramdas Pophale) SiO2 
 PCOD8007531
Probable space group: P -1
;
_chemical_formula_sum "Si O2"
_cell_formula_units_Z 14
_cell_length_a 6.627394
_cell_length_b 5.265064
_cell_length_c 29.758792
_cell_angle_alpha 122.100099
_cell_angle_beta 138.204711
_cell_angle_gamma 70.189415
_cell_volume 583.234412
_symmetry_space_group_name_H-M "P -1"
_symmetry_group_IT_number 2
_symmetry_cell_setting 'triclinic'
loop_
_space_group_symop_operation_xyz
x,y,z
-x,-y,-z
loop_
_atom_site_type_symbol
_atom_site_label
_atom_site_fract_x
_atom_site_fract_y
_atom_site_fract_z
Si Si1 0.677613 0.789467 0.175569
Si Si2 0.358409 0.660776 0.950165
Si Si3 0.270378 0.230259 0.717058
Si Si4 0.660450 0.668979 0.410280
Si Si5 0.795084 0.801272 0.746550
Si Si6 0.993019 0.095975 0.433188
Si Si7 0.742815 0.753405 0.830728
O O1 0.582430 0.504610 0.102041
O O2 0.816504 0.714863 0.240327
O O3 0.353525 0.921108 0.141771
O O4 0.930319 0.020308 0.216538
O O5 0.992822 0.652647 0.897914
O O6 0.500000 0.500000 0.000000
O O7 0.500000 0.000000 0.000000
O O8 0.425163 0.547165 0.755142
O O9 0.510749 0.987811 0.726848
O O10 0.978186 0.113408 0.626416
O O11 0.322057 0.500765 0.329634
O O12 0.897360 0.416170 0.430059
O O13 0.692700 0.847706 0.480571
O O14 0.741373 0.908386 0.406075
O O15 0.916145 0.728492 0.809361
#
# Coordination Sequence:
#
# PCOD8007531 Si02
#       7
#     2   2   2   2   2   2   2
#     4  11  26  43  72 101 136 181 229 284 342 410
#     4  12  29  51  73 102 138 175 221 284 351 424
#     4  10  21  39  67  99 132 183 231 282 327 409
#     4   9  17  31  60  93 133 185 223 276 336 384
#     4  10  20  41  65 100 137 183 233 278 332 402
#     4   9  17  33  57  95 135 177 230 277 331 386
#     4  11  24  44  72 100 136 177 231 277 342 414
#
# _framework density 24.004069000000001
#
# number of rings (size 3 to 8) (size 9 to 14) (size 15 to 20)
#    0.000    1.714    2.857    0.857    6.000    1.143 
#    0.000    0.714    0.000    0.857    0.000    0.000 
#    0.000    0.000    0.000    0.000    0.000    0.000 
#
# Total GULP energy -173480.212323 kJ/mol
# GULP energy per Si atom -12391.443737 kJ/mol
# Density = 2.394943 g / cm^3
# Si number density = 24.004069 Si / 1000 Ang^3
#
#
#
# Elastic Constant Matrix: (Units=GPa)
#
#
# Indices 1 2 3 4 5 6 
#
# 1 87.2346 19.1599 69.6800 5.7085 -32.7877 17.1604
# 2 19.1599 84.2797 57.0191 7.1618 -16.1809 16.4795
# 3 69.6800 57.0191 194.6523 15.9907 -35.4049 -11.9873
# 4 5.7085 7.1618 15.9907 42.3342 1.1444 -0.4544
# 5 -32.7877 -16.1809 -35.4049 1.1444 43.6925 0.3645
# 6 17.1604 16.4795 -11.9873 -0.4544 0.3645 30.6424
#
#
#
# Elastic Compliance Matrix: (Units=1/GPa)
#
#
# Indices 1 2 3 4 5 6 
#
# 1 0.032021 0.010795 -0.013016 -0.002020 0.017775 -0.029071
# 2 0.010795 0.022340 -0.010081 -0.001893 0.008440 -0.022132
# 3 -0.013016 -0.010081 0.013480 -0.001365 -0.002692 0.017996
# 4 -0.002020 -0.001893 -0.001365 0.024860 -0.003991 0.002031
# 5 0.017775 0.008440 -0.002692 -0.003991 0.037409 -0.016050
# 6 -0.029071 -0.022132 0.017996 0.002031 -0.016050 0.068078
#
#
# Mechanical properties :
#
#
# Convention : Reuss Voigt Hill
#
# Bulk Modulus (GPa) = 23.12771 73.09827 48.11299
# Shear Modulus (GPa) = 21.07888 38.02102 29.54995
#
# Velocity S-wave (km/s) = 2.96655 3.98419 3.51242
# Velocity P-wave (km/s) = 4.62491 7.18913 6.04456
#
# Compressibility (1/GPa) = 0.04323818
#
# Stress axis : x y z
#
# Youngs Moduli (GPa) = 31.22954 44.76303 74.18129
#
# Poissons Ratio (x) = -0.48322 0.96554
# Poissons Ratio (y) = -0.33713 0.74780
# Poissons Ratio (z) = 0.40648 0.45124
#
# Static dielectric constant tensor:
#      x y z
#    x 3.980680 -0.030500 -0.501830 
#    y -0.030500 4.407330 0.006690 
#    z -0.501830 0.006690 5.115100 
# 
# 
# High freq. dielectric constant tensor:
#      x y z
#    x 1.920460 0.001100 -0.017220 
#    y 0.001100 1.965600 0.002450 
#    z -0.017220 0.002450 1.973400 
# 
# From -- ./inp_files/11052.got.cif
#   From: 2010.06.25/outbox.cif.g09.slc.cpg/sg2_6_cif.got.tgz:11052.got - 2010.06.27 13:26:56.
