data_PCOD8007642
_publ_section_title
;
Structure prediction by ZEFSAII (Michael W. Deem and Ramdas Pophale) SiO2 
 PCOD8007642
Probable space group: P -1
;
_chemical_formula_sum "Si O2"
_cell_formula_units_Z 16
_cell_length_a 12.216208
_cell_length_b 8.903000
_cell_length_c 9.459578
_cell_angle_alpha 81.505983
_cell_angle_beta 103.664061
_cell_angle_gamma 127.887255
_cell_volume 788.990076
_symmetry_space_group_name_H-M "P -1"
_symmetry_group_IT_number 2
_symmetry_cell_setting 'triclinic'
loop_
_space_group_symop_operation_xyz
x,y,z
-x,-y,-z
loop_
_atom_site_type_symbol
_atom_site_label
_atom_site_fract_x
_atom_site_fract_y
_atom_site_fract_z
Si Si1 0.221093 0.994536 0.697196
Si Si2 0.575798 0.241975 0.359573
Si Si3 0.913450 0.797025 0.707189
Si Si4 0.708921 0.080823 0.567855
Si Si5 0.008707 0.804551 0.252401
Si Si6 0.238614 0.337249 0.604694
Si Si7 0.645595 0.163397 0.091447
Si Si8 0.889632 0.545270 0.981934
O O1 0.286433 0.998966 0.568710
O O2 0.269944 0.924902 0.847669
O O3 0.052173 0.855434 0.657675
O O4 0.272090 0.207242 0.714054
O O5 0.659654 0.213644 0.508421
O O6 0.619919 0.450851 0.368332
O O7 0.619664 0.226962 0.220335
O O8 0.407522 0.095254 0.345288
O O9 0.794569 0.722168 0.561908
O O10 0.938808 0.978116 0.768899
O O11 0.867787 0.629742 0.825162
O O12 0.859156 0.199178 0.675317
O O13 0.892919 0.685765 0.356228
O O14 0.942312 0.700498 0.098884
O O15 0.737041 0.348537 0.995054
O O16 0.500000 0.000000 0.000000
O O17 0.000000 0.500000 0.000000
#
# Coordination Sequence:
#
# PCOD8007642 Si02
#       8
#     2   2   2   2   2   2   2   2
#     4  10  20  41  66  93 128 160 211 268 314 371
#     4  10  24  38  62  91 130 166 217 258 314 377
#     4  11  22  40  67 100 132 164 205 271 323 375
#     4  10  21  39  62  93 125 168 206 270 312 367
#     4  11  22  42  66  94 129 166 215 263 323 370
#     4  11  21  41  69  98 125 168 211 267 324 370
#     4  11  25  46  61  88 132 175 210 263 316 381
#     4  12  26  41  66  95 126 174 216 260 316 382
#
# _framework density 20.279088999999999
#
# number of rings (size 3 to 8) (size 9 to 14) (size 15 to 20)
#    0.000    1.250    5.000    1.125    3.500    3.000 
#    2.250    0.625    0.000    0.000    0.000    0.000 
#    0.000    0.000    0.000    0.000    0.000    0.000 
#
# Total GULP energy -198440.472104 kJ/mol
# GULP energy per Si atom -12402.529506 kJ/mol
# Density = 2.023293 g / cm^3
# Si number density = 20.279089 Si / 1000 Ang^3
#
#
#
# Elastic Constant Matrix: (Units=GPa)
#
#
# Indices 1 2 3 4 5 6 
#
# 1 48.8016 12.3354 4.9352 -2.8781 -8.1001 -3.9271
# 2 12.3354 126.2546 35.7197 -8.3203 -11.1251 -7.2985
# 3 4.9352 35.7197 64.3192 -9.3733 -6.5716 -12.4693
# 4 -2.8781 -8.3203 -9.3733 37.3298 4.3748 -4.1234
# 5 -8.1001 -11.1251 -6.5716 4.3748 26.3873 -5.1151
# 6 -3.9271 -7.2985 -12.4693 -4.1234 -5.1151 26.6595
#
#
#
# Elastic Compliance Matrix: (Units=1/GPa)
#
#
# Indices 1 2 3 4 5 6 
#
# 1 0.022444 -0.001456 0.000990 0.001353 0.007262 0.004973
# 2 -0.001456 0.009726 -0.004786 0.000647 0.002508 0.000791
# 3 0.000990 -0.004786 0.021391 0.004979 0.004831 0.010538
# 4 0.001353 0.000647 0.004979 0.029237 -0.001577 0.006925
# 5 0.007262 0.002508 0.004831 -0.001577 0.045055 0.012416
# 6 0.004973 0.000791 0.010538 0.006925 0.012416 0.046841
#
#
# Mechanical properties :
#
#
# Convention : Reuss Voigt Hill
#
# Bulk Modulus (GPa) = 23.22486 38.37289 30.79888
# Shear Modulus (GPa) = 25.05613 30.50098 27.77855
#
# Velocity S-wave (km/s) = 3.51887 3.88243 3.70511
# Velocity P-wave (km/s) = 5.29032 6.24989 5.79002
#
# Compressibility (1/GPa) = 0.04305730
#
# Stress axis : x y z
#
# Youngs Moduli (GPa) = 44.55440 102.81575 46.74789
#
# Poissons Ratio (x) = 0.14974 -0.04627
# Poissons Ratio (y) = 0.06489 0.22372
# Poissons Ratio (z) = -0.04410 0.49205
#
# Static dielectric constant tensor:
#      x y z
#    x 3.787230 -0.102330 -0.020020 
#    y -0.102330 3.726160 -0.168530 
#    z -0.020020 -0.168530 3.694130 
# 
# 
# High freq. dielectric constant tensor:
#      x y z
#    x 1.791810 -0.004520 -0.007000 
#    y -0.004520 1.796590 -0.010500 
#    z -0.007000 -0.010500 1.784720 
# 
# From -- ./inp_files/158714.got.cif
#   From: 2010.06.25/outbox.cif.g09.slc.cpg/sg2_80_cif.got.tgz:158714.got - 2010.06.27 13:26:56.
