data_PCOD8007379
_publ_section_title
;
Structure prediction by ZEFSAII (Michael W. Deem and Ramdas Pophale) SiO2 
 PCOD8007379
Probable space group: P -1
;
_chemical_formula_sum "Si O2"
_cell_formula_units_Z 16
_cell_length_a 14.289486
_cell_length_b 11.141050
_cell_length_c 15.103638
_cell_angle_alpha 52.236388
_cell_angle_beta 140.846151
_cell_angle_gamma 148.533089
_cell_volume 783.704523
_symmetry_space_group_name_H-M "P -1"
_symmetry_group_IT_number 2
_symmetry_cell_setting 'triclinic'
loop_
_space_group_symop_operation_xyz
x,y,z
-x,-y,-z
loop_
_atom_site_type_symbol
_atom_site_label
_atom_site_fract_x
_atom_site_fract_y
_atom_site_fract_z
Si Si1 0.951809 0.408632 0.158718
Si Si2 0.210787 0.417348 0.129442
Si Si3 0.429557 0.503334 0.073604
Si Si4 0.786360 0.249667 0.299576
Si Si5 0.445914 0.746413 0.309012
Si Si6 0.844855 0.020720 0.167055
Si Si7 0.908613 0.074813 0.572510
Si Si8 0.782414 0.567565 0.223164
O O1 0.221725 0.599085 0.268331
O O2 0.873521 0.385411 0.210304
O O3 0.828656 0.159523 0.149945
O O4 0.879932 0.488064 0.006375
O O5 0.313983 0.402852 0.130397
O O6 0.400077 0.592705 0.264804
O O7 0.001485 0.160024 0.132030
O O8 0.575297 0.464464 0.180481
O O9 0.591267 0.778095 0.061722
O O10 0.239586 0.376507 0.916021
O O11 0.776602 0.380948 0.302088
O O12 0.536457 0.978112 0.231262
O O13 0.959981 0.253457 0.460844
O O14 0.638700 0.827349 0.480129
O O15 0.949109 0.965795 0.329251
O O16 0.980832 0.188114 0.672460
#
# Coordination Sequence:
#
# PCOD8007379 Si02
#       8
#     2   2   2   2   2   2   2   2
#     4  11  22  36  61  94 117 151 194 241 297 352
#     4  11  22  38  61  95 115 149 197 242 300 349
#     4  10  22  39  64  87 115 157 194 244 303 323
#     4  10  21  39  62  81 123 155 195 240 280 356
#     4   9  22  38  60  90 119 154 186 240 301 346
#     4  10  22  39  60  90 125 144 193 248 288 358
#     4   9  22  42  58  84 120 162 193 234 294 339
#     4  10  20  41  62  84 117 156 204 240 277 352
#
# _framework density 20.415859000000001
#
# number of rings (size 3 to 8) (size 9 to 14) (size 15 to 20)
#    0.750    1.250    1.250    2.625    3.500    3.500 
#    6.750    8.750    0.000    0.000    0.000    0.000 
#    0.000    0.000    0.000    0.000    0.000    0.000 
#
# Total GULP energy -198327.802896 kJ/mol
# GULP energy per Si atom -12395.487681 kJ/mol
# Density = 2.036939 g / cm^3
# Si number density = 20.415859 Si / 1000 Ang^3
#
#
#
# Elastic Constant Matrix: (Units=GPa)
#
#
# Indices 1 2 3 4 5 6 
#
# 1 107.8658 14.5877 15.6660 -0.3092 -8.1265 -3.4557
# 2 14.5877 34.5502 23.3880 5.3644 -17.7489 5.7250
# 3 15.6660 23.3880 86.1200 11.7602 -7.2661 -6.9499
# 4 -0.3092 5.3644 11.7602 39.9841 -13.3202 5.2287
# 5 -8.1265 -17.7489 -7.2661 -13.3202 24.4005 -5.6772
# 6 -3.4557 5.7250 -6.9499 5.2287 -5.6772 24.9138
#
#
#
# Elastic Compliance Matrix: (Units=1/GPa)
#
#
# Indices 1 2 3 4 5 6 
#
# 1 0.010035 -0.003355 -0.000737 0.001049 0.001752 0.002136
# 2 -0.003355 0.064043 -0.015670 0.012492 0.044838 -0.011957
# 3 -0.000737 -0.015670 0.016814 -0.006683 -0.008504 0.007654
# 4 0.001049 0.012492 -0.006683 0.034366 0.024774 -0.006156
# 5 0.001752 0.044838 -0.008504 0.024774 0.085610 0.001876
# 6 0.002136 -0.011957 0.007654 -0.006156 0.001876 0.047037
#
#
# Mechanical properties :
#
#
# Convention : Reuss Voigt Hill
#
# Bulk Modulus (GPa) = 19.46726 37.31327 28.39027
# Shear Modulus (GPa) = 15.89568 29.51929 22.70748
#
# Velocity S-wave (km/s) = 2.79336 3.80662 3.33866
# Velocity P-wave (km/s) = 4.46765 6.13488 5.36641
#
# Compressibility (1/GPa) = 0.05136830
#
# Stress axis : x y z
#
# Youngs Moduli (GPa) = 99.65132 15.61452 59.47394
#
# Poissons Ratio (x) = 0.05238 0.04386
# Poissons Ratio (y) = 0.33428 0.93195
# Poissons Ratio (z) = 0.07349 0.24468
#
# Static dielectric constant tensor:
#      x y z
#    x 3.596040 -0.181670 0.028650 
#    y -0.181670 3.617430 0.079660 
#    z 0.028650 0.079660 3.699000 
# 
# 
# High freq. dielectric constant tensor:
#      x y z
#    x 1.788230 -0.018350 0.006300 
#    y -0.018350 1.786770 0.005640 
#    z 0.006300 0.005640 1.799110 
# 
# From -- ./inp_files/471786.got.cif
#   From: 2010.06.25/outbox.cif.g09.slc.cpg/sg2_236_cif.got.tgz:471786.got - 2010.06.27 13:26:56.
