data_PCOD8007804
_publ_section_title
;
Structure prediction by ZEFSAII (Michael W. Deem and Ramdas Pophale) SiO2 
 PCOD8007804
Probable space group: P -1
;
_chemical_formula_sum "Si O2"
_cell_formula_units_Z 14
_cell_length_a 19.566459
_cell_length_b 11.339451
_cell_length_c 19.096475
_cell_angle_alpha 21.291177
_cell_angle_beta 156.473297
_cell_angle_gamma 144.683370
_cell_volume 592.269590
_symmetry_space_group_name_H-M "P -1"
_symmetry_group_IT_number 2
_symmetry_cell_setting 'triclinic'
loop_
_space_group_symop_operation_xyz
x,y,z
-x,-y,-z
loop_
_atom_site_type_symbol
_atom_site_label
_atom_site_fract_x
_atom_site_fract_y
_atom_site_fract_z
Si Si1 0.558882 0.802761 0.736495
Si Si2 0.003735 0.825026 0.868256
Si Si3 0.606310 0.120683 0.321728
Si Si4 0.938229 0.670542 0.689967
Si Si5 0.824758 0.937270 0.219569
Si Si6 0.037845 0.342615 0.823121
Si Si7 0.444435 0.949055 0.840883
O O1 0.465429 0.018814 0.597330
O O2 0.500000 0.000000 0.500000
O O3 0.767147 0.731148 0.983956
O O4 0.505336 0.452996 0.879765
O O5 0.143162 0.005617 0.864494
O O6 0.059841 0.691415 0.073166
O O7 0.813021 0.093493 0.541411
O O8 0.000000 0.500000 0.000000
O O9 0.584007 0.928207 0.335141
O O10 0.500000 0.500000 0.000000
O O11 0.016328 0.603026 0.723359
O O12 0.733774 0.888335 0.373150
O O13 0.065690 0.853813 0.748974
O O14 0.899708 0.537809 0.526739
O O15 0.613814 0.061991 0.967830
O O16 0.000000 0.000000 0.000000
#
# Coordination Sequence:
#
# PCOD8007804 Si02
#       7
#     2   2   2   2   2   2   2
#     4  11  23  43  68 103 145 183 234 293 348 418
#     4  10  20  42  69  99 138 178 227 289 346 407
#     4  10  20  41  68  99 141 180 225 291 350 403
#     4  11  24  48  70 100 146 179 234 300 347 418
#     4  11  23  43  73 103 135 182 235 286 357 417
#     4  12  26  47  67 100 142 188 234 288 358 426
#     4  11  23  43  72 103 135 187 236 287 354 419
#
# _framework density 23.637885000000001
#
# number of rings (size 3 to 8) (size 9 to 14) (size 15 to 20)
#    0.000    1.143    4.286    3.000    0.000    3.429 
#    7.714    4.286    0.000    0.000    0.000    0.000 
#    0.000    0.000    0.000    0.000    0.000    0.000 
#
# Total GULP energy -173553.117264 kJ/mol
# GULP energy per Si atom -12396.651233 kJ/mol
# Density = 2.358408 g / cm^3
# Si number density = 23.637885 Si / 1000 Ang^3
#
#
#
# Elastic Constant Matrix: (Units=GPa)
#
#
# Indices 1 2 3 4 5 6 
#
# 1 112.0826 23.3237 15.2954 1.1165 -5.3795 19.6009
# 2 23.3237 84.1264 37.6788 23.4667 8.7717 29.6709
# 3 15.2954 37.6788 102.2003 16.0311 -1.7882 12.9724
# 4 1.1165 23.4667 16.0311 41.5093 15.2759 5.0953
# 5 -5.3795 8.7717 -1.7882 15.2759 54.7700 -0.0849
# 6 19.6009 29.6709 12.9724 5.0953 -0.0849 26.4357
#
#
#
# Elastic Compliance Matrix: (Units=1/GPa)
#
#
# Indices 1 2 3 4 5 6 
#
# 1 0.010358 -0.000399 -0.000606 0.000739 0.000845 -0.007074
# 2 -0.000399 0.025288 -0.004870 -0.008782 -0.001836 -0.024010
# 3 -0.000606 -0.004870 0.012050 -0.002627 0.001847 0.000515
# 4 0.000739 -0.008782 -0.002627 0.032319 -0.007614 0.004344
# 5 0.000845 -0.001836 0.001847 -0.007614 0.020822 0.002063
# 6 -0.007074 -0.024010 0.000515 0.004344 0.002063 0.068938
#
#
# Mechanical properties :
#
#
# Convention : Reuss Voigt Hill
#
# Bulk Modulus (GPa) = 27.82068 50.11168 38.96618
# Shear Modulus (GPa) = 25.83849 39.35042 32.59446
#
# Velocity S-wave (km/s) = 3.30979 4.08452 3.71739
# Velocity P-wave (km/s) = 5.13822 6.59471 5.91149
#
# Compressibility (1/GPa) = 0.03594448
#
# Stress axis : x y z
#
# Youngs Moduli (GPa) = 96.54286 39.54385 82.98702
#
# Poissons Ratio (x) = 0.01580 0.05030
# Poissons Ratio (y) = 0.03857 0.40418
# Poissons Ratio (z) = 0.05852 0.19260
#
# Static dielectric constant tensor:
#      x y z
#    x 5.561030 0.526610 -0.524290 
#    y 0.526610 4.351030 -0.204930 
#    z -0.524290 -0.204930 4.798280 
# 
# 
# High freq. dielectric constant tensor:
#      x y z
#    x 1.954650 0.019670 -0.005310 
#    y 0.019670 1.899070 0.005220 
#    z -0.005310 0.005220 1.950900 
# 
# From -- ./inp_files/601404.got.cif
#   From: 2010.06.25/outbox.cif.g09.slc.cpg/sg2_301_cif.got.tgz:601404.got - 2010.06.27 13:26:56.
