data_PCOD8007863
_publ_section_title
;
Structure prediction by ZEFSAII (Michael W. Deem and Ramdas Pophale) SiO2 
 PCOD8007863
Probable space group: P -1
;
_chemical_formula_sum "Si O2"
_cell_formula_units_Z 16
_cell_length_a 14.469477
_cell_length_b 10.769745
_cell_length_c 9.061652
_cell_angle_alpha 72.208409
_cell_angle_beta 82.353480
_cell_angle_gamma 30.016065
_cell_volume 646.462935
_symmetry_space_group_name_H-M "P -1"
_symmetry_group_IT_number 2
_symmetry_cell_setting 'triclinic'
loop_
_space_group_symop_operation_xyz
x,y,z
-x,-y,-z
loop_
_atom_site_type_symbol
_atom_site_label
_atom_site_fract_x
_atom_site_fract_y
_atom_site_fract_z
Si Si1 0.858366 0.367871 0.615721
Si Si2 0.901329 0.024070 0.675385
Si Si3 0.613058 0.396224 0.365096
Si Si4 0.535424 0.866230 0.677662
Si Si5 0.730058 0.729931 0.959596
Si Si6 0.303329 0.429525 0.738699
Si Si7 0.167880 0.108307 0.047735
Si Si8 0.738683 0.033075 0.252744
O O1 0.729024 0.548389 0.721720
O O2 0.729003 0.563899 0.428957
O O3 0.909564 0.154309 0.701158
O O4 0.049020 0.224229 0.626771
O O5 0.104548 0.710168 0.753877
O O6 0.833117 0.123050 0.482663
O O7 0.771373 0.082663 0.781315
O O8 0.500000 0.500000 0.500000
O O9 0.561145 0.608196 0.251120
O O10 0.601682 0.308742 0.263336
O O11 0.577916 0.903295 0.796180
O O12 0.351462 0.998553 0.691983
O O13 0.500000 0.000000 0.500000
O O14 0.940451 0.420226 0.982178
O O15 0.635151 0.770674 0.105527
O O16 0.723536 0.891750 0.933569
O O17 0.239133 0.967219 0.925633
#
# Coordination Sequence:
#
# PCOD8007863 Si02
#       8
#     2   2   2   2   2   2   2   2
#     4  11  22  46  72 104 140 179 241 288 347 423
#     4  10  20  41  70 103 135 178 234 283 351 415
#     4  11  22  40  67 106 140 177 235 289 349 422
#     4  12  30  46  67 105 141 184 238 297 347 421
#     4  10  24  47  67 100 143 180 241 285 349 423
#     4  10  20  41  74  97 135 187 221 291 353 405
#     4  10  24  43  73 100 135 195 230 288 352 413
#     4  12  24  43  72 102 139 186 233 284 358 413
#
# _framework density 24.750067000000001
#
# number of rings (size 3 to 8) (size 9 to 14) (size 15 to 20)
#    0.000    1.250    3.750    2.250    3.500    4.500 
#    0.000    1.875    0.000    0.000    0.000    0.000 
#    0.000    0.000    0.000    0.000    0.000    0.000 
#
# Total GULP energy -198377.525450 kJ/mol
# GULP energy per Si atom -12398.595341 kJ/mol
# Density = 2.469373 g / cm^3
# Si number density = 24.750067 Si / 1000 Ang^3
#
#
#
# Elastic Constant Matrix: (Units=GPa)
#
#
# Indices 1 2 3 4 5 6 
#
# 1 176.9403 29.5089 74.1487 11.3058 -1.1269 -11.7577
# 2 29.5089 78.9866 26.8166 29.5384 -0.0048 8.9443
# 3 74.1487 26.8166 137.6886 13.8493 -15.4821 21.4850
# 4 11.3058 29.5384 13.8493 43.3471 6.1184 0.9954
# 5 -1.1269 -0.0048 -15.4821 6.1184 50.4254 10.1597
# 6 -11.7577 8.9443 21.4850 0.9954 10.1597 33.4758
#
#
#
# Elastic Compliance Matrix: (Units=1/GPa)
#
#
# Indices 1 2 3 4 5 6 
#
# 1 0.009424 -0.003163 -0.006618 0.002158 -0.004008 0.009555
# 2 -0.003163 0.019193 0.000748 -0.012774 0.003183 -0.007305
# 3 -0.006618 0.000748 0.014049 -0.004004 0.007406 -0.013670
# 4 0.002158 -0.012774 -0.004004 0.033270 -0.006793 0.007813
# 5 -0.004008 0.003183 0.007406 -0.006793 0.025789 -0.014636
# 6 0.009555 -0.007305 -0.013670 0.007813 -0.014636 0.048163
#
#
# Mechanical properties :
#
#
# Convention : Reuss Voigt Hill
#
# Bulk Modulus (GPa) = 40.64998 72.72932 56.68965
# Shear Modulus (GPa) = 28.38437 42.99243 35.68840
#
# Velocity S-wave (km/s) = 3.39018 4.17233 3.80142
# Velocity P-wave (km/s) = 5.63775 7.25675 6.49787
#
# Compressibility (1/GPa) = 0.02460026
#
# Stress axis : x y z
#
# Youngs Moduli (GPa) = 106.11391 52.10320 71.17814
#
# Poissons Ratio (x) = 0.16482 0.47103
# Poissons Ratio (y) = 0.33567 -0.05325
# Poissons Ratio (z) = 0.70222 -0.03898
#
# Static dielectric constant tensor:
#      x y z
#    x 6.733580 0.995680 1.553690 
#    y 0.995680 5.944290 0.809850 
#    z 1.553690 0.809850 5.641870 
# 
# 
# High freq. dielectric constant tensor:
#      x y z
#    x 1.994090 -0.009030 -0.005670 
#    y -0.009030 2.023410 0.006770 
#    z -0.005670 0.006770 1.976730 
# 
# From -- ./inp_files/307006.got.cif
#   From: 2010.06.25/outbox.cif.g09.slc.cpg/sg2_154_cif.got.tgz:307006.got - 2010.06.27 13:26:56.
