data_PCOD8007769
_publ_section_title
;
Structure prediction by ZEFSAII (Michael W. Deem and Ramdas Pophale) SiO2 
 PCOD8007769
Probable space group: P -1
;
_chemical_formula_sum "Si O2"
_cell_formula_units_Z 16
_cell_length_a 15.440396
_cell_length_b 30.518171
_cell_length_c 9.355966
_cell_angle_alpha 35.085103
_cell_angle_beta 136.672349
_cell_angle_gamma 161.909722
_cell_volume 754.829936
_symmetry_space_group_name_H-M "P -1"
_symmetry_group_IT_number 2
_symmetry_cell_setting 'triclinic'
loop_
_space_group_symop_operation_xyz
x,y,z
-x,-y,-z
loop_
_atom_site_type_symbol
_atom_site_label
_atom_site_fract_x
_atom_site_fract_y
_atom_site_fract_z
Si Si1 0.823391 0.183467 0.465266
Si Si2 0.837936 0.974368 0.779671
Si Si3 0.187551 0.314000 0.312129
Si Si4 0.767061 0.309819 0.202370
Si Si5 0.365325 0.532870 0.718661
Si Si6 0.216328 0.755342 0.311113
Si Si7 0.214894 0.914334 0.022227
Si Si8 0.926681 0.894681 0.583743
O O1 0.878327 0.301246 0.259960
O O2 0.848748 0.140378 0.744532
O O3 0.103068 0.314292 0.353251
O O4 0.500000 0.000000 0.500000
O O5 0.506997 0.795471 0.914225
O O6 0.934430 0.114414 0.533501
O O7 0.863148 0.967960 0.660559
O O8 0.000000 0.000000 0.000000
O O9 0.487304 0.427633 0.350715
O O10 0.194338 0.376876 0.022856
O O11 0.667969 0.224171 0.465251
O O12 0.000000 0.500000 0.000000
O O13 0.597884 0.707784 0.624361
O O14 0.107060 0.448896 0.579813
O O15 0.184522 0.827193 0.112964
O O16 0.456445 0.872790 0.162356
O O17 0.981907 0.846717 0.862059
O O18 0.000000 0.000000 0.500000
#
# Coordination Sequence:
#
# PCOD8007769 Si02
#       8
#     2   2   2   2   2   2   2   2
#     4  11  22  40  69  98 130 172 227 282 326 399
#     4  11  24  43  67  90 134 185 218 266 343 413
#     4  10  21  40  68  96 125 169 230 268 323 404
#     4  11  25  41  62 100 135 168 222 278 344 393
#     4  10  22  41  69  95 127 175 224 271 335 406
#     4  10  20  41  68  92 124 174 223 272 331 398
#     4  10  21  39  68  95 126 172 225 277 328 392
#     4  11  25  43  64  96 136 175 224 277 337 403
#
# _framework density 21.196826999999999
#
# number of rings (size 3 to 8) (size 9 to 14) (size 15 to 20)
#    0.000    1.500    2.500    3.000    7.000    1.000 
#    0.000    6.250    0.000    0.000    0.000    0.000 
#    0.000    0.000    0.000    0.000    0.000    0.000 
#
# Total GULP energy -198221.913280 kJ/mol
# GULP energy per Si atom -12388.869580 kJ/mol
# Density = 2.114858 g / cm^3
# Si number density = 21.196827 Si / 1000 Ang^3
#
#
#
# Elastic Constant Matrix: (Units=GPa)
#
#
# Indices 1 2 3 4 5 6 
#
# 1 128.6592 48.7609 60.2185 -4.4431 -10.9936 -5.1127
# 2 48.7609 123.7125 26.0940 -3.8146 -1.5121 7.1856
# 3 60.2185 26.0940 79.7113 -4.1311 -2.7956 -3.2141
# 4 -4.4431 -3.8146 -4.1311 38.4586 -1.9324 -1.1493
# 5 -10.9936 -1.5121 -2.7956 -1.9324 37.8137 -8.4190
# 6 -5.1127 7.1856 -3.2141 -1.1493 -8.4190 25.0076
#
#
#
# Elastic Compliance Matrix: (Units=1/GPa)
#
#
# Indices 1 2 3 4 5 6 
#
# 1 0.013943 -0.003785 -0.008944 0.000613 0.004215 0.004236
# 2 -0.003785 0.009939 -0.000611 0.000271 -0.001683 -0.004262
# 3 -0.008944 -0.000611 0.019540 0.000971 -0.001005 0.000565
# 4 0.000613 0.000271 0.000971 0.026370 0.002072 0.002082
# 5 0.004215 -0.001683 -0.001005 0.002072 0.030190 0.011475
# 6 0.004236 -0.004262 0.000565 0.002082 0.011475 0.046110
#
#
# Mechanical properties :
#
#
# Convention : Reuss Voigt Hill
#
# Bulk Modulus (GPa) = 59.72901 66.91443 63.32172
# Shear Modulus (GPa) = 28.03433 33.38994 30.71214
#
# Velocity S-wave (km/s) = 3.64066 3.97323 3.81057
# Velocity P-wave (km/s) = 6.77584 7.25847 7.02130
#
# Compressibility (1/GPa) = 0.01674228
#
# Stress axis : x y z
#
# Youngs Moduli (GPa) = 71.72288 100.61107 51.17727
#
# Poissons Ratio (x) = 0.38077 0.45771
# Poissons Ratio (y) = 0.27144 0.03129
# Poissons Ratio (z) = 0.64147 0.06152
#
# Static dielectric constant tensor:
#      x y z
#    x 3.931160 0.209920 -0.345750 
#    y 0.209920 3.953550 -0.038440 
#    z -0.345750 -0.038440 3.508250 
# 
# 
# High freq. dielectric constant tensor:
#      x y z
#    x 1.815390 0.009790 -0.005770 
#    y 0.009790 1.834110 -0.000760 
#    z -0.005770 -0.000760 1.833560 
# 
# From -- ./inp_files/321049.got.cif
#   From: 2010.06.25/outbox.cif.g09.slc.cpg/sg2_161_cif.got.tgz:321049.got - 2010.06.27 13:26:56.
