data_PCOD8007446
_publ_section_title
;
Structure prediction by ZEFSAII (Michael W. Deem and Ramdas Pophale) SiO2 
 PCOD8007446
Probable space group: P -1
;
_chemical_formula_sum "Si O2"
_cell_formula_units_Z 16
_cell_length_a 13.257790
_cell_length_b 8.740115
_cell_length_c 16.682470
_cell_angle_alpha 32.316662
_cell_angle_beta 48.491202
_cell_angle_gamma 50.183926
_cell_volume 758.174040
_symmetry_space_group_name_H-M "P -1"
_symmetry_group_IT_number 2
_symmetry_cell_setting 'triclinic'
loop_
_space_group_symop_operation_xyz
x,y,z
-x,-y,-z
loop_
_atom_site_type_symbol
_atom_site_label
_atom_site_fract_x
_atom_site_fract_y
_atom_site_fract_z
Si Si1 0.908966 0.418477 0.654577
Si Si2 0.689390 0.134212 0.843427
Si Si3 0.100728 0.357363 0.121153
Si Si4 0.558668 0.771694 0.183542
Si Si5 0.385228 0.906569 0.545617
Si Si6 0.876223 0.840265 0.633609
Si Si7 0.108003 0.852779 0.782686
Si Si8 0.581082 0.166550 0.614104
O O1 0.752361 0.413585 0.712275
O O2 0.892949 0.649094 0.630476
O O3 0.000000 0.500000 0.500000
O O4 0.987350 0.091296 0.782253
O O5 0.549142 0.245815 0.822378
O O6 0.795021 0.946060 0.811022
O O7 0.671582 0.945101 0.015555
O O8 0.106403 0.390896 0.199304
O O9 0.951965 0.317157 0.183464
O O10 0.156559 0.619733 0.931602
O O11 0.620239 0.433067 0.314365
O O12 0.499155 0.944085 0.219731
O O13 0.230487 0.015004 0.614757
O O14 0.418906 0.009357 0.392333
O O15 0.500000 0.000000 0.500000
O O16 0.739895 0.098750 0.589380
O O17 0.000000 0.000000 0.500000
O O18 0.500000 0.500000 0.500000
#
# Coordination Sequence:
#
# PCOD8007446 Si02
#       8
#     2   2   2   2   2   2   2   2
#     4  11  25  40  65  94 133 163 217 272 321 386
#     4  10  20  41  63  93 122 172 213 260 321 387
#     4  10  20  41  70  89 128 168 218 264 318 395
#     4  10  21  39  66  86 127 170 215 256 323 388
#     4  11  23  38  62  95 130 167 210 267 323 386
#     4  12  24  42  68  98 131 172 217 269 332 386
#     4  10  22  42  64  97 126 170 215 264 326 383
#     4  10  23  41  62  96 128 169 218 266 322 387
#
# _framework density 21.103334
#
# number of rings (size 3 to 8) (size 9 to 14) (size 15 to 20)
#    0.000    1.500    2.500    3.000    3.500    1.500 
#    2.250    0.625    0.000    0.000    0.000    0.000 
#    0.000    0.000    0.000    0.000    0.000    0.000 
#
# Total GULP energy -198217.853424 kJ/mol
# GULP energy per Si atom -12388.615839 kJ/mol
# Density = 2.105530 g / cm^3
# Si number density = 21.103334 Si / 1000 Ang^3
#
#
#
# Elastic Constant Matrix: (Units=GPa)
#
#
# Indices 1 2 3 4 5 6 
#
# 1 98.8474 36.3198 40.5595 15.7852 0.0060 4.9190
# 2 36.3198 86.5344 24.4172 14.6127 3.1597 7.9235
# 3 40.5595 24.4172 79.4915 21.4438 -4.4379 17.1064
# 4 15.7852 14.6127 21.4438 37.0493 -2.4740 6.7180
# 5 0.0060 3.1597 -4.4379 -2.4740 38.6534 3.5869
# 6 4.9190 7.9235 17.1064 6.7180 3.5869 36.8263
#
#
#
# Elastic Compliance Matrix: (Units=1/GPa)
#
#
# Indices 1 2 3 4 5 6 
#
# 1 0.014287 -0.004217 -0.006143 -0.001302 -0.000646 0.002153
# 2 -0.004217 0.014353 -0.001254 -0.003003 -0.001392 -0.001259
# 3 -0.006143 -0.001254 0.019582 -0.006778 0.002569 -0.007020
# 4 -0.001302 -0.003003 -0.006778 0.033184 0.001801 -0.002260
# 5 -0.000646 -0.001392 0.002569 0.001801 0.026742 -0.003741
# 6 0.002153 -0.001259 -0.007020 -0.002260 -0.003741 0.031175
#
#
# Mechanical properties :
#
#
# Convention : Reuss Voigt Hill
#
# Bulk Modulus (GPa) = 40.00732 51.94067 45.97399
# Shear Modulus (GPa) = 29.26000 33.41092 31.33546
#
# Velocity S-wave (km/s) = 3.72763 3.98327 3.85757
# Velocity P-wave (km/s) = 6.12584 6.76914 6.45551
#
# Compressibility (1/GPa) = 0.02499543
#
# Stress axis : x y z
#
# Youngs Moduli (GPa) = 69.99160 69.67158 51.06816
#
# Poissons Ratio (x) = 0.29381 0.31370
# Poissons Ratio (y) = 0.29516 0.06402
# Poissons Ratio (z) = 0.42994 0.08735
#
# Static dielectric constant tensor:
#      x y z
#    x 3.680830 0.072050 0.231350 
#    y 0.072050 4.364890 0.181230 
#    z 0.231350 0.181230 3.963520 
# 
# 
# High freq. dielectric constant tensor:
#      x y z
#    x 1.821330 -0.013210 0.017880 
#    y -0.013210 1.834470 0.011550 
#    z 0.017880 0.011550 1.822760 
# 
# From -- ./inp_files/337378.got.cif
#   From: 2010.06.25/outbox.cif.g09.slc.cpg/sg2_169_cif.got.tgz:337378.got - 2010.06.27 13:26:56.
