data_PCOD8007941
_publ_section_title
;
Structure prediction by ZEFSAII (Michael W. Deem and Ramdas Pophale) SiO2 
 PCOD8007941
Probable space group: P -1
;
_chemical_formula_sum "Si O2"
_cell_formula_units_Z 16
_cell_length_a 11.174757
_cell_length_b 8.837107
_cell_length_c 11.621418
_cell_angle_alpha 127.304074
_cell_angle_beta 128.908100
_cell_angle_gamma 61.784054
_cell_volume 702.437371
_symmetry_space_group_name_H-M "P -1"
_symmetry_group_IT_number 2
_symmetry_cell_setting 'triclinic'
loop_
_space_group_symop_operation_xyz
x,y,z
-x,-y,-z
loop_
_atom_site_type_symbol
_atom_site_label
_atom_site_fract_x
_atom_site_fract_y
_atom_site_fract_z
Si Si1 0.633574 0.392600 0.310555
Si Si2 0.219943 0.783901 0.141809
Si Si3 0.047725 0.418198 0.201676
Si Si4 0.388665 0.246938 0.248267
Si Si5 0.038330 0.791716 0.482697
Si Si6 0.299016 0.854552 0.971139
Si Si7 0.498650 0.788041 0.451668
Si Si8 0.960024 0.833974 0.706275
O O1 0.476678 0.373029 0.275446
O O2 0.780494 0.270067 0.405345
O O3 0.617428 0.317615 0.136952
O O4 0.642160 0.623857 0.420084
O O5 0.342993 0.704248 0.277369
O O6 0.171218 0.006920 0.247642
O O7 0.309878 0.778364 0.072774
O O8 0.075658 0.664576 0.994255
O O9 0.218850 0.362367 0.227214
O O10 0.997062 0.647430 0.290951
O O11 0.038609 0.350638 0.297414
O O12 0.496600 0.202735 0.404726
O O13 0.379866 0.042700 0.089569
O O14 0.935638 0.785316 0.534636
O O15 0.000000 0.000000 0.500000
O O16 0.121164 0.917311 0.855234
O O17 0.500000 0.000000 0.500000
#
# Coordination Sequence:
#
# PCOD8007941 Si02
#       8
#     2   2   2   2   2   2   2   2
#     4  11  27  44  68 101 143 182 225 282 355 407
#     4  11  22  42  71 107 130 176 238 286 332 405
#     4  11  21  44  73  97 134 182 233 283 339 404
#     4  12  22  45  72  97 139 189 223 280 351 410
#     4  11  26  45  67 100 139 182 230 286 340 413
#     4  10  20  44  69  99 135 179 228 285 338 407
#     4  12  25  45  71 102 139 182 231 285 337 409
#     4  10  20  41  73  99 133 173 234 285 340 397
#
# _framework density 22.777832
#
# number of rings (size 3 to 8) (size 9 to 14) (size 15 to 20)
#    0.000    1.000    5.000    1.875    1.750    0.500 
#    6.750    1.250    0.000    0.000    0.000    0.000 
#    0.000    0.000    0.000    0.000    0.000    0.000 
#
# Total GULP energy -198358.469063 kJ/mol
# GULP energy per Si atom -12397.404316 kJ/mol
# Density = 2.272599 g / cm^3
# Si number density = 22.777832 Si / 1000 Ang^3
#
#
#
# Elastic Constant Matrix: (Units=GPa)
#
#
# Indices 1 2 3 4 5 6 
#
# 1 110.4909 41.8925 35.4014 2.0211 -14.4335 -3.5482
# 2 41.8925 134.3190 47.5406 22.5509 -2.2792 -17.9900
# 3 35.4014 47.5406 99.3961 11.5228 -12.1346 -19.2253
# 4 2.0211 22.5509 11.5228 44.8269 -11.9537 -0.6093
# 5 -14.4335 -2.2792 -12.1346 -11.9537 32.9136 4.8402
# 6 -3.5482 -17.9900 -19.2253 -0.6093 4.8402 14.3834
#
#
#
# Elastic Compliance Matrix: (Units=1/GPa)
#
#
# Indices 1 2 3 4 5 6 
#
# 1 0.012461 -0.004428 -0.003883 0.004326 0.006729 -0.009736
# 2 -0.004428 0.012349 -0.001547 -0.007107 -0.006313 0.014109
# 3 -0.003883 -0.001547 0.016120 -0.002834 0.000398 0.018399
# 4 0.004326 -0.007107 -0.002834 0.029777 0.013357 -0.014843
# 5 0.006729 -0.006313 0.000398 0.013357 0.040662 -0.018822
# 6 -0.009736 0.014109 0.018399 -0.014843 -0.018822 0.115066
#
#
# Mechanical properties :
#
#
# Convention : Reuss Voigt Hill
#
# Bulk Modulus (GPa) = 47.14251 65.98612 56.56431
# Shear Modulus (GPa) = 19.74535 33.04955 26.39745
#
# Velocity S-wave (km/s) = 2.94745 3.81327 3.40797
# Velocity P-wave (km/s) = 5.68550 6.95847 6.35395
#
# Compressibility (1/GPa) = 0.02121228
#
# Stress axis : x y z
#
# Youngs Moduli (GPa) = 80.25115 80.97540 62.03525
#
# Poissons Ratio (x) = 0.35856 0.24091
# Poissons Ratio (y) = 0.35536 0.09600
# Poissons Ratio (z) = 0.31165 0.12531
#
# Static dielectric constant tensor:
#      x y z
#    x 4.129790 -0.181200 -0.118300 
#    y -0.181200 3.964670 0.121690 
#    z -0.118300 0.121690 4.513890 
# 
# 
# High freq. dielectric constant tensor:
#      x y z
#    x 1.889840 -0.007740 -0.004710 
#    y -0.007740 1.889070 0.012140 
#    z -0.004710 0.012140 1.915360 
# 
# From -- ./inp_files/262824.got.cif
#   From: 2010.06.25/outbox.cif.g09.slc.cpg/sg2_132_cif.got.tgz:262824.got - 2010.06.27 13:26:56.
