data_PCOD8007336
_publ_section_title
;
Structure prediction by ZEFSAII (Michael W. Deem and Ramdas Pophale) SiO2 
 PCOD8007336
Probable space group: P -1
;
_chemical_formula_sum "Si O2"
_cell_formula_units_Z 12
_cell_length_a 10.876561
_cell_length_b 9.178665
_cell_length_c 7.796600
_cell_angle_alpha 72.753242
_cell_angle_beta 125.822047
_cell_angle_gamma 86.957613
_cell_volume 576.358378
_symmetry_space_group_name_H-M "P -1"
_symmetry_group_IT_number 2
_symmetry_cell_setting 'triclinic'
loop_
_space_group_symop_operation_xyz
x,y,z
-x,-y,-z
loop_
_atom_site_type_symbol
_atom_site_label
_atom_site_fract_x
_atom_site_fract_y
_atom_site_fract_z
Si Si1 0.436595 0.789821 0.091863
Si Si2 0.325557 0.262377 0.010358
Si Si3 0.359888 0.220109 0.420585
Si Si4 0.249400 0.544791 0.075565
Si Si5 0.866525 0.929753 0.243664
Si Si6 0.043317 0.166849 0.280069
O O1 0.507288 0.843538 0.304872
O O2 0.384181 0.633498 0.139806
O O3 0.565271 0.756917 0.058939
O O4 0.290940 0.937185 0.863881
O O5 0.423534 0.175819 0.291510
O O6 0.248975 0.449587 0.928720
O O7 0.179396 0.190182 0.883214
O O8 0.294274 0.414826 0.312098
O O9 0.215747 0.145396 0.353265
O O10 0.078513 0.665895 0.935959
O O11 0.955360 0.831556 0.512780
O O12 0.981932 0.019214 0.215266
#
# Coordination Sequence:
#
# PCOD8007336 Si02
#       6
#     2   2   2   2   2   2
#     4  11  20  42  60  83 122 148 190 239 283 345
#     4  10  22  36  61  92 109 150 198 230 292 330
#     4  10  22  36  65  84 116 149 193 239 284 335
#     4   9  22  38  61  87 114 152 193 234 287 338
#     4  10  22  38  62  83 115 161 185 233 294 333
#     4  10  20  41  60  82 119 155 190 232 289 344
#
# _framework density 20.82038
#
# number of rings (size 3 to 8) (size 9 to 14) (size 15 to 20)
#    1.000    1.000    1.667    2.000    0.000    2.000 
#    0.000    0.000    7.333    0.000    0.000    0.000 
#    0.000    0.000    0.000    0.000    0.000    0.000 
#
# Total GULP energy -148727.991451 kJ/mol
# GULP energy per Si atom -12393.999288 kJ/mol
# Density = 2.077299 g / cm^3
# Si number density = 20.820380 Si / 1000 Ang^3
#
#
#
# Elastic Constant Matrix: (Units=GPa)
#
#
# Indices 1 2 3 4 5 6 
#
# 1 66.9288 38.4972 19.9798 13.7812 0.8893 24.4727
# 2 38.4972 71.6994 0.5978 27.8990 14.6380 23.1310
# 3 19.9798 0.5978 67.7434 15.7780 -0.3756 6.8063
# 4 13.7812 27.8990 15.7780 33.1063 4.0041 0.8962
# 5 0.8893 14.6380 -0.3756 4.0041 24.9152 8.8033
# 6 24.4727 23.1310 6.8063 0.8962 8.8033 29.1141
#
#
#
# Elastic Compliance Matrix: (Units=1/GPa)
#
#
# Indices 1 2 3 4 5 6 
#
# 1 0.031328 -0.014821 -0.007834 0.002057 0.013055 -0.016738
# 2 -0.014821 0.046701 0.015148 -0.038287 -0.012298 -0.023289
# 3 -0.007834 0.015148 0.022493 -0.019757 -0.001721 -0.009580
# 4 0.002057 -0.038287 -0.019757 0.070208 -0.000185 0.031204
# 5 0.013055 -0.012298 -0.001721 -0.000185 0.052824 -0.016767
# 6 -0.016738 -0.023289 -0.009580 0.031204 -0.016767 0.073270
#
#
# Mechanical properties :
#
#
# Convention : Reuss Voigt Hill
#
# Bulk Modulus (GPa) = 11.69484 36.05793 23.87639
# Shear Modulus (GPa) = 14.69120 27.24690 20.96905
#
# Velocity S-wave (km/s) = 2.65923 3.62147 3.17699
# Velocity P-wave (km/s) = 3.88044 5.90279 4.99504
#
# Compressibility (1/GPa) = 0.08550776
#
# Stress axis : x y z
#
# Youngs Moduli (GPa) = 31.91995 21.41293 44.45841
#
# Poissons Ratio (x) = 0.31737 0.34829
# Poissons Ratio (y) = 0.47310 -0.67347
# Poissons Ratio (z) = 0.25006 -0.32437
#
# Static dielectric constant tensor:
#      x y z
#    x 3.471580 0.404770 -0.013390 
#    y 0.404770 3.871420 0.051050 
#    z -0.013390 0.051050 3.684730 
# 
# 
# High freq. dielectric constant tensor:
#      x y z
#    x 1.799140 0.029890 -0.001280 
#    y 0.029890 1.820130 0.002250 
#    z -0.001280 0.002250 1.810570 
# 
# From -- ./inp_files/150944.got.cif
#   From: 2010.06.25/outbox.cif.g09.slc.cpg/sg2_76_cif.got.tgz:150944.got - 2010.06.27 13:26:56.
